# generated using pymatgen
data_TbThCo3Ni5B2
_symmetry_space_group_name_H-M   'P 1'
_cell_length_a   5.00133200
_cell_length_b   5.00133274
_cell_length_c   6.98477700
_cell_angle_alpha   90.00000000
_cell_angle_beta   90.00000000
_cell_angle_gamma   119.99998186
_symmetry_Int_Tables_number   1
_chemical_formula_structural   TbThCo3Ni5B2
_chemical_formula_sum   'Tb1 Th1 Co3 Ni5 B2'
_cell_volume   151.30549152
_cell_formula_units_Z   1
loop_
 _symmetry_equiv_pos_site_id
 _symmetry_equiv_pos_as_xyz
  1  'x, y, z'
loop_
 _atom_site_type_symbol
 _atom_site_label
 _atom_site_symmetry_multiplicity
 _atom_site_fract_x
 _atom_site_fract_y
 _atom_site_fract_z
 _atom_site_occupancy
  Tb  Tb0  1  0.000000  0.000000  0.498624  1
  Th  Th1  1  0.000000  0.000000  0.009562  1
  Co  Co2  1  0.500000  0.000000  0.293471  1
  Co  Co3  1  0.500000  0.500000  0.293471  1
  Co  Co4  1  0.000000  0.500000  0.293471  1
  Ni  Ni5  1  0.333333  0.666667  0.000918  1
  Ni  Ni6  1  0.666667  0.333333  0.000918  1
  Ni  Ni7  1  0.500000  0.000000  0.706087  1
  Ni  Ni8  1  0.500000  0.500000  0.706087  1
  Ni  Ni9  1  0.000000  0.500000  0.706087  1
  B  B10  1  0.666667  0.333333  0.495652  1
  B  B11  1  0.333333  0.666667  0.495652  1
