# generated using pymatgen
data_Er10In8CuPdPt2
_symmetry_space_group_name_H-M   'P 1'
_cell_length_a   3.59510500
_cell_length_b   8.08561346
_cell_length_c   18.11415307
_cell_angle_alpha   90.02561481
_cell_angle_beta   90.00000000
_cell_angle_gamma   90.00000000
_symmetry_Int_Tables_number   1
_chemical_formula_structural   Er10In8CuPdPt2
_chemical_formula_sum   'Er10 In8 Cu1 Pd1 Pt2'
_cell_volume   526.55354936
_cell_formula_units_Z   1
loop_
 _symmetry_equiv_pos_site_id
 _symmetry_equiv_pos_as_xyz
  1  'x, y, z'
loop_
 _atom_site_type_symbol
 _atom_site_label
 _atom_site_symmetry_multiplicity
 _atom_site_fract_x
 _atom_site_fract_y
 _atom_site_fract_z
 _atom_site_occupancy
  Er  Er0  1  0.000000  0.118520  0.415180  1
  Er  Er1  1  0.000000  0.882702  0.583896  1
  Er  Er2  1  0.000000  0.382788  0.915732  1
  Er  Er3  1  0.000000  0.617085  0.084604  1
  Er  Er4  1  0.000000  0.246503  0.220072  1
  Er  Er5  1  0.000000  0.753005  0.780759  1
  Er  Er6  1  0.000000  0.260759  0.720368  1
  Er  Er7  1  0.000000  0.739033  0.279383  1
  Er  Er8  1  0.000000  0.999321  0.999776  1
  Er  Er9  1  0.000000  0.498261  0.499761  1
  In  In10  1  0.500000  0.420959  0.352050  1
  In  In11  1  0.500000  0.579197  0.648076  1
  In  In12  1  0.500000  0.074954  0.850421  1
  In  In13  1  0.500000  0.925344  0.150610  1
  In  In14  1  0.500000  0.291917  0.066567  1
  In  In15  1  0.500000  0.708335  0.933834  1
  In  In16  1  0.500000  0.207458  0.567307  1
  In  In17  1  0.500000  0.793678  0.431934  1
  Cu  Cu18  1  0.500000  0.025461  0.302518  1
  Pd  Pd19  1  0.500000  0.974333  0.696078  1
  Pt  Pt20  1  0.500000  0.474031  0.803698  1
  Pt  Pt21  1  0.500000  0.526355  0.197379  1
