# generated using pymatgen
data_Cs2FeAs2O7
_symmetry_space_group_name_H-M   'P 1'
_cell_length_a   6.50157900
_cell_length_b   8.65138700
_cell_length_c   8.65141800
_cell_angle_alpha   90.00000000
_cell_angle_beta   90.00000000
_cell_angle_gamma   90.00000000
_symmetry_Int_Tables_number   1
_chemical_formula_structural   Cs2FeAs2O7
_chemical_formula_sum   'Cs4 Fe2 As4 O14'
_cell_volume   486.62215695
_cell_formula_units_Z   2
loop_
 _symmetry_equiv_pos_site_id
 _symmetry_equiv_pos_as_xyz
  1  'x, y, z'
loop_
 _atom_site_type_symbol
 _atom_site_label
 _atom_site_symmetry_multiplicity
 _atom_site_fract_x
 _atom_site_fract_y
 _atom_site_fract_z
 _atom_site_occupancy
  Cs  Cs0  1  0.510016  0.333984  0.166017  1
  Cs  Cs1  1  0.489983  0.833985  0.333983  1
  Cs  Cs2  1  0.489983  0.166016  0.666016  1
  Cs  Cs3  1  0.510016  0.666015  0.833984  1
  Fe  Fe4  1  0.999954  0.000000  0.000000  1
  Fe  Fe5  1  0.000046  0.500000  0.500000  1
  As  As6  1  0.025250  0.637331  0.137334  1
  As  As7  1  0.974749  0.137331  0.362666  1
  As  As8  1  0.974749  0.862669  0.637334  1
  As  As9  1  0.025250  0.362669  0.862666  1
  O  O10  1  0.132156  0.500000  0.000000  1
  O  O11  1  0.143917  0.805027  0.077145  1
  O  O12  1  0.766978  0.637214  0.137212  1
  O  O13  1  0.856080  0.077138  0.194977  1
  O  O14  1  0.143920  0.577138  0.305024  1
  O  O15  1  0.233021  0.137215  0.362789  1
  O  O16  1  0.856083  0.305027  0.422854  1
  O  O17  1  0.867841  0.000000  0.500000  1
  O  O18  1  0.856083  0.694974  0.577145  1
  O  O19  1  0.233021  0.862786  0.637211  1
  O  O20  1  0.143920  0.422861  0.694977  1
  O  O21  1  0.856080  0.922861  0.805024  1
  O  O22  1  0.766978  0.362786  0.862789  1
  O  O23  1  0.143917  0.194974  0.922854  1
