# generated using pymatgen
data_Zr4Zn2B4(IrRu)5
_symmetry_space_group_name_H-M   'P 1'
_cell_length_a   9.43447024
_cell_length_b   9.45553324
_cell_length_c   3.08861700
_cell_angle_alpha   90.00000000
_cell_angle_beta   90.00000000
_cell_angle_gamma   89.92111433
_symmetry_Int_Tables_number   1
_chemical_formula_structural   Zr4Zn2B4(IrRu)5
_chemical_formula_sum   'Zr4 Zn2 B4 Ir5 Ru5'
_cell_volume   275.52892024
_cell_formula_units_Z   1
loop_
 _symmetry_equiv_pos_site_id
 _symmetry_equiv_pos_as_xyz
  1  'x, y, z'
loop_
 _atom_site_type_symbol
 _atom_site_label
 _atom_site_symmetry_multiplicity
 _atom_site_fract_x
 _atom_site_fract_y
 _atom_site_fract_z
 _atom_site_occupancy
  Zr  Zr0  1  0.670912  0.174815  0.000000  1
  Zr  Zr1  1  0.327467  0.820493  0.000000  1
  Zr  Zr2  1  0.180215  0.328388  0.000000  1
  Zr  Zr3  1  0.822427  0.676111  0.000000  1
  Zn  Zn4  1  0.000501  0.000062  0.000000  1
  Zn  Zn5  1  0.497873  0.500331  0.000000  1
  B  B6  1  0.125514  0.623513  0.000000  1
  B  B7  1  0.877052  0.376284  0.000000  1
  B  B8  1  0.621881  0.873480  0.000000  1
  B  B9  1  0.377552  0.125797  0.000000  1
  Ir  Ir10  1  0.217357  0.069695  0.500000  1
  Ir  Ir11  1  0.782783  0.932398  0.500000  1
  Ir  Ir12  1  0.068173  0.782969  0.500000  1
  Ir  Ir13  1  0.716389  0.430552  0.500000  1
  Ir  Ir14  1  0.930946  0.217451  0.500000  1
  Ru  Ru15  1  0.281714  0.570186  0.500000  1
  Ru  Ru16  1  0.571223  0.716174  0.500000  1
  Ru  Ru17  1  0.431737  0.282418  0.500000  1
  Ru  Ru18  1  0.499267  0.998536  0.500000  1
  Ru  Ru19  1  0.999018  0.500349  0.500000  1
