# generated using pymatgen
data_Dy3Y5Sc12Si15Ge
_symmetry_space_group_name_H-M   'P 1'
_cell_length_a   7.10709794
_cell_length_b   7.39120397
_cell_length_c   14.01004283
_cell_angle_alpha   90.01342082
_cell_angle_beta   89.87604847
_cell_angle_gamma   90.02893924
_symmetry_Int_Tables_number   1
_chemical_formula_structural   Dy3Y5Sc12Si15Ge
_chemical_formula_sum   'Dy3 Y5 Sc12 Si15 Ge1'
_cell_volume   735.94586091
_cell_formula_units_Z   1
loop_
 _symmetry_equiv_pos_site_id
 _symmetry_equiv_pos_as_xyz
  1  'x, y, z'
loop_
 _atom_site_type_symbol
 _atom_site_label
 _atom_site_symmetry_multiplicity
 _atom_site_fract_x
 _atom_site_fract_y
 _atom_site_fract_z
 _atom_site_occupancy
  Dy  Dy0  1  0.011193  0.174792  0.402397  1
  Dy  Dy1  1  0.512737  0.323759  0.402293  1
  Dy  Dy2  1  0.490276  0.676697  0.597409  1
  Y  Y3  1  0.012147  0.175211  0.096934  1
  Y  Y4  1  0.987962  0.824885  0.903089  1
  Y  Y5  1  0.488232  0.675311  0.903010  1
  Y  Y6  1  0.987417  0.825802  0.597000  1
  Y  Y7  1  0.511907  0.324826  0.097018  1
  Sc  Sc8  1  0.160642  0.502080  0.751213  1
  Sc  Sc9  1  0.839147  0.498127  0.250070  1
  Sc  Sc10  1  0.339336  0.002074  0.250083  1
  Sc  Sc11  1  0.660707  0.998060  0.750034  1
  Sc  Sc12  1  0.332703  0.174296  0.626104  1
  Sc  Sc13  1  0.668695  0.823672  0.374415  1
  Sc  Sc14  1  0.168099  0.677307  0.374204  1
  Sc  Sc15  1  0.669139  0.823087  0.125305  1
  Sc  Sc16  1  0.829751  0.323319  0.625296  1
  Sc  Sc17  1  0.331078  0.176560  0.874652  1
  Sc  Sc18  1  0.830733  0.323147  0.874673  1
  Sc  Sc19  1  0.169002  0.676774  0.125371  1
  Si  Si20  1  0.033513  0.117955  0.750049  1
  Si  Si21  1  0.966466  0.882775  0.249787  1
  Si  Si22  1  0.466247  0.617577  0.249942  1
  Si  Si23  1  0.533104  0.382712  0.750027  1
  Si  Si24  1  0.285436  0.873609  0.750002  1
  Si  Si25  1  0.714639  0.125972  0.249974  1
  Si  Si26  1  0.214396  0.374053  0.250148  1
  Si  Si27  1  0.785661  0.625870  0.749933  1
  Si  Si28  1  0.837510  0.536258  0.459573  1
  Si  Si29  1  0.341928  0.964625  0.460456  1
  Si  Si30  1  0.842576  0.535481  0.039534  1
  Si  Si31  1  0.657648  0.035877  0.539424  1
  Si  Si32  1  0.157285  0.464503  0.960526  1
  Si  Si33  1  0.657241  0.035607  0.960473  1
  Si  Si34  1  0.342637  0.964382  0.039539  1
  Ge  Ge35  1  0.162811  0.462959  0.540042  1
