# generated using pymatgen
data_Ho6Tm4Si5Pb
_symmetry_space_group_name_H-M   'P 1'
_cell_length_a   8.49019700
_cell_length_b   8.49019661
_cell_length_c   6.32481500
_cell_angle_alpha   90.00000000
_cell_angle_beta   90.00000000
_cell_angle_gamma   120.20173301
_symmetry_Int_Tables_number   1
_chemical_formula_structural   Ho6Tm4Si5Pb
_chemical_formula_sum   'Ho6 Tm4 Si5 Pb1'
_cell_volume   394.02842022
_cell_formula_units_Z   1
loop_
 _symmetry_equiv_pos_site_id
 _symmetry_equiv_pos_as_xyz
  1  'x, y, z'
loop_
 _atom_site_type_symbol
 _atom_site_label
 _atom_site_symmetry_multiplicity
 _atom_site_fract_x
 _atom_site_fract_y
 _atom_site_fract_z
 _atom_site_occupancy
  Ho  Ho0  1  0.767029  0.767029  0.250000  1
  Ho  Ho1  1  0.240046  0.987441  0.250000  1
  Ho  Ho2  1  0.987441  0.240046  0.250000  1
  Ho  Ho3  1  0.240062  0.240062  0.750000  1
  Ho  Ho4  1  0.755992  0.998424  0.750000  1
  Ho  Ho5  1  0.998424  0.755992  0.750000  1
  Tm  Tm6  1  0.675157  0.331264  0.503853  1
  Tm  Tm7  1  0.331264  0.675157  0.503853  1
  Tm  Tm8  1  0.331264  0.675157  0.996147  1
  Tm  Tm9  1  0.675157  0.331264  0.996147  1
  Si  Si10  1  0.603413  0.998362  0.250000  1
  Si  Si11  1  0.998362  0.603413  0.250000  1
  Si  Si12  1  0.605515  0.605515  0.750000  1
  Si  Si13  1  0.394167  0.001606  0.750000  1
  Si  Si14  1  0.001606  0.394167  0.750000  1
  Pb  Pb15  1  0.395099  0.395099  0.250000  1
