# generated using pymatgen
data_La3TiCuS7
_symmetry_space_group_name_H-M   'P 1'
_cell_length_a   10.17453300
_cell_length_b   10.17436748
_cell_length_c   6.24541900
_cell_angle_alpha   90.00000000
_cell_angle_beta   90.00000000
_cell_angle_gamma   120.00017691
_symmetry_Int_Tables_number   1
_chemical_formula_structural   La3TiCuS7
_chemical_formula_sum   'La6 Ti2 Cu2 S14'
_cell_volume   559.90370585
_cell_formula_units_Z   2
loop_
 _symmetry_equiv_pos_site_id
 _symmetry_equiv_pos_as_xyz
  1  'x, y, z'
loop_
 _atom_site_type_symbol
 _atom_site_label
 _atom_site_symmetry_multiplicity
 _atom_site_fract_x
 _atom_site_fract_y
 _atom_site_fract_z
 _atom_site_occupancy
  La  La0  1  0.638829  0.783813  0.238377  1
  La  La1  1  0.216174  0.855017  0.238377  1
  La  La2  1  0.144976  0.361162  0.238354  1
  La  La3  1  0.361171  0.216187  0.738376  1
  La  La4  1  0.783826  0.144983  0.738377  1
  La  La5  1  0.855024  0.638838  0.738354  1
  Ti  Ti6  1  0.666671  0.333335  0.161608  1
  Ti  Ti7  1  0.333329  0.666665  0.661608  1
  Cu  Cu8  1  0.000005  0.999995  0.331079  1
  Cu  Cu9  1  0.999995  0.000005  0.831079  1
  S  S10  1  0.333334  0.666669  0.028065  1
  S  S11  1  0.897225  0.747653  0.298221  1
  S  S12  1  0.252340  0.149574  0.298234  1
  S  S13  1  0.850424  0.102764  0.298227  1
  S  S14  1  0.427237  0.527388  0.513487  1
  S  S15  1  0.472604  0.899852  0.513489  1
  S  S16  1  0.100144  0.572755  0.513479  1
  S  S17  1  0.666666  0.333331  0.528065  1
  S  S18  1  0.102775  0.252347  0.798221  1
  S  S19  1  0.747660  0.850426  0.798234  1
  S  S20  1  0.149576  0.897236  0.798227  1
  S  S21  1  0.527397  0.100148  0.013489  1
  S  S22  1  0.572762  0.472612  0.013487  1
  S  S23  1  0.899856  0.427245  0.013479  1
