# generated using pymatgen
data_PrTm(CuP)3
_symmetry_space_group_name_H-M   'P 1'
_cell_length_a   3.92757000
_cell_length_b   10.75137200
_cell_length_c   12.93095400
_cell_angle_alpha   90.00000000
_cell_angle_beta   90.00000000
_cell_angle_gamma   90.00000000
_symmetry_Int_Tables_number   1
_chemical_formula_structural   PrTm(CuP)3
_chemical_formula_sum   'Pr4 Tm4 Cu12 P12'
_cell_volume   546.03237034
_cell_formula_units_Z   4
loop_
 _symmetry_equiv_pos_site_id
 _symmetry_equiv_pos_as_xyz
  1  'x, y, z'
loop_
 _atom_site_type_symbol
 _atom_site_label
 _atom_site_symmetry_multiplicity
 _atom_site_fract_x
 _atom_site_fract_y
 _atom_site_fract_z
 _atom_site_occupancy
  Pr  Pr0  1  0.250000  0.932332  0.792126  1
  Pr  Pr1  1  0.750000  0.432332  0.707874  1
  Pr  Pr2  1  0.250000  0.567668  0.292126  1
  Pr  Pr3  1  0.750000  0.067668  0.207874  1
  Tm  Tm4  1  0.250000  0.842408  0.502699  1
  Tm  Tm5  1  0.750000  0.342408  0.997301  1
  Tm  Tm6  1  0.250000  0.657592  0.002699  1
  Tm  Tm7  1  0.750000  0.157592  0.497301  1
  Cu  Cu8  1  0.250000  0.403661  0.510898  1
  Cu  Cu9  1  0.750000  0.903661  0.989102  1
  Cu  Cu10  1  0.250000  0.096339  0.010898  1
  Cu  Cu11  1  0.750000  0.596339  0.489102  1
  Cu  Cu12  1  0.250000  0.270530  0.332113  1
  Cu  Cu13  1  0.750000  0.770530  0.167887  1
  Cu  Cu14  1  0.250000  0.229470  0.832113  1
  Cu  Cu15  1  0.750000  0.729470  0.667887  1
  Cu  Cu16  1  0.250000  0.858601  0.283117  1
  Cu  Cu17  1  0.750000  0.358601  0.216883  1
  Cu  Cu18  1  0.250000  0.641399  0.783117  1
  Cu  Cu19  1  0.750000  0.141399  0.716883  1
  P  P20  1  0.250000  0.237217  0.640621  1
  P  P21  1  0.750000  0.737217  0.859379  1
  P  P22  1  0.250000  0.262783  0.140621  1
  P  P23  1  0.750000  0.762783  0.359379  1
  P  P24  1  0.250000  0.609223  0.600046  1
  P  P25  1  0.750000  0.109223  0.899954  1
  P  P26  1  0.250000  0.890777  0.100046  1
  P  P27  1  0.750000  0.390777  0.399954  1
  P  P28  1  0.250000  0.057440  0.375907  1
  P  P29  1  0.750000  0.557440  0.124093  1
  P  P30  1  0.250000  0.442560  0.875907  1
  P  P31  1  0.750000  0.942560  0.624093  1
