# generated using pymatgen
data_Yb5Fe2N7
_symmetry_space_group_name_H-M   'P 1'
_cell_length_a   5.92853156
_cell_length_b   8.39972857
_cell_length_c   8.41898413
_cell_angle_alpha   114.51864094
_cell_angle_beta   98.01023024
_cell_angle_gamma   90.37896529
_symmetry_Int_Tables_number   1
_chemical_formula_structural   Yb5Fe2N7
_chemical_formula_sum   'Yb10 Fe4 N14'
_cell_volume   376.75464377
_cell_formula_units_Z   2
loop_
 _symmetry_equiv_pos_site_id
 _symmetry_equiv_pos_as_xyz
  1  'x, y, z'
loop_
 _atom_site_type_symbol
 _atom_site_label
 _atom_site_symmetry_multiplicity
 _atom_site_fract_x
 _atom_site_fract_y
 _atom_site_fract_z
 _atom_site_occupancy
  Yb  Yb0  1  0.848380  0.590807  0.333822  1
  Yb  Yb1  1  0.271424  0.991309  0.583169  1
  Yb  Yb2  1  0.716314  0.414751  0.853202  1
  Yb  Yb3  1  0.283686  0.585249  0.146798  1
  Yb  Yb4  1  0.403781  0.786798  0.914268  1
  Yb  Yb5  1  0.596219  0.213202  0.085732  1
  Yb  Yb6  1  0.151620  0.409193  0.666178  1
  Yb  Yb7  1  0.893807  0.850121  0.770794  1
  Yb  Yb8  1  0.106193  0.149879  0.229206  1
  Yb  Yb9  1  0.728576  0.008691  0.416831  1
  Fe  Fe10  1  0.576197  0.357566  0.475592  1
  Fe  Fe11  1  0.423803  0.642434  0.524408  1
  Fe  Fe12  1  0.118293  0.219701  0.910937  1
  Fe  Fe13  1  0.881707  0.780299  0.089063  1
  N  N14  1  0.544433  0.551969  0.675165  1
  N  N15  1  0.455567  0.448031  0.324835  1
  N  N16  1  0.159046  0.703542  0.578524  1
  N  N17  1  0.840954  0.296458  0.421476  1
  N  N18  1  0.411161  0.186804  0.470599  1
  N  N19  1  0.588839  0.813196  0.529401  1
  N  N20  1  0.942446  0.145628  0.709400  1
  N  N21  1  0.057554  0.854372  0.290600  1
  N  N22  1  0.234903  0.045106  0.948009  1
  N  N23  1  0.765097  0.954894  0.051991  1
  N  N24  1  0.358741  0.329866  0.894569  1
  N  N25  1  0.969990  0.350102  0.081226  1
  N  N26  1  0.030010  0.649898  0.918774  1
  N  N27  1  0.641259  0.670134  0.105431  1
