# generated using pymatgen
data_TmLu11Co5Bi
_symmetry_space_group_name_H-M   'P 1'
_cell_length_a   8.13801643
_cell_length_b   8.13665207
_cell_length_c   8.13801609
_cell_angle_alpha   111.09500634
_cell_angle_beta   111.06444412
_cell_angle_gamma   106.30641440
_symmetry_Int_Tables_number   1
_chemical_formula_structural   TmLu11Co5Bi
_chemical_formula_sum   'Tm1 Lu11 Co5 Bi1'
_cell_volume   413.84392483
_cell_formula_units_Z   1
loop_
 _symmetry_equiv_pos_site_id
 _symmetry_equiv_pos_as_xyz
  1  'x, y, z'
loop_
 _atom_site_type_symbol
 _atom_site_label
 _atom_site_symmetry_multiplicity
 _atom_site_fract_x
 _atom_site_fract_y
 _atom_site_fract_z
 _atom_site_occupancy
  Tm  Tm0  1  0.788433  0.984751  0.196318  1
  Lu  Lu1  1  0.285101  0.182853  0.467560  1
  Lu  Lu2  1  0.715446  0.817335  0.533072  1
  Lu  Lu3  1  0.284264  0.817335  0.101889  1
  Lu  Lu4  1  0.715292  0.182853  0.897752  1
  Lu  Lu5  1  0.619717  0.311566  0.308836  1
  Lu  Lu6  1  0.379752  0.688601  0.690863  1
  Lu  Lu7  1  0.002730  0.311566  0.691849  1
  Lu  Lu8  1  0.997738  0.688601  0.308849  1
  Lu  Lu9  1  0.211240  0.407593  0.196353  1
  Lu  Lu10  1  0.789009  0.592211  0.803201  1
  Lu  Lu11  1  0.210920  0.014489  0.803569  1
  Co  Co12  1  0.000341  0.375624  0.375283  1
  Co  Co13  1  0.999919  0.624945  0.625026  1
  Co  Co14  1  0.387077  0.887075  0.499997  1
  Co  Co15  1  0.612737  0.112858  0.500121  1
  Co  Co16  1  0.000422  0.000045  0.999623  1
  Bi  Bi17  1  0.499861  0.499699  0.999838  1
