# generated using pymatgen
data_Sm8Si15Ag
_symmetry_space_group_name_H-M   'P 1'
_cell_length_a   8.23779000
_cell_length_b   8.23779051
_cell_length_c   8.22754500
_cell_angle_alpha   90.00000000
_cell_angle_beta   90.00000000
_cell_angle_gamma   119.99999795
_symmetry_Int_Tables_number   1
_chemical_formula_structural   Sm8Si15Ag
_chemical_formula_sum   'Sm8 Si15 Ag1'
_cell_volume   483.52882270
_cell_formula_units_Z   1
loop_
 _symmetry_equiv_pos_site_id
 _symmetry_equiv_pos_as_xyz
  1  'x, y, z'
loop_
 _atom_site_type_symbol
 _atom_site_label
 _atom_site_symmetry_multiplicity
 _atom_site_fract_x
 _atom_site_fract_y
 _atom_site_fract_z
 _atom_site_occupancy
  Sm  Sm0  1  0.496331  0.503669  0.756611  1
  Sm  Sm1  1  0.496567  0.503433  0.243375  1
  Sm  Sm2  1  0.007338  0.503669  0.756611  1
  Sm  Sm3  1  0.006866  0.503433  0.243375  1
  Sm  Sm4  1  0.496331  0.992662  0.756611  1
  Sm  Sm5  1  0.496567  0.993134  0.243375  1
  Sm  Sm6  1  0.000000  0.000000  0.751583  1
  Sm  Sm7  1  0.000000  0.000000  0.248430  1
  Si  Si8  1  0.666667  0.333333  0.999420  1
  Si  Si9  1  0.333333  0.666667  0.000444  1
  Si  Si10  1  0.333333  0.666667  0.499778  1
  Si  Si11  1  0.833316  0.166684  0.000040  1
  Si  Si12  1  0.166796  0.833204  0.999984  1
  Si  Si13  1  0.333369  0.166684  0.000040  1
  Si  Si14  1  0.165995  0.834005  0.499856  1
  Si  Si15  1  0.666408  0.833204  0.999984  1
  Si  Si16  1  0.836814  0.163186  0.500120  1
  Si  Si17  1  0.833316  0.666631  0.000040  1
  Si  Si18  1  0.668012  0.834005  0.499856  1
  Si  Si19  1  0.166796  0.333592  0.999984  1
  Si  Si20  1  0.326372  0.163186  0.500120  1
  Si  Si21  1  0.165995  0.331988  0.499856  1
  Si  Si22  1  0.836814  0.673628  0.500120  1
  Ag  Ag23  1  0.666667  0.333333  0.500382  1
