# generated using pymatgen
data_Ca3LaSc2(RuO6)2
_symmetry_space_group_name_H-M   'P 1'
_cell_length_a   5.52581013
_cell_length_b   5.69705263
_cell_length_c   7.91564371
_cell_angle_alpha   89.90501544
_cell_angle_beta   89.71894646
_cell_angle_gamma   89.94486084
_symmetry_Int_Tables_number   1
_chemical_formula_structural   Ca3LaSc2(RuO6)2
_chemical_formula_sum   'Ca3 La1 Sc2 Ru2 O12'
_cell_volume   249.18758937
_cell_formula_units_Z   1
loop_
 _symmetry_equiv_pos_site_id
 _symmetry_equiv_pos_as_xyz
  1  'x, y, z'
loop_
 _atom_site_type_symbol
 _atom_site_label
 _atom_site_symmetry_multiplicity
 _atom_site_fract_x
 _atom_site_fract_y
 _atom_site_fract_z
 _atom_site_occupancy
  Ca  Ca0  1  0.486312  0.446179  0.250347  1
  Ca  Ca1  1  0.513047  0.552835  0.749684  1
  Ca  Ca2  1  0.986502  0.055212  0.750143  1
  La  La3  1  0.011885  0.949303  0.249201  1
  Sc  Sc4  1  0.999317  0.498080  0.994303  1
  Sc  Sc5  1  0.500826  0.001326  0.506576  1
  Ru  Ru6  1  0.999836  0.499581  0.502312  1
  Ru  Ru7  1  0.500809  0.999753  0.997207  1
  O  O8  1  0.095775  0.469570  0.742064  1
  O  O9  1  0.209342  0.200031  0.044750  1
  O  O10  1  0.196547  0.211450  0.452617  1
  O  O11  1  0.304018  0.711845  0.052090  1
  O  O12  1  0.290010  0.699894  0.450087  1
  O  O13  1  0.405159  0.966785  0.757959  1
  O  O14  1  0.585234  0.030269  0.244764  1
  O  O15  1  0.710417  0.301273  0.549074  1
  O  O16  1  0.695371  0.287578  0.948562  1
  O  O17  1  0.795371  0.804175  0.953847  1
  O  O18  1  0.808358  0.791692  0.548692  1
  O  O19  1  0.905865  0.523169  0.255722  1
