# generated using pymatgen
data_Dy3Er2PPb3
_symmetry_space_group_name_H-M   'P 1'
_cell_length_a   9.12296700
_cell_length_b   9.12296609
_cell_length_c   6.78677600
_cell_angle_alpha   90.00000000
_cell_angle_beta   90.00000000
_cell_angle_gamma   119.99999241
_symmetry_Int_Tables_number   1
_chemical_formula_structural   Dy3Er2PPb3
_chemical_formula_sum   'Dy6 Er4 P2 Pb6'
_cell_volume   489.17735563
_cell_formula_units_Z   2
loop_
 _symmetry_equiv_pos_site_id
 _symmetry_equiv_pos_as_xyz
  1  'x, y, z'
loop_
 _atom_site_type_symbol
 _atom_site_label
 _atom_site_symmetry_multiplicity
 _atom_site_fract_x
 _atom_site_fract_y
 _atom_site_fract_z
 _atom_site_occupancy
  Dy  Dy0  1  0.762088  0.762088  0.250000  1
  Dy  Dy1  1  0.237912  0.000000  0.250000  1
  Dy  Dy2  1  0.000000  0.237912  0.250000  1
  Dy  Dy3  1  0.237912  0.237912  0.750000  1
  Dy  Dy4  1  0.762088  0.000000  0.750000  1
  Dy  Dy5  1  0.000000  0.762088  0.750000  1
  Er  Er6  1  0.666667  0.333333  0.500000  1
  Er  Er7  1  0.333333  0.666667  0.500000  1
  Er  Er8  1  0.333333  0.666667  0.000000  1
  Er  Er9  1  0.666667  0.333333  0.000000  1
  P  P10  1  0.000000  0.000000  0.500000  1
  P  P11  1  0.000000  0.000000  0.000000  1
  Pb  Pb12  1  0.401189  0.401189  0.250000  1
  Pb  Pb13  1  0.598811  0.000000  0.250000  1
  Pb  Pb14  1  0.000000  0.598811  0.250000  1
  Pb  Pb15  1  0.598811  0.598811  0.750000  1
  Pb  Pb16  1  0.401189  0.000000  0.750000  1
  Pb  Pb17  1  0.000000  0.401189  0.750000  1
