# generated using pymatgen
data_Y3HoCdPd
_symmetry_space_group_name_H-M   'P 1'
_cell_length_a   9.71542894
_cell_length_b   9.71547274
_cell_length_c   9.71542700
_cell_angle_alpha   59.99991711
_cell_angle_beta   59.99972548
_cell_angle_gamma   59.99987001
_symmetry_Int_Tables_number   1
_chemical_formula_structural   Y3HoCdPd
_chemical_formula_sum   'Y12 Ho4 Cd4 Pd4'
_cell_volume   648.44211381
_cell_formula_units_Z   4
loop_
 _symmetry_equiv_pos_site_id
 _symmetry_equiv_pos_as_xyz
  1  'x, y, z'
loop_
 _atom_site_type_symbol
 _atom_site_label
 _atom_site_symmetry_multiplicity
 _atom_site_fract_x
 _atom_site_fract_y
 _atom_site_fract_z
 _atom_site_occupancy
  Y  Y0  1  0.809600  0.190410  0.190412  1
  Y  Y1  1  0.190410  0.809588  0.809587  1
  Y  Y2  1  0.190406  0.809594  0.190415  1
  Y  Y3  1  0.809590  0.190413  0.809583  1
  Y  Y4  1  0.190406  0.190420  0.809592  1
  Y  Y5  1  0.809593  0.809582  0.190413  1
  Y  Y6  1  0.935358  0.564646  0.564641  1
  Y  Y7  1  0.564641  0.935356  0.935356  1
  Y  Y8  1  0.564643  0.935356  0.564648  1
  Y  Y9  1  0.935356  0.564642  0.935354  1
  Y  Y10  1  0.564645  0.564646  0.935352  1
  Y  Y11  1  0.935359  0.935355  0.564640  1
  Ho  Ho12  1  0.353349  0.353349  0.353351  1
  Ho  Ho13  1  0.353349  0.353347  0.939956  1
  Ho  Ho14  1  0.353351  0.939947  0.353352  1
  Ho  Ho15  1  0.939959  0.353349  0.353348  1
  Cd  Cd16  1  0.581999  0.582003  0.582000  1
  Cd  Cd17  1  0.581998  0.582002  0.253998  1
  Cd  Cd18  1  0.582000  0.253997  0.582001  1
  Cd  Cd19  1  0.253999  0.582001  0.582000  1
  Pd  Pd20  1  0.146045  0.146048  0.146045  1
  Pd  Pd21  1  0.146047  0.146042  0.561859  1
  Pd  Pd22  1  0.146042  0.561863  0.146045  1
  Pd  Pd23  1  0.561856  0.146043  0.146051  1
