# generated using pymatgen
data_Y4MnSi4Rh
_symmetry_space_group_name_H-M   'P 1'
_cell_length_a   5.72561486
_cell_length_b   5.72561512
_cell_length_c   10.08017080
_cell_angle_alpha   63.57456645
_cell_angle_beta   63.57456575
_cell_angle_gamma   43.03586312
_symmetry_Int_Tables_number   1
_chemical_formula_structural   Y4MnSi4Rh
_chemical_formula_sum   'Y4 Mn1 Si4 Rh1'
_cell_volume   198.04258436
_cell_formula_units_Z   1
loop_
 _symmetry_equiv_pos_site_id
 _symmetry_equiv_pos_as_xyz
  1  'x, y, z'
loop_
 _atom_site_type_symbol
 _atom_site_label
 _atom_site_symmetry_multiplicity
 _atom_site_fract_x
 _atom_site_fract_y
 _atom_site_fract_z
 _atom_site_occupancy
  Y  Y0  1  0.003176  0.003176  0.323312  1
  Y  Y1  1  0.185853  0.185853  0.891032  1
  Y  Y2  1  0.996237  0.996237  0.675070  1
  Y  Y3  1  0.812335  0.812335  0.111142  1
  Mn  Mn4  1  0.725220  0.725220  0.629287  1
  Si  Si5  1  0.361453  0.361453  0.562462  1
  Si  Si6  1  0.491571  0.491571  0.879820  1
  Si  Si7  1  0.640940  0.640940  0.436700  1
  Si  Si8  1  0.508571  0.508571  0.119992  1
  Rh  Rh9  1  0.274644  0.274644  0.371183  1
