# generated using pymatgen
data_Rb4HfS4
_symmetry_space_group_name_H-M   'P 1'
_cell_length_a   7.88438852
_cell_length_b   9.03544397
_cell_length_c   9.03548638
_cell_angle_alpha   89.20497194
_cell_angle_beta   80.49432939
_cell_angle_gamma   80.49438480
_symmetry_Int_Tables_number   1
_chemical_formula_structural   Rb4HfS4
_chemical_formula_sum   'Rb8 Hf2 S8'
_cell_volume   626.06427212
_cell_formula_units_Z   2
loop_
 _symmetry_equiv_pos_site_id
 _symmetry_equiv_pos_as_xyz
  1  'x, y, z'
loop_
 _atom_site_type_symbol
 _atom_site_label
 _atom_site_symmetry_multiplicity
 _atom_site_fract_x
 _atom_site_fract_y
 _atom_site_fract_z
 _atom_site_occupancy
  Rb  Rb0  1  0.546244  0.390560  0.028504  1
  Rb  Rb1  1  0.587920  0.949573  0.224627  1
  Rb  Rb2  1  0.475532  0.586521  0.385205  1
  Rb  Rb3  1  0.046231  0.028504  0.390569  1
  Rb  Rb4  1  0.975538  0.385209  0.586523  1
  Rb  Rb5  1  0.077263  0.787235  0.778573  1
  Rb  Rb6  1  0.577256  0.778571  0.787233  1
  Rb  Rb7  1  0.087915  0.224630  0.949579  1
  Hf  Hf8  1  0.029133  0.622501  0.204962  1
  Hf  Hf9  1  0.529130  0.204962  0.622500  1
  S  S10  1  0.831273  0.617539  0.028947  1
  S  S11  1  0.238383  0.786015  0.116208  1
  S  S12  1  0.181152  0.377981  0.243254  1
  S  S13  1  0.681138  0.243261  0.377982  1
  S  S14  1  0.864310  0.717832  0.442352  1
  S  S15  1  0.331270  0.028947  0.617531  1
  S  S16  1  0.364320  0.442354  0.717848  1
  S  S17  1  0.738387  0.116207  0.786007  1
