# generated using pymatgen
data_Rb3FeSe3
_symmetry_space_group_name_H-M   'P 1'
_cell_length_a   10.71461609
_cell_length_b   10.71461624
_cell_length_c   13.66791800
_cell_angle_alpha   90.00000000
_cell_angle_beta   90.00000000
_cell_angle_gamma   140.28055219
_symmetry_Int_Tables_number   1
_chemical_formula_structural   Rb3FeSe3
_chemical_formula_sum   'Rb12 Fe4 Se12'
_cell_volume   1002.71179655
_cell_formula_units_Z   4
loop_
 _symmetry_equiv_pos_site_id
 _symmetry_equiv_pos_as_xyz
  1  'x, y, z'
loop_
 _atom_site_type_symbol
 _atom_site_label
 _atom_site_symmetry_multiplicity
 _atom_site_fract_x
 _atom_site_fract_y
 _atom_site_fract_z
 _atom_site_occupancy
  Rb  Rb0  1  0.848668  0.848668  0.329380  1
  Rb  Rb1  1  0.151332  0.151332  0.670620  1
  Rb  Rb2  1  0.651332  0.651332  0.829380  1
  Rb  Rb3  1  0.348668  0.348668  0.170620  1
  Rb  Rb4  1  0.838794  0.485374  0.127345  1
  Rb  Rb5  1  0.514626  0.161206  0.872655  1
  Rb  Rb6  1  0.014626  0.661206  0.627345  1
  Rb  Rb7  1  0.338794  0.985374  0.372655  1
  Rb  Rb8  1  0.161206  0.514626  0.872655  1
  Rb  Rb9  1  0.485374  0.838794  0.127345  1
  Rb  Rb10  1  0.985374  0.338794  0.372655  1
  Rb  Rb11  1  0.661206  0.014626  0.627345  1
  Fe  Fe12  1  0.082207  0.917793  0.000000  1
  Fe  Fe13  1  0.582207  0.417793  0.500000  1
  Fe  Fe14  1  0.917793  0.082207  0.000000  1
  Fe  Fe15  1  0.417793  0.582207  0.500000  1
  Se  Se16  1  0.004898  0.304539  0.117308  1
  Se  Se17  1  0.695461  0.995102  0.882692  1
  Se  Se18  1  0.195461  0.495102  0.617308  1
  Se  Se19  1  0.504898  0.804539  0.382692  1
  Se  Se20  1  0.995102  0.695461  0.882692  1
  Se  Se21  1  0.304539  0.004898  0.117308  1
  Se  Se22  1  0.804539  0.504898  0.382692  1
  Se  Se23  1  0.495102  0.195461  0.617308  1
  Se  Se24  1  0.789730  0.789730  0.076837  1
  Se  Se25  1  0.210270  0.210270  0.923163  1
  Se  Se26  1  0.710270  0.710270  0.576837  1
  Se  Se27  1  0.289730  0.289730  0.423163  1
