# generated using pymatgen
data_V11FeSi3As
_symmetry_space_group_name_H-M   'P 1'
_cell_length_a   4.67929500
_cell_length_b   4.68078800
_cell_length_c   9.35660100
_cell_angle_alpha   90.00000000
_cell_angle_beta   90.00000000
_cell_angle_gamma   90.00000000
_symmetry_Int_Tables_number   1
_chemical_formula_structural   V11FeSi3As
_chemical_formula_sum   'V11 Fe1 Si3 As1'
_cell_volume   204.93564702
_cell_formula_units_Z   1
loop_
 _symmetry_equiv_pos_site_id
 _symmetry_equiv_pos_as_xyz
  1  'x, y, z'
loop_
 _atom_site_type_symbol
 _atom_site_label
 _atom_site_symmetry_multiplicity
 _atom_site_fract_x
 _atom_site_fract_y
 _atom_site_fract_z
 _atom_site_occupancy
  V  V0  1  0.002322  0.500000  0.130172  1
  V  V1  1  0.998130  0.500000  0.622373  1
  V  V2  1  0.499598  0.249908  0.745624  1
  V  V3  1  0.499598  0.249908  0.254376  1
  V  V4  1  0.755926  0.000000  0.000000  1
  V  V5  1  0.002322  0.500000  0.869828  1
  V  V6  1  0.998130  0.500000  0.377627  1
  V  V7  1  0.499598  0.750092  0.745624  1
  V  V8  1  0.499598  0.750092  0.254376  1
  V  V9  1  0.248081  0.000000  0.000000  1
  V  V10  1  0.248588  0.000000  0.500000  1
  Fe  Fe11  1  0.747264  0.000000  0.500000  1
  Si  Si12  1  0.496700  0.500000  0.500000  1
  Si  Si13  1  0.002155  0.000000  0.748705  1
  Si  Si14  1  0.002155  0.000000  0.251295  1
  As  As15  1  0.499839  0.500000  0.000000  1
