# generated using pymatgen
data_Tm8Ta3Si16Mo9
_symmetry_space_group_name_H-M   'P 1'
_cell_length_a   6.74040433
_cell_length_b   6.94761662
_cell_length_c   12.95137700
_cell_angle_alpha   90.00000000
_cell_angle_beta   90.00000000
_cell_angle_gamma   89.88518292
_symmetry_Int_Tables_number   1
_chemical_formula_structural   Tm8Ta3Si16Mo9
_chemical_formula_sum   'Tm8 Ta3 Si16 Mo9'
_cell_volume   606.50846565
_cell_formula_units_Z   1
loop_
 _symmetry_equiv_pos_site_id
 _symmetry_equiv_pos_as_xyz
  1  'x, y, z'
loop_
 _atom_site_type_symbol
 _atom_site_label
 _atom_site_symmetry_multiplicity
 _atom_site_fract_x
 _atom_site_fract_y
 _atom_site_fract_z
 _atom_site_occupancy
  Tm  Tm0  1  0.496560  0.330022  0.093944  1
  Tm  Tm1  1  0.999072  0.169190  0.405970  1
  Tm  Tm2  1  0.500940  0.670352  0.593862  1
  Tm  Tm3  1  0.000915  0.828662  0.905964  1
  Tm  Tm4  1  0.500940  0.670352  0.906138  1
  Tm  Tm5  1  0.000915  0.828662  0.594036  1
  Tm  Tm6  1  0.496560  0.330022  0.406056  1
  Tm  Tm7  1  0.999072  0.169190  0.094030  1
  Ta  Ta8  1  0.660569  0.006408  0.750000  1
  Ta  Ta9  1  0.160510  0.493221  0.750000  1
  Ta  Ta10  1  0.338993  0.996645  0.250000  1
  Si  Si11  1  0.663341  0.041903  0.542988  1
  Si  Si12  1  0.162808  0.457951  0.957379  1
  Si  Si13  1  0.337577  0.959008  0.044031  1
  Si  Si14  1  0.837284  0.541581  0.452969  1
  Si  Si15  1  0.337577  0.959008  0.455969  1
  Si  Si16  1  0.837284  0.541581  0.047031  1
  Si  Si17  1  0.663341  0.041903  0.957012  1
  Si  Si18  1  0.162808  0.457951  0.542621  1
  Si  Si19  1  0.536117  0.376594  0.750000  1
  Si  Si20  1  0.035358  0.123972  0.750000  1
  Si  Si21  1  0.468611  0.625199  0.250000  1
  Si  Si22  1  0.962877  0.870238  0.250000  1
  Si  Si23  1  0.796002  0.631756  0.750000  1
  Si  Si24  1  0.296065  0.867979  0.750000  1
  Si  Si25  1  0.197792  0.370722  0.250000  1
  Si  Si26  1  0.703834  0.135663  0.250000  1
  Mo  Mo27  1  0.833251  0.334986  0.623910  1
  Mo  Mo28  1  0.333703  0.165285  0.874937  1
  Mo  Mo29  1  0.169781  0.664805  0.125135  1
  Mo  Mo30  1  0.668563  0.836866  0.374477  1
  Mo  Mo31  1  0.169781  0.664805  0.374865  1
  Mo  Mo32  1  0.668563  0.836866  0.125523  1
  Mo  Mo33  1  0.833251  0.334986  0.876090  1
  Mo  Mo34  1  0.333703  0.165285  0.625063  1
  Mo  Mo35  1  0.835678  0.500384  0.250000  1
