# generated using pymatgen
data_Ho6Al24Re3Pd4Ru
_symmetry_space_group_name_H-M   'P 1'
_cell_length_a   8.87509523
_cell_length_b   8.87509530
_cell_length_c   9.56237514
_cell_angle_alpha   90.65871423
_cell_angle_beta   89.34128378
_cell_angle_gamma   119.41298377
_symmetry_Int_Tables_number   1
_chemical_formula_structural   Ho6Al24Re3Pd4Ru
_chemical_formula_sum   'Ho6 Al24 Re3 Pd4 Ru1'
_cell_volume   656.05856231
_cell_formula_units_Z   1
loop_
 _symmetry_equiv_pos_site_id
 _symmetry_equiv_pos_as_xyz
  1  'x, y, z'
loop_
 _atom_site_type_symbol
 _atom_site_label
 _atom_site_symmetry_multiplicity
 _atom_site_fract_x
 _atom_site_fract_y
 _atom_site_fract_z
 _atom_site_occupancy
  Ho  Ho0  1  0.186508  0.383941  0.254290  1
  Ho  Ho1  1  0.813492  0.616059  0.745710  1
  Ho  Ho2  1  0.616059  0.813492  0.254290  1
  Ho  Ho3  1  0.383941  0.186508  0.745710  1
  Ho  Ho4  1  0.193863  0.806137  0.254879  1
  Ho  Ho5  1  0.806137  0.193863  0.745121  1
  Al  Al6  1  0.333513  0.666487  0.027660  1
  Al  Al7  1  0.666487  0.333513  0.972340  1
  Al  Al8  1  0.668798  0.331202  0.521821  1
  Al  Al9  1  0.331202  0.668798  0.478179  1
  Al  Al10  1  0.158436  0.323935  0.577142  1
  Al  Al11  1  0.841564  0.676065  0.422858  1
  Al  Al12  1  0.676065  0.841564  0.577142  1
  Al  Al13  1  0.837339  0.678673  0.080100  1
  Al  Al14  1  0.323935  0.158436  0.422858  1
  Al  Al15  1  0.162661  0.321327  0.919900  1
  Al  Al16  1  0.163894  0.836106  0.575646  1
  Al  Al17  1  0.321327  0.162661  0.080100  1
  Al  Al18  1  0.836106  0.163894  0.424354  1
  Al  Al19  1  0.678673  0.837339  0.919900  1
  Al  Al20  1  0.837286  0.162714  0.079018  1
  Al  Al21  1  0.162714  0.837286  0.920982  1
  Al  Al22  1  0.563103  0.127750  0.251433  1
  Al  Al23  1  0.436897  0.872250  0.748567  1
  Al  Al24  1  0.872250  0.436897  0.251433  1
  Al  Al25  1  0.127750  0.563103  0.748567  1
  Al  Al26  1  0.561132  0.438868  0.247437  1
  Al  Al27  1  0.438868  0.561132  0.752563  1
  Al  Al28  1  0.999183  0.000817  0.253020  1
  Al  Al29  1  0.000817  0.999183  0.746980  1
  Re  Re30  1  0.500000  0.000000  0.500000  1
  Re  Re31  1  0.000000  0.500000  0.500000  1
  Re  Re32  1  0.000000  0.000000  0.000000  1
  Pd  Pd33  1  0.500000  0.000000  0.000000  1
  Pd  Pd34  1  0.000000  0.500000  0.000000  1
  Pd  Pd35  1  0.500000  0.500000  0.000000  1
  Pd  Pd36  1  0.500000  0.500000  0.500000  1
  Ru  Ru37  1  0.000000  0.000000  0.500000  1
