# generated using pymatgen
data_Gd3MnCrC6
_symmetry_space_group_name_H-M   'P 1'
_cell_length_a   8.14130200
_cell_length_b   8.14130120
_cell_length_c   5.04863300
_cell_angle_alpha   90.00000000
_cell_angle_beta   90.00000000
_cell_angle_gamma   119.99999514
_symmetry_Int_Tables_number   1
_chemical_formula_structural   Gd3MnCrC6
_chemical_formula_sum   'Gd6 Mn2 Cr2 C12'
_cell_volume   289.79583668
_cell_formula_units_Z   2
loop_
 _symmetry_equiv_pos_site_id
 _symmetry_equiv_pos_as_xyz
  1  'x, y, z'
loop_
 _atom_site_type_symbol
 _atom_site_label
 _atom_site_symmetry_multiplicity
 _atom_site_fract_x
 _atom_site_fract_y
 _atom_site_fract_z
 _atom_site_occupancy
  Gd  Gd0  1  0.619082  0.685766  0.750000  1
  Gd  Gd1  1  0.933317  0.619082  0.250000  1
  Gd  Gd2  1  0.685766  0.066683  0.250000  1
  Gd  Gd3  1  0.314234  0.933317  0.750000  1
  Gd  Gd4  1  0.066683  0.380918  0.750000  1
  Gd  Gd5  1  0.380918  0.314234  0.250000  1
  Mn  Mn6  1  0.666667  0.333333  0.750000  1
  Mn  Mn7  1  0.333333  0.666667  0.250000  1
  Cr  Cr8  1  0.000000  0.000000  0.500000  1
  Cr  Cr9  1  0.000000  0.000000  0.000000  1
  C  C10  1  0.959369  0.771073  0.750000  1
  C  C11  1  0.188296  0.959369  0.250000  1
  C  C12  1  0.771073  0.811704  0.250000  1
  C  C13  1  0.228927  0.188296  0.750000  1
  C  C14  1  0.811704  0.040631  0.750000  1
  C  C15  1  0.040631  0.228927  0.250000  1
  C  C16  1  0.861977  0.576592  0.750000  1
  C  C17  1  0.285384  0.861977  0.250000  1
  C  C18  1  0.576592  0.714616  0.250000  1
  C  C19  1  0.423408  0.285384  0.750000  1
  C  C20  1  0.138023  0.423408  0.250000  1
  C  C21  1  0.714616  0.138023  0.750000  1
