# generated using pymatgen
data_Lu4Pt11Au
_symmetry_space_group_name_H-M   'P 1'
_cell_length_a   4.12197300
_cell_length_b   5.76083313
_cell_length_c   11.54839310
_cell_angle_alpha   89.71349890
_cell_angle_beta   90.00000000
_cell_angle_gamma   90.00000000
_symmetry_Int_Tables_number   1
_chemical_formula_structural   Lu4Pt11Au
_chemical_formula_sum   'Lu4 Pt11 Au1'
_cell_volume   274.22469820
_cell_formula_units_Z   1
loop_
 _symmetry_equiv_pos_site_id
 _symmetry_equiv_pos_as_xyz
  1  'x, y, z'
loop_
 _atom_site_type_symbol
 _atom_site_label
 _atom_site_symmetry_multiplicity
 _atom_site_fract_x
 _atom_site_fract_y
 _atom_site_fract_z
 _atom_site_occupancy
  Lu  Lu0  1  0.500000  0.754393  0.375345  1
  Lu  Lu1  1  0.500000  0.738848  0.871344  1
  Lu  Lu2  1  0.500000  0.261152  0.128656  1
  Lu  Lu3  1  0.500000  0.245607  0.624655  1
  Pt  Pt4  1  0.000000  0.007371  0.251589  1
  Pt  Pt5  1  0.000000  0.992629  0.748411  1
  Pt  Pt6  1  0.000000  0.500000  0.000000  1
  Pt  Pt7  1  0.000000  0.500000  0.500000  1
  Pt  Pt8  1  0.000000  0.508332  0.250529  1
  Pt  Pt9  1  0.000000  0.491668  0.749471  1
  Pt  Pt10  1  0.500000  0.254854  0.375643  1
  Pt  Pt11  1  0.500000  0.244598  0.874210  1
  Pt  Pt12  1  0.500000  0.755402  0.125790  1
  Pt  Pt13  1  0.500000  0.745146  0.624357  1
  Pt  Pt14  1  0.000000  0.000000  0.500000  1
  Au  Au15  1  0.000000  0.000000  0.000000  1
