# generated using pymatgen
data_Ho3Al3ZnSiPd
_symmetry_space_group_name_H-M   'P 1'
_cell_length_a   6.91675400
_cell_length_b   6.91675465
_cell_length_c   4.25221300
_cell_angle_alpha   90.00000000
_cell_angle_beta   90.00000000
_cell_angle_gamma   119.99998734
_symmetry_Int_Tables_number   1
_chemical_formula_structural   Ho3Al3ZnSiPd
_chemical_formula_sum   'Ho3 Al3 Zn1 Si1 Pd1'
_cell_volume   176.17748194
_cell_formula_units_Z   1
loop_
 _symmetry_equiv_pos_site_id
 _symmetry_equiv_pos_as_xyz
  1  'x, y, z'
loop_
 _atom_site_type_symbol
 _atom_site_label
 _atom_site_symmetry_multiplicity
 _atom_site_fract_x
 _atom_site_fract_y
 _atom_site_fract_z
 _atom_site_occupancy
  Ho  Ho0  1  0.418468  0.998952  0.000000  1
  Ho  Ho1  1  0.001048  0.419514  0.000000  1
  Ho  Ho2  1  0.580485  0.581532  0.000000  1
  Al  Al3  1  0.761590  0.000815  0.499999  1
  Al  Al4  1  0.239225  0.238410  0.499999  1
  Al  Al5  1  0.999185  0.760774  0.499999  1
  Zn  Zn6  1  0.666666  0.333333  0.499999  1
  Si  Si7  1  0.333333  0.666666  0.499999  1
  Pd  Pd8  1  0.000000  0.000000  0.000000  1
