# generated using pymatgen
data_CuMoPd6
_symmetry_space_group_name_H-M   'P 1'
_cell_length_a   5.55655241
_cell_length_b   5.55655242
_cell_length_c   3.86790500
_cell_angle_alpha   90.00000000
_cell_angle_beta   90.00000000
_cell_angle_gamma   90.00023716
_symmetry_Int_Tables_number   1
_chemical_formula_structural   CuMoPd6
_chemical_formula_sum   'Cu1 Mo1 Pd6'
_cell_volume   119.42262961
_cell_formula_units_Z   1
loop_
 _symmetry_equiv_pos_site_id
 _symmetry_equiv_pos_as_xyz
  1  'x, y, z'
loop_
 _atom_site_type_symbol
 _atom_site_label
 _atom_site_symmetry_multiplicity
 _atom_site_fract_x
 _atom_site_fract_y
 _atom_site_fract_z
 _atom_site_occupancy
  Cu  Cu0  1  0.624783  0.375217  0.000000  1
  Mo  Mo1  1  0.125285  0.874715  0.000000  1
  Pd  Pd2  1  0.625142  0.875713  0.000000  1
  Pd  Pd3  1  0.124287  0.374858  0.000000  1
  Pd  Pd4  1  0.879389  0.629362  0.500000  1
  Pd  Pd5  1  0.370638  0.120611  0.500000  1
  Pd  Pd6  1  0.878699  0.121301  0.500000  1
  Pd  Pd7  1  0.371781  0.628219  0.500000  1
