# generated using pymatgen
data_Hf18Ta3Co2Tc5
_symmetry_space_group_name_H-M   'P 1'
_cell_length_a   8.69224147
_cell_length_b   8.65071163
_cell_length_c   8.44901000
_cell_angle_alpha   90.00000000
_cell_angle_beta   90.00000000
_cell_angle_gamma   119.84208170
_symmetry_Int_Tables_number   1
_chemical_formula_structural   Hf18Ta3Co2Tc5
_chemical_formula_sum   'Hf18 Ta3 Co2 Tc5'
_cell_volume   551.07278629
_cell_formula_units_Z   1
loop_
 _symmetry_equiv_pos_site_id
 _symmetry_equiv_pos_as_xyz
  1  'x, y, z'
loop_
 _atom_site_type_symbol
 _atom_site_label
 _atom_site_symmetry_multiplicity
 _atom_site_fract_x
 _atom_site_fract_y
 _atom_site_fract_z
 _atom_site_occupancy
  Hf  Hf0  1  0.201603  0.797529  0.440829  1
  Hf  Hf1  1  0.201603  0.404074  0.440829  1
  Hf  Hf2  1  0.595196  0.797598  0.439323  1
  Hf  Hf3  1  0.797687  0.201740  0.558058  1
  Hf  Hf4  1  0.797687  0.595946  0.558058  1
  Hf  Hf5  1  0.404084  0.202041  0.559435  1
  Hf  Hf6  1  0.797687  0.201740  0.941942  1
  Hf  Hf7  1  0.797687  0.595946  0.941942  1
  Hf  Hf8  1  0.404084  0.202041  0.940565  1
  Hf  Hf9  1  0.201603  0.797529  0.059171  1
  Hf  Hf10  1  0.201603  0.404074  0.059171  1
  Hf  Hf11  1  0.595196  0.797598  0.060677  1
  Hf  Hf12  1  0.542467  0.457257  0.250000  1
  Hf  Hf13  1  0.542467  0.085209  0.250000  1
  Hf  Hf14  1  0.915598  0.457798  0.250000  1
  Hf  Hf15  1  0.456106  0.541093  0.750000  1
  Hf  Hf16  1  0.456106  0.915014  0.750000  1
  Hf  Hf17  1  0.084461  0.542231  0.750000  1
  Ta  Ta18  1  0.771432  0.885716  0.750000  1
  Ta  Ta19  1  0.004304  0.002152  0.495290  1
  Ta  Ta20  1  0.004304  0.002152  0.004710  1
  Co  Co21  1  0.331550  0.665775  0.250000  1
  Co  Co22  1  0.665809  0.332904  0.750000  1
  Tc  Tc23  1  0.886473  0.116465  0.250000  1
  Tc  Tc24  1  0.886473  0.770008  0.250000  1
  Tc  Tc25  1  0.229869  0.114935  0.250000  1
  Tc  Tc26  1  0.113432  0.885543  0.750000  1
  Tc  Tc27  1  0.113432  0.227887  0.750000  1
