# generated using pymatgen
data_U5Re2SiC8
_symmetry_space_group_name_H-M   'P 1'
_cell_length_a   11.16537100
_cell_length_b   11.16537100
_cell_length_c   3.28387500
_cell_angle_alpha   90.00000000
_cell_angle_beta   90.00000000
_cell_angle_gamma   90.00000000
_symmetry_Int_Tables_number   1
_chemical_formula_structural   U5Re2SiC8
_chemical_formula_sum   'U10 Re4 Si2 C16'
_cell_volume   409.38595023
_cell_formula_units_Z   2
loop_
 _symmetry_equiv_pos_site_id
 _symmetry_equiv_pos_as_xyz
  1  'x, y, z'
loop_
 _atom_site_type_symbol
 _atom_site_label
 _atom_site_symmetry_multiplicity
 _atom_site_fract_x
 _atom_site_fract_y
 _atom_site_fract_z
 _atom_site_occupancy
  U  U0  1  0.000000  0.500000  0.000000  1
  U  U1  1  0.275931  0.540592  0.500000  1
  U  U2  1  0.724069  0.459408  0.500000  1
  U  U3  1  0.540592  0.724069  0.500000  1
  U  U4  1  0.775931  0.959408  0.500000  1
  U  U5  1  0.224069  0.040592  0.500000  1
  U  U6  1  0.959408  0.224069  0.500000  1
  U  U7  1  0.459408  0.275931  0.500000  1
  U  U8  1  0.500000  0.000000  0.000000  1
  U  U9  1  0.040592  0.775931  0.500000  1
  Re  Re10  1  0.205972  0.294028  0.000000  1
  Re  Re11  1  0.705972  0.205972  0.000000  1
  Re  Re12  1  0.294028  0.794028  0.000000  1
  Re  Re13  1  0.794028  0.705972  0.000000  1
  Si  Si14  1  0.500000  0.500000  0.000000  1
  Si  Si15  1  0.000000  0.000000  0.000000  1
  C  C16  1  0.355935  0.406441  0.000000  1
  C  C17  1  0.617146  0.117146  0.500000  1
  C  C18  1  0.906441  0.855935  0.000000  1
  C  C19  1  0.653263  0.846737  0.000000  1
  C  C20  1  0.346737  0.153263  0.000000  1
  C  C21  1  0.117146  0.382854  0.500000  1
  C  C22  1  0.144065  0.906441  0.000000  1
  C  C23  1  0.846737  0.346737  0.000000  1
  C  C24  1  0.644065  0.593559  0.000000  1
  C  C25  1  0.593559  0.355935  0.000000  1
  C  C26  1  0.882854  0.617146  0.500000  1
  C  C27  1  0.855935  0.093559  0.000000  1
  C  C28  1  0.382854  0.882854  0.500000  1
  C  C29  1  0.153263  0.653263  0.000000  1
  C  C30  1  0.093559  0.144065  0.000000  1
  C  C31  1  0.406441  0.644065  0.000000  1
