# generated using pymatgen
data_Ba3Si4(W3O13)2
_symmetry_space_group_name_H-M   'P 1'
_cell_length_a   9.16156500
_cell_length_b   9.16156423
_cell_length_c   7.76854500
_cell_angle_alpha   90.00000000
_cell_angle_beta   90.00000000
_cell_angle_gamma   119.99999196
_symmetry_Int_Tables_number   1
_chemical_formula_structural   Ba3Si4(W3O13)2
_chemical_formula_sum   'Ba3 Si4 W6 O26'
_cell_volume   564.68941927
_cell_formula_units_Z   1
loop_
 _symmetry_equiv_pos_site_id
 _symmetry_equiv_pos_as_xyz
  1  'x, y, z'
loop_
 _atom_site_type_symbol
 _atom_site_label
 _atom_site_symmetry_multiplicity
 _atom_site_fract_x
 _atom_site_fract_y
 _atom_site_fract_z
 _atom_site_occupancy
  Ba  Ba0  1  0.399882  0.399882  0.500000  1
  Ba  Ba1  1  0.000000  0.600118  0.500000  1
  Ba  Ba2  1  0.600118  0.000000  0.500000  1
  Si  Si3  1  0.666667  0.333333  0.207776  1
  Si  Si4  1  0.666667  0.333333  0.792224  1
  Si  Si5  1  0.333333  0.666667  0.792224  1
  Si  Si6  1  0.333333  0.666667  0.207776  1
  W  W7  1  0.000000  0.237774  0.754141  1
  W  W8  1  0.762226  0.762226  0.754141  1
  W  W9  1  0.237774  0.000000  0.245859  1
  W  W10  1  0.762226  0.762226  0.245859  1
  W  W11  1  0.237774  0.000000  0.754141  1
  W  W12  1  0.000000  0.237774  0.245859  1
  O  O13  1  0.000000  0.221427  0.500000  1
  O  O14  1  0.778573  0.778573  0.500000  1
  O  O15  1  0.221427  0.000000  0.500000  1
  O  O16  1  0.510908  0.692030  0.284953  1
  O  O17  1  0.307970  0.818879  0.284953  1
  O  O18  1  0.181121  0.489092  0.284953  1
  O  O19  1  0.489092  0.181121  0.715047  1
  O  O20  1  0.181121  0.489092  0.715047  1
  O  O21  1  0.510908  0.692030  0.715047  1
  O  O22  1  0.307970  0.818879  0.715047  1
  O  O23  1  0.692030  0.510908  0.284953  1
  O  O24  1  0.818879  0.307970  0.284953  1
  O  O25  1  0.818879  0.307970  0.715047  1
  O  O26  1  0.333333  0.666667  0.000000  1
  O  O27  1  0.666667  0.333333  0.000000  1
  O  O28  1  0.271952  0.000000  0.000000  1
  O  O29  1  0.728048  0.728048  0.000000  1
  O  O30  1  0.000000  0.271952  0.000000  1
  O  O31  1  0.813157  0.000000  0.239804  1
  O  O32  1  0.186843  0.186843  0.760196  1
  O  O33  1  0.000000  0.813157  0.760196  1
  O  O34  1  0.000000  0.813157  0.239804  1
  O  O35  1  0.186843  0.186843  0.239804  1
  O  O36  1  0.813157  0.000000  0.760196  1
  O  O37  1  0.489092  0.181121  0.284953  1
  O  O38  1  0.692030  0.510908  0.715047  1
