# generated using pymatgen
data_Pd3Pt3PbO8
_symmetry_space_group_name_H-M   'P 1'
_cell_length_a   6.91713892
_cell_length_b   6.90321414
_cell_length_c   6.89898526
_cell_angle_alpha   60.15381497
_cell_angle_beta   60.03799396
_cell_angle_gamma   59.89278682
_symmetry_Int_Tables_number   1
_chemical_formula_structural   Pd3Pt3PbO8
_chemical_formula_sum   'Pd3 Pt3 Pb1 O8'
_cell_volume   233.08861549
_cell_formula_units_Z   1
loop_
 _symmetry_equiv_pos_site_id
 _symmetry_equiv_pos_as_xyz
  1  'x, y, z'
loop_
 _atom_site_type_symbol
 _atom_site_label
 _atom_site_symmetry_multiplicity
 _atom_site_fract_x
 _atom_site_fract_y
 _atom_site_fract_z
 _atom_site_occupancy
  Pd  Pd0  1  0.000000  0.000000  0.500000  1
  Pd  Pd1  1  0.000000  0.500000  0.000000  1
  Pd  Pd2  1  0.500000  0.500000  0.000000  1
  Pt  Pt3  1  0.500000  0.000000  0.500000  1
  Pt  Pt4  1  0.500000  0.000000  0.000000  1
  Pt  Pt5  1  0.000000  0.500000  0.500000  1
  Pb  Pb6  1  0.000000  0.000000  0.000000  1
  O  O7  1  0.859408  0.427633  0.853187  1
  O  O8  1  0.146813  0.140228  0.140592  1
  O  O9  1  0.853187  0.859772  0.859408  1
  O  O10  1  0.570594  0.138767  0.145569  1
  O  O11  1  0.854431  0.854930  0.429406  1
  O  O12  1  0.429406  0.861233  0.854431  1
  O  O13  1  0.145569  0.145070  0.570594  1
  O  O14  1  0.140592  0.572367  0.146813  1
