# generated using pymatgen
data_DyYCo6(SiB)2
_symmetry_space_group_name_H-M   'P 1'
_cell_length_a   5.13650500
_cell_length_b   5.13700685
_cell_length_c   6.44363800
_cell_angle_alpha   90.00000000
_cell_angle_beta   90.00000000
_cell_angle_gamma   119.99677486
_symmetry_Int_Tables_number   1
_chemical_formula_structural   DyYCo6(SiB)2
_chemical_formula_sum   'Dy1 Y1 Co6 Si2 B2'
_cell_volume   147.24946938
_cell_formula_units_Z   1
loop_
 _symmetry_equiv_pos_site_id
 _symmetry_equiv_pos_as_xyz
  1  'x, y, z'
loop_
 _atom_site_type_symbol
 _atom_site_label
 _atom_site_symmetry_multiplicity
 _atom_site_fract_x
 _atom_site_fract_y
 _atom_site_fract_z
 _atom_site_occupancy
  Dy  Dy0  1  0.999993  0.000000  0.500000  1
  Y  Y1  1  0.999974  0.000000  0.000000  1
  Co  Co2  1  0.499993  0.000000  0.283394  1
  Co  Co3  1  0.499989  0.500003  0.283428  1
  Co  Co4  1  0.999985  0.499997  0.283428  1
  Co  Co5  1  0.499993  0.000000  0.716606  1
  Co  Co6  1  0.499989  0.500003  0.716572  1
  Co  Co7  1  0.999985  0.499997  0.716572  1
  Si  Si8  1  0.333230  0.666516  0.000000  1
  Si  Si9  1  0.666714  0.333484  0.000000  1
  B  B10  1  0.333286  0.666619  0.500000  1
  B  B11  1  0.666668  0.333381  0.500000  1
