# generated using pymatgen
data_Tb3Ho3Al24Os7Pd
_symmetry_space_group_name_H-M   'P 1'
_cell_length_a   8.83923116
_cell_length_b   8.83594596
_cell_length_c   9.56396780
_cell_angle_alpha   89.67316621
_cell_angle_beta   90.31991009
_cell_angle_gamma   119.80544780
_symmetry_Int_Tables_number   1
_chemical_formula_structural   Tb3Ho3Al24Os7Pd
_chemical_formula_sum   'Tb3 Ho3 Al24 Os7 Pd1'
_cell_volume   648.14937839
_cell_formula_units_Z   1
loop_
 _symmetry_equiv_pos_site_id
 _symmetry_equiv_pos_as_xyz
  1  'x, y, z'
loop_
 _atom_site_type_symbol
 _atom_site_label
 _atom_site_symmetry_multiplicity
 _atom_site_fract_x
 _atom_site_fract_y
 _atom_site_fract_z
 _atom_site_occupancy
  Tb  Tb0  1  0.189571  0.386051  0.251709  1
  Tb  Tb1  1  0.810320  0.613916  0.748282  1
  Tb  Tb2  1  0.613900  0.810407  0.251705  1
  Ho  Ho3  1  0.386454  0.189683  0.748147  1
  Ho  Ho4  1  0.194454  0.805527  0.252393  1
  Ho  Ho5  1  0.805485  0.194434  0.747567  1
  Al  Al6  1  0.330952  0.669075  0.019524  1
  Al  Al7  1  0.668835  0.330864  0.980368  1
  Al  Al8  1  0.666317  0.333406  0.516505  1
  Al  Al9  1  0.333460  0.666460  0.483610  1
  Al  Al10  1  0.163529  0.325619  0.576811  1
  Al  Al11  1  0.836598  0.674317  0.423259  1
  Al  Al12  1  0.674393  0.836643  0.576798  1
  Al  Al13  1  0.843320  0.676396  0.078737  1
  Al  Al14  1  0.325658  0.163364  0.423418  1
  Al  Al15  1  0.156773  0.323561  0.921204  1
  Al  Al16  1  0.163426  0.836884  0.575417  1
  Al  Al17  1  0.323610  0.156687  0.078608  1
  Al  Al18  1  0.836681  0.163291  0.424657  1
  Al  Al19  1  0.676415  0.843295  0.921227  1
  Al  Al20  1  0.836668  0.163338  0.075135  1
  Al  Al21  1  0.163432  0.836832  0.924792  1
  Al  Al22  1  0.560426  0.122089  0.249226  1
  Al  Al23  1  0.439518  0.878221  0.750752  1
  Al  Al24  1  0.877937  0.439576  0.249238  1
  Al  Al25  1  0.122106  0.560460  0.750767  1
  Al  Al26  1  0.561542  0.438424  0.252211  1
  Al  Al27  1  0.438443  0.561242  0.747827  1
  Al  Al28  1  0.999600  0.000393  0.250224  1
  Al  Al29  1  0.000676  0.999736  0.749791  1
  Os  Os30  1  0.499901  0.000180  0.999786  1
  Os  Os31  1  0.999901  0.499917  0.999944  1
  Os  Os32  1  0.499907  0.000108  0.500177  1
  Os  Os33  1  0.999878  0.499921  0.500056  1
  Os  Os34  1  0.499919  0.499760  0.500165  1
  Os  Os35  1  0.000018  0.000016  0.999927  1
  Os  Os36  1  0.000028  0.000005  0.500103  1
  Pd  Pd37  1  0.499949  0.499904  0.999931  1
