# generated using pymatgen
data_Er12ZnFe2Co2Bi
_symmetry_space_group_name_H-M   'P 1'
_cell_length_a   8.28405790
_cell_length_b   8.28405646
_cell_length_c   8.28405834
_cell_angle_alpha   110.45576885
_cell_angle_beta   111.83290422
_cell_angle_gamma   106.17755150
_symmetry_Int_Tables_number   1
_chemical_formula_structural   Er12ZnFe2Co2Bi
_chemical_formula_sum   'Er12 Zn1 Fe2 Co2 Bi1'
_cell_volume   436.48659194
_cell_formula_units_Z   1
loop_
 _symmetry_equiv_pos_site_id
 _symmetry_equiv_pos_as_xyz
  1  'x, y, z'
loop_
 _atom_site_type_symbol
 _atom_site_label
 _atom_site_symmetry_multiplicity
 _atom_site_fract_x
 _atom_site_fract_y
 _atom_site_fract_z
 _atom_site_occupancy
  Er  Er0  1  0.284488  0.184946  0.469435  1
  Er  Er1  1  0.715512  0.815054  0.530565  1
  Er  Er2  1  0.284488  0.815054  0.099543  1
  Er  Er3  1  0.715512  0.184946  0.900457  1
  Er  Er4  1  0.616676  0.311100  0.305575  1
  Er  Er5  1  0.383324  0.688900  0.694425  1
  Er  Er6  1  0.005525  0.311100  0.694425  1
  Er  Er7  1  0.994475  0.688900  0.305575  1
  Er  Er8  1  0.219559  0.427273  0.207714  1
  Er  Er9  1  0.780441  0.572727  0.792286  1
  Er  Er10  1  0.219559  0.011845  0.792286  1
  Er  Er11  1  0.780441  0.988155  0.207714  1
  Zn  Zn12  1  0.000000  0.000000  0.000000  1
  Fe  Fe13  1  0.000000  0.382297  0.382297  1
  Fe  Fe14  1  0.000000  0.617703  0.617703  1
  Co  Co15  1  0.388301  0.888301  0.500000  1
  Co  Co16  1  0.611699  0.111699  0.500000  1
  Bi  Bi17  1  0.500000  0.500000  0.000000  1
