# generated using pymatgen
data_Nd2Al20ReIr3
_symmetry_space_group_name_H-M   'P 1'
_cell_length_a   6.89810094
_cell_length_b   6.88887664
_cell_length_c   9.22660103
_cell_angle_alpha   89.75634989
_cell_angle_beta   89.81752006
_cell_angle_gamma   96.95102543
_symmetry_Int_Tables_number   1
_chemical_formula_structural   Nd2Al20ReIr3
_chemical_formula_sum   'Nd2 Al20 Re1 Ir3'
_cell_volume   435.22003530
_cell_formula_units_Z   1
loop_
 _symmetry_equiv_pos_site_id
 _symmetry_equiv_pos_as_xyz
  1  'x, y, z'
loop_
 _atom_site_type_symbol
 _atom_site_label
 _atom_site_symmetry_multiplicity
 _atom_site_fract_x
 _atom_site_fract_y
 _atom_site_fract_z
 _atom_site_occupancy
  Nd  Nd0  1  0.875801  0.130297  0.749721  1
  Nd  Nd1  1  0.124199  0.869703  0.250279  1
  Al  Al2  1  0.624175  0.380134  0.550174  1
  Al  Al3  1  0.375825  0.619866  0.449826  1
  Al  Al4  1  0.378331  0.621097  0.052145  1
  Al  Al5  1  0.621669  0.378903  0.947855  1
  Al  Al6  1  0.222319  0.223118  0.501168  1
  Al  Al7  1  0.777681  0.776882  0.498832  1
  Al  Al8  1  0.776506  0.776044  0.000046  1
  Al  Al9  1  0.223494  0.223956  0.999954  1
  Al  Al10  1  0.840663  0.157644  0.104235  1
  Al  Al11  1  0.159337  0.842356  0.895765  1
  Al  Al12  1  0.157705  0.841083  0.602348  1
  Al  Al13  1  0.842295  0.158917  0.397652  1
  Al  Al14  1  0.856587  0.589933  0.749645  1
  Al  Al15  1  0.143413  0.410067  0.250355  1
  Al  Al16  1  0.409530  0.143581  0.749747  1
  Al  Al17  1  0.590470  0.856419  0.250253  1
  Al  Al18  1  0.222744  0.483651  0.746548  1
  Al  Al19  1  0.777256  0.516349  0.253452  1
  Al  Al20  1  0.517063  0.775970  0.751301  1
  Al  Al21  1  0.482937  0.224030  0.248699  1
  Re  Re22  1  0.000000  0.500000  0.500000  1
  Ir  Ir23  1  0.000000  0.500000  0.000000  1
  Ir  Ir24  1  0.500000  0.000000  0.000000  1
  Ir  Ir25  1  0.500000  0.000000  0.500000  1
