# generated using pymatgen
data_Hf4TiV5Ge8
_symmetry_space_group_name_H-M   'P 1'
_cell_length_a   6.62556200
_cell_length_b   6.74098601
_cell_length_c   12.83728601
_cell_angle_alpha   89.99527563
_cell_angle_beta   90.00000000
_cell_angle_gamma   90.00000000
_symmetry_Int_Tables_number   1
_chemical_formula_structural   Hf4TiV5Ge8
_chemical_formula_sum   'Hf8 Ti2 V10 Ge16'
_cell_volume   573.34940171
_cell_formula_units_Z   2
loop_
 _symmetry_equiv_pos_site_id
 _symmetry_equiv_pos_as_xyz
  1  'x, y, z'
loop_
 _atom_site_type_symbol
 _atom_site_label
 _atom_site_symmetry_multiplicity
 _atom_site_fract_x
 _atom_site_fract_y
 _atom_site_fract_z
 _atom_site_occupancy
  Hf  Hf0  1  0.487276  0.673533  0.590465  1
  Hf  Hf1  1  0.987276  0.826467  0.909535  1
  Hf  Hf2  1  0.513300  0.327355  0.092182  1
  Hf  Hf3  1  0.013300  0.172645  0.407818  1
  Hf  Hf4  1  0.511946  0.326664  0.408120  1
  Hf  Hf5  1  0.011946  0.173336  0.091880  1
  Hf  Hf6  1  0.487311  0.673973  0.908896  1
  Hf  Hf7  1  0.987311  0.826027  0.591104  1
  Ti  Ti8  1  0.660344  0.162514  0.875964  1
  Ti  Ti9  1  0.160344  0.337486  0.624036  1
  V  V10  1  0.660439  0.161363  0.624825  1
  V  V11  1  0.160439  0.338637  0.875175  1
  V  V12  1  0.337603  0.838291  0.125804  1
  V  V13  1  0.837603  0.661709  0.374196  1
  V  V14  1  0.340792  0.839691  0.372813  1
  V  V15  1  0.840792  0.660309  0.127187  1
  V  V16  1  0.836043  0.491968  0.750147  1
  V  V17  1  0.336043  0.008032  0.749853  1
  V  V18  1  0.164801  0.509540  0.249489  1
  V  V19  1  0.664801  0.990460  0.250511  1
  Ge  Ge20  1  0.679320  0.955079  0.456866  1
  Ge  Ge21  1  0.179320  0.544921  0.043134  1
  Ge  Ge22  1  0.318418  0.044709  0.958582  1
  Ge  Ge23  1  0.818418  0.455291  0.541418  1
  Ge  Ge24  1  0.322108  0.041230  0.540722  1
  Ge  Ge25  1  0.822108  0.458770  0.959278  1
  Ge  Ge26  1  0.679126  0.952647  0.045243  1
  Ge  Ge27  1  0.179126  0.547353  0.454757  1
  Ge  Ge28  1  0.465320  0.377831  0.749310  1
  Ge  Ge29  1  0.965320  0.122169  0.750690  1
  Ge  Ge30  1  0.535001  0.624883  0.249910  1
  Ge  Ge31  1  0.035001  0.875117  0.250090  1
  Ge  Ge32  1  0.689402  0.851737  0.749599  1
  Ge  Ge33  1  0.189402  0.648263  0.750401  1
  Ge  Ge34  1  0.311452  0.146488  0.249484  1
  Ge  Ge35  1  0.811452  0.353512  0.250516  1
