# generated using pymatgen
data_LaYbB4Rh5
_symmetry_space_group_name_H-M   'P 1'
_cell_length_a   7.52488977
_cell_length_b   6.32018213
_cell_length_c   5.65414988
_cell_angle_alpha   77.64687758
_cell_angle_beta   55.13064328
_cell_angle_gamma   47.22248827
_symmetry_Int_Tables_number   1
_chemical_formula_structural   LaYbB4Rh5
_chemical_formula_sum   'La1 Yb1 B4 Rh5'
_cell_volume   155.00296032
_cell_formula_units_Z   1
loop_
 _symmetry_equiv_pos_site_id
 _symmetry_equiv_pos_as_xyz
  1  'x, y, z'
loop_
 _atom_site_type_symbol
 _atom_site_label
 _atom_site_symmetry_multiplicity
 _atom_site_fract_x
 _atom_site_fract_y
 _atom_site_fract_z
 _atom_site_occupancy
  La  La0  1  0.140092  0.140092  0.859908  1
  Yb  Yb1  1  0.855467  0.855467  0.144533  1
  B  B2  1  0.791989  0.469079  0.530921  1
  B  B3  1  0.210539  0.531633  0.468367  1
  B  B4  1  0.531633  0.210539  0.789461  1
  B  B5  1  0.469079  0.791989  0.208011  1
  Rh  Rh6  1  0.752093  0.752093  0.747907  1
  Rh  Rh7  1  0.499316  0.499316  0.000684  1
  Rh  Rh8  1  0.498384  0.498384  0.501616  1
  Rh  Rh9  1  0.999316  0.999316  0.500684  1
  Rh  Rh10  1  0.252093  0.252093  0.247907  1
