# generated using pymatgen
data_Ce2B4Ir3Ru2
_symmetry_space_group_name_H-M   'P 1'
_cell_length_a   7.54532341
_cell_length_b   6.38314504
_cell_length_c   5.61779650
_cell_angle_alpha   77.62307902
_cell_angle_beta   55.72175392
_cell_angle_gamma   46.65518492
_symmetry_Int_Tables_number   1
_chemical_formula_structural   Ce2B4Ir3Ru2
_chemical_formula_sum   'Ce2 B4 Ir3 Ru2'
_cell_volume   155.76973618
_cell_formula_units_Z   1
loop_
 _symmetry_equiv_pos_site_id
 _symmetry_equiv_pos_as_xyz
  1  'x, y, z'
loop_
 _atom_site_type_symbol
 _atom_site_label
 _atom_site_symmetry_multiplicity
 _atom_site_fract_x
 _atom_site_fract_y
 _atom_site_fract_z
 _atom_site_occupancy
  Ce  Ce0  1  0.867469  0.867468  0.132532  1
  Ce  Ce1  1  0.132531  0.132531  0.867469  1
  B  B2  1  0.467553  0.791107  0.208893  1
  B  B3  1  0.208893  0.532446  0.467554  1
  B  B4  1  0.791107  0.467553  0.532447  1
  B  B5  1  0.532447  0.208892  0.791108  1
  Ir  Ir6  1  0.249999  0.250000  0.250000  1
  Ir  Ir7  1  0.500000  0.500000  0.500000  1
  Ir  Ir8  1  0.750000  0.750000  0.750000  1
  Ru  Ru9  1  0.500000  0.500000  0.000000  1
  Ru  Ru10  1  0.000000  0.000000  0.500000  1
