# generated using pymatgen
data_DyLu3(CrB4)4
_symmetry_space_group_name_H-M   'P 1'
_cell_length_a   3.40069500
_cell_length_b   5.89231191
_cell_length_c   11.37822776
_cell_angle_alpha   89.93625454
_cell_angle_beta   90.00000000
_cell_angle_gamma   90.00000000
_symmetry_Int_Tables_number   1
_chemical_formula_structural   DyLu3(CrB4)4
_chemical_formula_sum   'Dy1 Lu3 Cr4 B16'
_cell_volume   227.99628221
_cell_formula_units_Z   1
loop_
 _symmetry_equiv_pos_site_id
 _symmetry_equiv_pos_as_xyz
  1  'x, y, z'
loop_
 _atom_site_type_symbol
 _atom_site_label
 _atom_site_symmetry_multiplicity
 _atom_site_fract_x
 _atom_site_fract_y
 _atom_site_fract_z
 _atom_site_occupancy
  Dy  Dy0  1  0.000000  0.625481  0.349154  1
  Lu  Lu1  1  0.000000  0.374892  0.650964  1
  Lu  Lu2  1  0.000000  0.125124  0.150042  1
  Lu  Lu3  1  0.000000  0.874670  0.849393  1
  Cr  Cr4  1  0.000000  0.625081  0.080135  1
  Cr  Cr5  1  0.000000  0.374643  0.918433  1
  Cr  Cr6  1  0.000000  0.125488  0.419748  1
  Cr  Cr7  1  0.000000  0.875052  0.582057  1
  B  B8  1  0.500000  0.783505  0.183411  1
  B  B9  1  0.500000  0.216747  0.815162  1
  B  B10  1  0.500000  0.281295  0.315076  1
  B  B11  1  0.500000  0.716906  0.685363  1
  B  B12  1  0.500000  0.864332  0.031384  1
  B  B13  1  0.500000  0.135449  0.967332  1
  B  B14  1  0.500000  0.363777  0.468827  1
  B  B15  1  0.500000  0.636428  0.533517  1
  B  B16  1  0.500000  0.887852  0.453720  1
  B  B17  1  0.500000  0.114816  0.548449  1
  B  B18  1  0.500000  0.385098  0.046726  1
  B  B19  1  0.500000  0.613899  0.952028  1
  B  B20  1  0.500000  0.976759  0.307455  1
  B  B21  1  0.500000  0.024376  0.693269  1
  B  B22  1  0.500000  0.474184  0.191175  1
  B  B23  1  0.500000  0.524145  0.807181  1
