# generated using pymatgen
data_Ca4Sb4Pt3Rh
_symmetry_space_group_name_H-M   'P 1'
_cell_length_a   4.64329900
_cell_length_b   7.39640728
_cell_length_c   7.91931011
_cell_angle_alpha   90.22816610
_cell_angle_beta   90.00000000
_cell_angle_gamma   90.00000000
_symmetry_Int_Tables_number   1
_chemical_formula_structural   Ca4Sb4Pt3Rh
_chemical_formula_sum   'Ca4 Sb4 Pt3 Rh1'
_cell_volume   271.97649590
_cell_formula_units_Z   1
loop_
 _symmetry_equiv_pos_site_id
 _symmetry_equiv_pos_as_xyz
  1  'x, y, z'
loop_
 _atom_site_type_symbol
 _atom_site_label
 _atom_site_symmetry_multiplicity
 _atom_site_fract_x
 _atom_site_fract_y
 _atom_site_fract_z
 _atom_site_occupancy
  Ca  Ca0  1  0.750000  0.991343  0.696307  1
  Ca  Ca1  1  0.250000  0.006230  0.301754  1
  Ca  Ca2  1  0.750000  0.488878  0.801524  1
  Ca  Ca3  1  0.250000  0.510351  0.198933  1
  Sb  Sb4  1  0.750000  0.315299  0.409868  1
  Sb  Sb5  1  0.250000  0.179562  0.910325  1
  Sb  Sb6  1  0.250000  0.688172  0.596206  1
  Sb  Sb7  1  0.750000  0.811576  0.084728  1
  Pt  Pt8  1  0.250000  0.300445  0.586274  1
  Pt  Pt9  1  0.750000  0.698300  0.413746  1
  Pt  Pt10  1  0.750000  0.199639  0.085137  1
  Rh  Rh11  1  0.250000  0.810207  0.915200  1
