# generated using pymatgen
data_Li2Si(BrO3)6
_symmetry_space_group_name_H-M   'P 1'
_cell_length_a   5.65156100
_cell_length_b   8.99178066
_cell_length_c   8.99178900
_cell_angle_alpha   59.99973263
_cell_angle_beta   90.00017667
_cell_angle_gamma   90.00004599
_symmetry_Int_Tables_number   1
_chemical_formula_structural   Li2Si(BrO3)6
_chemical_formula_sum   'Li2 Si1 Br6 O18'
_cell_volume   395.72154227
_cell_formula_units_Z   1
loop_
 _symmetry_equiv_pos_site_id
 _symmetry_equiv_pos_as_xyz
  1  'x, y, z'
loop_
 _atom_site_type_symbol
 _atom_site_label
 _atom_site_symmetry_multiplicity
 _atom_site_fract_x
 _atom_site_fract_y
 _atom_site_fract_z
 _atom_site_occupancy
  Li  Li0  1  0.745984  0.333331  0.333338  1
  Li  Li1  1  0.205676  0.666667  0.666665  1
  Si  Si2  1  0.664621  0.000000  0.000001  1
  Br  Br3  1  0.809232  0.969027  0.678151  1
  Br  Br4  1  0.809232  0.352823  0.969025  1
  Br  Br5  1  0.809235  0.678150  0.352824  1
  Br  Br6  1  0.342368  0.022939  0.300288  1
  Br  Br7  1  0.342369  0.676772  0.022939  1
  Br  Br8  1  0.342368  0.300289  0.676771  1
  O  O9  1  0.485966  0.241593  0.554404  1
  O  O10  1  0.485969  0.204004  0.241590  1
  O  O11  1  0.485971  0.554405  0.204003  1
  O  O12  1  0.985799  0.762245  0.438791  1
  O  O13  1  0.985794  0.798967  0.762247  1
  O  O14  1  0.985798  0.438789  0.798963  1
  O  O15  1  0.857023  0.055447  0.820049  1
  O  O16  1  0.857021  0.124507  0.055446  1
  O  O17  1  0.857023  0.820047  0.124509  1
  O  O18  1  0.477711  0.923446  0.188891  1
  O  O19  1  0.477717  0.887661  0.923446  1
  O  O20  1  0.477714  0.188893  0.887660  1
  O  O21  1  0.944926  0.119929  0.503754  1
  O  O22  1  0.944930  0.376320  0.119928  1
  O  O23  1  0.944932  0.503751  0.376321  1
  O  O24  1  0.427741  0.883296  0.498800  1
  O  O25  1  0.427739  0.617901  0.883298  1
  O  O26  1  0.427740  0.498802  0.617900  1
