# generated using pymatgen
data_Pr2Nd4Cd23Ge
_symmetry_space_group_name_H-M   'P 1'
_cell_length_a   10.11181888
_cell_length_b   10.09679579
_cell_length_c   10.09679549
_cell_angle_alpha   60.10075458
_cell_angle_beta   59.95046872
_cell_angle_gamma   59.95046920
_symmetry_Int_Tables_number   1
_chemical_formula_structural   Pr2Nd4Cd23Ge
_chemical_formula_sum   'Pr2 Nd4 Cd23 Ge1'
_cell_volume   728.92857849
_cell_formula_units_Z   1
loop_
 _symmetry_equiv_pos_site_id
 _symmetry_equiv_pos_as_xyz
  1  'x, y, z'
loop_
 _atom_site_type_symbol
 _atom_site_label
 _atom_site_symmetry_multiplicity
 _atom_site_fract_x
 _atom_site_fract_y
 _atom_site_fract_z
 _atom_site_occupancy
  Pr  Pr0  1  0.792151  0.792308  0.207691  1
  Pr  Pr1  1  0.207849  0.792309  0.207692  1
  Nd  Nd2  1  0.791422  0.208757  0.208401  1
  Nd  Nd3  1  0.207624  0.207765  0.792235  1
  Nd  Nd4  1  0.792376  0.207765  0.792235  1
  Nd  Nd5  1  0.208578  0.791599  0.791243  1
  Cd  Cd6  1  0.834069  0.835736  0.496126  1
  Cd  Cd7  1  0.834844  0.494501  0.835809  1
  Cd  Cd8  1  0.495322  0.834783  0.834120  1
  Cd  Cd9  1  0.835773  0.834783  0.834121  1
  Cd  Cd10  1  0.165156  0.164191  0.505499  1
  Cd  Cd11  1  0.165931  0.503874  0.164264  1
  Cd  Cd12  1  0.504678  0.165880  0.165217  1
  Cd  Cd13  1  0.164227  0.165879  0.165217  1
  Cd  Cd14  1  0.622436  0.622448  0.132680  1
  Cd  Cd15  1  0.621707  0.133579  0.623008  1
  Cd  Cd16  1  0.133128  0.621431  0.622698  1
  Cd  Cd17  1  0.622743  0.621432  0.622699  1
  Cd  Cd18  1  0.378293  0.376992  0.866421  1
  Cd  Cd19  1  0.377564  0.867320  0.377552  1
  Cd  Cd20  1  0.866872  0.377302  0.378569  1
  Cd  Cd21  1  0.377257  0.377301  0.378568  1
  Cd  Cd22  1  0.999942  0.000304  0.500018  1
  Cd  Cd23  1  0.499736  0.000304  0.500018  1
  Cd  Cd24  1  0.000000  0.499792  0.500208  1
  Cd  Cd25  1  0.500264  0.499982  0.999696  1
  Cd  Cd26  1  0.000058  0.499982  0.999696  1
  Cd  Cd27  1  0.500000  0.000309  0.999691  1
  Cd  Cd28  1  0.500000  0.500294  0.499706  1
  Ge  Ge29  1  0.000000  0.001095  0.998905  1
