# generated using pymatgen
data_Yb5(SnAs3)2
_symmetry_space_group_name_H-M   'P 1'
_cell_length_a   4.16586100
_cell_length_b   12.01534000
_cell_length_c   13.37721500
_cell_angle_alpha   90.00000000
_cell_angle_beta   90.00000000
_cell_angle_gamma   90.00000000
_symmetry_Int_Tables_number   1
_chemical_formula_structural   Yb5(SnAs3)2
_chemical_formula_sum   'Yb10 Sn4 As12'
_cell_volume   669.58628075
_cell_formula_units_Z   2
loop_
 _symmetry_equiv_pos_site_id
 _symmetry_equiv_pos_as_xyz
  1  'x, y, z'
loop_
 _atom_site_type_symbol
 _atom_site_label
 _atom_site_symmetry_multiplicity
 _atom_site_fract_x
 _atom_site_fract_y
 _atom_site_fract_z
 _atom_site_occupancy
  Yb  Yb0  1  0.000000  0.624046  0.746205  1
  Yb  Yb1  1  0.000000  0.375954  0.253795  1
  Yb  Yb2  1  0.000000  0.124046  0.753795  1
  Yb  Yb3  1  0.000000  0.875954  0.246205  1
  Yb  Yb4  1  0.000000  0.000000  0.000000  1
  Yb  Yb5  1  0.000000  0.500000  0.500000  1
  Yb  Yb6  1  0.000000  0.864299  0.564074  1
  Yb  Yb7  1  0.000000  0.135701  0.435926  1
  Yb  Yb8  1  0.000000  0.364299  0.935926  1
  Yb  Yb9  1  0.000000  0.635701  0.064074  1
  Sn  Sn10  1  0.500000  0.291167  0.608740  1
  Sn  Sn11  1  0.500000  0.208833  0.108740  1
  Sn  Sn12  1  0.500000  0.791167  0.891260  1
  Sn  Sn13  1  0.500000  0.708833  0.391260  1
  As  As14  1  0.000000  0.378579  0.705668  1
  As  As15  1  0.000000  0.121421  0.205668  1
  As  As16  1  0.000000  0.878579  0.794332  1
  As  As17  1  0.000000  0.621421  0.294332  1
  As  As18  1  0.500000  0.835357  0.084382  1
  As  As19  1  0.500000  0.164643  0.915618  1
  As  As20  1  0.500000  0.335357  0.415618  1
  As  As21  1  0.500000  0.664643  0.584382  1
  As  As22  1  0.500000  0.571861  0.901720  1
  As  As23  1  0.500000  0.428139  0.098280  1
  As  As24  1  0.500000  0.071861  0.598280  1
  As  As25  1  0.500000  0.928139  0.401720  1
