# generated using pymatgen
data_Ho2Tm3Ti2Co16TcP12
_symmetry_space_group_name_H-M   'P 1'
_cell_length_a   12.00157300
_cell_length_b   12.00157316
_cell_length_c   3.69156800
_cell_angle_alpha   90.00000000
_cell_angle_beta   90.00000000
_cell_angle_gamma   120.00000231
_symmetry_Int_Tables_number   1
_chemical_formula_structural   Ho2Tm3Ti2Co16TcP12
_chemical_formula_sum   'Ho2 Tm3 Ti2 Co16 Tc1 P12'
_cell_volume   460.48749632
_cell_formula_units_Z   1
loop_
 _symmetry_equiv_pos_site_id
 _symmetry_equiv_pos_as_xyz
  1  'x, y, z'
loop_
 _atom_site_type_symbol
 _atom_site_label
 _atom_site_symmetry_multiplicity
 _atom_site_fract_x
 _atom_site_fract_y
 _atom_site_fract_z
 _atom_site_occupancy
  Ho  Ho0  1  0.667277  0.333340  0.000000  1
  Ho  Ho1  1  0.332723  0.666064  0.000000  1
  Tm  Tm2  1  0.815607  0.816746  0.500000  1
  Tm  Tm3  1  0.184393  0.001139  0.500000  1
  Tm  Tm4  1  0.000000  0.185616  0.500000  1
  Ti  Ti5  1  0.440097  0.439792  0.000000  1
  Ti  Ti6  1  0.559903  0.999695  0.000000  1
  Co  Co7  1  0.875118  0.356667  0.500000  1
  Co  Co8  1  0.646886  0.520049  0.500000  1
  Co  Co9  1  0.479850  0.125116  0.500000  1
  Co  Co10  1  0.353114  0.873162  0.500000  1
  Co  Co11  1  0.520150  0.645265  0.500000  1
  Co  Co12  1  0.124882  0.481548  0.500000  1
  Co  Co13  1  0.803039  0.179138  0.000000  1
  Co  Co14  1  0.824619  0.625912  0.000000  1
  Co  Co15  1  0.374420  0.196794  0.000000  1
  Co  Co16  1  0.175381  0.801294  0.000000  1
  Co  Co17  1  0.625580  0.822375  0.000000  1
  Co  Co18  1  0.196961  0.376100  0.000000  1
  Co  Co19  1  0.280203  0.280851  0.500000  1
  Co  Co20  1  0.719797  0.000648  0.500000  1
  Co  Co21  1  0.000000  0.718573  0.500000  1
  Co  Co22  1  0.000000  0.999760  0.000000  1
  Tc  Tc23  1  0.000000  0.552594  0.000000  1
  P  P24  1  0.686515  0.167625  0.500000  1
  P  P25  1  0.835515  0.520414  0.500000  1
  P  P26  1  0.480255  0.312842  0.500000  1
  P  P27  1  0.164485  0.684899  0.500000  1
  P  P28  1  0.519745  0.832587  0.500000  1
  P  P29  1  0.313485  0.481111  0.500000  1
  P  P30  1  0.177439  0.178498  0.000000  1
  P  P31  1  0.822561  0.001060  0.000000  1
  P  P32  1  0.000000  0.822261  0.000000  1
  P  P33  1  0.643361  0.641798  0.000000  1
  P  P34  1  0.356639  0.998437  0.000000  1
  P  P35  1  0.000000  0.360229  0.000000  1
