# generated using pymatgen
data_Tm3Sc2Os2C7
_symmetry_space_group_name_H-M   'P 1'
_cell_length_a   7.90064115
_cell_length_b   8.00469933
_cell_length_c   3.41505000
_cell_angle_alpha   90.00000000
_cell_angle_beta   90.00000000
_cell_angle_gamma   121.15483658
_symmetry_Int_Tables_number   1
_chemical_formula_structural   Tm3Sc2Os2C7
_chemical_formula_sum   'Tm3 Sc2 Os2 C7'
_cell_volume   184.82583048
_cell_formula_units_Z   1
loop_
 _symmetry_equiv_pos_site_id
 _symmetry_equiv_pos_as_xyz
  1  'x, y, z'
loop_
 _atom_site_type_symbol
 _atom_site_label
 _atom_site_symmetry_multiplicity
 _atom_site_fract_x
 _atom_site_fract_y
 _atom_site_fract_z
 _atom_site_occupancy
  Tm  Tm0  1  0.500000  0.500000  0.000000  1
  Tm  Tm1  1  0.671510  0.923401  0.500000  1
  Tm  Tm2  1  0.328490  0.076599  0.500000  1
  Sc  Sc3  1  0.083544  0.352812  0.500000  1
  Sc  Sc4  1  0.916456  0.647188  0.500000  1
  Os  Os5  1  0.714014  0.284082  0.000000  1
  Os  Os6  1  0.285986  0.715918  0.000000  1
  C  C7  1  0.629481  0.370744  0.500000  1
  C  C8  1  0.370519  0.629256  0.500000  1
  C  C9  1  0.000000  0.000000  0.000000  1
  C  C10  1  0.165112  0.180729  0.000000  1
  C  C11  1  0.834888  0.819271  0.000000  1
  C  C12  1  0.000000  0.500000  0.000000  1
  C  C13  1  0.500000  0.000000  0.000000  1
