# generated using pymatgen
data_Tb7DyTm8(Ga3Co)2
_symmetry_space_group_name_H-M   'P 1'
_cell_length_a   9.92375600
_cell_length_b   9.92295687
_cell_length_c   6.96056700
_cell_angle_alpha   90.00160319
_cell_angle_beta   89.99993243
_cell_angle_gamma   120.00242190
_symmetry_Int_Tables_number   1
_chemical_formula_structural   Tb7DyTm8(Ga3Co)2
_chemical_formula_sum   'Tb7 Dy1 Tm8 Ga6 Co2'
_cell_volume   593.58351564
_cell_formula_units_Z   1
loop_
 _symmetry_equiv_pos_site_id
 _symmetry_equiv_pos_as_xyz
  1  'x, y, z'
loop_
 _atom_site_type_symbol
 _atom_site_label
 _atom_site_symmetry_multiplicity
 _atom_site_fract_x
 _atom_site_fract_y
 _atom_site_fract_z
 _atom_site_occupancy
  Tb  Tb0  1  0.927504  0.463715  0.791665  1
  Tb  Tb1  1  0.536212  0.463714  0.791666  1
  Tb  Tb2  1  0.463817  0.927637  0.291715  1
  Tb  Tb3  1  0.072422  0.536210  0.291693  1
  Tb  Tb4  1  0.463787  0.536210  0.291693  1
  Tb  Tb5  1  0.000004  0.000009  0.769180  1
  Tb  Tb6  1  0.999989  0.999978  0.269184  1
  Dy  Dy7  1  0.536282  0.072562  0.791748  1
  Tm  Tm8  1  0.826576  0.653153  0.487426  1
  Tm  Tm9  1  0.346947  0.173432  0.487486  1
  Tm  Tm10  1  0.826486  0.173431  0.487488  1
  Tm  Tm11  1  0.173433  0.346867  0.987423  1
  Tm  Tm12  1  0.653109  0.826631  0.987354  1
  Tm  Tm13  1  0.173522  0.826630  0.987354  1
  Tm  Tm14  1  0.666620  0.333238  0.174637  1
  Tm  Tm15  1  0.333372  0.666745  0.674706  1
  Ga  Ga16  1  0.836269  0.672539  0.043010  1
  Ga  Ga17  1  0.327529  0.163709  0.042926  1
  Ga  Ga18  1  0.836180  0.163709  0.042926  1
  Ga  Ga19  1  0.163733  0.327466  0.542985  1
  Ga  Ga20  1  0.672526  0.836279  0.543040  1
  Ga  Ga21  1  0.163753  0.836279  0.543040  1
  Co  Co22  1  0.666592  0.333182  0.552927  1
  Co  Co23  1  0.333337  0.666675  0.052806  1
