# generated using pymatgen
data_Eu5Ta3(Ni4As3)4
_symmetry_space_group_name_H-M   'P 1'
_cell_length_a   12.94082200
_cell_length_b   12.94081975
_cell_length_c   4.00427300
_cell_angle_alpha   90.00000000
_cell_angle_beta   90.00000000
_cell_angle_gamma   120.00000575
_symmetry_Int_Tables_number   1
_chemical_formula_structural   Eu5Ta3(Ni4As3)4
_chemical_formula_sum   'Eu5 Ta3 Ni16 As12'
_cell_volume   580.73491422
_cell_formula_units_Z   1
loop_
 _symmetry_equiv_pos_site_id
 _symmetry_equiv_pos_as_xyz
  1  'x, y, z'
loop_
 _atom_site_type_symbol
 _atom_site_label
 _atom_site_symmetry_multiplicity
 _atom_site_fract_x
 _atom_site_fract_y
 _atom_site_fract_z
 _atom_site_occupancy
  Eu  Eu0  1  0.187984  0.187984  0.500000  1
  Eu  Eu1  1  0.812016  0.000000  0.500000  1
  Eu  Eu2  1  0.000000  0.812016  0.500000  1
  Eu  Eu3  1  0.333333  0.666667  0.000000  1
  Eu  Eu4  1  0.666667  0.333333  0.000000  1
  Ta  Ta5  1  0.568033  0.568033  0.000000  1
  Ta  Ta6  1  0.431967  0.000000  0.000000  1
  Ta  Ta7  1  0.000000  0.431967  0.000000  1
  Ni  Ni8  1  0.718570  0.718570  0.500000  1
  Ni  Ni9  1  0.281430  0.000000  0.500000  1
  Ni  Ni10  1  0.000000  0.281430  0.500000  1
  Ni  Ni11  1  0.181968  0.379546  0.000000  1
  Ni  Ni12  1  0.620454  0.802421  0.000000  1
  Ni  Ni13  1  0.197579  0.818032  0.000000  1
  Ni  Ni14  1  0.802421  0.620454  0.000000  1
  Ni  Ni15  1  0.818032  0.197579  0.000000  1
  Ni  Ni16  1  0.379546  0.181968  0.000000  1
  Ni  Ni17  1  0.365825  0.484272  0.500000  1
  Ni  Ni18  1  0.515728  0.881555  0.500000  1
  Ni  Ni19  1  0.118445  0.634175  0.500000  1
  Ni  Ni20  1  0.881555  0.515728  0.500000  1
  Ni  Ni21  1  0.634175  0.118445  0.500000  1
  Ni  Ni22  1  0.484272  0.365825  0.500000  1
  Ni  Ni23  1  0.000000  0.000000  0.000000  1
  As  As24  1  0.819435  0.819435  0.000000  1
  As  As25  1  0.180565  0.000000  0.000000  1
  As  As26  1  0.000000  0.180565  0.000000  1
  As  As27  1  0.169153  0.477910  0.500000  1
  As  As28  1  0.522090  0.691242  0.500000  1
  As  As29  1  0.308758  0.830847  0.500000  1
  As  As30  1  0.691242  0.522090  0.500000  1
  As  As31  1  0.830847  0.308758  0.500000  1
  As  As32  1  0.477910  0.169153  0.500000  1
  As  As33  1  0.366343  0.366343  0.000000  1
  As  As34  1  0.633657  0.000000  0.000000  1
  As  As35  1  0.000000  0.633657  0.000000  1
