# generated using pymatgen
data_CdRuBr18
_symmetry_space_group_name_H-M   'P 1'
_cell_length_a   9.27030118
_cell_length_b   9.37615233
_cell_length_c   9.23126872
_cell_angle_alpha   86.13168240
_cell_angle_beta   86.39641157
_cell_angle_gamma   87.55435144
_symmetry_Int_Tables_number   1
_chemical_formula_structural   CdRuBr18
_chemical_formula_sum   'Cd1 Ru1 Br18'
_cell_volume   798.37343929
_cell_formula_units_Z   1
loop_
 _symmetry_equiv_pos_site_id
 _symmetry_equiv_pos_as_xyz
  1  'x, y, z'
loop_
 _atom_site_type_symbol
 _atom_site_label
 _atom_site_symmetry_multiplicity
 _atom_site_fract_x
 _atom_site_fract_y
 _atom_site_fract_z
 _atom_site_occupancy
  Cd  Cd0  1  0.000000  0.000000  0.000000  1
  Ru  Ru1  1  0.500000  0.500000  0.500000  1
  Br  Br2  1  0.768375  0.485942  0.504314  1
  Br  Br3  1  0.500213  0.765330  0.460882  1
  Br  Br4  1  0.480557  0.514341  0.772835  1
  Br  Br5  1  0.231625  0.514058  0.495686  1
  Br  Br6  1  0.499787  0.234670  0.539118  1
  Br  Br7  1  0.519443  0.485659  0.227165  1
  Br  Br8  1  0.886881  0.379090  0.744376  1
  Br  Br9  1  0.749137  0.889776  0.386134  1
  Br  Br10  1  0.380836  0.753759  0.886800  1
  Br  Br11  1  0.113119  0.620910  0.255624  1
  Br  Br12  1  0.250863  0.110224  0.613866  1
  Br  Br13  1  0.619164  0.246241  0.113200  1
  Br  Br14  1  0.035204  0.971520  0.695273  1
  Br  Br15  1  0.698638  0.032757  0.977999  1
  Br  Br16  1  0.971556  0.701965  0.039942  1
  Br  Br17  1  0.964796  0.028480  0.304727  1
  Br  Br18  1  0.301362  0.967243  0.022001  1
  Br  Br19  1  0.028444  0.298035  0.960058  1
