# generated using pymatgen
data_Tb10Nd6Cd4CoNi3
_symmetry_space_group_name_H-M   'P 1'
_cell_length_a   9.68604838
_cell_length_b   9.68604801
_cell_length_c   9.68604995
_cell_angle_alpha   60.08446891
_cell_angle_beta   60.08447269
_cell_angle_gamma   60.08446711
_symmetry_Int_Tables_number   1
_chemical_formula_structural   Tb10Nd6Cd4CoNi3
_chemical_formula_sum   'Tb10 Nd6 Cd4 Co1 Ni3'
_cell_volume   643.80664105
_cell_formula_units_Z   1
loop_
 _symmetry_equiv_pos_site_id
 _symmetry_equiv_pos_as_xyz
  1  'x, y, z'
loop_
 _atom_site_type_symbol
 _atom_site_label
 _atom_site_symmetry_multiplicity
 _atom_site_fract_x
 _atom_site_fract_y
 _atom_site_fract_z
 _atom_site_occupancy
  Tb  Tb0  1  0.597349  0.597349  0.597349  1
  Tb  Tb1  1  0.596266  0.596266  0.208302  1
  Tb  Tb2  1  0.596266  0.208302  0.596266  1
  Tb  Tb3  1  0.208302  0.596266  0.596266  1
  Tb  Tb4  1  0.067137  0.437029  0.437029  1
  Tb  Tb5  1  0.435897  0.062327  0.062327  1
  Tb  Tb6  1  0.437029  0.067137  0.437029  1
  Tb  Tb7  1  0.062327  0.435897  0.062327  1
  Tb  Tb8  1  0.437029  0.437029  0.067137  1
  Tb  Tb9  1  0.062327  0.062327  0.435897  1
  Nd  Nd10  1  0.189952  0.810995  0.810995  1
  Nd  Nd11  1  0.808355  0.189330  0.189330  1
  Nd  Nd12  1  0.810995  0.189952  0.810995  1
  Nd  Nd13  1  0.189330  0.808355  0.189330  1
  Nd  Nd14  1  0.810995  0.810995  0.189952  1
  Nd  Nd15  1  0.189330  0.189330  0.808355  1
  Cd  Cd16  1  0.829279  0.829279  0.829279  1
  Cd  Cd17  1  0.829801  0.829801  0.510845  1
  Cd  Cd18  1  0.829801  0.510845  0.829801  1
  Cd  Cd19  1  0.510845  0.829801  0.829801  1
  Co  Co20  1  0.392394  0.392394  0.392394  1
  Ni  Ni21  1  0.392246  0.392246  0.824505  1
  Ni  Ni22  1  0.392246  0.824505  0.392246  1
  Ni  Ni23  1  0.824505  0.392246  0.392246  1
