# generated using pymatgen
data_Dy8Tm2In8Pt3Rh
_symmetry_space_group_name_H-M   'P 1'
_cell_length_a   3.62748400
_cell_length_b   8.13972369
_cell_length_c   18.24788239
_cell_angle_alpha   90.04871304
_cell_angle_beta   90.00000000
_cell_angle_gamma   90.00000000
_symmetry_Int_Tables_number   1
_chemical_formula_structural   Dy8Tm2In8Pt3Rh
_chemical_formula_sum   'Dy8 Tm2 In8 Pt3 Rh1'
_cell_volume   538.79987254
_cell_formula_units_Z   1
loop_
 _symmetry_equiv_pos_site_id
 _symmetry_equiv_pos_as_xyz
  1  'x, y, z'
loop_
 _atom_site_type_symbol
 _atom_site_label
 _atom_site_symmetry_multiplicity
 _atom_site_fract_x
 _atom_site_fract_y
 _atom_site_fract_z
 _atom_site_occupancy
  Dy  Dy0  1  0.000000  0.382865  0.915388  1
  Dy  Dy1  1  0.000000  0.617264  0.085585  1
  Dy  Dy2  1  0.000000  0.239303  0.221858  1
  Dy  Dy3  1  0.000000  0.757515  0.779448  1
  Dy  Dy4  1  0.000000  0.256684  0.720696  1
  Dy  Dy5  1  0.000000  0.750786  0.279309  1
  Dy  Dy6  1  0.000000  0.999901  0.000065  1
  Dy  Dy7  1  0.000000  0.500210  0.499766  1
  Tm  Tm8  1  0.000000  0.114460  0.411897  1
  Tm  Tm9  1  0.000000  0.883006  0.585508  1
  In  In10  1  0.500000  0.422332  0.351677  1
  In  In11  1  0.500000  0.576447  0.648292  1
  In  In12  1  0.500000  0.075093  0.851309  1
  In  In13  1  0.500000  0.927836  0.149652  1
  In  In14  1  0.500000  0.291581  0.067067  1
  In  In15  1  0.500000  0.707880  0.933395  1
  In  In16  1  0.500000  0.206002  0.565965  1
  In  In17  1  0.500000  0.794767  0.432049  1
  Pt  Pt18  1  0.500000  0.974159  0.695225  1
  Pt  Pt19  1  0.500000  0.475257  0.803350  1
  Pt  Pt20  1  0.500000  0.523140  0.197165  1
  Rh  Rh21  1  0.500000  0.023512  0.305333  1
