# generated using pymatgen
data_CaYb2TcH7
_symmetry_space_group_name_H-M   'P 1'
_cell_length_a   5.12810200
_cell_length_b   5.12810234
_cell_length_c   12.05807800
_cell_angle_alpha   90.00000000
_cell_angle_beta   90.00000000
_cell_angle_gamma   119.99999779
_symmetry_Int_Tables_number   1
_chemical_formula_structural   CaYb2TcH7
_chemical_formula_sum   'Ca2 Yb4 Tc2 H14'
_cell_volume   274.61361735
_cell_formula_units_Z   2
loop_
 _symmetry_equiv_pos_site_id
 _symmetry_equiv_pos_as_xyz
  1  'x, y, z'
loop_
 _atom_site_type_symbol
 _atom_site_label
 _atom_site_symmetry_multiplicity
 _atom_site_fract_x
 _atom_site_fract_y
 _atom_site_fract_z
 _atom_site_occupancy
  Ca  Ca0  1  0.000000  0.000000  0.250000  1
  Ca  Ca1  1  0.000000  0.000000  0.750000  1
  Yb  Yb2  1  0.333333  0.666667  0.437129  1
  Yb  Yb3  1  0.666667  0.333333  0.562871  1
  Yb  Yb4  1  0.666667  0.333333  0.937129  1
  Yb  Yb5  1  0.333333  0.666667  0.062871  1
  Tc  Tc6  1  0.000000  0.000000  0.500000  1
  Tc  Tc7  1  0.000000  0.000000  0.000000  1
  H  H8  1  0.333333  0.666667  0.250000  1
  H  H9  1  0.666667  0.333333  0.750000  1
  H  H10  1  0.161118  0.838882  0.910280  1
  H  H11  1  0.161118  0.322236  0.910280  1
  H  H12  1  0.677764  0.838882  0.910280  1
  H  H13  1  0.838882  0.161118  0.089720  1
  H  H14  1  0.838882  0.677764  0.089720  1
  H  H15  1  0.322236  0.161118  0.089720  1
  H  H16  1  0.838882  0.161118  0.410280  1
  H  H17  1  0.838882  0.677764  0.410280  1
  H  H18  1  0.322236  0.161118  0.410280  1
  H  H19  1  0.161118  0.838882  0.589720  1
  H  H20  1  0.161118  0.322236  0.589720  1
  H  H21  1  0.677764  0.838882  0.589720  1
