# generated using pymatgen
data_Mg2Zr3AlCu6
_symmetry_space_group_name_H-M   'P 1'
_cell_length_a   4.48365900
_cell_length_b   6.26698000
_cell_length_c   13.44070900
_cell_angle_alpha   89.99996042
_cell_angle_beta   89.99764342
_cell_angle_gamma   90.00151818
_symmetry_Int_Tables_number   1
_chemical_formula_structural   Mg2Zr3AlCu6
_chemical_formula_sum   'Mg4 Zr6 Al2 Cu12'
_cell_volume   377.67049917
_cell_formula_units_Z   2
loop_
 _symmetry_equiv_pos_site_id
 _symmetry_equiv_pos_as_xyz
  1  'x, y, z'
loop_
 _atom_site_type_symbol
 _atom_site_label
 _atom_site_symmetry_multiplicity
 _atom_site_fract_x
 _atom_site_fract_y
 _atom_site_fract_z
 _atom_site_occupancy
  Mg  Mg0  1  0.000083  0.000004  0.332473  1
  Mg  Mg1  1  0.499996  0.499994  0.499437  1
  Mg  Mg2  1  0.999889  0.000008  0.667170  1
  Mg  Mg3  1  0.499910  0.499997  0.834152  1
  Zr  Zr4  1  0.000000  0.500007  0.001731  1
  Zr  Zr5  1  0.500120  0.999996  0.164873  1
  Zr  Zr6  1  0.000095  0.500009  0.329057  1
  Zr  Zr7  1  0.500003  0.999984  0.497187  1
  Zr  Zr8  1  0.999893  0.500017  0.669305  1
  Zr  Zr9  1  0.499892  0.999992  0.837761  1
  Al  Al10  1  0.000013  0.000003  0.000978  1
  Al  Al11  1  0.500106  0.499999  0.165670  1
  Cu  Cu12  1  0.499974  0.252059  0.002765  1
  Cu  Cu13  1  0.500045  0.747939  0.002769  1
  Cu  Cu14  1  0.000168  0.247868  0.163907  1
  Cu  Cu15  1  0.000100  0.752138  0.163907  1
  Cu  Cu16  1  0.500109  0.258965  0.329121  1
  Cu  Cu17  1  0.500101  0.741039  0.329125  1
  Cu  Cu18  1  0.999943  0.249216  0.500121  1
  Cu  Cu19  1  0.000074  0.750788  0.500117  1
  Cu  Cu20  1  0.499923  0.249850  0.666469  1
  Cu  Cu21  1  0.499811  0.750137  0.666468  1
  Cu  Cu22  1  0.999880  0.240585  0.837721  1
  Cu  Cu23  1  0.999871  0.759411  0.837716  1
