# generated using pymatgen
data_ThGaCu2Si
_symmetry_space_group_name_H-M   'P 1'
_cell_length_a   5.82192016
_cell_length_b   5.82192028
_cell_length_c   5.82191976
_cell_angle_alpha   138.28723768
_cell_angle_beta   138.28724045
_cell_angle_gamma   60.46335707
_symmetry_Int_Tables_number   1
_chemical_formula_structural   ThGaCu2Si
_chemical_formula_sum   'Th1 Ga1 Cu2 Si1'
_cell_volume   86.44419021
_cell_formula_units_Z   1
loop_
 _symmetry_equiv_pos_site_id
 _symmetry_equiv_pos_as_xyz
  1  'x, y, z'
loop_
 _atom_site_type_symbol
 _atom_site_label
 _atom_site_symmetry_multiplicity
 _atom_site_fract_x
 _atom_site_fract_y
 _atom_site_fract_z
 _atom_site_occupancy
  Th  Th0  1  0.997653  0.997653  0.000000  1
  Ga  Ga1  1  0.620979  0.620979  0.000000  1
  Cu  Cu2  1  0.753603  0.253603  0.500000  1
  Cu  Cu3  1  0.253603  0.753603  0.500000  1
  Si  Si4  1  0.374161  0.374161  0.000000  1
