# generated using pymatgen
data_EuHoErGa8Ag3
_symmetry_space_group_name_H-M   'P 1'
_cell_length_a   4.37093990
_cell_length_b   8.38185463
_cell_length_c   8.38185331
_cell_angle_alpha   69.94947001
_cell_angle_beta   74.88611579
_cell_angle_gamma   74.88612071
_symmetry_Int_Tables_number   1
_chemical_formula_structural   EuHoErGa8Ag3
_chemical_formula_sum   'Eu1 Ho1 Er1 Ga8 Ag3'
_cell_volume   273.47628958
_cell_formula_units_Z   1
loop_
 _symmetry_equiv_pos_site_id
 _symmetry_equiv_pos_as_xyz
  1  'x, y, z'
loop_
 _atom_site_type_symbol
 _atom_site_label
 _atom_site_symmetry_multiplicity
 _atom_site_fract_x
 _atom_site_fract_y
 _atom_site_fract_z
 _atom_site_occupancy
  Eu  Eu0  1  0.499977  0.500023  0.500023  1
  Ho  Ho1  1  0.799875  0.200125  0.200125  1
  Er  Er2  1  0.200095  0.799905  0.799905  1
  Ga  Ga3  1  0.354868  0.362617  0.927647  1
  Ga  Ga4  1  0.645148  0.637442  0.072261  1
  Ga  Ga5  1  0.354868  0.927647  0.362617  1
  Ga  Ga6  1  0.645148  0.072261  0.637442  1
  Ga  Ga7  1  0.161190  0.470707  0.206912  1
  Ga  Ga8  1  0.838759  0.529376  0.793106  1
  Ga  Ga9  1  0.161190  0.206912  0.470707  1
  Ga  Ga10  1  0.838759  0.793106  0.529376  1
  Ag  Ag11  1  0.500037  0.999963  0.999963  1
  Ag  Ag12  1  0.000042  0.807549  0.192366  1
  Ag  Ag13  1  0.000042  0.192366  0.807549  1
