# generated using pymatgen
data_Li2SiHgSe4
_symmetry_space_group_name_H-M   'P 1'
_cell_length_a   6.81340000
_cell_length_b   7.17502900
_cell_length_c   8.17944500
_cell_angle_alpha   90.00000000
_cell_angle_beta   90.00000000
_cell_angle_gamma   90.00000000
_symmetry_Int_Tables_number   1
_chemical_formula_structural   Li2SiHgSe4
_chemical_formula_sum   'Li4 Si2 Hg2 Se8'
_cell_volume   399.86315045
_cell_formula_units_Z   2
loop_
 _symmetry_equiv_pos_site_id
 _symmetry_equiv_pos_as_xyz
  1  'x, y, z'
loop_
 _atom_site_type_symbol
 _atom_site_label
 _atom_site_symmetry_multiplicity
 _atom_site_fract_x
 _atom_site_fract_y
 _atom_site_fract_z
 _atom_site_occupancy
  Li  Li0  1  0.508330  0.821824  0.748400  1
  Li  Li1  1  0.008330  0.178176  0.751600  1
  Li  Li2  1  0.008330  0.178176  0.248400  1
  Li  Li3  1  0.508330  0.821824  0.251600  1
  Si  Si4  1  0.004417  0.673644  0.000000  1
  Si  Si5  1  0.504417  0.326356  0.500000  1
  Hg  Hg6  1  0.509801  0.353419  0.000000  1
  Hg  Hg7  1  0.009801  0.646581  0.500000  1
  Se  Se8  1  0.907567  0.367268  0.000000  1
  Se  Se9  1  0.407567  0.632732  0.500000  1
  Se  Se10  1  0.886009  0.833011  0.776016  1
  Se  Se11  1  0.386009  0.166989  0.723984  1
  Se  Se12  1  0.386009  0.166989  0.276016  1
  Se  Se13  1  0.886009  0.833011  0.223984  1
  Se  Se14  1  0.342036  0.694206  0.000000  1
  Se  Se15  1  0.842036  0.305794  0.500000  1
