# generated using pymatgen
data_CaInNiSn
_symmetry_space_group_name_H-M   'P 1'
_cell_length_a   5.84102045
_cell_length_b   5.84102095
_cell_length_c   7.42484093
_cell_angle_alpha   89.08435325
_cell_angle_beta   90.91564628
_cell_angle_gamma   136.22135700
_symmetry_Int_Tables_number   1
_chemical_formula_structural   CaInNiSn
_chemical_formula_sum   'Ca2 In2 Ni2 Sn2'
_cell_volume   175.23759998
_cell_formula_units_Z   2
loop_
 _symmetry_equiv_pos_site_id
 _symmetry_equiv_pos_as_xyz
  1  'x, y, z'
loop_
 _atom_site_type_symbol
 _atom_site_label
 _atom_site_symmetry_multiplicity
 _atom_site_fract_x
 _atom_site_fract_y
 _atom_site_fract_z
 _atom_site_occupancy
  Ca  Ca0  1  0.562311  0.437689  0.250792  1
  Ca  Ca1  1  0.437689  0.562311  0.749208  1
  In  In2  1  0.850073  0.149927  0.046873  1
  In  In3  1  0.149927  0.850073  0.953127  1
  Ni  Ni4  1  0.284740  0.715260  0.263469  1
  Ni  Ni5  1  0.715260  0.284740  0.736531  1
  Sn  Sn6  1  0.854436  0.145564  0.446984  1
  Sn  Sn7  1  0.145564  0.854436  0.553016  1
