# generated using pymatgen
data_Pa2Ga2OsPt
_symmetry_space_group_name_H-M   'P 1'
_cell_length_a   7.13123900
_cell_length_b   7.13123863
_cell_length_c   8.04825100
_cell_angle_alpha   90.00000000
_cell_angle_beta   90.00000000
_cell_angle_gamma   119.99999706
_symmetry_Int_Tables_number   1
_chemical_formula_structural   Pa2Ga2OsPt
_chemical_formula_sum   'Pa6 Ga6 Os3 Pt3'
_cell_volume   354.45582532
_cell_formula_units_Z   3
loop_
 _symmetry_equiv_pos_site_id
 _symmetry_equiv_pos_as_xyz
  1  'x, y, z'
loop_
 _atom_site_type_symbol
 _atom_site_label
 _atom_site_symmetry_multiplicity
 _atom_site_fract_x
 _atom_site_fract_y
 _atom_site_fract_z
 _atom_site_occupancy
  Pa  Pa0  1  0.996617  0.577468  0.745550  1
  Pa  Pa1  1  0.996385  0.577359  0.254431  1
  Pa  Pa2  1  0.580975  0.003615  0.254431  1
  Pa  Pa3  1  0.580851  0.003383  0.745550  1
  Pa  Pa4  1  0.422641  0.419025  0.254431  1
  Pa  Pa5  1  0.422532  0.419149  0.745550  1
  Ga  Ga6  1  0.001532  0.246084  0.499977  1
  Ga  Ga7  1  0.757137  0.751161  0.999993  1
  Ga  Ga8  1  0.994023  0.242863  0.999993  1
  Ga  Ga9  1  0.244553  0.998468  0.499977  1
  Ga  Ga10  1  0.248839  0.005977  0.999993  1
  Ga  Ga11  1  0.753916  0.755447  0.499977  1
  Os  Os12  1  0.333333  0.666667  0.499938  1
  Os  Os13  1  0.666667  0.333333  0.500121  1
  Os  Os14  1  0.666667  0.333333  0.999917  1
  Pt  Pt15  1  0.000000  0.000000  0.249582  1
  Pt  Pt16  1  0.000000  0.000000  0.750392  1
  Pt  Pt17  1  0.333333  0.666667  0.000202  1
