# generated using pymatgen
data_AlMoBr8
_symmetry_space_group_name_H-M   'P 1'
_cell_length_a   10.28490648
_cell_length_b   10.28490595
_cell_length_c   9.13849100
_cell_angle_alpha   90.00000000
_cell_angle_beta   90.00000000
_cell_angle_gamma   128.21940054
_symmetry_Int_Tables_number   1
_chemical_formula_structural   AlMoBr8
_chemical_formula_sum   'Al2 Mo2 Br16'
_cell_volume   759.45643673
_cell_formula_units_Z   2
loop_
 _symmetry_equiv_pos_site_id
 _symmetry_equiv_pos_as_xyz
  1  'x, y, z'
loop_
 _atom_site_type_symbol
 _atom_site_label
 _atom_site_symmetry_multiplicity
 _atom_site_fract_x
 _atom_site_fract_y
 _atom_site_fract_z
 _atom_site_occupancy
  Al  Al0  1  0.812061  0.187939  0.250000  1
  Al  Al1  1  0.187939  0.812061  0.750000  1
  Mo  Mo2  1  0.612305  0.387695  0.250000  1
  Mo  Mo3  1  0.387695  0.612305  0.750000  1
  Br  Br4  1  0.525257  0.068263  0.250000  1
  Br  Br5  1  0.068263  0.525257  0.750000  1
  Br  Br6  1  0.474743  0.931737  0.750000  1
  Br  Br7  1  0.931737  0.474743  0.250000  1
  Br  Br8  1  0.633630  0.366370  0.988024  1
  Br  Br9  1  0.366370  0.633630  0.011976  1
  Br  Br10  1  0.633630  0.366370  0.511976  1
  Br  Br11  1  0.366370  0.633630  0.488024  1
  Br  Br12  1  0.324884  0.272020  0.250000  1
  Br  Br13  1  0.272020  0.324884  0.750000  1
  Br  Br14  1  0.675116  0.727980  0.750000  1
  Br  Br15  1  0.727980  0.675116  0.250000  1
  Br  Br16  1  0.879474  0.120526  0.459186  1
  Br  Br17  1  0.120526  0.879474  0.540814  1
  Br  Br18  1  0.879474  0.120526  0.040814  1
  Br  Br19  1  0.120526  0.879474  0.959186  1
