# generated using pymatgen
data_Ta4Cr6PIr
_symmetry_space_group_name_H-M   'P 1'
_cell_length_a   4.87447500
_cell_length_b   4.87447509
_cell_length_c   8.14548500
_cell_angle_alpha   90.00000000
_cell_angle_beta   90.00000000
_cell_angle_gamma   120.00000615
_symmetry_Int_Tables_number   1
_chemical_formula_structural   Ta4Cr6PIr
_chemical_formula_sum   'Ta4 Cr6 P1 Ir1'
_cell_volume   167.61128518
_cell_formula_units_Z   1
loop_
 _symmetry_equiv_pos_site_id
 _symmetry_equiv_pos_as_xyz
  1  'x, y, z'
loop_
 _atom_site_type_symbol
 _atom_site_label
 _atom_site_symmetry_multiplicity
 _atom_site_fract_x
 _atom_site_fract_y
 _atom_site_fract_z
 _atom_site_occupancy
  Ta  Ta0  1  0.333333  0.666667  0.446561  1
  Ta  Ta1  1  0.666667  0.333333  0.553439  1
  Ta  Ta2  1  0.666667  0.333333  0.931658  1
  Ta  Ta3  1  0.333333  0.666667  0.068342  1
  Cr  Cr4  1  0.825720  0.174280  0.241791  1
  Cr  Cr5  1  0.825720  0.651439  0.241791  1
  Cr  Cr6  1  0.348561  0.174280  0.241791  1
  Cr  Cr7  1  0.174280  0.825720  0.758209  1
  Cr  Cr8  1  0.174280  0.348561  0.758209  1
  Cr  Cr9  1  0.651439  0.825720  0.758209  1
  P  P10  1  0.000000  0.000000  0.000000  1
  Ir  Ir11  1  0.000000  0.000000  0.500000  1
