# generated using pymatgen
data_Hf18Ga2ReMo7
_symmetry_space_group_name_H-M   'P 1'
_cell_length_a   8.67096700
_cell_length_b   8.67096801
_cell_length_c   8.72268400
_cell_angle_alpha   90.00000000
_cell_angle_beta   90.00000000
_cell_angle_gamma   120.00000758
_symmetry_Int_Tables_number   1
_chemical_formula_structural   Hf18Ga2ReMo7
_chemical_formula_sum   'Hf18 Ga2 Re1 Mo7'
_cell_volume   567.95752159
_cell_formula_units_Z   1
loop_
 _symmetry_equiv_pos_site_id
 _symmetry_equiv_pos_as_xyz
  1  'x, y, z'
loop_
 _atom_site_type_symbol
 _atom_site_label
 _atom_site_symmetry_multiplicity
 _atom_site_fract_x
 _atom_site_fract_y
 _atom_site_fract_z
 _atom_site_occupancy
  Hf  Hf0  1  0.609710  0.804854  0.045282  1
  Hf  Hf1  1  0.802923  0.605846  0.544852  1
  Hf  Hf2  1  0.195146  0.390290  0.045282  1
  Hf  Hf3  1  0.195146  0.804854  0.045282  1
  Hf  Hf4  1  0.802923  0.197077  0.544852  1
  Hf  Hf5  1  0.394154  0.197077  0.544852  1
  Hf  Hf6  1  0.804854  0.609710  0.954718  1
  Hf  Hf7  1  0.804854  0.195146  0.954718  1
  Hf  Hf8  1  0.390290  0.195146  0.954718  1
  Hf  Hf9  1  0.605846  0.802923  0.455148  1
  Hf  Hf10  1  0.197077  0.802923  0.455148  1
  Hf  Hf11  1  0.197077  0.394154  0.455148  1
  Hf  Hf12  1  0.538568  0.077137  0.249320  1
  Hf  Hf13  1  0.461432  0.922863  0.750680  1
  Hf  Hf14  1  0.922863  0.461432  0.249320  1
  Hf  Hf15  1  0.538568  0.461432  0.249320  1
  Hf  Hf16  1  0.461432  0.538568  0.750680  1
  Hf  Hf17  1  0.077137  0.538568  0.750680  1
  Ga  Ga18  1  0.666667  0.333333  0.751403  1
  Ga  Ga19  1  0.333333  0.666667  0.248597  1
  Re  Re20  1  0.000000  0.000000  0.000000  1
  Mo  Mo21  1  0.000000  0.000000  0.500000  1
  Mo  Mo22  1  0.889625  0.779249  0.250525  1
  Mo  Mo23  1  0.110375  0.220751  0.749475  1
  Mo  Mo24  1  0.220751  0.110375  0.250525  1
  Mo  Mo25  1  0.889625  0.110375  0.250525  1
  Mo  Mo26  1  0.110375  0.889625  0.749475  1
  Mo  Mo27  1  0.779249  0.889625  0.749475  1
