# generated using pymatgen
data_Er3MgPt8
_symmetry_space_group_name_H-M   'P 1'
_cell_length_a   17.25903200
_cell_length_b   4.18450500
_cell_length_c   5.78445900
_cell_angle_alpha   90.00000000
_cell_angle_beta   90.00000000
_cell_angle_gamma   90.00000000
_symmetry_Int_Tables_number   1
_chemical_formula_structural   Er3MgPt8
_chemical_formula_sum   'Er6 Mg2 Pt16'
_cell_volume   417.75655418
_cell_formula_units_Z   2
loop_
 _symmetry_equiv_pos_site_id
 _symmetry_equiv_pos_as_xyz
  1  'x, y, z'
loop_
 _atom_site_type_symbol
 _atom_site_label
 _atom_site_symmetry_multiplicity
 _atom_site_fract_x
 _atom_site_fract_y
 _atom_site_fract_z
 _atom_site_occupancy
  Er  Er0  1  0.089125  0.000000  0.299196  1
  Er  Er1  1  0.410875  0.000000  0.299196  1
  Er  Er2  1  0.589125  0.000000  0.700804  1
  Er  Er3  1  0.910874  0.000000  0.700804  1
  Er  Er4  1  0.250000  0.000000  0.794213  1
  Er  Er5  1  0.750000  0.000000  0.205788  1
  Mg  Mg6  1  0.000000  0.499999  0.000000  1
  Mg  Mg7  1  0.500000  0.499999  0.000000  1
  Pt  Pt8  1  0.250000  0.000000  0.289948  1
  Pt  Pt9  1  0.750000  0.000000  0.710053  1
  Pt  Pt10  1  0.166346  0.499999  0.545290  1
  Pt  Pt11  1  0.333654  0.499999  0.545290  1
  Pt  Pt12  1  0.666345  0.499999  0.454709  1
  Pt  Pt13  1  0.833655  0.499999  0.454709  1
  Pt  Pt14  1  0.164417  0.499999  0.043475  1
  Pt  Pt15  1  0.335584  0.499999  0.043475  1
  Pt  Pt16  1  0.664417  0.499999  0.956524  1
  Pt  Pt17  1  0.835584  0.499999  0.956524  1
  Pt  Pt18  1  0.000000  0.499999  0.499999  1
  Pt  Pt19  1  0.500000  0.499999  0.499999  1
  Pt  Pt20  1  0.078891  0.000000  0.792782  1
  Pt  Pt21  1  0.421109  0.000000  0.792782  1
  Pt  Pt22  1  0.578890  0.000000  0.207218  1
  Pt  Pt23  1  0.921109  0.000000  0.207218  1
