# generated using pymatgen
data_Tb2HoEr5(B6Os)4
_symmetry_space_group_name_H-M   'P 1'
_cell_length_a   3.63803600
_cell_length_b   9.11815301
_cell_length_c   11.49678401
_cell_angle_alpha   90.00012329
_cell_angle_beta   90.00000000
_cell_angle_gamma   90.00000000
_symmetry_Int_Tables_number   1
_chemical_formula_structural   Tb2HoEr5(B6Os)4
_chemical_formula_sum   'Tb2 Ho1 Er5 B24 Os4'
_cell_volume   381.37326103
_cell_formula_units_Z   1
loop_
 _symmetry_equiv_pos_site_id
 _symmetry_equiv_pos_as_xyz
  1  'x, y, z'
loop_
 _atom_site_type_symbol
 _atom_site_label
 _atom_site_symmetry_multiplicity
 _atom_site_fract_x
 _atom_site_fract_y
 _atom_site_fract_z
 _atom_site_occupancy
  Tb  Tb0  1  0.000000  0.321739  0.413806  1
  Tb  Tb1  1  0.000000  0.678257  0.586201  1
  Ho  Ho2  1  0.000000  0.821701  0.085835  1
  Er  Er3  1  0.000000  0.178385  0.914208  1
  Er  Er4  1  0.000000  0.943874  0.372519  1
  Er  Er5  1  0.000000  0.056148  0.627485  1
  Er  Er6  1  0.000000  0.443767  0.126650  1
  Er  Er7  1  0.000000  0.556116  0.873306  1
  B  B8  1  0.500000  0.554294  0.432455  1
  B  B9  1  0.500000  0.445685  0.567566  1
  B  B10  1  0.500000  0.053848  0.066536  1
  B  B11  1  0.500000  0.946380  0.933339  1
  B  B12  1  0.500000  0.748653  0.419102  1
  B  B13  1  0.500000  0.251351  0.580932  1
  B  B14  1  0.500000  0.248002  0.079646  1
  B  B15  1  0.500000  0.751987  0.920142  1
  B  B16  1  0.500000  0.791321  0.265789  1
  B  B17  1  0.500000  0.208598  0.734362  1
  B  B18  1  0.500000  0.290714  0.232919  1
  B  B19  1  0.500000  0.709291  0.767043  1
  B  B20  1  0.500000  0.631387  0.184631  1
  B  B21  1  0.500000  0.368445  0.815468  1
  B  B22  1  0.500000  0.130753  0.314380  1
  B  B23  1  0.500000  0.869296  0.685635  1
  B  B24  1  0.500000  0.982571  0.212657  1
  B  B25  1  0.500000  0.017662  0.787401  1
  B  B26  1  0.500000  0.483147  0.286193  1
  B  B27  1  0.500000  0.516796  0.713825  1
  B  B28  1  0.500000  0.607345  0.029646  1
  B  B29  1  0.500000  0.392349  0.970277  1
  B  B30  1  0.500000  0.105584  0.470758  1
  B  B31  1  0.500000  0.894427  0.529254  1
  Os  Os32  1  0.000000  0.637909  0.320446  1
  Os  Os33  1  0.000000  0.362019  0.679636  1
  Os  Os34  1  0.000000  0.137047  0.178287  1
  Os  Os35  1  0.000000  0.863152  0.821663  1
