# generated using pymatgen
data_VHgRh3Se8
_symmetry_space_group_name_H-M   'P 1'
_cell_length_a   7.21226574
_cell_length_b   7.21367722
_cell_length_c   7.21361326
_cell_angle_alpha   63.77023508
_cell_angle_beta   63.78303152
_cell_angle_gamma   63.78562022
_symmetry_Int_Tables_number   1
_chemical_formula_structural   VHgRh3Se8
_chemical_formula_sum   'V1 Hg1 Rh3 Se8'
_cell_volume   287.50926182
_cell_formula_units_Z   1
loop_
 _symmetry_equiv_pos_site_id
 _symmetry_equiv_pos_as_xyz
  1  'x, y, z'
loop_
 _atom_site_type_symbol
 _atom_site_label
 _atom_site_symmetry_multiplicity
 _atom_site_fract_x
 _atom_site_fract_y
 _atom_site_fract_z
 _atom_site_occupancy
  V  V0  1  0.533202  0.533324  0.533401  1
  Hg  Hg1  1  0.105513  0.105126  0.105389  1
  Rh  Rh2  1  0.499461  0.499486  0.986221  1
  Rh  Rh3  1  0.986243  0.499470  0.499471  1
  Rh  Rh4  1  0.499478  0.986331  0.499411  1
  Se  Se5  1  0.739777  0.739670  0.739584  1
  Se  Se6  1  0.275850  0.275779  0.688281  1
  Se  Se7  1  0.275910  0.688179  0.275784  1
  Se  Se8  1  0.688386  0.275885  0.275740  1
  Se  Se9  1  0.751647  0.258065  0.751799  1
  Se  Se10  1  0.257957  0.751771  0.751700  1
  Se  Se11  1  0.259952  0.260143  0.260097  1
  Se  Se12  1  0.751639  0.751763  0.258102  1
