# generated using pymatgen
data_Hf(S2F3)2
_symmetry_space_group_name_H-M   'P 1'
_cell_length_a   6.43243948
_cell_length_b   6.75042720
_cell_length_c   6.91799739
_cell_angle_alpha   60.77315643
_cell_angle_beta   66.54364999
_cell_angle_gamma   58.76759348
_symmetry_Int_Tables_number   1
_chemical_formula_structural   Hf(S2F3)2
_chemical_formula_sum   'Hf1 S4 F6'
_cell_volume   219.89118859
_cell_formula_units_Z   1
loop_
 _symmetry_equiv_pos_site_id
 _symmetry_equiv_pos_as_xyz
  1  'x, y, z'
loop_
 _atom_site_type_symbol
 _atom_site_label
 _atom_site_symmetry_multiplicity
 _atom_site_fract_x
 _atom_site_fract_y
 _atom_site_fract_z
 _atom_site_occupancy
  Hf  Hf0  1  0.000000  0.000000  0.000000  1
  S  S1  1  0.695657  0.532118  0.311029  1
  S  S2  1  0.416726  0.747006  0.485273  1
  S  S3  1  0.583274  0.252994  0.514727  1
  S  S4  1  0.304344  0.467881  0.688971  1
  F  F5  1  0.669964  0.972982  0.167420  1
  F  F6  1  0.965669  0.145108  0.213456  1
  F  F7  1  0.167345  0.660666  0.207451  1
  F  F8  1  0.832655  0.339335  0.792549  1
  F  F9  1  0.034332  0.854893  0.786543  1
  F  F10  1  0.330037  0.027016  0.832579  1
