# generated using pymatgen
data_Y(TiAu2)2
_symmetry_space_group_name_H-M   'P 1'
_cell_length_a   5.67289621
_cell_length_b   5.67289621
_cell_length_c   5.67289624
_cell_angle_alpha   102.36589757
_cell_angle_beta   102.36589544
_cell_angle_gamma   124.86829900
_symmetry_Int_Tables_number   1
_chemical_formula_structural   Y(TiAu2)2
_chemical_formula_sum   'Y1 Ti2 Au4'
_cell_volume   132.78379453
_cell_formula_units_Z   1
loop_
 _symmetry_equiv_pos_site_id
 _symmetry_equiv_pos_as_xyz
  1  'x, y, z'
loop_
 _atom_site_type_symbol
 _atom_site_label
 _atom_site_symmetry_multiplicity
 _atom_site_fract_x
 _atom_site_fract_y
 _atom_site_fract_z
 _atom_site_occupancy
  Y  Y0  1  0.000000  0.000000  0.000000  1
  Ti  Ti1  1  0.250000  0.750000  0.500000  1
  Ti  Ti2  1  0.750000  0.250000  0.500000  1
  Au  Au3  1  0.698563  0.301437  0.000000  1
  Au  Au4  1  0.698563  0.698563  0.397128  1
  Au  Au5  1  0.301437  0.301437  0.602872  1
  Au  Au6  1  0.301437  0.698563  0.000000  1
