# generated using pymatgen
data_Pr6Er10Cd4OsPt3
_symmetry_space_group_name_H-M   'P 1'
_cell_length_a   9.75268737
_cell_length_b   9.75268767
_cell_length_c   9.75268719
_cell_angle_alpha   60.03410949
_cell_angle_beta   60.03410932
_cell_angle_gamma   60.03410622
_symmetry_Int_Tables_number   1
_chemical_formula_structural   Pr6Er10Cd4OsPt3
_chemical_formula_sum   'Pr6 Er10 Cd4 Os1 Pt3'
_cell_volume   656.43777198
_cell_formula_units_Z   1
loop_
 _symmetry_equiv_pos_site_id
 _symmetry_equiv_pos_as_xyz
  1  'x, y, z'
loop_
 _atom_site_type_symbol
 _atom_site_label
 _atom_site_symmetry_multiplicity
 _atom_site_fract_x
 _atom_site_fract_y
 _atom_site_fract_z
 _atom_site_occupancy
  Pr  Pr0  1  0.939053  0.561081  0.561081  1
  Pr  Pr1  1  0.554271  0.941455  0.941455  1
  Pr  Pr2  1  0.561081  0.939053  0.561081  1
  Pr  Pr3  1  0.941455  0.554271  0.941455  1
  Pr  Pr4  1  0.561081  0.561081  0.939053  1
  Pr  Pr5  1  0.941455  0.941455  0.554271  1
  Er  Er6  1  0.351450  0.351450  0.351450  1
  Er  Er7  1  0.347173  0.347173  0.955955  1
  Er  Er8  1  0.347173  0.955955  0.347173  1
  Er  Er9  1  0.955955  0.347173  0.347173  1
  Er  Er10  1  0.817873  0.185683  0.185683  1
  Er  Er11  1  0.182858  0.812112  0.812112  1
  Er  Er12  1  0.185683  0.817873  0.185683  1
  Er  Er13  1  0.812112  0.182858  0.812112  1
  Er  Er14  1  0.185683  0.185683  0.817873  1
  Er  Er15  1  0.812112  0.812112  0.182858  1
  Cd  Cd16  1  0.578775  0.578775  0.578775  1
  Cd  Cd17  1  0.579718  0.579718  0.261049  1
  Cd  Cd18  1  0.579718  0.261049  0.579718  1
  Cd  Cd19  1  0.261049  0.579718  0.579718  1
  Os  Os20  1  0.142766  0.142766  0.142766  1
  Pt  Pt21  1  0.143782  0.143782  0.573946  1
  Pt  Pt22  1  0.143782  0.573946  0.143782  1
  Pt  Pt23  1  0.573946  0.143782  0.143782  1
