# generated using pymatgen
data_Tb4Tm2Al24Os5Pd3
_symmetry_space_group_name_H-M   'P 1'
_cell_length_a   8.82617623
_cell_length_b   8.84435710
_cell_length_c   9.56718212
_cell_angle_alpha   90.18530525
_cell_angle_beta   89.68520719
_cell_angle_gamma   119.48839459
_symmetry_Int_Tables_number   1
_chemical_formula_structural   Tb4Tm2Al24Os5Pd3
_chemical_formula_sum   'Tb4 Tm2 Al24 Os5 Pd3'
_cell_volume   650.07401072
_cell_formula_units_Z   1
loop_
 _symmetry_equiv_pos_site_id
 _symmetry_equiv_pos_as_xyz
  1  'x, y, z'
loop_
 _atom_site_type_symbol
 _atom_site_label
 _atom_site_symmetry_multiplicity
 _atom_site_fract_x
 _atom_site_fract_y
 _atom_site_fract_z
 _atom_site_occupancy
  Tb  Tb0  1  0.187073  0.381546  0.250706  1
  Tb  Tb1  1  0.812927  0.618454  0.749294  1
  Tb  Tb2  1  0.616071  0.815190  0.252593  1
  Tb  Tb3  1  0.383929  0.184810  0.747407  1
  Tm  Tm4  1  0.196842  0.808611  0.252107  1
  Tm  Tm5  1  0.803158  0.191389  0.747893  1
  Al  Al6  1  0.334837  0.670864  0.029621  1
  Al  Al7  1  0.665163  0.329136  0.970379  1
  Al  Al8  1  0.669124  0.331303  0.527461  1
  Al  Al9  1  0.330876  0.668697  0.472539  1
  Al  Al10  1  0.156820  0.325070  0.575542  1
  Al  Al11  1  0.843180  0.674930  0.424458  1
  Al  Al12  1  0.673684  0.841724  0.576226  1
  Al  Al13  1  0.837426  0.676201  0.078772  1
  Al  Al14  1  0.326316  0.158276  0.423774  1
  Al  Al15  1  0.162574  0.323799  0.921228  1
  Al  Al16  1  0.163796  0.834834  0.575198  1
  Al  Al17  1  0.325458  0.157971  0.076818  1
  Al  Al18  1  0.836204  0.165166  0.424802  1
  Al  Al19  1  0.674542  0.842029  0.923182  1
  Al  Al20  1  0.831520  0.159474  0.077245  1
  Al  Al21  1  0.168480  0.840526  0.922755  1
  Al  Al22  1  0.560972  0.125295  0.249785  1
  Al  Al23  1  0.439028  0.874705  0.750215  1
  Al  Al24  1  0.874634  0.438346  0.252256  1
  Al  Al25  1  0.125366  0.561654  0.747744  1
  Al  Al26  1  0.562551  0.436936  0.249777  1
  Al  Al27  1  0.437449  0.563064  0.750223  1
  Al  Al28  1  0.000451  0.001688  0.250242  1
  Al  Al29  1  0.999549  0.998312  0.749758  1
  Os  Os30  1  0.500000  0.000000  0.000000  1
  Os  Os31  1  0.500000  0.000000  0.500000  1
  Os  Os32  1  0.000000  0.500000  0.500000  1
  Os  Os33  1  0.000000  0.000000  0.000000  1
  Os  Os34  1  0.000000  0.000000  0.500000  1
  Pd  Pd35  1  0.000000  0.500000  0.000000  1
  Pd  Pd36  1  0.500000  0.500000  0.000000  1
  Pd  Pd37  1  0.500000  0.500000  0.500000  1
