# generated using pymatgen
data_NdTh7(TcC2)4
_symmetry_space_group_name_H-M   'P 1'
_cell_length_a   5.35315700
_cell_length_b   6.67962807
_cell_length_c   10.13851585
_cell_angle_alpha   90.28260809
_cell_angle_beta   90.00000000
_cell_angle_gamma   90.00000000
_symmetry_Int_Tables_number   1
_chemical_formula_structural   NdTh7(TcC2)4
_chemical_formula_sum   'Nd1 Th7 Tc4 C8'
_cell_volume   362.51949264
_cell_formula_units_Z   1
loop_
 _symmetry_equiv_pos_site_id
 _symmetry_equiv_pos_as_xyz
  1  'x, y, z'
loop_
 _atom_site_type_symbol
 _atom_site_label
 _atom_site_symmetry_multiplicity
 _atom_site_fract_x
 _atom_site_fract_y
 _atom_site_fract_z
 _atom_site_occupancy
  Nd  Nd0  1  0.750000  0.191667  0.949272  1
  Th  Th1  1  0.250000  0.473001  0.780228  1
  Th  Th2  1  0.750000  0.024361  0.277473  1
  Th  Th3  1  0.250000  0.975283  0.722570  1
  Th  Th4  1  0.750000  0.523065  0.222327  1
  Th  Th5  1  0.250000  0.812776  0.048200  1
  Th  Th6  1  0.750000  0.690207  0.548514  1
  Th  Th7  1  0.250000  0.309968  0.451350  1
  Tc  Tc8  1  0.250000  0.272916  0.137782  1
  Tc  Tc9  1  0.750000  0.227200  0.638042  1
  Tc  Tc10  1  0.250000  0.774463  0.362875  1
  Tc  Tc11  1  0.750000  0.730572  0.861387  1
  C  C12  1  0.250000  0.663594  0.554740  1
  C  C13  1  0.750000  0.823560  0.052436  1
  C  C14  1  0.250000  0.169368  0.949751  1
  C  C15  1  0.750000  0.335305  0.445229  1
  C  C16  1  0.250000  0.032483  0.255980  1
  C  C17  1  0.750000  0.468562  0.754890  1
  C  C18  1  0.250000  0.533727  0.244726  1
  C  C19  1  0.750000  0.967917  0.742229  1
