# generated using pymatgen
data_Ca11Hg3C8
_symmetry_space_group_name_H-M   'P 1'
_cell_length_a   10.77573300
_cell_length_b   13.31538991
_cell_length_c   14.34877900
_cell_angle_alpha   74.31482757
_cell_angle_beta   90.00000000
_cell_angle_gamma   90.00000000
_symmetry_Int_Tables_number   1
_chemical_formula_structural   Ca11Hg3C8
_chemical_formula_sum   'Ca44 Hg12 C32'
_cell_volume   1982.14071028
_cell_formula_units_Z   4
loop_
 _symmetry_equiv_pos_site_id
 _symmetry_equiv_pos_as_xyz
  1  'x, y, z'
loop_
 _atom_site_type_symbol
 _atom_site_label
 _atom_site_symmetry_multiplicity
 _atom_site_fract_x
 _atom_site_fract_y
 _atom_site_fract_z
 _atom_site_occupancy
  Ca  Ca0  1  0.754736  0.981513  0.276305  1
  Ca  Ca1  1  0.254736  0.018487  0.223695  1
  Ca  Ca2  1  0.245264  0.018487  0.723695  1
  Ca  Ca3  1  0.745264  0.981513  0.776305  1
  Ca  Ca4  1  0.269132  0.973774  0.484405  1
  Ca  Ca5  1  0.769132  0.026226  0.015595  1
  Ca  Ca6  1  0.730868  0.026226  0.515595  1
  Ca  Ca7  1  0.230868  0.973774  0.984405  1
  Ca  Ca8  1  0.503033  0.893810  0.144006  1
  Ca  Ca9  1  0.003033  0.106190  0.355994  1
  Ca  Ca10  1  0.496967  0.106190  0.855994  1
  Ca  Ca11  1  0.996967  0.893810  0.644006  1
  Ca  Ca12  1  0.003637  0.849925  0.167922  1
  Ca  Ca13  1  0.503637  0.150075  0.332078  1
  Ca  Ca14  1  0.996363  0.150075  0.832078  1
  Ca  Ca15  1  0.496363  0.849925  0.667922  1
  Ca  Ca16  1  0.693770  0.738518  0.043240  1
  Ca  Ca17  1  0.193770  0.261482  0.456760  1
  Ca  Ca18  1  0.306230  0.261482  0.956760  1
  Ca  Ca19  1  0.806230  0.738518  0.543240  1
  Ca  Ca20  1  0.306738  0.732499  0.341630  1
  Ca  Ca21  1  0.806738  0.267501  0.158370  1
  Ca  Ca22  1  0.693262  0.267501  0.658370  1
  Ca  Ca23  1  0.193262  0.732499  0.841630  1
  Ca  Ca24  1  0.341424  0.693935  0.070902  1
  Ca  Ca25  1  0.841424  0.306065  0.429098  1
  Ca  Ca26  1  0.658576  0.306065  0.929098  1
  Ca  Ca27  1  0.158576  0.693935  0.570902  1
  Ca  Ca28  1  0.007539  0.604928  0.098316  1
  Ca  Ca29  1  0.507539  0.395072  0.401684  1
  Ca  Ca30  1  0.992461  0.395072  0.901684  1
  Ca  Ca31  1  0.492461  0.604928  0.598316  1
  Ca  Ca32  1  0.247603  0.494595  0.270464  1
  Ca  Ca33  1  0.747603  0.505405  0.229536  1
  Ca  Ca34  1  0.752397  0.505405  0.729536  1
  Ca  Ca35  1  0.252397  0.494595  0.770464  1
  Ca  Ca36  1  0.488961  0.395831  0.151349  1
  Ca  Ca37  1  0.988961  0.604169  0.348651  1
  Ca  Ca38  1  0.511039  0.604169  0.848651  1
  Ca  Ca39  1  0.011039  0.395831  0.651349  1
  Ca  Ca40  1  0.161465  0.298980  0.169126  1
  Ca  Ca41  1  0.661465  0.701020  0.330874  1
  Ca  Ca42  1  0.838535  0.701020  0.830874  1
  Ca  Ca43  1  0.338535  0.298980  0.669126  1
  Hg  Hg44  1  0.519370  0.872990  0.418299  1
  Hg  Hg45  1  0.019370  0.127010  0.081701  1
  Hg  Hg46  1  0.480630  0.127010  0.581701  1
  Hg  Hg47  1  0.980630  0.872990  0.918299  1
  Hg  Hg48  1  0.022120  0.859992  0.394950  1
  Hg  Hg49  1  0.522120  0.140008  0.105050  1
  Hg  Hg50  1  0.977880  0.140008  0.605050  1
  Hg  Hg51  1  0.477880  0.859992  0.894950  1
  Hg  Hg52  1  0.245767  0.497014  0.002828  1
  Hg  Hg53  1  0.745767  0.502986  0.497172  1
  Hg  Hg54  1  0.754233  0.502986  0.997172  1
  Hg  Hg55  1  0.254233  0.497014  0.502828  1
  C  C56  1  0.344921  0.318730  0.297249  1
  C  C57  1  0.844921  0.681270  0.202751  1
  C  C58  1  0.655079  0.681270  0.702751  1
  C  C59  1  0.155079  0.318730  0.797249  1
  C  C60  1  0.792734  0.774959  0.184004  1
  C  C61  1  0.292734  0.225041  0.315996  1
  C  C62  1  0.207266  0.225041  0.815996  1
  C  C63  1  0.707266  0.774959  0.684004  1
  C  C64  1  0.737314  0.867324  0.161077  1
  C  C65  1  0.237314  0.132676  0.338923  1
  C  C66  1  0.262686  0.132676  0.838923  1
  C  C67  1  0.762686  0.867324  0.661077  1
  C  C68  1  0.271441  0.858214  0.157597  1
  C  C69  1  0.771441  0.141786  0.342403  1
  C  C70  1  0.728559  0.141786  0.842403  1
  C  C71  1  0.228559  0.858214  0.657597  1
  C  C72  1  0.212138  0.767118  0.180683  1
  C  C73  1  0.712138  0.232882  0.319317  1
  C  C74  1  0.787862  0.232882  0.819317  1
  C  C75  1  0.287862  0.767118  0.680683  1
  C  C76  1  0.157514  0.674600  0.210661  1
  C  C77  1  0.657514  0.325400  0.289339  1
  C  C78  1  0.842486  0.325400  0.789339  1
  C  C79  1  0.342486  0.674600  0.710661  1
  C  C80  1  0.491719  0.569459  0.237697  1
  C  C81  1  0.991719  0.430541  0.262303  1
  C  C82  1  0.508281  0.430541  0.762303  1
  C  C83  1  0.008281  0.569459  0.737697  1
  C  C84  1  0.517007  0.665309  0.199193  1
  C  C85  1  0.017007  0.334691  0.300807  1
  C  C86  1  0.482993  0.334691  0.800807  1
  C  C87  1  0.982993  0.665309  0.699193  1
