# generated using pymatgen
data_SmDy7(Si4Mo3)4
_symmetry_space_group_name_H-M   'P 1'
_cell_length_a   6.78491077
_cell_length_b   6.96080704
_cell_length_c   12.93888551
_cell_angle_alpha   90.05269371
_cell_angle_beta   90.01277932
_cell_angle_gamma   90.02780608
_symmetry_Int_Tables_number   1
_chemical_formula_structural   SmDy7(Si4Mo3)4
_chemical_formula_sum   'Sm1 Dy7 Si16 Mo12'
_cell_volume   611.08322119
_cell_formula_units_Z   1
loop_
 _symmetry_equiv_pos_site_id
 _symmetry_equiv_pos_as_xyz
  1  'x, y, z'
loop_
 _atom_site_type_symbol
 _atom_site_label
 _atom_site_symmetry_multiplicity
 _atom_site_fract_x
 _atom_site_fract_y
 _atom_site_fract_z
 _atom_site_occupancy
  Sm  Sm0  1  0.997685  0.166018  0.093332  1
  Dy  Dy1  1  0.497072  0.333272  0.094121  1
  Dy  Dy2  1  0.997294  0.166999  0.405860  1
  Dy  Dy3  1  0.502918  0.667007  0.594232  1
  Dy  Dy4  1  0.002855  0.833031  0.905508  1
  Dy  Dy5  1  0.502945  0.666802  0.905644  1
  Dy  Dy6  1  0.002662  0.832911  0.594230  1
  Dy  Dy7  1  0.497134  0.333136  0.406133  1
  Si  Si8  1  0.658619  0.042268  0.547643  1
  Si  Si9  1  0.158965  0.458927  0.951784  1
  Si  Si10  1  0.343489  0.956460  0.047365  1
  Si  Si11  1  0.841484  0.542068  0.452406  1
  Si  Si12  1  0.341333  0.957743  0.452528  1
  Si  Si13  1  0.840763  0.544066  0.047397  1
  Si  Si14  1  0.657537  0.042064  0.951765  1
  Si  Si15  1  0.158566  0.457886  0.547717  1
  Si  Si16  1  0.534953  0.365210  0.749895  1
  Si  Si17  1  0.035017  0.134888  0.749996  1
  Si  Si18  1  0.464790  0.634749  0.250076  1
  Si  Si19  1  0.964796  0.863910  0.250594  1
  Si  Si20  1  0.802948  0.628290  0.749922  1
  Si  Si21  1  0.303120  0.871737  0.749969  1
  Si  Si22  1  0.197889  0.373058  0.250715  1
  Si  Si23  1  0.695575  0.127901  0.250682  1
  Mo  Mo24  1  0.830773  0.334860  0.625333  1
  Mo  Mo25  1  0.330937  0.165368  0.874354  1
  Mo  Mo26  1  0.169484  0.665137  0.125425  1
  Mo  Mo27  1  0.669172  0.834569  0.374943  1
  Mo  Mo28  1  0.169433  0.665301  0.374915  1
  Mo  Mo29  1  0.668606  0.834139  0.125715  1
  Mo  Mo30  1  0.830281  0.335302  0.874090  1
  Mo  Mo31  1  0.330575  0.165202  0.625358  1
  Mo  Mo32  1  0.665773  0.999573  0.749815  1
  Mo  Mo33  1  0.165822  0.500485  0.749898  1
  Mo  Mo34  1  0.334768  0.999571  0.250406  1
  Mo  Mo35  1  0.833971  0.500093  0.250234  1
