# generated using pymatgen
data_Sm2TiCo10As7Ru
_symmetry_space_group_name_H-M   'P 1'
_cell_length_a   3.81402700
_cell_length_b   9.41973882
_cell_length_c   9.43187805
_cell_angle_alpha   119.82006052
_cell_angle_beta   90.00000000
_cell_angle_gamma   90.00000000
_symmetry_Int_Tables_number   1
_chemical_formula_structural   Sm2TiCo10As7Ru
_chemical_formula_sum   'Sm2 Ti1 Co10 As7 Ru1'
_cell_volume   293.99235651
_cell_formula_units_Z   1
loop_
 _symmetry_equiv_pos_site_id
 _symmetry_equiv_pos_as_xyz
  1  'x, y, z'
loop_
 _atom_site_type_symbol
 _atom_site_label
 _atom_site_symmetry_multiplicity
 _atom_site_fract_x
 _atom_site_fract_y
 _atom_site_fract_z
 _atom_site_occupancy
  Sm  Sm0  1  0.000000  0.670894  0.339242  1
  Sm  Sm1  1  0.500000  0.330402  0.664535  1
  Ti  Ti2  1  0.500000  0.785267  0.893891  1
  Co  Co3  1  0.000000  0.568857  0.941160  1
  Co  Co4  1  0.000000  0.369357  0.428014  1
  Co  Co5  1  0.000000  0.057156  0.628319  1
  Co  Co6  1  0.500000  0.097990  0.877030  1
  Co  Co7  1  0.000000  0.876734  0.156771  1
  Co  Co8  1  0.000000  0.284031  0.125901  1
  Co  Co9  1  0.000000  0.845622  0.726215  1
  Co  Co10  1  0.500000  0.947168  0.381971  1
  Co  Co11  1  0.500000  0.428648  0.048534  1
  Co  Co12  1  0.500000  0.618935  0.567690  1
  As  As13  1  0.000000  0.009619  0.004475  1
  As  As14  1  0.500000  0.704048  0.116429  1
  As  As15  1  0.500000  0.408754  0.292149  1
  As  As16  1  0.500000  0.889472  0.598792  1
  As  As17  1  0.000000  0.584284  0.697862  1
  As  As18  1  0.000000  0.109681  0.409092  1
  As  As19  1  0.000000  0.295451  0.887511  1
  Ru  Ru20  1  0.500000  0.117630  0.214423  1
