# generated using pymatgen
data_Tb2Sc3(Sn3Os)6
_symmetry_space_group_name_H-M   'P 1'
_cell_length_a   9.83882131
_cell_length_b   9.83882150
_cell_length_c   9.78233578
_cell_angle_alpha   59.80879915
_cell_angle_beta   59.80879794
_cell_angle_gamma   59.99999908
_symmetry_Int_Tables_number   1
_chemical_formula_structural   Tb2Sc3(Sn3Os)6
_chemical_formula_sum   'Tb2 Sc3 Sn18 Os6'
_cell_volume   667.65566833
_cell_formula_units_Z   1
loop_
 _symmetry_equiv_pos_site_id
 _symmetry_equiv_pos_as_xyz
  1  'x, y, z'
loop_
 _atom_site_type_symbol
 _atom_site_label
 _atom_site_symmetry_multiplicity
 _atom_site_fract_x
 _atom_site_fract_y
 _atom_site_fract_z
 _atom_site_occupancy
  Tb  Tb0  1  0.001328  0.001328  0.996017  1
  Tb  Tb1  1  0.369609  0.369610  0.891172  1
  Sc  Sc2  1  0.375662  0.876168  0.372508  1
  Sc  Sc3  1  0.876168  0.375662  0.372508  1
  Sc  Sc4  1  0.375662  0.375661  0.372508  1
  Sn  Sn5  1  0.592409  0.592409  0.222774  1
  Sn  Sn6  1  0.593178  0.222171  0.591474  1
  Sn  Sn7  1  0.222171  0.593178  0.591474  1
  Sn  Sn8  1  0.593178  0.593178  0.591474  1
  Sn  Sn9  1  0.750360  0.750360  0.748920  1
  Sn  Sn10  1  0.002129  0.350791  0.644952  1
  Sn  Sn11  1  0.002129  0.002129  0.644952  1
  Sn  Sn12  1  0.350791  0.002129  0.644952  1
  Sn  Sn13  1  0.999559  0.650444  0.350439  1
  Sn  Sn14  1  0.351845  0.650867  0.998955  1
  Sn  Sn15  1  0.998335  0.650867  0.998955  1
  Sn  Sn16  1  0.650867  0.998335  0.998955  1
  Sn  Sn17  1  0.650867  0.351845  0.998955  1
  Sn  Sn18  1  0.650444  0.999559  0.350439  1
  Sn  Sn19  1  0.351845  0.998335  0.998955  1
  Sn  Sn20  1  0.999559  0.999559  0.350439  1
  Sn  Sn21  1  0.998335  0.351845  0.998955  1
  Sn  Sn22  1  0.241899  0.241899  0.274303  1
  Os  Os23  1  0.256299  0.256299  0.741294  1
  Os  Os24  1  0.746107  0.256299  0.741294  1
  Os  Os25  1  0.256299  0.746107  0.741294  1
  Os  Os26  1  0.742552  0.742552  0.257030  1
  Os  Os27  1  0.257865  0.742552  0.257030  1
  Os  Os28  1  0.742552  0.257865  0.257030  1
