# generated using pymatgen
data_Mn5Fe(SiMo2)2
_symmetry_space_group_name_H-M   'P 1'
_cell_length_a   4.77147530
_cell_length_b   4.77147732
_cell_length_c   7.74825400
_cell_angle_alpha   90.00000000
_cell_angle_beta   90.00000000
_cell_angle_gamma   119.80636267
_symmetry_Int_Tables_number   1
_chemical_formula_structural   Mn5Fe(SiMo2)2
_chemical_formula_sum   'Mn5 Fe1 Si2 Mo4'
_cell_volume   153.06790038
_cell_formula_units_Z   1
loop_
 _symmetry_equiv_pos_site_id
 _symmetry_equiv_pos_as_xyz
  1  'x, y, z'
loop_
 _atom_site_type_symbol
 _atom_site_label
 _atom_site_symmetry_multiplicity
 _atom_site_fract_x
 _atom_site_fract_y
 _atom_site_fract_z
 _atom_site_occupancy
  Mn  Mn0  1  0.830362  0.653561  0.750000  1
  Mn  Mn1  1  0.346439  0.169638  0.750000  1
  Mn  Mn2  1  0.170769  0.829231  0.250000  1
  Mn  Mn3  1  0.171386  0.343688  0.250000  1
  Mn  Mn4  1  0.656312  0.828614  0.250000  1
  Fe  Fe5  1  0.831169  0.168831  0.750000  1
  Si  Si6  1  0.998869  0.001131  0.999275  1
  Si  Si7  1  0.998869  0.001131  0.500725  1
  Mo  Mo8  1  0.332241  0.667759  0.936698  1
  Mo  Mo9  1  0.665672  0.334328  0.064419  1
  Mo  Mo10  1  0.665672  0.334328  0.435581  1
  Mo  Mo11  1  0.332241  0.667759  0.563302  1
