# generated using pymatgen
data_Ho6Er2Sc12Si15Rh
_symmetry_space_group_name_H-M   'P 1'
_cell_length_a   7.09828856
_cell_length_b   7.36202340
_cell_length_c   13.97619916
_cell_angle_alpha   89.88240605
_cell_angle_beta   89.81992352
_cell_angle_gamma   90.21628313
_symmetry_Int_Tables_number   1
_chemical_formula_structural   Ho6Er2Sc12Si15Rh
_chemical_formula_sum   'Ho6 Er2 Sc12 Si15 Rh1'
_cell_volume   730.35458481
_cell_formula_units_Z   1
loop_
 _symmetry_equiv_pos_site_id
 _symmetry_equiv_pos_as_xyz
  1  'x, y, z'
loop_
 _atom_site_type_symbol
 _atom_site_label
 _atom_site_symmetry_multiplicity
 _atom_site_fract_x
 _atom_site_fract_y
 _atom_site_fract_z
 _atom_site_occupancy
  Ho  Ho0  1  0.012985  0.175724  0.096796  1
  Ho  Ho1  1  0.988006  0.824102  0.903091  1
  Ho  Ho2  1  0.486828  0.677308  0.903058  1
  Ho  Ho3  1  0.988802  0.822146  0.596249  1
  Ho  Ho4  1  0.512732  0.323696  0.096208  1
  Ho  Ho5  1  0.011471  0.180188  0.403549  1
  Er  Er6  1  0.508626  0.323502  0.403048  1
  Er  Er7  1  0.485401  0.671321  0.597707  1
  Sc  Sc8  1  0.162843  0.503799  0.744952  1
  Sc  Sc9  1  0.838416  0.496858  0.252009  1
  Sc  Sc10  1  0.339348  0.999549  0.250386  1
  Sc  Sc11  1  0.662614  0.996715  0.749333  1
  Sc  Sc12  1  0.330813  0.187631  0.621206  1
  Sc  Sc13  1  0.667992  0.823410  0.373674  1
  Sc  Sc14  1  0.170817  0.664177  0.378425  1
  Sc  Sc15  1  0.671854  0.823994  0.126608  1
  Sc  Sc16  1  0.833760  0.326869  0.623315  1
  Sc  Sc17  1  0.328374  0.177181  0.875556  1
  Sc  Sc18  1  0.831511  0.322176  0.875435  1
  Sc  Sc19  1  0.170352  0.676638  0.125220  1
  Si  Si20  1  0.033787  0.114008  0.749684  1
  Si  Si21  1  0.970395  0.883660  0.251668  1
  Si  Si22  1  0.467385  0.613180  0.248484  1
  Si  Si23  1  0.536946  0.385654  0.752883  1
  Si  Si24  1  0.286179  0.876398  0.750279  1
  Si  Si25  1  0.714293  0.129347  0.249471  1
  Si  Si26  1  0.215955  0.368818  0.247961  1
  Si  Si27  1  0.783722  0.628397  0.752646  1
  Si  Si28  1  0.834485  0.536390  0.460465  1
  Si  Si29  1  0.342975  0.963338  0.460858  1
  Si  Si30  1  0.843361  0.535984  0.038779  1
  Si  Si31  1  0.655722  0.033742  0.538653  1
  Si  Si32  1  0.156490  0.465788  0.961018  1
  Si  Si33  1  0.658042  0.034350  0.961825  1
  Si  Si34  1  0.344259  0.964623  0.039075  1
  Rh  Rh35  1  0.152461  0.469338  0.540425  1
