# generated using pymatgen
data_Eu2CuReN4
_symmetry_space_group_name_H-M   'P 1'
_cell_length_a   5.80195500
_cell_length_b   5.93717236
_cell_length_c   6.53105700
_cell_angle_alpha   73.87463548
_cell_angle_beta   90.00000000
_cell_angle_gamma   90.00000000
_symmetry_Int_Tables_number   1
_chemical_formula_structural   Eu2CuReN4
_chemical_formula_sum   'Eu4 Cu2 Re2 N8'
_cell_volume   216.12525562
_cell_formula_units_Z   2
loop_
 _symmetry_equiv_pos_site_id
 _symmetry_equiv_pos_as_xyz
  1  'x, y, z'
loop_
 _atom_site_type_symbol
 _atom_site_label
 _atom_site_symmetry_multiplicity
 _atom_site_fract_x
 _atom_site_fract_y
 _atom_site_fract_z
 _atom_site_occupancy
  Eu  Eu0  1  0.250000  0.264680  0.060453  1
  Eu  Eu1  1  0.750000  0.735320  0.939547  1
  Eu  Eu2  1  0.750000  0.773885  0.432958  1
  Eu  Eu3  1  0.250000  0.226115  0.567042  1
  Cu  Cu4  1  0.750000  0.283722  0.311178  1
  Cu  Cu5  1  0.250000  0.716278  0.688822  1
  Re  Re6  1  0.250000  0.727038  0.196040  1
  Re  Re7  1  0.750000  0.272962  0.803960  1
  N  N8  1  0.499473  0.471517  0.752986  1
  N  N9  1  0.999473  0.528483  0.247014  1
  N  N10  1  0.500527  0.528483  0.247014  1
  N  N11  1  0.000527  0.471517  0.752986  1
  N  N12  1  0.750000  0.084845  0.618347  1
  N  N13  1  0.250000  0.915155  0.381653  1
  N  N14  1  0.750000  0.093148  0.087333  1
  N  N15  1  0.250000  0.906852  0.912667  1
