# generated using pymatgen
data_Tb3ErPa2Co16(P6Ru)2
_symmetry_space_group_name_H-M   'P 1'
_cell_length_a   3.71762400
_cell_length_b   10.52407706
_cell_length_c   12.15793600
_cell_angle_alpha   90.00631534
_cell_angle_beta   90.00000000
_cell_angle_gamma   90.00000000
_symmetry_Int_Tables_number   1
_chemical_formula_structural   Tb3ErPa2Co16(P6Ru)2
_chemical_formula_sum   'Tb3 Er1 Pa2 Co16 P12 Ru2'
_cell_volume   475.67391150
_cell_formula_units_Z   1
loop_
 _symmetry_equiv_pos_site_id
 _symmetry_equiv_pos_as_xyz
  1  'x, y, z'
loop_
 _atom_site_type_symbol
 _atom_site_label
 _atom_site_symmetry_multiplicity
 _atom_site_fract_x
 _atom_site_fract_y
 _atom_site_fract_z
 _atom_site_occupancy
  Tb  Tb0  1  0.500000  0.184472  0.206313  1
  Tb  Tb1  1  0.000000  0.684985  0.793763  1
  Tb  Tb2  1  0.000000  0.315152  0.794194  1
  Er  Er3  1  0.500000  0.815452  0.205911  1
  Pa  Pa4  1  0.000000  0.499896  0.530324  1
  Pa  Pa5  1  0.500000  0.999457  0.469027  1
  Co  Co6  1  0.500000  0.500165  0.695711  1
  Co  Co7  1  0.000000  0.999232  0.303859  1
  Co  Co8  1  0.000000  0.500659  0.984792  1
  Co  Co9  1  0.500000  0.999393  0.016367  1
  Co  Co10  1  0.500000  0.332902  0.990063  1
  Co  Co11  1  0.500000  0.667874  0.990243  1
  Co  Co12  1  0.000000  0.166721  0.010638  1
  Co  Co13  1  0.000000  0.832767  0.011197  1
  Co  Co14  1  0.500000  0.302322  0.431251  1
  Co  Co15  1  0.500000  0.697748  0.430286  1
  Co  Co16  1  0.000000  0.197266  0.568849  1
  Co  Co17  1  0.000000  0.802311  0.567772  1
  Co  Co18  1  0.500000  0.880814  0.709445  1
  Co  Co19  1  0.500000  0.119063  0.710126  1
  Co  Co20  1  0.000000  0.620258  0.289372  1
  Co  Co21  1  0.000000  0.381181  0.290265  1
  P  P22  1  0.500000  0.500355  0.879136  1
  P  P23  1  0.000000  0.999145  0.121938  1
  P  P24  1  0.500000  0.499787  0.347746  1
  P  P25  1  0.000000  0.999994  0.652102  1
  P  P26  1  0.500000  0.305643  0.616075  1
  P  P27  1  0.500000  0.694245  0.615442  1
  P  P28  1  0.000000  0.193830  0.384080  1
  P  P29  1  0.000000  0.805980  0.382450  1
  P  P30  1  0.500000  0.847176  0.894629  1
  P  P31  1  0.500000  0.152734  0.895201  1
  P  P32  1  0.000000  0.654093  0.105967  1
  P  P33  1  0.000000  0.346965  0.105359  1
  Ru  Ru34  1  0.500000  0.500401  0.156129  1
  Ru  Ru35  1  0.000000  0.999561  0.843979  1
