# generated using pymatgen
data_Tb7Yb(Si4W3)4
_symmetry_space_group_name_H-M   'P 1'
_cell_length_a   6.78505503
_cell_length_b   6.95111915
_cell_length_c   12.93666752
_cell_angle_alpha   90.06655944
_cell_angle_beta   89.95914681
_cell_angle_gamma   90.04753265
_symmetry_Int_Tables_number   1
_chemical_formula_structural   Tb7Yb(Si4W3)4
_chemical_formula_sum   'Tb7 Yb1 Si16 W12'
_cell_volume   610.14066566
_cell_formula_units_Z   1
loop_
 _symmetry_equiv_pos_site_id
 _symmetry_equiv_pos_as_xyz
  1  'x, y, z'
loop_
 _atom_site_type_symbol
 _atom_site_label
 _atom_site_symmetry_multiplicity
 _atom_site_fract_x
 _atom_site_fract_y
 _atom_site_fract_z
 _atom_site_occupancy
  Tb  Tb0  1  0.497562  0.332044  0.093947  1
  Tb  Tb1  1  0.997308  0.168087  0.406152  1
  Tb  Tb2  1  0.503787  0.667831  0.593423  1
  Tb  Tb3  1  0.002977  0.834116  0.908319  1
  Tb  Tb4  1  0.502884  0.667521  0.907116  1
  Tb  Tb5  1  0.003622  0.832585  0.593616  1
  Tb  Tb6  1  0.496860  0.332034  0.405644  1
  Yb  Yb7  1  0.996747  0.166384  0.091001  1
  Si  Si8  1  0.661913  0.043536  0.546215  1
  Si  Si9  1  0.159869  0.456133  0.953277  1
  Si  Si10  1  0.338711  0.958159  0.047659  1
  Si  Si11  1  0.838655  0.543581  0.453749  1
  Si  Si12  1  0.338179  0.956718  0.453293  1
  Si  Si13  1  0.840023  0.540664  0.047622  1
  Si  Si14  1  0.659998  0.043722  0.953617  1
  Si  Si15  1  0.161559  0.456077  0.546101  1
  Si  Si16  1  0.534557  0.369538  0.750211  1
  Si  Si17  1  0.034662  0.131025  0.750651  1
  Si  Si18  1  0.464975  0.630054  0.250129  1
  Si  Si19  1  0.965511  0.871335  0.249277  1
  Si  Si20  1  0.803619  0.633112  0.750671  1
  Si  Si21  1  0.302556  0.867775  0.750342  1
  Si  Si22  1  0.194637  0.365830  0.248222  1
  Si  Si23  1  0.699727  0.131452  0.248276  1
  W  W24  1  0.830415  0.337649  0.625804  1
  W  W25  1  0.331128  0.162774  0.874306  1
  W  W26  1  0.169268  0.664378  0.126749  1
  W  W27  1  0.669032  0.836477  0.373609  1
  W  W28  1  0.169504  0.662227  0.374658  1
  W  W29  1  0.668606  0.834529  0.125533  1
  W  W30  1  0.829596  0.337798  0.873587  1
  W  W31  1  0.331283  0.163281  0.626231  1
  W  W32  1  0.665229  0.002139  0.749511  1
  W  W33  1  0.164913  0.497968  0.750038  1
  W  W34  1  0.334832  0.997506  0.250769  1
  W  W35  1  0.835297  0.503960  0.250673  1
