# generated using pymatgen
data_AlInCu(Ni10B3)2
_symmetry_space_group_name_H-M   'P 1'
_cell_length_a   7.44195021
_cell_length_b   7.44195024
_cell_length_c   7.44195000
_cell_angle_alpha   60.00000108
_cell_angle_beta   60.00000095
_cell_angle_gamma   60.00000077
_symmetry_Int_Tables_number   1
_chemical_formula_structural   AlInCu(Ni10B3)2
_chemical_formula_sum   'Al1 In1 Cu1 Ni20 B6'
_cell_volume   291.43739845
_cell_formula_units_Z   1
loop_
 _symmetry_equiv_pos_site_id
 _symmetry_equiv_pos_as_xyz
  1  'x, y, z'
loop_
 _atom_site_type_symbol
 _atom_site_label
 _atom_site_symmetry_multiplicity
 _atom_site_fract_x
 _atom_site_fract_y
 _atom_site_fract_z
 _atom_site_occupancy
  Al  Al0  1  0.750000  0.750000  0.750000  1
  In  In1  1  0.250000  0.250000  0.250000  1
  Cu  Cu2  1  0.000000  0.000000  0.000000  1
  Ni  Ni3  1  0.388702  0.388702  0.388702  1
  Ni  Ni4  1  0.619695  0.619695  0.619695  1
  Ni  Ni5  1  0.388702  0.388702  0.833894  1
  Ni  Ni6  1  0.388702  0.833894  0.388702  1
  Ni  Ni7  1  0.619695  0.619695  0.140916  1
  Ni  Ni8  1  0.619695  0.140916  0.619695  1
  Ni  Ni9  1  0.833894  0.388702  0.388702  1
  Ni  Ni10  1  0.140916  0.619695  0.619695  1
  Ni  Ni11  1  0.339302  0.998561  0.998561  1
  Ni  Ni12  1  0.663575  0.998561  0.998561  1
  Ni  Ni13  1  0.998561  0.339302  0.663575  1
  Ni  Ni14  1  0.998561  0.663575  0.339302  1
  Ni  Ni15  1  0.998561  0.339302  0.998561  1
  Ni  Ni16  1  0.663575  0.998561  0.339302  1
  Ni  Ni17  1  0.998561  0.663575  0.998561  1
  Ni  Ni18  1  0.339302  0.998561  0.663575  1
  Ni  Ni19  1  0.998561  0.998561  0.339302  1
  Ni  Ni20  1  0.998561  0.998561  0.663575  1
  Ni  Ni21  1  0.663575  0.339302  0.998561  1
  Ni  Ni22  1  0.339302  0.663575  0.998561  1
  B  B23  1  0.727410  0.272590  0.272590  1
  B  B24  1  0.272590  0.727410  0.727410  1
  B  B25  1  0.272590  0.727410  0.272590  1
  B  B26  1  0.727410  0.272590  0.727410  1
  B  B27  1  0.272590  0.272590  0.727410  1
  B  B28  1  0.727410  0.727410  0.272590  1
