# generated using pymatgen
data_Er5P12Ru12Rh7
_symmetry_space_group_name_H-M   'P 1'
_cell_length_a   12.57566546
_cell_length_b   12.53607310
_cell_length_c   3.94313500
_cell_angle_alpha   90.00000000
_cell_angle_beta   90.00000000
_cell_angle_gamma   119.72127881
_symmetry_Int_Tables_number   1
_chemical_formula_structural   Er5P12Ru12Rh7
_chemical_formula_sum   'Er5 P12 Ru12 Rh7'
_cell_volume   539.85568741
_cell_formula_units_Z   1
loop_
 _symmetry_equiv_pos_site_id
 _symmetry_equiv_pos_as_xyz
  1  'x, y, z'
loop_
 _atom_site_type_symbol
 _atom_site_label
 _atom_site_symmetry_multiplicity
 _atom_site_fract_x
 _atom_site_fract_y
 _atom_site_fract_z
 _atom_site_occupancy
  Er  Er0  1  0.666646  0.333892  0.000000  1
  Er  Er1  1  0.333886  0.667462  0.000000  1
  Er  Er2  1  0.184584  0.997188  0.500001  1
  Er  Er3  1  0.998497  0.184100  0.500001  1
  Er  Er4  1  0.813654  0.812491  0.500001  1
  P  P5  1  0.368761  0.996570  0.000000  1
  P  P6  1  0.814890  0.996194  0.000000  1
  P  P7  1  0.182043  0.181269  0.000000  1
  P  P8  1  0.000190  0.372107  0.000000  1
  P  P9  1  0.631226  0.631464  0.000000  1
  P  P10  1  0.999509  0.814906  0.000000  1
  P  P11  1  0.690243  0.173647  0.500001  1
  P  P12  1  0.481699  0.309821  0.500001  1
  P  P13  1  0.309545  0.482455  0.500001  1
  P  P14  1  0.825456  0.520108  0.500001  1
  P  P15  1  0.175612  0.695022  0.500001  1
  P  P16  1  0.521031  0.826373  0.500001  1
  Ru  Ru17  1  0.815290  0.622354  0.000000  1
  Ru  Ru18  1  0.184237  0.806988  0.000000  1
  Ru  Ru19  1  0.622918  0.816529  0.000000  1
  Ru  Ru20  1  0.717403  0.002428  0.500001  1
  Ru  Ru21  1  0.489507  0.127732  0.500001  1
  Ru  Ru22  1  0.283389  0.283318  0.500001  1
  Ru  Ru23  1  0.873428  0.364046  0.500001  1
  Ru  Ru24  1  0.126957  0.490510  0.500001  1
  Ru  Ru25  1  0.634479  0.509006  0.500001  1
  Ru  Ru26  1  0.508927  0.634934  0.500001  1
  Ru  Ru27  1  0.000021  0.715516  0.500001  1
  Ru  Ru28  1  0.367310  0.875244  0.500001  1
  Rh  Rh29  1  0.999808  0.999882  0.000000  1
  Rh  Rh30  1  0.555115  0.004810  0.000000  1
  Rh  Rh31  1  0.810336  0.184926  0.000000  1
  Rh  Rh32  1  0.374590  0.190584  0.000000  1
  Rh  Rh33  1  0.190672  0.374248  0.000000  1
  Rh  Rh34  1  0.447542  0.448202  0.000000  1
  Rh  Rh35  1  0.000669  0.553742  0.000000  1
