# generated using pymatgen
data_Ho9LuGa3NiBi2
_symmetry_space_group_name_H-M   'P 1'
_cell_length_a   8.52574963
_cell_length_b   8.52574872
_cell_length_c   8.71251427
_cell_angle_alpha   124.37799799
_cell_angle_beta   124.38898315
_cell_angle_gamma   81.12957656
_symmetry_Int_Tables_number   1
_chemical_formula_structural   Ho9LuGa3NiBi2
_chemical_formula_sum   'Ho9 Lu1 Ga3 Ni1 Bi2'
_cell_volume   418.52321636
_cell_formula_units_Z   1
loop_
 _symmetry_equiv_pos_site_id
 _symmetry_equiv_pos_as_xyz
  1  'x, y, z'
loop_
 _atom_site_type_symbol
 _atom_site_label
 _atom_site_symmetry_multiplicity
 _atom_site_fract_x
 _atom_site_fract_y
 _atom_site_fract_z
 _atom_site_occupancy
  Ho  Ho0  1  0.505955  0.503162  0.009118  1
  Ho  Ho1  1  0.015434  0.498357  0.794541  1
  Ho  Ho2  1  0.721368  0.202974  0.205222  1
  Ho  Ho3  1  0.515585  0.706997  0.500582  1
  Ho  Ho4  1  0.195442  0.040349  0.499285  1
  Ho  Ho5  1  0.002248  0.483854  0.205222  1
  Ho  Ho6  1  0.296184  0.779107  0.794541  1
  Ho  Ho7  1  0.458936  0.303843  0.499285  1
  Ho  Ho8  1  0.793585  0.984997  0.500582  1
  Lu  Lu9  1  0.996858  0.994572  0.991430  1
  Ga  Ga10  1  0.351240  0.855345  0.206585  1
  Ga  Ga11  1  0.645594  0.147653  0.793246  1
  Ga  Ga12  1  0.865464  0.635404  0.500868  1
  Ni  Ni13  1  0.124111  0.375813  0.499923  1
  Bi  Bi14  1  0.756747  0.744537  0.999785  1
  Bi  Bi15  1  0.255248  0.243038  0.999785  1
