# generated using pymatgen
data_YTh7AlS17
_symmetry_space_group_name_H-M   'P 1'
_cell_length_a   8.07486612
_cell_length_b   8.06247466
_cell_length_c   10.70443900
_cell_angle_alpha   80.65341072
_cell_angle_beta   80.87377885
_cell_angle_gamma   65.04808031
_symmetry_Int_Tables_number   1
_chemical_formula_structural   YTh7AlS17
_chemical_formula_sum   'Y1 Th7 Al1 S17'
_cell_volume   620.29045532
_cell_formula_units_Z   1
loop_
 _symmetry_equiv_pos_site_id
 _symmetry_equiv_pos_as_xyz
  1  'x, y, z'
loop_
 _atom_site_type_symbol
 _atom_site_label
 _atom_site_symmetry_multiplicity
 _atom_site_fract_x
 _atom_site_fract_y
 _atom_site_fract_z
 _atom_site_occupancy
  Y  Y0  1  0.813644  0.303969  0.296879  1
  Th  Th1  1  0.302884  0.812389  0.294729  1
  Th  Th2  1  0.185337  0.697637  0.703776  1
  Th  Th3  1  0.697662  0.188063  0.700886  1
  Th  Th4  1  0.205545  0.204991  0.543487  1
  Th  Th5  1  0.793781  0.796731  0.451631  1
  Th  Th6  1  0.684101  0.678121  0.978909  1
  Th  Th7  1  0.317530  0.317559  0.025987  1
  Al  Al8  1  0.997173  0.005029  0.001999  1
  S  S9  1  0.826167  0.428694  0.530118  1
  S  S10  1  0.431118  0.822350  0.531688  1
  S  S11  1  0.175121  0.569639  0.467474  1
  S  S12  1  0.571354  0.176458  0.467826  1
  S  S13  1  0.943861  0.318808  0.030143  1
  S  S14  1  0.320895  0.943294  0.028295  1
  S  S15  1  0.056838  0.681683  0.971930  1
  S  S16  1  0.680155  0.057079  0.969538  1
  S  S17  1  0.208007  0.205221  0.280353  1
  S  S18  1  0.791869  0.790804  0.720320  1
  S  S19  1  0.055930  0.056271  0.778549  1
  S  S20  1  0.941534  0.950642  0.223729  1
  S  S21  1  0.303831  0.303878  0.755919  1
  S  S22  1  0.694760  0.694525  0.243802  1
  S  S23  1  0.520355  0.521573  0.830897  1
  S  S24  1  0.478286  0.479560  0.166694  1
  S  S25  1  0.002260  0.995033  0.504440  1
