# generated using pymatgen
data_BaAl2(CoO3)4
_symmetry_space_group_name_H-M   'P 1'
_cell_length_a   8.01421769
_cell_length_b   8.01421716
_cell_length_c   9.49201239
_cell_angle_alpha   54.39547295
_cell_angle_beta   54.39546887
_cell_angle_gamma   65.03660130
_symmetry_Int_Tables_number   1
_chemical_formula_structural   BaAl2(CoO3)4
_chemical_formula_sum   'Ba2 Al4 Co8 O24'
_cell_volume   399.81722265
_cell_formula_units_Z   2
loop_
 _symmetry_equiv_pos_site_id
 _symmetry_equiv_pos_as_xyz
  1  'x, y, z'
loop_
 _atom_site_type_symbol
 _atom_site_label
 _atom_site_symmetry_multiplicity
 _atom_site_fract_x
 _atom_site_fract_y
 _atom_site_fract_z
 _atom_site_occupancy
  Ba  Ba0  1  0.287427  0.712573  0.000000  1
  Ba  Ba1  1  0.712573  0.287427  0.000000  1
  Al  Al2  1  0.850901  0.850901  0.484677  1
  Al  Al3  1  0.338968  0.338968  0.816018  1
  Al  Al4  1  0.149099  0.149099  0.515323  1
  Al  Al5  1  0.661032  0.661032  0.183982  1
  Co  Co6  1  0.670815  0.001985  0.816643  1
  Co  Co7  1  0.186535  0.517362  0.480742  1
  Co  Co8  1  0.813465  0.482638  0.519258  1
  Co  Co9  1  0.329185  0.998015  0.183357  1
  Co  Co10  1  0.998015  0.329185  0.183357  1
  Co  Co11  1  0.001985  0.670815  0.816643  1
  Co  Co12  1  0.517362  0.186535  0.480742  1
  Co  Co13  1  0.482638  0.813465  0.519258  1
  O  O14  1  0.703623  0.703623  0.941405  1
  O  O15  1  0.004582  0.673801  0.361507  1
  O  O16  1  0.673801  0.004582  0.361507  1
  O  O17  1  0.675588  0.009462  0.618930  1
  O  O18  1  0.009462  0.675588  0.618930  1
  O  O19  1  0.043503  0.043503  0.280599  1
  O  O20  1  0.706315  0.371849  0.280196  1
  O  O21  1  0.371849  0.706315  0.280196  1
  O  O22  1  0.990538  0.324412  0.381070  1
  O  O23  1  0.995418  0.326199  0.638493  1
  O  O24  1  0.043352  0.373775  0.944544  1
  O  O25  1  0.373775  0.043352  0.944544  1
  O  O26  1  0.296377  0.296377  0.058595  1
  O  O27  1  0.956648  0.626225  0.055456  1
  O  O28  1  0.347036  0.347036  0.348618  1
  O  O29  1  0.346305  0.346305  0.610337  1
  O  O30  1  0.293685  0.628151  0.719804  1
  O  O31  1  0.628151  0.293685  0.719804  1
  O  O32  1  0.956497  0.956497  0.719401  1
  O  O33  1  0.653695  0.653695  0.389663  1
  O  O34  1  0.324412  0.990538  0.381070  1
  O  O35  1  0.652964  0.652964  0.651382  1
  O  O36  1  0.326199  0.995418  0.638493  1
  O  O37  1  0.626225  0.956648  0.055456  1
