# generated using pymatgen
data_Dy2Ho2AlRu7
_symmetry_space_group_name_H-M   'P 1'
_cell_length_a   5.37269805
_cell_length_b   5.37269662
_cell_length_c   8.59015004
_cell_angle_alpha   89.99893728
_cell_angle_beta   90.00105535
_cell_angle_gamma   119.96466873
_symmetry_Int_Tables_number   1
_chemical_formula_structural   Dy2Ho2AlRu7
_chemical_formula_sum   'Dy2 Ho2 Al1 Ru7'
_cell_volume   214.81798617
_cell_formula_units_Z   1
loop_
 _symmetry_equiv_pos_site_id
 _symmetry_equiv_pos_as_xyz
  1  'x, y, z'
loop_
 _atom_site_type_symbol
 _atom_site_label
 _atom_site_symmetry_multiplicity
 _atom_site_fract_x
 _atom_site_fract_y
 _atom_site_fract_z
 _atom_site_occupancy
  Dy  Dy0  1  0.666681  0.333319  0.569914  1
  Dy  Dy1  1  0.333319  0.666681  0.430086  1
  Ho  Ho2  1  0.333278  0.666722  0.064427  1
  Ho  Ho3  1  0.666722  0.333278  0.935573  1
  Al  Al4  1  0.000000  0.000000  0.500000  1
  Ru  Ru5  1  0.000000  0.000000  0.000000  1
  Ru  Ru6  1  0.171265  0.342369  0.749093  1
  Ru  Ru7  1  0.171208  0.828792  0.749104  1
  Ru  Ru8  1  0.657631  0.828735  0.749093  1
  Ru  Ru9  1  0.828735  0.657631  0.250907  1
  Ru  Ru10  1  0.828792  0.171208  0.250896  1
  Ru  Ru11  1  0.342369  0.171265  0.250907  1
