# generated using pymatgen
data_Ho4Cd2CuNi2Pd
_symmetry_space_group_name_H-M   'P 1'
_cell_length_a   7.49927621
_cell_length_b   7.49927570
_cell_length_c   3.66069600
_cell_angle_alpha   90.00000000
_cell_angle_beta   90.00000000
_cell_angle_gamma   90.47602862
_symmetry_Int_Tables_number   1
_chemical_formula_structural   Ho4Cd2CuNi2Pd
_chemical_formula_sum   'Ho4 Cd2 Cu1 Ni2 Pd1'
_cell_volume   205.86728905
_cell_formula_units_Z   1
loop_
 _symmetry_equiv_pos_site_id
 _symmetry_equiv_pos_as_xyz
  1  'x, y, z'
loop_
 _atom_site_type_symbol
 _atom_site_label
 _atom_site_symmetry_multiplicity
 _atom_site_fract_x
 _atom_site_fract_y
 _atom_site_fract_z
 _atom_site_occupancy
  Ho  Ho0  1  0.680494  0.184015  0.500000  1
  Ho  Ho1  1  0.315985  0.819506  0.500000  1
  Ho  Ho2  1  0.165436  0.334564  0.500000  1
  Ho  Ho3  1  0.837077  0.662923  0.500000  1
  Cd  Cd4  1  0.995954  0.998182  0.000000  1
  Cd  Cd5  1  0.501818  0.504046  0.000000  1
  Cu  Cu6  1  0.625369  0.874631  0.000000  1
  Ni  Ni7  1  0.121330  0.620868  0.000000  1
  Ni  Ni8  1  0.879132  0.378670  0.000000  1
  Pd  Pd9  1  0.377408  0.122592  0.000000  1
