# generated using pymatgen
data_Nd12Ru3Rh
_symmetry_space_group_name_H-M   'P 1'
_cell_length_a   6.49243500
_cell_length_b   7.43219600
_cell_length_c   9.80676400
_cell_angle_alpha   90.00000000
_cell_angle_beta   90.00000000
_cell_angle_gamma   90.00248438
_symmetry_Int_Tables_number   1
_chemical_formula_structural   Nd12Ru3Rh
_chemical_formula_sum   'Nd12 Ru3 Rh1'
_cell_volume   473.20626789
_cell_formula_units_Z   1
loop_
 _symmetry_equiv_pos_site_id
 _symmetry_equiv_pos_as_xyz
  1  'x, y, z'
loop_
 _atom_site_type_symbol
 _atom_site_label
 _atom_site_symmetry_multiplicity
 _atom_site_fract_x
 _atom_site_fract_y
 _atom_site_fract_z
 _atom_site_occupancy
  Nd  Nd0  1  0.330337  0.674920  0.066682  1
  Nd  Nd1  1  0.171823  0.178222  0.433748  1
  Nd  Nd2  1  0.672505  0.323320  0.567731  1
  Nd  Nd3  1  0.826519  0.823845  0.930890  1
  Nd  Nd4  1  0.672505  0.323320  0.932269  1
  Nd  Nd5  1  0.826519  0.823845  0.569110  1
  Nd  Nd6  1  0.330337  0.674920  0.433318  1
  Nd  Nd7  1  0.171823  0.178222  0.066252  1
  Nd  Nd8  1  0.855067  0.538013  0.250000  1
  Nd  Nd9  1  0.642266  0.041646  0.250000  1
  Nd  Nd10  1  0.143786  0.460562  0.750000  1
  Nd  Nd11  1  0.354891  0.960245  0.750000  1
  Ru  Ru12  1  0.445768  0.384215  0.250000  1
  Ru  Ru13  1  0.948359  0.114756  0.750000  1
  Ru  Ru14  1  0.552755  0.615833  0.750000  1
  Rh  Rh15  1  0.054737  0.884115  0.250000  1
