# generated using pymatgen
data_Tb2Zr2(Al8Pt3)3
_symmetry_space_group_name_H-M   'P 1'
_cell_length_a   7.51282486
_cell_length_b   7.51940103
_cell_length_c   13.06230568
_cell_angle_alpha   84.52734300
_cell_angle_beta   78.97009326
_cell_angle_gamma   59.94060177
_symmetry_Int_Tables_number   1
_chemical_formula_structural   Tb2Zr2(Al8Pt3)3
_chemical_formula_sum   'Tb2 Zr2 Al24 Pt9'
_cell_volume   626.87236015
_cell_formula_units_Z   1
loop_
 _symmetry_equiv_pos_site_id
 _symmetry_equiv_pos_as_xyz
  1  'x, y, z'
loop_
 _atom_site_type_symbol
 _atom_site_label
 _atom_site_symmetry_multiplicity
 _atom_site_fract_x
 _atom_site_fract_y
 _atom_site_fract_z
 _atom_site_occupancy
  Tb  Tb0  1  0.733657  0.498665  0.807761  1
  Tb  Tb1  1  0.266343  0.501335  0.192239  1
  Zr  Zr2  1  0.393898  0.167635  0.809960  1
  Zr  Zr3  1  0.606102  0.832365  0.190040  1
  Al  Al4  1  0.681268  0.836149  0.943543  1
  Al  Al5  1  0.318732  0.163851  0.056457  1
  Al  Al6  1  0.146019  0.832971  0.563032  1
  Al  Al7  1  0.853981  0.167029  0.436968  1
  Al  Al8  1  0.479731  0.166890  0.561149  1
  Al  Al9  1  0.520269  0.833110  0.438851  1
  Al  Al10  1  0.220505  0.163120  0.327107  1
  Al  Al11  1  0.779495  0.836880  0.672893  1
  Al  Al12  1  0.436186  0.504343  0.672905  1
  Al  Al13  1  0.563814  0.495657  0.327095  1
  Al  Al14  1  0.111304  0.159834  0.671671  1
  Al  Al15  1  0.888696  0.840166  0.328329  1
  Al  Al16  1  0.353276  0.496780  0.942348  1
  Al  Al17  1  0.646724  0.503220  0.057652  1
  Al  Al18  1  0.018595  0.167786  0.950859  1
  Al  Al19  1  0.981405  0.832214  0.049141  1
  Al  Al20  1  0.186582  0.499689  0.440564  1
  Al  Al21  1  0.813418  0.500311  0.559436  1
  Al  Al22  1  0.733608  0.159052  0.183602  1
  Al  Al23  1  0.266392  0.840948  0.816398  1
  Al  Al24  1  0.065923  0.626744  0.815246  1
  Al  Al25  1  0.934077  0.373256  0.184754  1
  Al  Al26  1  0.850770  0.040954  0.815797  1
  Al  Al27  1  0.149230  0.959046  0.184203  1
  Pt  Pt28  1  0.120159  0.490998  0.639093  1
  Pt  Pt29  1  0.879841  0.509002  0.360907  1
  Pt  Pt30  1  0.656973  0.172605  0.999624  1
  Pt  Pt31  1  0.343027  0.827395  0.000376  1
  Pt  Pt32  1  0.537202  0.166686  0.361522  1
  Pt  Pt33  1  0.462798  0.833314  0.638478  1
  Pt  Pt34  1  0.778437  0.175871  0.637581  1
  Pt  Pt35  1  0.221563  0.824129  0.362419  1
  Pt  Pt36  1  0.000000  0.500000  0.000000  1
