# generated using pymatgen
data_Lu4Sc8Sn9Pb
_symmetry_space_group_name_H-M   'P 1'
_cell_length_a   6.17878424
_cell_length_b   9.00590449
_cell_length_c   11.09093042
_cell_angle_alpha   114.00387832
_cell_angle_beta   106.17375365
_cell_angle_gamma   90.00000039
_symmetry_Int_Tables_number   1
_chemical_formula_structural   Lu4Sc8Sn9Pb
_chemical_formula_sum   'Lu4 Sc8 Sn9 Pb1'
_cell_volume   536.93851033
_cell_formula_units_Z   1
loop_
 _symmetry_equiv_pos_site_id
 _symmetry_equiv_pos_as_xyz
  1  'x, y, z'
loop_
 _atom_site_type_symbol
 _atom_site_label
 _atom_site_symmetry_multiplicity
 _atom_site_fract_x
 _atom_site_fract_y
 _atom_site_fract_z
 _atom_site_occupancy
  Lu  Lu0  1  0.141501  0.256567  0.283001  1
  Lu  Lu1  1  0.858419  0.743230  0.716838  1
  Lu  Lu2  1  0.641535  0.026854  0.283070  1
  Lu  Lu3  1  0.357808  0.970130  0.715617  1
  Sc  Sc4  1  0.559359  0.308650  0.615697  1
  Sc  Sc5  1  0.441054  0.691274  0.382537  1
  Sc  Sc6  1  0.941483  0.691274  0.382537  1
  Sc  Sc7  1  0.056339  0.308650  0.615697  1
  Sc  Sc8  1  0.437120  0.680305  0.874240  1
  Sc  Sc9  1  0.563900  0.321402  0.127800  1
  Sc  Sc10  1  0.936988  0.194467  0.873976  1
  Sc  Sc11  1  0.063133  0.804816  0.126266  1
  Sn  Sn12  1  0.289951  0.590517  0.579904  1
  Sn  Sn13  1  0.710008  0.409281  0.420015  1
  Sn  Sn14  1  0.790065  0.989392  0.580131  1
  Sn  Sn15  1  0.210177  0.011040  0.420353  1
  Sn  Sn16  1  0.249960  0.000285  0.999946  1
  Sn  Sn17  1  0.749987  0.000285  0.999946  1
  Sn  Sn18  1  0.069209  0.476445  0.138419  1
  Sn  Sn19  1  0.930599  0.523834  0.861198  1
  Sn  Sn20  1  0.570101  0.663997  0.140201  1
  Pb  Pb21  1  0.431305  0.337304  0.862609  1
