# generated using pymatgen
data_YbHoIr3W
_symmetry_space_group_name_H-M   'P 1'
_cell_length_a   5.61834432
_cell_length_b   5.61834467
_cell_length_c   5.18385229
_cell_angle_alpha   57.18635213
_cell_angle_beta   57.18634296
_cell_angle_gamma   59.99998269
_symmetry_Int_Tables_number   1
_chemical_formula_structural   YbHoIr3W
_chemical_formula_sum   'Yb1 Ho1 Ir3 W1'
_cell_volume   110.53791754
_cell_formula_units_Z   1
loop_
 _symmetry_equiv_pos_site_id
 _symmetry_equiv_pos_as_xyz
  1  'x, y, z'
loop_
 _atom_site_type_symbol
 _atom_site_label
 _atom_site_symmetry_multiplicity
 _atom_site_fract_x
 _atom_site_fract_y
 _atom_site_fract_z
 _atom_site_occupancy
  Yb  Yb0  1  0.750279  0.750279  0.749161  1
  Ho  Ho1  1  0.499975  0.499975  0.500075  1
  Ir  Ir2  1  0.625544  0.124534  0.125388  1
  Ir  Ir3  1  0.124534  0.124534  0.125388  1
  Ir  Ir4  1  0.124534  0.625544  0.125388  1
  W  W5  1  0.125133  0.125133  0.624600  1
