# generated using pymatgen
data_Sm2Fe3Ni6Mo3P7
_symmetry_space_group_name_H-M   'P 1'
_cell_length_a   9.18454600
_cell_length_b   9.18454586
_cell_length_c   3.76617300
_cell_angle_alpha   90.00000000
_cell_angle_beta   90.00000000
_cell_angle_gamma   120.00000049
_symmetry_Int_Tables_number   1
_chemical_formula_structural   Sm2Fe3Ni6Mo3P7
_chemical_formula_sum   'Sm2 Fe3 Ni6 Mo3 P7'
_cell_volume   275.13527573
_cell_formula_units_Z   1
loop_
 _symmetry_equiv_pos_site_id
 _symmetry_equiv_pos_as_xyz
  1  'x, y, z'
loop_
 _atom_site_type_symbol
 _atom_site_label
 _atom_site_symmetry_multiplicity
 _atom_site_fract_x
 _atom_site_fract_y
 _atom_site_fract_z
 _atom_site_occupancy
  Sm  Sm0  1  0.333333  0.666667  0.000000  1
  Sm  Sm1  1  0.666667  0.333333  0.500000  1
  Fe  Fe2  1  0.154093  0.876097  0.000000  1
  Fe  Fe3  1  0.123903  0.277996  0.000000  1
  Fe  Fe4  1  0.722004  0.845907  0.000000  1
  Ni  Ni5  1  0.431848  0.369258  0.000000  1
  Ni  Ni6  1  0.630742  0.062591  0.000000  1
  Ni  Ni7  1  0.937409  0.568152  0.000000  1
  Ni  Ni8  1  0.386757  0.945695  0.500000  1
  Ni  Ni9  1  0.054305  0.441062  0.500000  1
  Ni  Ni10  1  0.558938  0.613243  0.500000  1
  Mo  Mo11  1  0.219393  0.117193  0.500000  1
  Mo  Mo12  1  0.882807  0.102200  0.500000  1
  Mo  Mo13  1  0.897800  0.780607  0.500000  1
  P  P14  1  0.406882  0.106240  0.000000  1
  P  P15  1  0.893760  0.300643  0.000000  1
  P  P16  1  0.699357  0.593118  0.000000  1
  P  P17  1  0.118031  0.716079  0.500000  1
  P  P18  1  0.283921  0.401952  0.500000  1
  P  P19  1  0.598048  0.881969  0.500000  1
  P  P20  1  0.000000  0.000000  0.000000  1
