# generated using pymatgen
data_La4Nd6TcRu3
_symmetry_space_group_name_H-M   'P 1'
_cell_length_a   9.05422697
_cell_length_b   9.04371731
_cell_length_c   7.34478759
_cell_angle_alpha   84.45313872
_cell_angle_beta   84.35692402
_cell_angle_gamma   43.36766992
_symmetry_Int_Tables_number   1
_chemical_formula_structural   La4Nd6TcRu3
_chemical_formula_sum   'La4 Nd6 Tc1 Ru3'
_cell_volume   410.70083548
_cell_formula_units_Z   1
loop_
 _symmetry_equiv_pos_site_id
 _symmetry_equiv_pos_as_xyz
  1  'x, y, z'
loop_
 _atom_site_type_symbol
 _atom_site_label
 _atom_site_symmetry_multiplicity
 _atom_site_fract_x
 _atom_site_fract_y
 _atom_site_fract_z
 _atom_site_occupancy
  La  La0  1  0.017693  0.792403  0.903347  1
  La  La1  1  0.204966  0.982421  0.595173  1
  La  La2  1  0.983651  0.204834  0.095536  1
  La  La3  1  0.794008  0.016138  0.404801  1
  Nd  Nd4  1  0.362531  0.208253  0.815993  1
  Nd  Nd5  1  0.793809  0.636787  0.683389  1
  Nd  Nd6  1  0.636726  0.792458  0.183371  1
  Nd  Nd7  1  0.208454  0.361772  0.315743  1
  Nd  Nd8  1  0.575341  0.425054  0.750291  1
  Nd  Nd9  1  0.424963  0.574422  0.250230  1
  Tc  Tc10  1  0.162518  0.616851  0.587681  1
  Ru  Ru11  1  0.388452  0.835858  0.914920  1
  Ru  Ru12  1  0.834720  0.388411  0.412744  1
  Ru  Ru13  1  0.612168  0.164336  0.086783  1
