# generated using pymatgen
data_CaAsPRu2
_symmetry_space_group_name_H-M   'P 1'
_cell_length_a   5.83658481
_cell_length_b   5.83658477
_cell_length_c   5.83658433
_cell_angle_alpha   138.37481799
_cell_angle_beta   138.37482066
_cell_angle_gamma   60.32942728
_symmetry_Int_Tables_number   1
_chemical_formula_structural   CaAsPRu2
_chemical_formula_sum   'Ca1 As1 P1 Ru2'
_cell_volume   86.80893561
_cell_formula_units_Z   1
loop_
 _symmetry_equiv_pos_site_id
 _symmetry_equiv_pos_as_xyz
  1  'x, y, z'
loop_
 _atom_site_type_symbol
 _atom_site_label
 _atom_site_symmetry_multiplicity
 _atom_site_fract_x
 _atom_site_fract_y
 _atom_site_fract_z
 _atom_site_occupancy
  Ca  Ca0  1  0.999286  0.999286  0.000000  1
  As  As1  1  0.626320  0.626320  0.000000  1
  P  P2  1  0.361333  0.361333  0.000000  1
  Ru  Ru3  1  0.756531  0.256531  0.500000  1
  Ru  Ru4  1  0.256531  0.756531  0.500000  1
