# generated using pymatgen
data_TbYU2(ReB6)2
_symmetry_space_group_name_H-M   'P 1'
_cell_length_a   3.64146800
_cell_length_b   9.31146302
_cell_length_c   11.43253602
_cell_angle_alpha   90.00740057
_cell_angle_beta   90.00000000
_cell_angle_gamma   90.00000000
_symmetry_Int_Tables_number   1
_chemical_formula_structural   TbYU2(ReB6)2
_chemical_formula_sum   'Tb2 Y2 U4 Re4 B24'
_cell_volume   387.64750722
_cell_formula_units_Z   2
loop_
 _symmetry_equiv_pos_site_id
 _symmetry_equiv_pos_as_xyz
  1  'x, y, z'
loop_
 _atom_site_type_symbol
 _atom_site_label
 _atom_site_symmetry_multiplicity
 _atom_site_fract_x
 _atom_site_fract_y
 _atom_site_fract_z
 _atom_site_occupancy
  Tb  Tb0  1  0.000000  0.336709  0.407652  1
  Tb  Tb1  1  0.000000  0.663291  0.592348  1
  Y  Y2  1  0.000000  0.836743  0.092299  1
  Y  Y3  1  0.000000  0.163257  0.907701  1
  U  U4  1  0.000000  0.956508  0.396379  1
  U  U5  1  0.000000  0.043492  0.603621  1
  U  U6  1  0.000000  0.456506  0.103618  1
  U  U7  1  0.000000  0.543494  0.896382  1
  Re  Re8  1  0.000000  0.645957  0.318236  1
  Re  Re9  1  0.000000  0.354043  0.681764  1
  Re  Re10  1  0.000000  0.145727  0.181682  1
  Re  Re11  1  0.000000  0.854273  0.818318  1
  B  B12  1  0.500000  0.552294  0.430627  1
  B  B13  1  0.500000  0.447706  0.569373  1
  B  B14  1  0.500000  0.052017  0.069255  1
  B  B15  1  0.500000  0.947983  0.930745  1
  B  B16  1  0.500000  0.743346  0.422831  1
  B  B17  1  0.500000  0.256654  0.577169  1
  B  B18  1  0.500000  0.243135  0.077136  1
  B  B19  1  0.500000  0.756865  0.922864  1
  B  B20  1  0.500000  0.802024  0.275272  1
  B  B21  1  0.500000  0.197976  0.724728  1
  B  B22  1  0.500000  0.301853  0.224720  1
  B  B23  1  0.500000  0.698147  0.775280  1
  B  B24  1  0.500000  0.644103  0.188557  1
  B  B25  1  0.500000  0.355897  0.811443  1
  B  B26  1  0.500000  0.143962  0.311414  1
  B  B27  1  0.500000  0.856038  0.688586  1
  B  B28  1  0.500000  0.989327  0.219707  1
  B  B29  1  0.500000  0.010673  0.780293  1
  B  B30  1  0.500000  0.489520  0.280265  1
  B  B31  1  0.500000  0.510480  0.719735  1
  B  B32  1  0.500000  0.639848  0.038689  1
  B  B33  1  0.500000  0.360152  0.961311  1
  B  B34  1  0.500000  0.139419  0.461390  1
  B  B35  1  0.500000  0.860581  0.538610  1
