# generated using pymatgen
data_NaPaCuS3
_symmetry_space_group_name_H-M   'P 1'
_cell_length_a   6.87789098
_cell_length_b   6.87789190
_cell_length_c   10.36321600
_cell_angle_alpha   90.00000000
_cell_angle_beta   90.00000000
_cell_angle_gamma   146.99131537
_symmetry_Int_Tables_number   1
_chemical_formula_structural   NaPaCuS3
_chemical_formula_sum   'Na2 Pa2 Cu2 S6'
_cell_volume   267.06396836
_cell_formula_units_Z   2
loop_
 _symmetry_equiv_pos_site_id
 _symmetry_equiv_pos_as_xyz
  1  'x, y, z'
loop_
 _atom_site_type_symbol
 _atom_site_label
 _atom_site_symmetry_multiplicity
 _atom_site_fract_x
 _atom_site_fract_y
 _atom_site_fract_z
 _atom_site_occupancy
  Na  Na0  1  0.248421  0.751579  0.750000  1
  Na  Na1  1  0.751579  0.248421  0.250000  1
  Pa  Pa2  1  0.000000  0.000000  0.500000  1
  Pa  Pa3  1  0.000000  0.000000  0.000000  1
  Cu  Cu4  1  0.530354  0.469646  0.750000  1
  Cu  Cu5  1  0.469646  0.530354  0.250000  1
  S  S6  1  0.073910  0.926090  0.250000  1
  S  S7  1  0.632903  0.367097  0.928688  1
  S  S8  1  0.926090  0.073910  0.750000  1
  S  S9  1  0.632903  0.367097  0.571312  1
  S  S10  1  0.367097  0.632903  0.071312  1
  S  S11  1  0.367097  0.632903  0.428688  1
