# generated using pymatgen
data_Y3ErAl4OsPd3
_symmetry_space_group_name_H-M   'P 1'
_cell_length_a   4.36005500
_cell_length_b   6.90746711
_cell_length_c   7.90965195
_cell_angle_alpha   90.29946953
_cell_angle_beta   90.00000000
_cell_angle_gamma   90.00000000
_symmetry_Int_Tables_number   1
_chemical_formula_structural   Y3ErAl4OsPd3
_chemical_formula_sum   'Y3 Er1 Al4 Os1 Pd3'
_cell_volume   238.21123179
_cell_formula_units_Z   1
loop_
 _symmetry_equiv_pos_site_id
 _symmetry_equiv_pos_as_xyz
  1  'x, y, z'
loop_
 _atom_site_type_symbol
 _atom_site_label
 _atom_site_symmetry_multiplicity
 _atom_site_fract_x
 _atom_site_fract_y
 _atom_site_fract_z
 _atom_site_occupancy
  Y  Y0  1  0.250000  0.035203  0.322553  1
  Y  Y1  1  0.250000  0.530661  0.180096  1
  Y  Y2  1  0.750000  0.980016  0.678624  1
  Er  Er3  1  0.750000  0.462424  0.815019  1
  Al  Al4  1  0.250000  0.143903  0.936156  1
  Al  Al5  1  0.250000  0.636748  0.561562  1
  Al  Al6  1  0.750000  0.857657  0.059615  1
  Al  Al7  1  0.750000  0.355737  0.443608  1
  Os  Os8  1  0.250000  0.269803  0.624660  1
  Pd  Pd9  1  0.250000  0.770572  0.880346  1
  Pd  Pd10  1  0.750000  0.728171  0.377171  1
  Pd  Pd11  1  0.750000  0.229104  0.120589  1
