# generated using pymatgen
data_Ho5ErFe3Si6Ru
_symmetry_space_group_name_H-M   'P 1'
_cell_length_a   5.64247024
_cell_length_b   5.64247146
_cell_length_c   13.56431800
_cell_angle_alpha   89.75822358
_cell_angle_beta   90.24177647
_cell_angle_gamma   137.35157707
_symmetry_Int_Tables_number   1
_chemical_formula_structural   Ho5ErFe3Si6Ru
_chemical_formula_sum   'Ho5 Er1 Fe3 Si6 Ru1'
_cell_volume   292.57692102
_cell_formula_units_Z   1
loop_
 _symmetry_equiv_pos_site_id
 _symmetry_equiv_pos_as_xyz
  1  'x, y, z'
loop_
 _atom_site_type_symbol
 _atom_site_label
 _atom_site_symmetry_multiplicity
 _atom_site_fract_x
 _atom_site_fract_y
 _atom_site_fract_z
 _atom_site_occupancy
  Ho  Ho0  1  0.636959  0.363041  0.249456  1
  Ho  Ho1  1  0.363956  0.636044  0.749966  1
  Ho  Ho2  1  0.919571  0.080429  0.112778  1
  Ho  Ho3  1  0.079174  0.920826  0.889388  1
  Ho  Ho4  1  0.080174  0.919826  0.612995  1
  Er  Er5  1  0.921467  0.078533  0.384907  1
  Fe  Fe6  1  0.212986  0.787014  0.418745  1
  Fe  Fe7  1  0.214320  0.785680  0.080989  1
  Fe  Fe8  1  0.784620  0.215380  0.921041  1
  Si  Si9  1  0.325332  0.674668  0.250627  1
  Si  Si10  1  0.673909  0.326091  0.754088  1
  Si  Si11  1  0.624040  0.375960  0.039867  1
  Si  Si12  1  0.374755  0.625245  0.961218  1
  Si  Si13  1  0.381906  0.618094  0.534290  1
  Si  Si14  1  0.620122  0.379878  0.457775  1
  Ru  Ru15  1  0.786709  0.213291  0.581869  1
