# generated using pymatgen
data_Sr3U3Se10
_symmetry_space_group_name_H-M   'P 1'
_cell_length_a   7.90998300
_cell_length_b   8.63520591
_cell_length_c   12.45800452
_cell_angle_alpha   89.82614855
_cell_angle_beta   90.00000000
_cell_angle_gamma   90.00000000
_symmetry_Int_Tables_number   1
_chemical_formula_structural   Sr3U3Se10
_chemical_formula_sum   'Sr6 U6 Se20'
_cell_volume   850.93175936
_cell_formula_units_Z   2
loop_
 _symmetry_equiv_pos_site_id
 _symmetry_equiv_pos_as_xyz
  1  'x, y, z'
loop_
 _atom_site_type_symbol
 _atom_site_label
 _atom_site_symmetry_multiplicity
 _atom_site_fract_x
 _atom_site_fract_y
 _atom_site_fract_z
 _atom_site_occupancy
  Sr  Sr0  1  0.050851  0.495838  0.329307  1
  Sr  Sr1  1  0.550851  0.504162  0.170693  1
  Sr  Sr2  1  0.943941  0.505238  0.672456  1
  Sr  Sr3  1  0.443941  0.494762  0.827544  1
  Sr  Sr4  1  0.047326  0.003014  0.320107  1
  Sr  Sr5  1  0.547326  0.996986  0.179893  1
  U  U6  1  0.960970  0.999322  0.671668  1
  U  U7  1  0.460970  0.000678  0.828332  1
  U  U8  1  0.056632  0.748304  0.002812  1
  U  U9  1  0.556632  0.251696  0.497188  1
  U  U10  1  0.935936  0.246720  0.991388  1
  U  U11  1  0.435936  0.753280  0.508612  1
  Se  Se12  1  0.668700  0.960719  0.427744  1
  Se  Se13  1  0.168700  0.039281  0.072256  1
  Se  Se14  1  0.327093  0.043668  0.598340  1
  Se  Se15  1  0.827093  0.956332  0.901660  1
  Se  Se16  1  0.445336  0.768561  0.991722  1
  Se  Se17  1  0.945336  0.231439  0.508278  1
  Se  Se18  1  0.549574  0.228191  0.983908  1
  Se  Se19  1  0.049574  0.771809  0.516092  1
  Se  Se20  1  0.854682  0.748336  0.183986  1
  Se  Se21  1  0.354682  0.251664  0.316014  1
  Se  Se22  1  0.146870  0.224865  0.804147  1
  Se  Se23  1  0.646870  0.775135  0.695853  1
  Se  Se24  1  0.331450  0.745272  0.296293  1
  Se  Se25  1  0.831450  0.254728  0.203707  1
  Se  Se26  1  0.674258  0.224892  0.713155  1
  Se  Se27  1  0.174258  0.775108  0.786845  1
  Se  Se28  1  0.182344  0.457600  0.064963  1
  Se  Se29  1  0.682344  0.542400  0.435037  1
  Se  Se30  1  0.824037  0.537267  0.915637  1
  Se  Se31  1  0.324037  0.462733  0.584363  1
