# generated using pymatgen
data_Ho9LuSn5Sb
_symmetry_space_group_name_H-M   'P 1'
_cell_length_a   8.92237902
_cell_length_b   8.91323810
_cell_length_c   6.45740606
_cell_angle_alpha   89.98460747
_cell_angle_beta   90.00832267
_cell_angle_gamma   120.03578657
_symmetry_Int_Tables_number   1
_chemical_formula_structural   Ho9LuSn5Sb
_chemical_formula_sum   'Ho9 Lu1 Sn5 Sb1'
_cell_volume   444.57820254
_cell_formula_units_Z   1
loop_
 _symmetry_equiv_pos_site_id
 _symmetry_equiv_pos_as_xyz
  1  'x, y, z'
loop_
 _atom_site_type_symbol
 _atom_site_label
 _atom_site_symmetry_multiplicity
 _atom_site_fract_x
 _atom_site_fract_y
 _atom_site_fract_z
 _atom_site_occupancy
  Ho  Ho0  1  0.997991  0.759961  0.749843  1
  Ho  Ho1  1  0.000850  0.239120  0.250111  1
  Ho  Ho2  1  0.761599  0.760991  0.250178  1
  Ho  Ho3  1  0.761760  0.999932  0.749868  1
  Ho  Ho4  1  0.237946  0.240087  0.749867  1
  Ho  Ho5  1  0.239131  0.999949  0.250083  1
  Ho  Ho6  1  0.667422  0.334278  0.000129  1
  Ho  Ho7  1  0.667421  0.334252  0.499848  1
  Ho  Ho8  1  0.333178  0.665719  0.000181  1
  Lu  Lu9  1  0.333152  0.665568  0.499700  1
  Sn  Sn10  1  0.395533  0.395264  0.250539  1
  Sn  Sn11  1  0.001453  0.605327  0.250569  1
  Sn  Sn12  1  0.000387  0.396063  0.749498  1
  Sn  Sn13  1  0.603729  0.604575  0.749484  1
  Sn  Sn14  1  0.604968  0.999410  0.250509  1
  Sb  Sb15  1  0.393479  0.999504  0.749594  1
