# generated using pymatgen
data_Ca3ErAl18CuRh5
_symmetry_space_group_name_H-M   'P 1'
_cell_length_a   7.55740123
_cell_length_b   7.55479504
_cell_length_c   9.54345515
_cell_angle_alpha   90.12997270
_cell_angle_beta   90.11686961
_cell_angle_gamma   119.35453906
_symmetry_Int_Tables_number   1
_chemical_formula_structural   Ca3ErAl18CuRh5
_chemical_formula_sum   'Ca3 Er1 Al18 Cu1 Rh5'
_cell_volume   474.91466810
_cell_formula_units_Z   1
loop_
 _symmetry_equiv_pos_site_id
 _symmetry_equiv_pos_as_xyz
  1  'x, y, z'
loop_
 _atom_site_type_symbol
 _atom_site_label
 _atom_site_symmetry_multiplicity
 _atom_site_fract_x
 _atom_site_fract_y
 _atom_site_fract_z
 _atom_site_occupancy
  Ca  Ca0  1  0.993878  0.671467  0.750066  1
  Ca  Ca1  1  0.005446  0.327144  0.250042  1
  Ca  Ca2  1  0.673476  0.994769  0.750271  1
  Er  Er3  1  0.326885  0.003865  0.250312  1
  Al  Al4  1  0.132179  0.132465  0.751322  1
  Al  Al5  1  0.870200  0.867269  0.248707  1
  Al  Al6  1  0.001926  0.338153  0.573422  1
  Al  Al7  1  0.998498  0.662512  0.425509  1
  Al  Al8  1  0.999122  0.664323  0.071661  1
  Al  Al9  1  0.335276  0.000914  0.928907  1
  Al  Al10  1  0.000679  0.335547  0.929017  1
  Al  Al11  1  0.664356  0.999175  0.072219  1
  Al  Al12  1  0.662001  0.998483  0.424960  1
  Al  Al13  1  0.338127  0.001795  0.573834  1
  Al  Al14  1  0.333898  0.333522  0.048950  1
  Al  Al15  1  0.665985  0.666364  0.953443  1
  Al  Al16  1  0.663196  0.663296  0.547467  1
  Al  Al17  1  0.335030  0.334853  0.449730  1
  Al  Al18  1  0.338632  0.548899  0.749819  1
  Al  Al19  1  0.658692  0.449785  0.250326  1
  Al  Al20  1  0.548995  0.338741  0.749666  1
  Al  Al21  1  0.452902  0.664791  0.250525  1
  Cu  Cu22  1  0.001876  0.002320  0.498642  1
  Rh  Rh23  1  0.670308  0.327394  0.498334  1
  Rh  Rh24  1  0.328265  0.672079  0.498315  1
  Rh  Rh25  1  0.328402  0.671391  0.001744  1
  Rh  Rh26  1  0.670236  0.327655  0.001259  1
  Rh  Rh27  1  0.001535  0.001030  0.001536  1
