# generated using pymatgen
data_KAlPt3O8
_symmetry_space_group_name_H-M   'P 1'
_cell_length_a   7.36722092
_cell_length_b   7.36722130
_cell_length_c   10.14137748
_cell_angle_alpha   45.85912978
_cell_angle_beta   45.85912596
_cell_angle_gamma   24.47548781
_symmetry_Int_Tables_number   1
_chemical_formula_structural   KAlPt3O8
_chemical_formula_sum   'K1 Al1 Pt3 O8'
_cell_volume   159.98650797
_cell_formula_units_Z   1
loop_
 _symmetry_equiv_pos_site_id
 _symmetry_equiv_pos_as_xyz
  1  'x, y, z'
loop_
 _atom_site_type_symbol
 _atom_site_label
 _atom_site_symmetry_multiplicity
 _atom_site_fract_x
 _atom_site_fract_y
 _atom_site_fract_z
 _atom_site_occupancy
  K  K0  1  0.489850  0.489850  0.005200  1
  Al  Al1  1  0.352193  0.352193  0.811828  1
  Pt  Pt2  1  0.654456  0.654456  0.175006  1
  Pt  Pt3  1  0.163290  0.163290  0.488689  1
  Pt  Pt4  1  0.829212  0.829212  0.528219  1
  O  O5  1  0.160099  0.160099  0.037850  1
  O  O6  1  0.850941  0.850941  0.941554  1
  O  O7  1  0.193109  0.193109  0.662135  1
  O  O8  1  0.797283  0.797283  0.356078  1
  O  O9  1  0.537687  0.537687  0.628648  1
  O  O10  1  0.452224  0.452224  0.376140  1
  O  O11  1  0.179201  0.179201  0.274967  1
  O  O12  1  0.840457  0.840457  0.713687  1
