# generated using pymatgen
data_CsPr2DyCBr6
_symmetry_space_group_name_H-M   'P 1'
_cell_length_a   9.07718002
_cell_length_b   9.12108606
_cell_length_c   9.58611157
_cell_angle_alpha   71.05081060
_cell_angle_beta   84.88898648
_cell_angle_gamma   89.27706894
_symmetry_Int_Tables_number   1
_chemical_formula_structural   CsPr2DyCBr6
_chemical_formula_sum   'Cs2 Pr4 Dy2 C2 Br12'
_cell_volume   747.56187093
_cell_formula_units_Z   2
loop_
 _symmetry_equiv_pos_site_id
 _symmetry_equiv_pos_as_xyz
  1  'x, y, z'
loop_
 _atom_site_type_symbol
 _atom_site_label
 _atom_site_symmetry_multiplicity
 _atom_site_fract_x
 _atom_site_fract_y
 _atom_site_fract_z
 _atom_site_occupancy
  Cs  Cs0  1  0.467281  0.356971  0.333177  1
  Cs  Cs1  1  0.532720  0.643029  0.666823  1
  Pr  Pr2  1  0.916163  0.736700  0.004044  1
  Pr  Pr3  1  0.083837  0.263300  0.995955  1
  Pr  Pr4  1  0.735719  0.086105  0.000338  1
  Pr  Pr5  1  0.264280  0.913895  0.999663  1
  Dy  Dy6  1  0.972835  0.888806  0.322123  1
  Dy  Dy7  1  0.027164  0.111194  0.677878  1
  C  C8  1  0.006567  0.026121  0.922108  1
  C  C9  1  0.993432  0.973879  0.077892  1
  Br  Br10  1  0.073690  0.186845  0.336333  1
  Br  Br11  1  0.926310  0.813155  0.663667  1
  Br  Br12  1  0.212301  0.590039  0.000120  1
  Br  Br13  1  0.787700  0.409961  0.999880  1
  Br  Br14  1  0.405995  0.207941  0.002869  1
  Br  Br15  1  0.594004  0.792060  0.997130  1
  Br  Br16  1  0.672779  0.995738  0.334945  1
  Br  Br17  1  0.327221  0.004262  0.665055  1
  Br  Br18  1  0.270077  0.775203  0.332852  1
  Br  Br19  1  0.729923  0.224797  0.667148  1
  Br  Br20  1  0.852745  0.596902  0.334971  1
  Br  Br21  1  0.147254  0.403098  0.665029  1
