# generated using pymatgen
data_Gd2Si3Ag
_symmetry_space_group_name_H-M   'P 1'
_cell_length_a   8.28388055
_cell_length_b   8.26227648
_cell_length_c   5.84129865
_cell_angle_alpha   69.52560961
_cell_angle_beta   69.12907627
_cell_angle_gamma   41.34532176
_symmetry_Int_Tables_number   1
_chemical_formula_structural   Gd2Si3Ag
_chemical_formula_sum   'Gd4 Si6 Ag2'
_cell_volume   244.57221596
_cell_formula_units_Z   2
loop_
 _symmetry_equiv_pos_site_id
 _symmetry_equiv_pos_as_xyz
  1  'x, y, z'
loop_
 _atom_site_type_symbol
 _atom_site_label
 _atom_site_symmetry_multiplicity
 _atom_site_fract_x
 _atom_site_fract_y
 _atom_site_fract_z
 _atom_site_occupancy
  Gd  Gd0  1  0.757235  0.242764  0.242765  1
  Gd  Gd1  1  0.250000  0.250000  0.249999  1
  Gd  Gd2  1  0.749999  0.750000  0.750001  1
  Gd  Gd3  1  0.242766  0.757234  0.757235  1
  Si  Si4  1  0.836570  0.836568  0.163431  1
  Si  Si5  1  0.327212  0.836285  0.163714  1
  Si  Si6  1  0.163715  0.672788  0.327211  1
  Si  Si7  1  0.836286  0.327210  0.672789  1
  Si  Si8  1  0.672790  0.163714  0.836285  1
  Si  Si9  1  0.163432  0.163431  0.836569  1
  Ag  Ag10  1  0.665923  0.665922  0.334077  1
  Ag  Ag11  1  0.334078  0.334077  0.665922  1
