# generated using pymatgen
data_Ca2B4OsRu2C
_symmetry_space_group_name_H-M   'P 1'
_cell_length_a   5.60381647
_cell_length_b   5.61016474
_cell_length_c   7.94285441
_cell_angle_alpha   58.58505119
_cell_angle_beta   58.64126418
_cell_angle_gamma   42.30309938
_symmetry_Int_Tables_number   1
_chemical_formula_structural   Ca2B4OsRu2C
_chemical_formula_sum   'Ca2 B4 Os1 Ru2 C1'
_cell_volume   139.42031092
_cell_formula_units_Z   1
loop_
 _symmetry_equiv_pos_site_id
 _symmetry_equiv_pos_as_xyz
  1  'x, y, z'
loop_
 _atom_site_type_symbol
 _atom_site_label
 _atom_site_symmetry_multiplicity
 _atom_site_fract_x
 _atom_site_fract_y
 _atom_site_fract_z
 _atom_site_occupancy
  Ca  Ca0  1  0.392872  0.916405  0.746768  1
  Ca  Ca1  1  0.082201  0.606714  0.254516  1
  B  B2  1  0.543773  0.534043  0.376914  1
  B  B3  1  0.466863  0.459049  0.623647  1
  B  B4  1  0.074087  0.628803  0.810858  1
  B  B5  1  0.370169  0.923538  0.188054  1
  Os  Os6  1  0.872481  0.387842  0.092314  1
  Ru  Ru7  1  0.008582  0.994028  0.498987  1
  Ru  Ru8  1  0.611298  0.126803  0.907227  1
  C  C9  1  0.743946  0.256504  0.000714  1
