# generated using pymatgen
data_Ce8Nb12Si15P
_symmetry_space_group_name_H-M   'P 1'
_cell_length_a   7.10875500
_cell_length_b   7.10694173
_cell_length_c   13.21343153
_cell_angle_alpha   89.94645937
_cell_angle_beta   89.98687591
_cell_angle_gamma   89.94057186
_symmetry_Int_Tables_number   1
_chemical_formula_structural   Ce8Nb12Si15P
_chemical_formula_sum   'Ce8 Nb12 Si15 P1'
_cell_volume   667.56181326
_cell_formula_units_Z   1
loop_
 _symmetry_equiv_pos_site_id
 _symmetry_equiv_pos_as_xyz
  1  'x, y, z'
loop_
 _atom_site_type_symbol
 _atom_site_label
 _atom_site_symmetry_multiplicity
 _atom_site_fract_x
 _atom_site_fract_y
 _atom_site_fract_z
 _atom_site_occupancy
  Ce  Ce0  1  0.999315  0.332163  0.217021  1
  Ce  Ce1  1  0.004658  0.665594  0.717061  1
  Ce  Ce2  1  0.164154  0.497273  0.466886  1
  Ce  Ce3  1  0.501200  0.837197  0.034572  1
  Ce  Ce4  1  0.834978  0.503645  0.967650  1
  Ce  Ce5  1  0.495825  0.165358  0.532649  1
  Ce  Ce6  1  0.334360  0.995257  0.783278  1
  Ce  Ce7  1  0.661669  0.004063  0.281599  1
  Nb  Nb8  1  0.169718  0.167755  0.001441  1
  Nb  Nb9  1  0.831309  0.831027  0.499565  1
  Nb  Nb10  1  0.330564  0.670623  0.249032  1
  Nb  Nb11  1  0.669303  0.330942  0.750255  1
  Nb  Nb12  1  0.158720  0.996791  0.370646  1
  Nb  Nb13  1  0.842591  0.005192  0.873766  1
  Nb  Nb14  1  0.504685  0.657441  0.623821  1
  Nb  Nb15  1  0.342955  0.495234  0.876360  1
  Nb  Nb16  1  0.492999  0.338097  0.125102  1
  Nb  Nb17  1  0.659207  0.505869  0.376255  1
  Nb  Nb18  1  0.995037  0.156817  0.626017  1
  Nb  Nb19  1  0.007249  0.844597  0.126981  1
  Si  Si20  1  0.706994  0.958027  0.685655  1
  Si  Si21  1  0.458140  0.792794  0.435617  1
  Si  Si22  1  0.207080  0.541439  0.064266  1
  Si  Si23  1  0.541878  0.207137  0.935660  1
  Si  Si24  1  0.793071  0.458467  0.564590  1
  Si  Si25  1  0.041728  0.293156  0.814807  1
  Si  Si26  1  0.957629  0.706759  0.313846  1
  Si  Si27  1  0.374304  0.302311  0.315715  1
  Si  Si28  1  0.628484  0.703279  0.813993  1
  Si  Si29  1  0.202573  0.872015  0.562551  1
  Si  Si30  1  0.127135  0.795742  0.936569  1
  Si  Si31  1  0.796961  0.128151  0.063359  1
  Si  Si32  1  0.872464  0.202566  0.435510  1
  Si  Si33  1  0.296540  0.372043  0.686568  1
  Si  Si34  1  0.704337  0.625837  0.185816  1
  P  P35  1  0.290186  0.039343  0.185520  1
