# generated using pymatgen
data_Li2HfIr4W
_symmetry_space_group_name_H-M   'P 1'
_cell_length_a   4.38355600
_cell_length_b   6.14347300
_cell_length_c   13.13502900
_cell_angle_alpha   90.00000000
_cell_angle_beta   90.00050134
_cell_angle_gamma   90.00000000
_symmetry_Int_Tables_number   1
_chemical_formula_structural   Li2HfIr4W
_chemical_formula_sum   'Li6 Hf3 Ir12 W3'
_cell_volume   353.72971888
_cell_formula_units_Z   3
loop_
 _symmetry_equiv_pos_site_id
 _symmetry_equiv_pos_as_xyz
  1  'x, y, z'
loop_
 _atom_site_type_symbol
 _atom_site_label
 _atom_site_symmetry_multiplicity
 _atom_site_fract_x
 _atom_site_fract_y
 _atom_site_fract_z
 _atom_site_occupancy
  Li  Li0  1  0.000001  0.500001  0.002164  1
  Li  Li1  1  0.499901  0.000000  0.166587  1
  Li  Li2  1  0.999901  0.500001  0.331188  1
  Li  Li3  1  0.500006  0.000000  0.498442  1
  Li  Li4  1  0.000084  0.500001  0.666695  1
  Li  Li5  1  0.500107  0.000000  0.834901  1
  Hf  Hf6  1  0.499998  0.500001  0.498811  1
  Hf  Hf7  1  0.000102  0.000000  0.666657  1
  Hf  Hf8  1  0.500091  0.500001  0.834568  1
  Ir  Ir9  1  0.499978  0.243040  0.007808  1
  Ir  Ir10  1  0.499978  0.756960  0.007808  1
  Ir  Ir11  1  0.999911  0.252275  0.166649  1
  Ir  Ir12  1  0.999911  0.747725  0.166649  1
  Ir  Ir13  1  0.499899  0.243029  0.325517  1
  Ir  Ir14  1  0.499899  0.756971  0.325517  1
  Ir  Ir15  1  0.000009  0.244647  0.492551  1
  Ir  Ir16  1  0.000009  0.755353  0.492551  1
  Ir  Ir17  1  0.500099  0.251500  0.666658  1
  Ir  Ir18  1  0.500099  0.748500  0.666658  1
  Ir  Ir19  1  0.000107  0.244666  0.840768  1
  Ir  Ir20  1  0.000107  0.755334  0.840768  1
  W  W21  1  0.999985  0.000000  0.000742  1
  W  W22  1  0.499906  0.500001  0.166723  1
  W  W23  1  0.999907  0.000000  0.332619  1
