# generated using pymatgen
data_Tb12Th4MnCd4Ir3
_symmetry_space_group_name_H-M   'P 1'
_cell_length_a   9.74983240
_cell_length_b   9.74983255
_cell_length_c   9.74983262
_cell_angle_alpha   59.82721311
_cell_angle_beta   59.82721230
_cell_angle_gamma   59.82720979
_symmetry_Int_Tables_number   1
_chemical_formula_structural   Tb12Th4MnCd4Ir3
_chemical_formula_sum   'Tb12 Th4 Mn1 Cd4 Ir3'
_cell_volume   652.78462084
_cell_formula_units_Z   1
loop_
 _symmetry_equiv_pos_site_id
 _symmetry_equiv_pos_as_xyz
  1  'x, y, z'
loop_
 _atom_site_type_symbol
 _atom_site_label
 _atom_site_symmetry_multiplicity
 _atom_site_fract_x
 _atom_site_fract_y
 _atom_site_fract_z
 _atom_site_occupancy
  Tb  Tb0  1  0.067552  0.437716  0.437716  1
  Tb  Tb1  1  0.437554  0.060633  0.060633  1
  Tb  Tb2  1  0.437716  0.067552  0.437716  1
  Tb  Tb3  1  0.060633  0.437554  0.060633  1
  Tb  Tb4  1  0.437716  0.437716  0.067552  1
  Tb  Tb5  1  0.060633  0.060633  0.437554  1
  Tb  Tb6  1  0.187272  0.812974  0.812974  1
  Tb  Tb7  1  0.811784  0.185701  0.185701  1
  Tb  Tb8  1  0.812974  0.187272  0.812974  1
  Tb  Tb9  1  0.185701  0.811784  0.185701  1
  Tb  Tb10  1  0.812974  0.812974  0.187272  1
  Tb  Tb11  1  0.185701  0.185701  0.811784  1
  Th  Th12  1  0.599589  0.599589  0.599589  1
  Th  Th13  1  0.592989  0.592989  0.209992  1
  Th  Th14  1  0.592989  0.209992  0.592989  1
  Th  Th15  1  0.209992  0.592989  0.592989  1
  Mn  Mn16  1  0.396827  0.396827  0.396827  1
  Cd  Cd17  1  0.830332  0.830332  0.830332  1
  Cd  Cd18  1  0.831667  0.831667  0.503227  1
  Cd  Cd19  1  0.831667  0.503227  0.831667  1
  Cd  Cd20  1  0.503227  0.831667  0.831667  1
  Ir  Ir21  1  0.394838  0.394838  0.822837  1
  Ir  Ir22  1  0.394838  0.822837  0.394838  1
  Ir  Ir23  1  0.822837  0.394838  0.394838  1
