# generated using pymatgen
data_Tm2Nb3Ge4
_symmetry_space_group_name_H-M   'P 1'
_cell_length_a   6.96966042
_cell_length_b   7.14450710
_cell_length_c   13.54062292
_cell_angle_alpha   89.99439892
_cell_angle_beta   89.99254335
_cell_angle_gamma   90.00297984
_symmetry_Int_Tables_number   1
_chemical_formula_structural   Tm2Nb3Ge4
_chemical_formula_sum   'Tm8 Nb12 Ge16'
_cell_volume   674.25244174
_cell_formula_units_Z   4
loop_
 _symmetry_equiv_pos_site_id
 _symmetry_equiv_pos_as_xyz
  1  'x, y, z'
loop_
 _atom_site_type_symbol
 _atom_site_label
 _atom_site_symmetry_multiplicity
 _atom_site_fract_x
 _atom_site_fract_y
 _atom_site_fract_z
 _atom_site_occupancy
  Tm  Tm0  1  0.494511  0.675044  0.594089  1
  Tm  Tm1  1  0.994837  0.824846  0.905894  1
  Tm  Tm2  1  0.505391  0.324935  0.094149  1
  Tm  Tm3  1  0.005285  0.175139  0.405993  1
  Tm  Tm4  1  0.505081  0.324925  0.406080  1
  Tm  Tm5  1  0.005185  0.175327  0.094158  1
  Tm  Tm6  1  0.494634  0.675165  0.905867  1
  Tm  Tm7  1  0.994263  0.824532  0.594148  1
  Nb  Nb8  1  0.658418  0.169492  0.626242  1
  Nb  Nb9  1  0.158501  0.330372  0.873475  1
  Nb  Nb10  1  0.341439  0.830471  0.126384  1
  Nb  Nb11  1  0.841502  0.670273  0.373746  1
  Nb  Nb12  1  0.341472  0.830367  0.373656  1
  Nb  Nb13  1  0.841546  0.669537  0.126443  1
  Nb  Nb14  1  0.659017  0.169468  0.873525  1
  Nb  Nb15  1  0.158740  0.330092  0.626170  1
  Nb  Nb16  1  0.834839  0.487464  0.749961  1
  Nb  Nb17  1  0.334822  0.012061  0.749917  1
  Nb  Nb18  1  0.165245  0.512500  0.250074  1
  Nb  Nb19  1  0.665271  0.987973  0.250140  1
  Ge  Ge20  1  0.677395  0.962139  0.458793  1
  Ge  Ge21  1  0.177452  0.537957  0.041287  1
  Ge  Ge22  1  0.322870  0.038169  0.958539  1
  Ge  Ge23  1  0.822355  0.461974  0.541378  1
  Ge  Ge24  1  0.321958  0.037479  0.541365  1
  Ge  Ge25  1  0.822610  0.462034  0.958589  1
  Ge  Ge26  1  0.677426  0.962031  0.041378  1
  Ge  Ge27  1  0.177371  0.538240  0.458690  1
  Ge  Ge28  1  0.458960  0.379926  0.749808  1
  Ge  Ge29  1  0.959005  0.119554  0.749688  1
  Ge  Ge30  1  0.541325  0.619985  0.250165  1
  Ge  Ge31  1  0.041277  0.880466  0.250001  1
  Ge  Ge32  1  0.694349  0.857098  0.749958  1
  Ge  Ge33  1  0.194413  0.642461  0.749892  1
  Ge  Ge34  1  0.305654  0.142905  0.250106  1
  Ge  Ge35  1  0.805583  0.357601  0.250255  1
