# generated using pymatgen
data_Mn3Se2ClO8
_symmetry_space_group_name_H-M   'P 1'
_cell_length_a   6.33018300
_cell_length_b   7.92619322
_cell_length_c   9.81770777
_cell_angle_alpha   89.44851541
_cell_angle_beta   90.00000000
_cell_angle_gamma   90.00000000
_symmetry_Int_Tables_number   1
_chemical_formula_structural   Mn3Se2ClO8
_chemical_formula_sum   'Mn6 Se4 Cl2 O16'
_cell_volume   492.57334128
_cell_formula_units_Z   2
loop_
 _symmetry_equiv_pos_site_id
 _symmetry_equiv_pos_as_xyz
  1  'x, y, z'
loop_
 _atom_site_type_symbol
 _atom_site_label
 _atom_site_symmetry_multiplicity
 _atom_site_fract_x
 _atom_site_fract_y
 _atom_site_fract_z
 _atom_site_occupancy
  Mn  Mn0  1  0.500000  0.500000  0.000000  1
  Mn  Mn1  1  0.500000  0.500000  0.500000  1
  Mn  Mn2  1  0.000000  0.500000  0.000000  1
  Mn  Mn3  1  0.250000  0.702440  0.749195  1
  Mn  Mn4  1  0.750000  0.297560  0.250805  1
  Mn  Mn5  1  0.000000  0.500000  0.500000  1
  Se  Se6  1  0.250000  0.849483  0.051804  1
  Se  Se7  1  0.750000  0.150517  0.948196  1
  Se  Se8  1  0.250000  0.849201  0.443389  1
  Se  Se9  1  0.750000  0.150799  0.556611  1
  Cl  Cl10  1  0.750000  0.631813  0.762066  1
  Cl  Cl11  1  0.250000  0.368187  0.237934  1
  O  O12  1  0.750000  0.467197  0.108701  1
  O  O13  1  0.750000  0.115855  0.123250  1
  O  O14  1  0.250000  0.884109  0.617345  1
  O  O15  1  0.468350  0.722240  0.077436  1
  O  O16  1  0.531476  0.278547  0.580305  1
  O  O17  1  0.968524  0.278547  0.580305  1
  O  O18  1  0.250000  0.532803  0.891299  1
  O  O19  1  0.031650  0.722240  0.077436  1
  O  O20  1  0.031476  0.721453  0.419695  1
  O  O21  1  0.968350  0.277760  0.922564  1
  O  O22  1  0.750000  0.467587  0.392512  1
  O  O23  1  0.250000  0.532413  0.607488  1
  O  O24  1  0.531650  0.277760  0.922564  1
  O  O25  1  0.468524  0.721453  0.419695  1
  O  O26  1  0.250000  0.884145  0.876750  1
  O  O27  1  0.750000  0.115891  0.382655  1
