# generated using pymatgen
data_HfZr4Nb3P4
_symmetry_space_group_name_H-M   'P 1'
_cell_length_a   3.58135400
_cell_length_b   6.95684199
_cell_length_c   8.44821406
_cell_angle_alpha   89.86279654
_cell_angle_beta   90.00000000
_cell_angle_gamma   90.00000000
_symmetry_Int_Tables_number   1
_chemical_formula_structural   HfZr4Nb3P4
_chemical_formula_sum   'Hf1 Zr4 Nb3 P4'
_cell_volume   210.48592210
_cell_formula_units_Z   1
loop_
 _symmetry_equiv_pos_site_id
 _symmetry_equiv_pos_as_xyz
  1  'x, y, z'
loop_
 _atom_site_type_symbol
 _atom_site_label
 _atom_site_symmetry_multiplicity
 _atom_site_fract_x
 _atom_site_fract_y
 _atom_site_fract_z
 _atom_site_occupancy
  Hf  Hf0  1  0.250000  0.138996  0.060843  1
  Zr  Zr1  1  0.250000  0.535276  0.830154  1
  Zr  Zr2  1  0.750000  0.965392  0.333155  1
  Zr  Zr3  1  0.250000  0.032439  0.667216  1
  Zr  Zr4  1  0.750000  0.472518  0.173321  1
  Nb  Nb5  1  0.750000  0.854727  0.938015  1
  Nb  Nb6  1  0.250000  0.639689  0.440388  1
  Nb  Nb7  1  0.750000  0.363271  0.559674  1
  P  P8  1  0.750000  0.737478  0.641657  1
  P  P9  1  0.250000  0.761914  0.141706  1
  P  P10  1  0.750000  0.236604  0.852569  1
  P  P11  1  0.250000  0.261697  0.361304  1
