# generated using pymatgen
data_Ti8Co4CN
_symmetry_space_group_name_H-M   'P 1'
_cell_length_a   8.01461012
_cell_length_b   7.99392188
_cell_length_c   7.99392236
_cell_angle_alpha   59.84278763
_cell_angle_beta   59.91434969
_cell_angle_gamma   59.91435529
_symmetry_Int_Tables_number   1
_chemical_formula_structural   Ti8Co4CN
_chemical_formula_sum   'Ti16 Co8 C2 N2'
_cell_volume   361.24884918
_cell_formula_units_Z   2
loop_
 _symmetry_equiv_pos_site_id
 _symmetry_equiv_pos_as_xyz
  1  'x, y, z'
loop_
 _atom_site_type_symbol
 _atom_site_label
 _atom_site_symmetry_multiplicity
 _atom_site_fract_x
 _atom_site_fract_y
 _atom_site_fract_z
 _atom_site_occupancy
  Ti  Ti0  1  0.125000  0.625000  0.625000  1
  Ti  Ti1  1  0.625000  0.125000  0.625000  1
  Ti  Ti2  1  0.625000  0.625000  0.125000  1
  Ti  Ti3  1  0.625000  0.625000  0.625000  1
  Ti  Ti4  1  0.815350  0.813813  0.185516  1
  Ti  Ti5  1  0.185321  0.185516  0.813813  1
  Ti  Ti6  1  0.815350  0.185516  0.813813  1
  Ti  Ti7  1  0.185321  0.813813  0.185516  1
  Ti  Ti8  1  0.184803  0.815197  0.815197  1
  Ti  Ti9  1  0.813723  0.186277  0.186277  1
  Ti  Ti10  1  0.434650  0.436187  0.064484  1
  Ti  Ti11  1  0.064679  0.064484  0.436187  1
  Ti  Ti12  1  0.434650  0.064484  0.436187  1
  Ti  Ti13  1  0.064679  0.436187  0.064484  1
  Ti  Ti14  1  0.065197  0.434803  0.434803  1
  Ti  Ti15  1  0.436277  0.063723  0.063723  1
  Co  Co16  1  0.750413  0.416864  0.416864  1
  Co  Co17  1  0.416065  0.750753  0.417116  1
  Co  Co18  1  0.416065  0.417116  0.750753  1
  Co  Co19  1  0.415858  0.416864  0.416864  1
  Co  Co20  1  0.499587  0.833136  0.833136  1
  Co  Co21  1  0.833935  0.499247  0.832884  1
  Co  Co22  1  0.833935  0.832884  0.499247  1
  Co  Co23  1  0.834142  0.833136  0.833136  1
  C  C24  1  0.625000  0.125000  0.125000  1
  C  C25  1  0.125000  0.125000  0.125000  1
  N  N26  1  0.125000  0.625000  0.125000  1
  N  N27  1  0.125000  0.125000  0.625000  1
