# generated using pymatgen
data_Pr16Lu4Si15Sn
_symmetry_space_group_name_H-M   'P 1'
_cell_length_a   7.90149994
_cell_length_b   7.88106430
_cell_length_c   15.22628100
_cell_angle_alpha   90.12665175
_cell_angle_beta   89.68694732
_cell_angle_gamma   89.69791909
_symmetry_Int_Tables_number   1
_chemical_formula_structural   Pr16Lu4Si15Sn
_chemical_formula_sum   'Pr16 Lu4 Si15 Sn1'
_cell_volume   948.14475005
_cell_formula_units_Z   1
loop_
 _symmetry_equiv_pos_site_id
 _symmetry_equiv_pos_as_xyz
  1  'x, y, z'
loop_
 _atom_site_type_symbol
 _atom_site_label
 _atom_site_symmetry_multiplicity
 _atom_site_fract_x
 _atom_site_fract_y
 _atom_site_fract_z
 _atom_site_occupancy
  Pr  Pr0  1  0.375570  0.016563  0.447423  1
  Pr  Pr1  1  0.494480  0.872030  0.696215  1
  Pr  Pr2  1  0.511222  0.120375  0.196015  1
  Pr  Pr3  1  0.879020  0.488448  0.302837  1
  Pr  Pr4  1  0.119388  0.516521  0.807721  1
  Pr  Pr5  1  0.623695  0.984680  0.948510  1
  Pr  Pr6  1  0.006419  0.385648  0.548172  1
  Pr  Pr7  1  0.987754  0.620347  0.055490  1
  Pr  Pr8  1  0.127574  0.975467  0.881387  1
  Pr  Pr9  1  0.523040  0.625138  0.129642  1
  Pr  Pr10  1  0.486028  0.385515  0.627745  1
  Pr  Pr11  1  0.626589  0.524750  0.873872  1
  Pr  Pr12  1  0.375118  0.477889  0.369668  1
  Pr  Pr13  1  0.872579  0.023768  0.377951  1
  Pr  Pr14  1  0.977278  0.126291  0.122575  1
  Pr  Pr15  1  0.012451  0.860079  0.618076  1
  Lu  Lu16  1  0.311545  0.309455  0.000762  1
  Lu  Lu17  1  0.188924  0.812020  0.249822  1
  Lu  Lu18  1  0.800130  0.187522  0.752373  1
  Lu  Lu19  1  0.685202  0.691158  0.496836  1
  Si  Si20  1  0.326834  0.685528  0.959336  1
  Si  Si21  1  0.670124  0.313060  0.456004  1
  Si  Si22  1  0.687675  0.326389  0.043827  1
  Si  Si23  1  0.313797  0.675609  0.540397  1
  Si  Si24  1  0.812663  0.827413  0.207073  1
  Si  Si25  1  0.171877  0.187768  0.293323  1
  Si  Si26  1  0.830643  0.812352  0.794111  1
  Si  Si27  1  0.285974  0.920603  0.065486  1
  Si  Si28  1  0.578561  0.788343  0.314295  1
  Si  Si29  1  0.433672  0.212334  0.818349  1
  Si  Si30  1  0.788471  0.576834  0.687787  1
  Si  Si31  1  0.214225  0.419749  0.185538  1
  Si  Si32  1  0.712122  0.081658  0.564413  1
  Si  Si33  1  0.921548  0.285609  0.936296  1
  Si  Si34  1  0.080158  0.715565  0.433091  1
  Sn  Sn35  1  0.187655  0.167527  0.697583  1
