# generated using pymatgen
data_BeI16
_symmetry_space_group_name_H-M   'P 1'
_cell_length_a   13.10331430
_cell_length_b   11.29857789
_cell_length_c   10.59773737
_cell_angle_alpha   94.03289252
_cell_angle_beta   123.41072272
_cell_angle_gamma   121.50732965
_symmetry_Int_Tables_number   1
_chemical_formula_structural   BeI16
_chemical_formula_sum   'Be1 I16'
_cell_volume   964.96526344
_cell_formula_units_Z   1
loop_
 _symmetry_equiv_pos_site_id
 _symmetry_equiv_pos_as_xyz
  1  'x, y, z'
loop_
 _atom_site_type_symbol
 _atom_site_label
 _atom_site_symmetry_multiplicity
 _atom_site_fract_x
 _atom_site_fract_y
 _atom_site_fract_z
 _atom_site_occupancy
  Be  Be0  1  0.000000  0.000000  0.000000  1
  I  I1  1  0.998259  0.983198  0.755148  1
  I  I2  1  0.001741  0.016802  0.244852  1
  I  I3  1  0.998621  0.233563  0.036043  1
  I  I4  1  0.654446  0.802933  0.777988  1
  I  I5  1  0.345554  0.197067  0.222012  1
  I  I6  1  0.001379  0.766437  0.963957  1
  I  I7  1  0.506019  0.517128  0.298187  1
  I  I8  1  0.493981  0.482872  0.701813  1
  I  I9  1  0.698406  0.885343  0.408446  1
  I  I10  1  0.034741  0.382314  0.842752  1
  I  I11  1  0.965259  0.617686  0.157248  1
  I  I12  1  0.462574  0.869631  0.102394  1
  I  I13  1  0.537426  0.130369  0.897606  1
  I  I14  1  0.859055  0.402076  0.312896  1
  I  I15  1  0.140945  0.597924  0.687104  1
  I  I16  1  0.301594  0.114657  0.591554  1
