# generated using pymatgen
data_Ce(NbSn)6
_symmetry_space_group_name_H-M   'P 1'
_cell_length_a   5.83255000
_cell_length_b   5.83268383
_cell_length_c   9.60486300
_cell_angle_alpha   90.00000000
_cell_angle_beta   90.00000000
_cell_angle_gamma   119.99924100
_symmetry_Int_Tables_number   1
_chemical_formula_structural   Ce(NbSn)6
_chemical_formula_sum   'Ce1 Nb6 Sn6'
_cell_volume   282.97758355
_cell_formula_units_Z   1
loop_
 _symmetry_equiv_pos_site_id
 _symmetry_equiv_pos_as_xyz
  1  'x, y, z'
loop_
 _atom_site_type_symbol
 _atom_site_label
 _atom_site_symmetry_multiplicity
 _atom_site_fract_x
 _atom_site_fract_y
 _atom_site_fract_z
 _atom_site_occupancy
  Ce  Ce0  1  0.000000  0.000000  0.000000  1
  Nb  Nb1  1  0.000000  0.500000  0.750338  1
  Nb  Nb2  1  0.500000  0.500000  0.750338  1
  Nb  Nb3  1  0.500000  0.000000  0.750352  1
  Nb  Nb4  1  0.000000  0.500000  0.249662  1
  Nb  Nb5  1  0.500000  0.500000  0.249662  1
  Nb  Nb6  1  0.500000  0.000000  0.249648  1
  Sn  Sn7  1  0.666652  0.333302  0.500000  1
  Sn  Sn8  1  0.333348  0.666698  0.500000  1
  Sn  Sn9  1  0.666675  0.333349  0.000000  1
  Sn  Sn10  1  0.333325  0.666651  0.000000  1
  Sn  Sn11  1  0.000000  0.000000  0.662631  1
  Sn  Sn12  1  0.000000  0.000000  0.337369  1
