# generated using pymatgen
data_Th3Al3RhAu2
_symmetry_space_group_name_H-M   'P 1'
_cell_length_a   7.22308600
_cell_length_b   7.22308639
_cell_length_c   4.40967500
_cell_angle_alpha   90.00000000
_cell_angle_beta   90.00000000
_cell_angle_gamma   119.99998904
_symmetry_Int_Tables_number   1
_chemical_formula_structural   Th3Al3RhAu2
_chemical_formula_sum   'Th3 Al3 Rh1 Au2'
_cell_volume   199.24290129
_cell_formula_units_Z   1
loop_
 _symmetry_equiv_pos_site_id
 _symmetry_equiv_pos_as_xyz
  1  'x, y, z'
loop_
 _atom_site_type_symbol
 _atom_site_label
 _atom_site_symmetry_multiplicity
 _atom_site_fract_x
 _atom_site_fract_y
 _atom_site_fract_z
 _atom_site_occupancy
  Th  Th0  1  0.000000  0.408492  0.500000  1
  Th  Th1  1  0.591508  0.591508  0.500000  1
  Th  Th2  1  0.408492  0.000000  0.500000  1
  Al  Al3  1  0.000000  0.773073  0.000000  1
  Al  Al4  1  0.226927  0.226927  0.000000  1
  Al  Al5  1  0.773073  0.000000  0.000000  1
  Rh  Rh6  1  0.000000  0.000000  0.500000  1
  Au  Au7  1  0.333333  0.666667  0.000000  1
  Au  Au8  1  0.666667  0.333333  0.000000  1
