# generated using pymatgen
data_Be4Al2Cr3Ga(CoO8)2
_symmetry_space_group_name_H-M   'P 1'
_cell_length_a   4.51543800
_cell_length_b   5.64188229
_cell_length_c   9.82616800
_cell_angle_alpha   90.00061948
_cell_angle_beta   90.00021571
_cell_angle_gamma   90.03872268
_symmetry_Int_Tables_number   1
_chemical_formula_structural   Be4Al2Cr3Ga(CoO8)2
_chemical_formula_sum   'Be4 Al2 Cr3 Ga1 Co2 O16'
_cell_volume   250.32717037
_cell_formula_units_Z   1
loop_
 _symmetry_equiv_pos_site_id
 _symmetry_equiv_pos_as_xyz
  1  'x, y, z'
loop_
 _atom_site_type_symbol
 _atom_site_label
 _atom_site_symmetry_multiplicity
 _atom_site_fract_x
 _atom_site_fract_y
 _atom_site_fract_z
 _atom_site_occupancy
  Be  Be0  1  0.928802  0.751387  0.413061  1
  Be  Be1  1  0.571022  0.748607  0.913075  1
  Be  Be2  1  0.071223  0.248506  0.586589  1
  Be  Be3  1  0.429659  0.251566  0.087086  1
  Al  Al4  1  0.500341  0.500545  0.499206  1
  Al  Al5  1  0.999893  0.000053  0.000046  1
  Cr  Cr6  1  0.001501  0.749504  0.731941  1
  Cr  Cr7  1  0.501307  0.249382  0.767592  1
  Cr  Cr8  1  0.997825  0.250405  0.269150  1
  Ga  Ga9  1  0.494633  0.751187  0.227977  1
  Co  Co10  1  0.500252  0.999573  0.499815  1
  Co  Co11  1  0.000152  0.499977  0.000292  1
  O  O12  1  0.280180  0.747027  0.413808  1
  O  O13  1  0.220245  0.753890  0.914507  1
  O  O14  1  0.720475  0.253865  0.585989  1
  O  O15  1  0.780474  0.245999  0.085918  1
  O  O16  1  0.746297  0.753366  0.063600  1
  O  O17  1  0.752854  0.746548  0.563033  1
  O  O18  1  0.252834  0.246773  0.937861  1
  O  O19  1  0.247045  0.253301  0.437420  1
  O  O20  1  0.757020  0.977841  0.341887  1
  O  O21  1  0.741738  0.521654  0.842387  1
  O  O22  1  0.244556  0.479761  0.657050  1
  O  O23  1  0.257399  0.018708  0.157472  1
  O  O24  1  0.241641  0.021651  0.658188  1
  O  O25  1  0.260026  0.479116  0.158835  1
  O  O26  1  0.756334  0.520290  0.342817  1
  O  O27  1  0.744270  0.979521  0.843397  1
