# generated using pymatgen
data_Pu8Si13Au3
_symmetry_space_group_name_H-M   'P 1'
_cell_length_a   8.21774500
_cell_length_b   8.21774494
_cell_length_c   8.13501200
_cell_angle_alpha   90.00000000
_cell_angle_beta   90.00000000
_cell_angle_gamma   120.00001231
_symmetry_Int_Tables_number   1
_chemical_formula_structural   Pu8Si13Au3
_chemical_formula_sum   'Pu8 Si13 Au3'
_cell_volume   475.76675788
_cell_formula_units_Z   1
loop_
 _symmetry_equiv_pos_site_id
 _symmetry_equiv_pos_as_xyz
  1  'x, y, z'
loop_
 _atom_site_type_symbol
 _atom_site_label
 _atom_site_symmetry_multiplicity
 _atom_site_fract_x
 _atom_site_fract_y
 _atom_site_fract_z
 _atom_site_occupancy
  Pu  Pu0  1  0.496052  0.992103  0.255216  1
  Pu  Pu1  1  0.494483  0.988968  0.744356  1
  Pu  Pu2  1  0.007897  0.503948  0.255216  1
  Pu  Pu3  1  0.011032  0.505517  0.744356  1
  Pu  Pu4  1  0.496052  0.503948  0.255216  1
  Pu  Pu5  1  0.494483  0.505517  0.744356  1
  Pu  Pu6  1  0.000000  0.000000  0.253179  1
  Pu  Pu7  1  0.000000  0.000000  0.748212  1
  Si  Si8  1  0.161850  0.323702  0.998702  1
  Si  Si9  1  0.836842  0.673683  0.003707  1
  Si  Si10  1  0.676298  0.838150  0.998702  1
  Si  Si11  1  0.837713  0.675425  0.500388  1
  Si  Si12  1  0.326317  0.163158  0.003707  1
  Si  Si13  1  0.165618  0.331236  0.497593  1
  Si  Si14  1  0.161850  0.838150  0.998702  1
  Si  Si15  1  0.324575  0.162287  0.500388  1
  Si  Si16  1  0.836842  0.163158  0.003707  1
  Si  Si17  1  0.668764  0.834382  0.497593  1
  Si  Si18  1  0.837713  0.162287  0.500388  1
  Si  Si19  1  0.165618  0.834382  0.497593  1
  Si  Si20  1  0.333333  0.666667  0.499185  1
  Au  Au21  1  0.333333  0.666667  0.002021  1
  Au  Au22  1  0.666667  0.333333  0.997085  1
  Au  Au23  1  0.666667  0.333333  0.500436  1
