# generated using pymatgen
data_TbNdAl9Co2Ni
_symmetry_space_group_name_H-M   'P 1'
_cell_length_a   7.44192931
_cell_length_b   7.44192861
_cell_length_c   9.37522100
_cell_angle_alpha   90.00000000
_cell_angle_beta   90.00000000
_cell_angle_gamma   119.28507560
_symmetry_Int_Tables_number   1
_chemical_formula_structural   TbNdAl9Co2Ni
_chemical_formula_sum   'Tb2 Nd2 Al18 Co4 Ni2'
_cell_volume   452.86316945
_cell_formula_units_Z   2
loop_
 _symmetry_equiv_pos_site_id
 _symmetry_equiv_pos_as_xyz
  1  'x, y, z'
loop_
 _atom_site_type_symbol
 _atom_site_label
 _atom_site_symmetry_multiplicity
 _atom_site_fract_x
 _atom_site_fract_y
 _atom_site_fract_z
 _atom_site_occupancy
  Tb  Tb0  1  0.005608  0.326331  0.750000  1
  Tb  Tb1  1  0.326331  0.005608  0.750000  1
  Nd  Nd2  1  0.994684  0.672926  0.250000  1
  Nd  Nd3  1  0.672926  0.994684  0.250000  1
  Al  Al4  1  0.661516  0.001778  0.925247  1
  Al  Al5  1  0.001778  0.661516  0.574753  1
  Al  Al6  1  0.132595  0.132595  0.250000  1
  Al  Al7  1  0.664082  0.664082  0.036715  1
  Al  Al8  1  0.334855  0.334855  0.546667  1
  Al  Al9  1  0.334855  0.334855  0.953333  1
  Al  Al10  1  0.664082  0.664082  0.463285  1
  Al  Al11  1  0.338227  0.000760  0.067775  1
  Al  Al12  1  0.000760  0.338227  0.432225  1
  Al  Al13  1  0.339197  0.550908  0.250000  1
  Al  Al14  1  0.000760  0.338227  0.067775  1
  Al  Al15  1  0.550908  0.339197  0.250000  1
  Al  Al16  1  0.660074  0.444282  0.750000  1
  Al  Al17  1  0.871215  0.871215  0.750000  1
  Al  Al18  1  0.001778  0.661516  0.925247  1
  Al  Al19  1  0.661516  0.001778  0.574753  1
  Al  Al20  1  0.338227  0.000760  0.432225  1
  Al  Al21  1  0.444282  0.660074  0.750000  1
  Co  Co22  1  0.670397  0.328916  0.501987  1
  Co  Co23  1  0.670397  0.328916  0.998013  1
  Co  Co24  1  0.328916  0.670397  0.501987  1
  Co  Co25  1  0.328916  0.670397  0.998013  1
  Ni  Ni26  1  0.000557  0.000557  0.998241  1
  Ni  Ni27  1  0.000557  0.000557  0.501759  1
