# generated using pymatgen
data_CdH5Ir
_symmetry_space_group_name_H-M   'P 1'
_cell_length_a   5.03010300
_cell_length_b   5.21862800
_cell_length_c   10.21909800
_cell_angle_alpha   90.00000000
_cell_angle_beta   90.00000000
_cell_angle_gamma   90.00000000
_symmetry_Int_Tables_number   1
_chemical_formula_structural   CdH5Ir
_chemical_formula_sum   'Cd4 H20 Ir4'
_cell_volume   268.25373787
_cell_formula_units_Z   4
loop_
 _symmetry_equiv_pos_site_id
 _symmetry_equiv_pos_as_xyz
  1  'x, y, z'
loop_
 _atom_site_type_symbol
 _atom_site_label
 _atom_site_symmetry_multiplicity
 _atom_site_fract_x
 _atom_site_fract_y
 _atom_site_fract_z
 _atom_site_occupancy
  Cd  Cd0  1  0.573052  0.368529  0.136069  1
  Cd  Cd1  1  0.073052  0.131471  0.863931  1
  Cd  Cd2  1  0.426948  0.868529  0.363931  1
  Cd  Cd3  1  0.926948  0.631471  0.636069  1
  H  H4  1  0.912783  0.382793  0.021475  1
  H  H5  1  0.339996  0.952222  0.678093  1
  H  H6  1  0.990313  0.807637  0.049916  1
  H  H7  1  0.751062  0.870717  0.820992  1
  H  H8  1  0.372722  0.413205  0.353217  1
  H  H9  1  0.748938  0.129283  0.320992  1
  H  H10  1  0.490313  0.692363  0.950084  1
  H  H11  1  0.248938  0.370717  0.679008  1
  H  H12  1  0.839996  0.547778  0.321907  1
  H  H13  1  0.587217  0.617207  0.521475  1
  H  H14  1  0.009687  0.307637  0.450084  1
  H  H15  1  0.087217  0.882793  0.478525  1
  H  H16  1  0.627278  0.913205  0.146783  1
  H  H17  1  0.872722  0.086795  0.646783  1
  H  H18  1  0.127278  0.586795  0.853217  1
  H  H19  1  0.160004  0.047778  0.178093  1
  H  H20  1  0.412783  0.117207  0.978525  1
  H  H21  1  0.660004  0.452222  0.821907  1
  H  H22  1  0.509687  0.192363  0.549916  1
  H  H23  1  0.251062  0.629283  0.179008  1
  Ir  Ir24  1  0.160745  0.130939  0.581463  1
  Ir  Ir25  1  0.339255  0.869061  0.081463  1
  Ir  Ir26  1  0.839255  0.630939  0.918537  1
  Ir  Ir27  1  0.660745  0.369061  0.418537  1
