# generated using pymatgen
data_Y2ThIn2GaRh3
_symmetry_space_group_name_H-M   'P 1'
_cell_length_a   7.53670322
_cell_length_b   7.69169826
_cell_length_c   3.85442700
_cell_angle_alpha   90.00000000
_cell_angle_beta   90.00000000
_cell_angle_gamma   120.68265883
_symmetry_Int_Tables_number   1
_chemical_formula_structural   Y2ThIn2GaRh3
_chemical_formula_sum   'Y2 Th1 In2 Ga1 Rh3'
_cell_volume   192.16103936
_cell_formula_units_Z   1
loop_
 _symmetry_equiv_pos_site_id
 _symmetry_equiv_pos_as_xyz
  1  'x, y, z'
loop_
 _atom_site_type_symbol
 _atom_site_label
 _atom_site_symmetry_multiplicity
 _atom_site_fract_x
 _atom_site_fract_y
 _atom_site_fract_z
 _atom_site_occupancy
  Y  Y0  1  0.395304  0.406391  0.500000  1
  Y  Y1  1  0.604696  0.011087  0.500000  1
  Th  Th2  1  0.000000  0.566892  0.500000  1
  In  In3  1  0.265677  0.009989  0.000000  1
  In  In4  1  0.734323  0.744312  0.000000  1
  Ga  Ga5  1  0.000000  0.239040  0.000000  1
  Rh  Rh6  1  0.307527  0.657360  0.000000  1
  Rh  Rh7  1  0.000000  0.015098  0.500000  1
  Rh  Rh8  1  0.692473  0.349831  0.000000  1
