# generated using pymatgen
data_Dy10Zn3GaB16
_symmetry_space_group_name_H-M   'P 1'
_cell_length_a   7.20315599
_cell_length_b   7.20315599
_cell_length_c   8.37504400
_cell_angle_alpha   90.00000000
_cell_angle_beta   90.00000000
_cell_angle_gamma   90.10448718
_symmetry_Int_Tables_number   1
_chemical_formula_structural   Dy10Zn3GaB16
_chemical_formula_sum   'Dy10 Zn3 Ga1 B16'
_cell_volume   434.54225673
_cell_formula_units_Z   1
loop_
 _symmetry_equiv_pos_site_id
 _symmetry_equiv_pos_as_xyz
  1  'x, y, z'
loop_
 _atom_site_type_symbol
 _atom_site_label
 _atom_site_symmetry_multiplicity
 _atom_site_fract_x
 _atom_site_fract_y
 _atom_site_fract_z
 _atom_site_occupancy
  Dy  Dy0  1  0.681520  0.181520  0.212299  1
  Dy  Dy1  1  0.317053  0.817053  0.786633  1
  Dy  Dy2  1  0.317053  0.817053  0.213367  1
  Dy  Dy3  1  0.819166  0.682422  0.213424  1
  Dy  Dy4  1  0.819166  0.682422  0.786576  1
  Dy  Dy5  1  0.681520  0.181520  0.787701  1
  Dy  Dy6  1  0.182422  0.319166  0.786576  1
  Dy  Dy7  1  0.182422  0.319166  0.213424  1
  Dy  Dy8  1  0.997142  0.001581  0.500000  1
  Dy  Dy9  1  0.501581  0.497142  0.500000  1
  Zn  Zn10  1  0.880262  0.380262  0.500000  1
  Zn  Zn11  1  0.382325  0.116792  0.500000  1
  Zn  Zn12  1  0.616792  0.882325  0.500000  1
  Ga  Ga13  1  0.119061  0.619061  0.500000  1
  B  B14  1  0.172071  0.040666  0.000000  1
  B  B15  1  0.828250  0.959278  0.000000  1
  B  B16  1  0.959883  0.171704  0.000000  1
  B  B17  1  0.328444  0.540565  0.000000  1
  B  B18  1  0.040565  0.828444  0.000000  1
  B  B19  1  0.671704  0.459883  0.000000  1
  B  B20  1  0.540666  0.672071  0.000000  1
  B  B21  1  0.459278  0.328250  0.000000  1
  B  B22  1  0.091229  0.591229  0.000000  1
  B  B23  1  0.909084  0.409084  0.000000  1
  B  B24  1  0.409198  0.090853  0.000000  1
  B  B25  1  0.590853  0.909198  0.000000  1
  B  B26  1  0.999928  0.000716  0.158328  1
  B  B27  1  0.999928  0.000716  0.841672  1
  B  B28  1  0.500716  0.499928  0.841672  1
  B  B29  1  0.500716  0.499928  0.158328  1
