# generated using pymatgen
data_Hf2Zr2Mn3Si4W
_symmetry_space_group_name_H-M   'P 1'
_cell_length_a   3.60576900
_cell_length_b   6.70013486
_cell_length_c   7.84795701
_cell_angle_alpha   89.45267456
_cell_angle_beta   90.00000000
_cell_angle_gamma   90.00000000
_symmetry_Int_Tables_number   1
_chemical_formula_structural   Hf2Zr2Mn3Si4W
_chemical_formula_sum   'Hf2 Zr2 Mn3 Si4 W1'
_cell_volume   189.59123021
_cell_formula_units_Z   1
loop_
 _symmetry_equiv_pos_site_id
 _symmetry_equiv_pos_as_xyz
  1  'x, y, z'
loop_
 _atom_site_type_symbol
 _atom_site_label
 _atom_site_symmetry_multiplicity
 _atom_site_fract_x
 _atom_site_fract_y
 _atom_site_fract_z
 _atom_site_occupancy
  Hf  Hf0  1  0.250000  0.536650  0.179383  1
  Hf  Hf1  1  0.250000  0.035598  0.330073  1
  Zr  Zr2  1  0.750000  0.462853  0.824487  1
  Zr  Zr3  1  0.750000  0.969079  0.668900  1
  Mn  Mn4  1  0.250000  0.632935  0.562352  1
  Mn  Mn5  1  0.250000  0.134985  0.939056  1
  Mn  Mn6  1  0.750000  0.363368  0.437984  1
  Si  Si7  1  0.250000  0.764339  0.858428  1
  Si  Si8  1  0.250000  0.269696  0.624871  1
  Si  Si9  1  0.750000  0.238311  0.131163  1
  Si  Si10  1  0.750000  0.727571  0.379951  1
  W  W11  1  0.750000  0.864615  0.063352  1
