# generated using pymatgen
data_Sm4Co15Ni2(P4Ru)3
_symmetry_space_group_name_H-M   'P 1'
_cell_length_a   3.71818100
_cell_length_b   10.44629171
_cell_length_c   11.85007377
_cell_angle_alpha   90.03382216
_cell_angle_beta   90.00000000
_cell_angle_gamma   90.00000000
_symmetry_Int_Tables_number   1
_chemical_formula_structural   Sm4Co15Ni2(P4Ru)3
_chemical_formula_sum   'Sm4 Co15 Ni2 P12 Ru3'
_cell_volume   460.27104476
_cell_formula_units_Z   1
loop_
 _symmetry_equiv_pos_site_id
 _symmetry_equiv_pos_as_xyz
  1  'x, y, z'
loop_
 _atom_site_type_symbol
 _atom_site_label
 _atom_site_symmetry_multiplicity
 _atom_site_fract_x
 _atom_site_fract_y
 _atom_site_fract_z
 _atom_site_occupancy
  Sm  Sm0  1  0.250000  0.583031  0.701571  1
  Sm  Sm1  1  0.250000  0.914005  0.203894  1
  Sm  Sm2  1  0.750000  0.413235  0.295264  1
  Sm  Sm3  1  0.750000  0.085842  0.795898  1
  Co  Co4  1  0.250000  0.091564  0.989206  1
  Co  Co5  1  0.750000  0.592364  0.508229  1
  Co  Co6  1  0.750000  0.907963  0.009671  1
  Co  Co7  1  0.250000  0.218309  0.173856  1
  Co  Co8  1  0.250000  0.280393  0.677734  1
  Co  Co9  1  0.750000  0.779882  0.823549  1
  Co  Co10  1  0.750000  0.721508  0.323782  1
  Co  Co11  1  0.250000  0.886521  0.700875  1
  Co  Co12  1  0.250000  0.612861  0.202340  1
  Co  Co13  1  0.750000  0.117092  0.301662  1
  Co  Co14  1  0.750000  0.387027  0.799270  1
  Co  Co15  1  0.250000  0.466110  0.931684  1
  Co  Co16  1  0.250000  0.035097  0.432493  1
  Co  Co17  1  0.750000  0.534509  0.068979  1
  Co  Co18  1  0.750000  0.966940  0.568282  1
  Ni  Ni19  1  0.750000  0.211746  0.514930  1
  Ni  Ni20  1  0.250000  0.407180  0.487581  1
  P  P21  1  0.250000  0.418868  0.110509  1
  P  P22  1  0.250000  0.083236  0.610319  1
  P  P23  1  0.750000  0.580679  0.889110  1
  P  P24  1  0.750000  0.920870  0.389319  1
  P  P25  1  0.250000  0.274503  0.866757  1
  P  P26  1  0.250000  0.224699  0.365392  1
  P  P27  1  0.750000  0.725958  0.133216  1
  P  P28  1  0.750000  0.774340  0.632810  1
  P  P29  1  0.250000  0.599783  0.390976  1
  P  P30  1  0.250000  0.902484  0.890477  1
  P  P31  1  0.750000  0.395432  0.608922  1
  P  P32  1  0.750000  0.097788  0.109323  1
  Ru  Ru33  1  0.250000  0.716086  0.992311  1
  Ru  Ru34  1  0.250000  0.787494  0.491500  1
  Ru  Ru35  1  0.750000  0.284601  0.008312  1
