# generated using pymatgen
data_La6Yb2ZnPd24
_symmetry_space_group_name_H-M   'P 1'
_cell_length_a   8.48221917
_cell_length_b   8.48221922
_cell_length_c   8.48222000
_cell_angle_alpha   89.86609252
_cell_angle_beta   89.86609252
_cell_angle_gamma   89.86609741
_symmetry_Int_Tables_number   1
_chemical_formula_structural   La6Yb2ZnPd24
_chemical_formula_sum   'La6 Yb2 Zn1 Pd24'
_cell_volume   610.27413235
_cell_formula_units_Z   1
loop_
 _symmetry_equiv_pos_site_id
 _symmetry_equiv_pos_as_xyz
  1  'x, y, z'
loop_
 _atom_site_type_symbol
 _atom_site_label
 _atom_site_symmetry_multiplicity
 _atom_site_fract_x
 _atom_site_fract_y
 _atom_site_fract_z
 _atom_site_occupancy
  La  La0  1  0.748794  0.748794  0.250352  1
  La  La1  1  0.748794  0.250352  0.748794  1
  La  La2  1  0.251206  0.251206  0.749648  1
  La  La3  1  0.251206  0.749648  0.251206  1
  La  La4  1  0.250352  0.748794  0.748794  1
  La  La5  1  0.749648  0.251206  0.251206  1
  Yb  Yb6  1  0.249703  0.249703  0.249703  1
  Yb  Yb7  1  0.750297  0.750297  0.750297  1
  Zn  Zn8  1  0.000000  0.000000  0.000000  1
  Pd  Pd9  1  0.261958  0.497775  0.004379  1
  Pd  Pd10  1  0.738042  0.502225  0.995621  1
  Pd  Pd11  1  0.004379  0.261958  0.497775  1
  Pd  Pd12  1  0.497775  0.261958  0.004379  1
  Pd  Pd13  1  0.995621  0.738042  0.502225  1
  Pd  Pd14  1  0.502225  0.738042  0.995621  1
  Pd  Pd15  1  0.497775  0.004379  0.261958  1
  Pd  Pd16  1  0.261958  0.004379  0.497775  1
  Pd  Pd17  1  0.502225  0.995621  0.738042  1
  Pd  Pd18  1  0.738042  0.995621  0.502225  1
  Pd  Pd19  1  0.004379  0.497775  0.261958  1
  Pd  Pd20  1  0.995621  0.502225  0.738042  1
  Pd  Pd21  1  0.253654  0.496541  0.496541  1
  Pd  Pd22  1  0.746346  0.503459  0.503459  1
  Pd  Pd23  1  0.496541  0.253654  0.496541  1
  Pd  Pd24  1  0.503459  0.746346  0.503459  1
  Pd  Pd25  1  0.496541  0.496541  0.253654  1
  Pd  Pd26  1  0.503459  0.503459  0.746346  1
  Pd  Pd27  1  0.296926  0.003453  0.003453  1
  Pd  Pd28  1  0.703074  0.996547  0.996547  1
  Pd  Pd29  1  0.003453  0.296926  0.003453  1
  Pd  Pd30  1  0.996547  0.703074  0.996547  1
  Pd  Pd31  1  0.003453  0.003453  0.296926  1
  Pd  Pd32  1  0.996547  0.996547  0.703074  1
