# generated using pymatgen
data_Zr18Cu3NiP8
_symmetry_space_group_name_H-M   'P 1'
_cell_length_a   12.12448996
_cell_length_b   12.12448996
_cell_length_c   3.69078000
_cell_angle_alpha   90.00000000
_cell_angle_beta   90.00000000
_cell_angle_gamma   89.95446389
_symmetry_Int_Tables_number   1
_chemical_formula_structural   Zr18Cu3NiP8
_chemical_formula_sum   'Zr18 Cu3 Ni1 P8'
_cell_volume   542.55650850
_cell_formula_units_Z   1
loop_
 _symmetry_equiv_pos_site_id
 _symmetry_equiv_pos_as_xyz
  1  'x, y, z'
loop_
 _atom_site_type_symbol
 _atom_site_label
 _atom_site_symmetry_multiplicity
 _atom_site_fract_x
 _atom_site_fract_y
 _atom_site_fract_z
 _atom_site_occupancy
  Zr  Zr0  1  0.000407  0.999940  0.000000  1
  Zr  Zr1  1  0.500060  0.499593  0.000000  1
  Zr  Zr2  1  0.100327  0.180191  0.500000  1
  Zr  Zr3  1  0.180231  0.899604  0.500000  1
  Zr  Zr4  1  0.819277  0.099473  0.500000  1
  Zr  Zr5  1  0.896081  0.819203  0.500000  1
  Zr  Zr6  1  0.400527  0.680723  0.500000  1
  Zr  Zr7  1  0.600396  0.319769  0.500000  1
  Zr  Zr8  1  0.680797  0.603919  0.500000  1
  Zr  Zr9  1  0.319809  0.399673  0.500000  1
  Zr  Zr10  1  0.094799  0.405201  0.000000  1
  Zr  Zr11  1  0.405180  0.904390  0.000000  1
  Zr  Zr12  1  0.595610  0.094820  0.000000  1
  Zr  Zr13  1  0.903246  0.596754  0.000000  1
  Zr  Zr14  1  0.382002  0.117998  0.500000  1
  Zr  Zr15  1  0.117987  0.618189  0.500000  1
  Zr  Zr16  1  0.881811  0.382013  0.500000  1
  Zr  Zr17  1  0.619225  0.880775  0.500000  1
  Cu  Cu18  1  0.254890  0.245110  0.000000  1
  Cu  Cu19  1  0.245235  0.745086  0.000000  1
  Cu  Cu20  1  0.754914  0.254765  0.000000  1
  Ni  Ni21  1  0.745780  0.754220  0.000000  1
  P  P22  1  0.224710  0.054382  0.000000  1
  P  P23  1  0.054349  0.775535  0.000000  1
  P  P24  1  0.945432  0.224383  0.000000  1
  P  P25  1  0.775143  0.943924  0.000000  1
  P  P26  1  0.275617  0.554568  0.000000  1
  P  P27  1  0.724465  0.445651  0.000000  1
  P  P28  1  0.556076  0.724857  0.000000  1
  P  P29  1  0.445618  0.275290  0.000000  1
