# generated using pymatgen
data_Rb2Rh4O11
_symmetry_space_group_name_H-M   'P 1'
_cell_length_a   10.35793230
_cell_length_b   10.35793225
_cell_length_c   7.11786980
_cell_angle_alpha   86.08195250
_cell_angle_beta   86.08195595
_cell_angle_gamma   42.10151419
_symmetry_Int_Tables_number   1
_chemical_formula_structural   Rb2Rh4O11
_chemical_formula_sum   'Rb4 Rh8 O22'
_cell_volume   510.61429230
_cell_formula_units_Z   2
loop_
 _symmetry_equiv_pos_site_id
 _symmetry_equiv_pos_as_xyz
  1  'x, y, z'
loop_
 _atom_site_type_symbol
 _atom_site_label
 _atom_site_symmetry_multiplicity
 _atom_site_fract_x
 _atom_site_fract_y
 _atom_site_fract_z
 _atom_site_occupancy
  Rb  Rb0  1  0.510657  0.510657  0.747469  1
  Rb  Rb1  1  0.262609  0.262609  0.016029  1
  Rb  Rb2  1  0.489343  0.489343  0.252531  1
  Rb  Rb3  1  0.737391  0.737391  0.983971  1
  Rh  Rh4  1  0.926838  0.926838  0.098498  1
  Rh  Rh5  1  0.429237  0.916641  0.570715  1
  Rh  Rh6  1  0.083359  0.570763  0.429285  1
  Rh  Rh7  1  0.916641  0.429237  0.570715  1
  Rh  Rh8  1  0.926214  0.926214  0.612827  1
  Rh  Rh9  1  0.073162  0.073162  0.901502  1
  Rh  Rh10  1  0.073786  0.073786  0.387173  1
  Rh  Rh11  1  0.570763  0.083359  0.429285  1
  O  O12  1  0.061936  0.462414  0.656784  1
  O  O13  1  0.117099  0.117099  0.136670  1
  O  O14  1  0.462414  0.061936  0.656784  1
  O  O15  1  0.168922  0.654173  0.567126  1
  O  O16  1  0.829689  0.829689  0.534396  1
  O  O17  1  0.340571  0.340571  0.341748  1
  O  O18  1  0.331783  0.930200  0.822327  1
  O  O19  1  0.832718  0.167282  0.000000  1
  O  O20  1  0.654173  0.168922  0.567126  1
  O  O21  1  0.668217  0.069801  0.177673  1
  O  O22  1  0.170311  0.170311  0.465604  1
  O  O23  1  0.831078  0.345827  0.432874  1
  O  O24  1  0.069801  0.668217  0.177673  1
  O  O25  1  0.167282  0.832718  0.000000  1
  O  O26  1  0.537586  0.938064  0.343216  1
  O  O27  1  0.930200  0.331783  0.822327  1
  O  O28  1  0.659429  0.659429  0.658252  1
  O  O29  1  0.972559  0.972559  0.343907  1
  O  O30  1  0.938064  0.537586  0.343216  1
  O  O31  1  0.345827  0.831078  0.432874  1
  O  O32  1  0.027441  0.027441  0.656093  1
  O  O33  1  0.882901  0.882901  0.863330  1
