# generated using pymatgen
data_YEr15(Tl3Rh)2
_symmetry_space_group_name_H-M   'P 1'
_cell_length_a   10.32827500
_cell_length_b   10.34216013
_cell_length_c   7.00316400
_cell_angle_alpha   90.03843113
_cell_angle_beta   90.00008321
_cell_angle_gamma   119.95578006
_symmetry_Int_Tables_number   1
_chemical_formula_structural   YEr15(Tl3Rh)2
_chemical_formula_sum   'Y1 Er15 Tl6 Rh2'
_cell_volume   648.12264162
_cell_formula_units_Z   1
loop_
 _symmetry_equiv_pos_site_id
 _symmetry_equiv_pos_as_xyz
  1  'x, y, z'
loop_
 _atom_site_type_symbol
 _atom_site_label
 _atom_site_symmetry_multiplicity
 _atom_site_fract_x
 _atom_site_fract_y
 _atom_site_fract_z
 _atom_site_occupancy
  Y  Y0  1  0.532500  0.064995  0.794474  1
  Er  Er1  1  0.932793  0.466217  0.794473  1
  Er  Er2  1  0.533443  0.466224  0.794494  1
  Er  Er3  1  0.465993  0.931990  0.294704  1
  Er  Er4  1  0.067295  0.533859  0.295169  1
  Er  Er5  1  0.466564  0.533858  0.295164  1
  Er  Er6  1  0.824178  0.648330  0.497600  1
  Er  Er7  1  0.352533  0.176820  0.496289  1
  Er  Er8  1  0.824291  0.176815  0.496291  1
  Er  Er9  1  0.176297  0.352616  0.998178  1
  Er  Er10  1  0.647842  0.823072  0.998364  1
  Er  Er11  1  0.175227  0.823085  0.998360  1
  Er  Er12  1  0.666965  0.333929  0.173886  1
  Er  Er13  1  0.332911  0.665821  0.674367  1
  Er  Er14  1  0.000205  0.000414  0.778115  1
  Er  Er15  1  0.999905  0.999808  0.278104  1
  Tl  Tl16  1  0.836811  0.673628  0.040714  1
  Tl  Tl17  1  0.325416  0.162604  0.040615  1
  Tl  Tl18  1  0.837175  0.162598  0.040611  1
  Tl  Tl19  1  0.163012  0.326031  0.541596  1
  Tl  Tl20  1  0.674151  0.837656  0.541460  1
  Tl  Tl21  1  0.163506  0.837646  0.541459  1
  Rh  Rh22  1  0.667707  0.335402  0.564629  1
  Rh  Rh23  1  0.333286  0.666578  0.066789  1
