# generated using pymatgen
data_Ti3MnSi3Rh2
_symmetry_space_group_name_H-M   'P 1'
_cell_length_a   7.36797225
_cell_length_b   7.36797309
_cell_length_c   7.36797200
_cell_angle_alpha   127.31067363
_cell_angle_beta   123.78536858
_cell_angle_gamma   80.66422784
_symmetry_Int_Tables_number   1
_chemical_formula_structural   Ti3MnSi3Rh2
_chemical_formula_sum   'Ti6 Mn2 Si6 Rh4'
_cell_volume   254.99205979
_cell_formula_units_Z   2
loop_
 _symmetry_equiv_pos_site_id
 _symmetry_equiv_pos_as_xyz
  1  'x, y, z'
loop_
 _atom_site_type_symbol
 _atom_site_label
 _atom_site_symmetry_multiplicity
 _atom_site_fract_x
 _atom_site_fract_y
 _atom_site_fract_z
 _atom_site_occupancy
  Ti  Ti0  1  0.966221  0.738170  0.271947  1
  Ti  Ti1  1  0.033779  0.305728  0.771947  1
  Ti  Ti2  1  0.245945  0.172049  0.426105  1
  Ti  Ti3  1  0.754055  0.180162  0.926105  1
  Ti  Ti4  1  0.561028  0.352685  0.291654  1
  Ti  Ti5  1  0.438972  0.730626  0.791654  1
  Mn  Mn6  1  0.500000  0.492598  0.992598  1
  Mn  Mn7  1  0.000000  0.492598  0.492598  1
  Si  Si8  1  0.778179  0.781474  0.503295  1
  Si  Si9  1  0.221821  0.725116  0.003295  1
  Si  Si10  1  0.341222  0.078789  0.752566  1
  Si  Si11  1  0.658778  0.411344  0.737566  1
  Si  Si12  1  0.173777  0.411344  0.252566  1
  Si  Si13  1  0.826223  0.078789  0.237566  1
  Rh  Rh14  1  0.161985  0.999487  0.906966  1
  Rh  Rh15  1  0.838015  0.744981  0.837502  1
  Rh  Rh16  1  0.407479  0.744981  0.406966  1
  Rh  Rh17  1  0.592521  0.999487  0.337502  1
