# generated using pymatgen
data_YEr5Al7Pt16
_symmetry_space_group_name_H-M   'P 1'
_cell_length_a   8.95287179
_cell_length_b   8.95287242
_cell_length_c   8.95712900
_cell_angle_alpha   59.98426752
_cell_angle_beta   59.98426521
_cell_angle_gamma   60.03146537
_symmetry_Int_Tables_number   1
_chemical_formula_structural   YEr5Al7Pt16
_chemical_formula_sum   'Y1 Er5 Al7 Pt16'
_cell_volume   507.66636353
_cell_formula_units_Z   1
loop_
 _symmetry_equiv_pos_site_id
 _symmetry_equiv_pos_as_xyz
  1  'x, y, z'
loop_
 _atom_site_type_symbol
 _atom_site_label
 _atom_site_symmetry_multiplicity
 _atom_site_fract_x
 _atom_site_fract_y
 _atom_site_fract_z
 _atom_site_occupancy
  Y  Y0  1  0.712743  0.712743  0.287257  1
  Er  Er1  1  0.286475  0.713420  0.286580  1
  Er  Er2  1  0.713420  0.286475  0.286580  1
  Er  Er3  1  0.286630  0.286630  0.713370  1
  Er  Er4  1  0.713420  0.286475  0.713525  1
  Er  Er5  1  0.286475  0.713420  0.713525  1
  Al  Al6  1  0.999984  0.999984  0.000016  1
  Al  Al7  1  0.999979  0.999979  0.500021  1
  Al  Al8  1  0.499884  0.000117  0.500116  1
  Al  Al9  1  0.000117  0.499884  0.500116  1
  Al  Al10  1  0.499979  0.499979  0.000021  1
  Al  Al11  1  0.000117  0.499884  0.999883  1
  Al  Al12  1  0.499884  0.000117  0.999883  1
  Pt  Pt13  1  0.881404  0.881404  0.356789  1
  Pt  Pt14  1  0.881156  0.356658  0.881093  1
  Pt  Pt15  1  0.356658  0.881156  0.881093  1
  Pt  Pt16  1  0.881404  0.881404  0.880401  1
  Pt  Pt17  1  0.118907  0.118907  0.643342  1
  Pt  Pt18  1  0.119599  0.643211  0.118596  1
  Pt  Pt19  1  0.643211  0.119599  0.118596  1
  Pt  Pt20  1  0.118907  0.118907  0.118844  1
  Pt  Pt21  1  0.661708  0.661708  0.014052  1
  Pt  Pt22  1  0.661736  0.014670  0.661797  1
  Pt  Pt23  1  0.014670  0.661736  0.661797  1
  Pt  Pt24  1  0.661708  0.661708  0.662533  1
  Pt  Pt25  1  0.338203  0.338203  0.985330  1
  Pt  Pt26  1  0.337467  0.985948  0.338292  1
  Pt  Pt27  1  0.985948  0.337467  0.338292  1
  Pt  Pt28  1  0.338203  0.338203  0.338264  1
