# generated using pymatgen
data_DyY9(Ir2Ru)2
_symmetry_space_group_name_H-M   'P 1'
_cell_length_a   10.88082500
_cell_length_b   10.88082500
_cell_length_c   6.45183200
_cell_angle_alpha   90.00000000
_cell_angle_beta   90.00000000
_cell_angle_gamma   90.00000000
_symmetry_Int_Tables_number   1
_chemical_formula_structural   DyY9(Ir2Ru)2
_chemical_formula_sum   'Dy2 Y18 Ir8 Ru4'
_cell_volume   763.84756958
_cell_formula_units_Z   2
loop_
 _symmetry_equiv_pos_site_id
 _symmetry_equiv_pos_as_xyz
  1  'x, y, z'
loop_
 _atom_site_type_symbol
 _atom_site_label
 _atom_site_symmetry_multiplicity
 _atom_site_fract_x
 _atom_site_fract_y
 _atom_site_fract_z
 _atom_site_occupancy
  Dy  Dy0  1  0.000000  0.000000  0.500000  1
  Dy  Dy1  1  0.000000  0.000000  0.000000  1
  Y  Y2  1  0.293433  0.086481  0.378141  1
  Y  Y3  1  0.293433  0.913519  0.878141  1
  Y  Y4  1  0.706567  0.086481  0.878141  1
  Y  Y5  1  0.706567  0.913519  0.378141  1
  Y  Y6  1  0.586725  0.793646  0.878046  1
  Y  Y7  1  0.586725  0.206354  0.378046  1
  Y  Y8  1  0.413275  0.793646  0.378046  1
  Y  Y9  1  0.413275  0.206354  0.878046  1
  Y  Y10  1  0.206354  0.413275  0.621954  1
  Y  Y11  1  0.206354  0.586725  0.121954  1
  Y  Y12  1  0.793646  0.413275  0.121954  1
  Y  Y13  1  0.793646  0.586725  0.621954  1
  Y  Y14  1  0.913519  0.706567  0.121859  1
  Y  Y15  1  0.913519  0.293433  0.621859  1
  Y  Y16  1  0.086481  0.706567  0.621859  1
  Y  Y17  1  0.086481  0.293433  0.121859  1
  Y  Y18  1  0.500000  0.500000  0.000000  1
  Y  Y19  1  0.500000  0.500000  0.500000  1
  Ir  Ir20  1  0.848543  0.151457  0.250000  1
  Ir  Ir21  1  0.848543  0.848543  0.750000  1
  Ir  Ir22  1  0.151457  0.151457  0.750000  1
  Ir  Ir23  1  0.151457  0.848543  0.250000  1
  Ir  Ir24  1  0.652584  0.347416  0.750000  1
  Ir  Ir25  1  0.652584  0.652584  0.250000  1
  Ir  Ir26  1  0.347416  0.347416  0.250000  1
  Ir  Ir27  1  0.347416  0.652584  0.750000  1
  Ru  Ru28  1  0.500000  0.000000  0.124126  1
  Ru  Ru29  1  0.500000  0.000000  0.624126  1
  Ru  Ru30  1  0.000000  0.500000  0.875874  1
  Ru  Ru31  1  0.000000  0.500000  0.375874  1
