# generated using pymatgen
data_SbS23
_symmetry_space_group_name_H-M   'P 1'
_cell_length_a   5.59544714
_cell_length_b   9.59366147
_cell_length_c   16.29899500
_cell_angle_alpha   82.42591977
_cell_angle_beta   85.98404499
_cell_angle_gamma   91.36398319
_symmetry_Int_Tables_number   1
_chemical_formula_structural   SbS23
_chemical_formula_sum   'Sb1 S23'
_cell_volume   864.69732289
_cell_formula_units_Z   1
loop_
 _symmetry_equiv_pos_site_id
 _symmetry_equiv_pos_as_xyz
  1  'x, y, z'
loop_
 _atom_site_type_symbol
 _atom_site_label
 _atom_site_symmetry_multiplicity
 _atom_site_fract_x
 _atom_site_fract_y
 _atom_site_fract_z
 _atom_site_occupancy
  Sb  Sb0  1  0.701313  0.184666  0.414276  1
  S  S1  1  0.740570  0.925910  0.408666  1
  S  S2  1  0.019063  0.300433  0.098379  1
  S  S3  1  0.770437  0.206619  0.562656  1
  S  S4  1  0.463443  0.869931  0.498479  1
  S  S5  1  0.173952  0.281622  0.981844  1
  S  S6  1  0.816605  0.738311  0.025013  1
  S  S7  1  0.130570  0.200142  0.356269  1
  S  S8  1  0.545721  0.430139  0.278089  1
  S  S9  1  0.856847  0.109208  0.148116  1
  S  S10  1  0.269750  0.870842  0.116024  1
  S  S11  1  0.705332  0.645806  0.643070  1
  S  S12  1  0.314037  0.430366  0.577884  1
  S  S13  1  0.148239  0.901861  0.860052  1
  S  S14  1  0.733475  0.141086  0.886141  1
  S  S15  1  0.064931  0.690292  0.111498  1
  S  S16  1  0.598391  0.849510  0.613885  1
  S  S17  1  0.412872  0.224696  0.600434  1
  S  S18  1  0.969481  0.715107  0.908759  1
  S  S19  1  0.925425  0.324685  0.894769  1
  S  S20  1  0.222577  0.416331  0.333099  1
  S  S21  1  0.110979  0.983032  0.203517  1
  S  S22  1  0.395826  0.526110  0.679353  1
  S  S23  1  0.910164  0.033292  0.799729  1
