# generated using pymatgen
data_Ho12ZnInCo4
_symmetry_space_group_name_H-M   'P 1'
_cell_length_a   8.28486993
_cell_length_b   8.28486959
_cell_length_c   8.28487066
_cell_angle_alpha   111.52339782
_cell_angle_beta   110.23209751
_cell_angle_gamma   106.69607855
_symmetry_Int_Tables_number   1
_chemical_formula_structural   Ho12ZnInCo4
_chemical_formula_sum   'Ho12 Zn1 In1 Co4'
_cell_volume   436.93514261
_cell_formula_units_Z   1
loop_
 _symmetry_equiv_pos_site_id
 _symmetry_equiv_pos_as_xyz
  1  'x, y, z'
loop_
 _atom_site_type_symbol
 _atom_site_label
 _atom_site_symmetry_multiplicity
 _atom_site_fract_x
 _atom_site_fract_y
 _atom_site_fract_z
 _atom_site_occupancy
  Ho  Ho0  1  0.315056  0.618413  0.303357  1
  Ho  Ho1  1  0.684944  0.381587  0.696643  1
  Ho  Ho2  1  0.315056  0.011698  0.696643  1
  Ho  Ho3  1  0.684944  0.988302  0.303357  1
  Ho  Ho4  1  0.184880  0.285843  0.470722  1
  Ho  Ho5  1  0.815120  0.714157  0.529278  1
  Ho  Ho6  1  0.184880  0.714157  0.899037  1
  Ho  Ho7  1  0.815120  0.285843  0.100963  1
  Ho  Ho8  1  0.429520  0.225461  0.204059  1
  Ho  Ho9  1  0.570480  0.774539  0.795941  1
  Ho  Ho10  1  0.021403  0.225461  0.795941  1
  Ho  Ho11  1  0.978597  0.774539  0.204059  1
  Zn  Zn12  1  0.000000  0.000000  0.000000  1
  In  In13  1  0.500000  0.500000  0.000000  1
  Co  Co14  1  0.112930  0.612930  0.500000  1
  Co  Co15  1  0.887070  0.387070  0.500000  1
  Co  Co16  1  0.376008  0.000000  0.376008  1
  Co  Co17  1  0.623992  0.000000  0.623992  1
