# generated using pymatgen
data_Yb3(CuRh2)2
_symmetry_space_group_name_H-M   'P 1'
_cell_length_a   5.18223003
_cell_length_b   5.13361355
_cell_length_c   13.00023626
_cell_angle_alpha   90.98196651
_cell_angle_beta   88.01872911
_cell_angle_gamma   118.42090121
_symmetry_Int_Tables_number   1
_chemical_formula_structural   Yb3(CuRh2)2
_chemical_formula_sum   'Yb6 Cu4 Rh8'
_cell_volume   303.98683023
_cell_formula_units_Z   2
loop_
 _symmetry_equiv_pos_site_id
 _symmetry_equiv_pos_as_xyz
  1  'x, y, z'
loop_
 _atom_site_type_symbol
 _atom_site_label
 _atom_site_symmetry_multiplicity
 _atom_site_fract_x
 _atom_site_fract_y
 _atom_site_fract_z
 _atom_site_occupancy
  Yb  Yb0  1  0.327851  0.662121  0.915578  1
  Yb  Yb1  1  0.001099  0.001139  0.251754  1
  Yb  Yb2  1  0.668302  0.335899  0.583760  1
  Yb  Yb3  1  0.331698  0.664101  0.666240  1
  Yb  Yb4  1  0.998901  0.998861  0.998246  1
  Yb  Yb5  1  0.672149  0.337879  0.334422  1
  Cu  Cu6  1  0.500000  0.500000  0.125000  1
  Cu  Cu7  1  0.171677  0.837158  0.458499  1
  Cu  Cu8  1  0.828323  0.162842  0.791501  1
  Cu  Cu9  1  0.500000  0.000000  0.125000  1
  Rh  Rh10  1  0.170895  0.337393  0.455826  1
  Rh  Rh11  1  0.829105  0.662607  0.794174  1
  Rh  Rh12  1  0.341005  0.674779  0.288916  1
  Rh  Rh13  1  0.000000  0.000000  0.625000  1
  Rh  Rh14  1  0.658995  0.325221  0.961084  1
  Rh  Rh15  1  0.000000  0.500000  0.125000  1
  Rh  Rh16  1  0.670564  0.837409  0.458390  1
  Rh  Rh17  1  0.329436  0.162591  0.791610  1
