# generated using pymatgen
data_Hf6Al16Ir5RhAu
_symmetry_space_group_name_H-M   'P 1'
_cell_length_a   8.72605682
_cell_length_b   8.72605639
_cell_length_c   8.72897500
_cell_angle_alpha   59.98893138
_cell_angle_beta   59.98893304
_cell_angle_gamma   60.17670686
_symmetry_Int_Tables_number   1
_chemical_formula_structural   Hf6Al16Ir5RhAu
_chemical_formula_sum   'Hf6 Al16 Ir5 Rh1 Au1'
_cell_volume   470.53080865
_cell_formula_units_Z   1
loop_
 _symmetry_equiv_pos_site_id
 _symmetry_equiv_pos_as_xyz
  1  'x, y, z'
loop_
 _atom_site_type_symbol
 _atom_site_label
 _atom_site_symmetry_multiplicity
 _atom_site_fract_x
 _atom_site_fract_y
 _atom_site_fract_z
 _atom_site_occupancy
  Hf  Hf0  1  0.688887  0.311113  0.312115  1
  Hf  Hf1  1  0.311113  0.688887  0.687885  1
  Hf  Hf2  1  0.311113  0.688887  0.312115  1
  Hf  Hf3  1  0.688887  0.311113  0.687885  1
  Hf  Hf4  1  0.326204  0.326204  0.673796  1
  Hf  Hf5  1  0.673796  0.673796  0.326204  1
  Al  Al6  1  0.335081  0.335081  0.343158  1
  Al  Al7  1  0.664919  0.664919  0.656842  1
  Al  Al8  1  0.335081  0.335081  0.986682  1
  Al  Al9  1  0.336233  0.985771  0.338997  1
  Al  Al10  1  0.664919  0.664919  0.013318  1
  Al  Al11  1  0.663767  0.014229  0.661003  1
  Al  Al12  1  0.985771  0.336233  0.338997  1
  Al  Al13  1  0.014229  0.663767  0.661003  1
  Al  Al14  1  0.119069  0.119069  0.121257  1
  Al  Al15  1  0.880931  0.880931  0.878743  1
  Al  Al16  1  0.119069  0.119069  0.640605  1
  Al  Al17  1  0.103112  0.644656  0.126116  1
  Al  Al18  1  0.880931  0.880931  0.359395  1
  Al  Al19  1  0.896888  0.355344  0.873884  1
  Al  Al20  1  0.644656  0.103112  0.126116  1
  Al  Al21  1  0.355344  0.896888  0.873884  1
  Ir  Ir22  1  0.500000  0.000000  0.000000  1
  Ir  Ir23  1  0.000000  0.500000  0.500000  1
  Ir  Ir24  1  0.000000  0.500000  0.000000  1
  Ir  Ir25  1  0.500000  0.000000  0.500000  1
  Ir  Ir26  1  0.000000  0.000000  0.500000  1
  Rh  Rh27  1  0.000000  0.000000  0.000000  1
  Au  Au28  1  0.500000  0.500000  0.000000  1
