# generated using pymatgen
data_Nb4Cr2CoNiP4
_symmetry_space_group_name_H-M   'P 1'
_cell_length_a   3.56921300
_cell_length_b   6.21746698
_cell_length_c   7.22484278
_cell_angle_alpha   89.65169949
_cell_angle_beta   90.00000000
_cell_angle_gamma   90.00000000
_symmetry_Int_Tables_number   1
_chemical_formula_structural   Nb4Cr2CoNiP4
_chemical_formula_sum   'Nb4 Cr2 Co1 Ni1 P4'
_cell_volume   160.32687582
_cell_formula_units_Z   1
loop_
 _symmetry_equiv_pos_site_id
 _symmetry_equiv_pos_as_xyz
  1  'x, y, z'
loop_
 _atom_site_type_symbol
 _atom_site_label
 _atom_site_symmetry_multiplicity
 _atom_site_fract_x
 _atom_site_fract_y
 _atom_site_fract_z
 _atom_site_occupancy
  Nb  Nb0  1  0.250000  0.532038  0.668348  1
  Nb  Nb1  1  0.250000  0.021621  0.827509  1
  Nb  Nb2  1  0.750000  0.978946  0.173003  1
  Nb  Nb3  1  0.750000  0.464865  0.330663  1
  Cr  Cr4  1  0.250000  0.143548  0.437775  1
  Cr  Cr5  1  0.750000  0.859215  0.561069  1
  Co  Co6  1  0.750000  0.359884  0.940055  1
  Ni  Ni7  1  0.250000  0.642445  0.062326  1
  P  P8  1  0.250000  0.770245  0.369812  1
  P  P9  1  0.250000  0.273617  0.119223  1
  P  P10  1  0.750000  0.230052  0.634437  1
  P  P11  1  0.750000  0.723523  0.875779  1
