# generated using pymatgen
data_Dy2Y2Os5Ru3
_symmetry_space_group_name_H-M   'P 1'
_cell_length_a   5.33974755
_cell_length_b   5.19195111
_cell_length_c   9.00940901
_cell_angle_alpha   90.00538126
_cell_angle_beta   89.99960680
_cell_angle_gamma   119.50719015
_symmetry_Int_Tables_number   1
_chemical_formula_structural   Dy2Y2Os5Ru3
_chemical_formula_sum   'Dy2 Y2 Os5 Ru3'
_cell_volume   217.37698337
_cell_formula_units_Z   1
loop_
 _symmetry_equiv_pos_site_id
 _symmetry_equiv_pos_as_xyz
  1  'x, y, z'
loop_
 _atom_site_type_symbol
 _atom_site_label
 _atom_site_symmetry_multiplicity
 _atom_site_fract_x
 _atom_site_fract_y
 _atom_site_fract_z
 _atom_site_occupancy
  Dy  Dy0  1  0.330964  0.664911  0.066526  1
  Dy  Dy1  1  0.668452  0.334966  0.933930  1
  Y  Y2  1  0.668438  0.334954  0.566366  1
  Y  Y3  1  0.330895  0.664878  0.433216  1
  Os  Os4  1  0.169511  0.337301  0.750252  1
  Os  Os5  1  0.172720  0.830677  0.750310  1
  Os  Os6  1  0.656571  0.828501  0.750312  1
  Os  Os7  1  0.835826  0.664487  0.249728  1
  Os  Os8  1  0.832901  0.171737  0.249690  1
  Ru  Ru9  1  0.992913  0.996847  0.499536  1
  Ru  Ru10  1  0.992872  0.996831  0.000455  1
  Ru  Ru11  1  0.347934  0.173908  0.249679  1
