# generated using pymatgen
data_Cr21GaOsC6
_symmetry_space_group_name_H-M   'P 1'
_cell_length_a   7.47459715
_cell_length_b   7.47504132
_cell_length_c   7.47489700
_cell_angle_alpha   60.00265215
_cell_angle_beta   60.00162486
_cell_angle_gamma   60.00097512
_symmetry_Int_Tables_number   1
_chemical_formula_structural   Cr21GaOsC6
_chemical_formula_sum   'Cr21 Ga1 Os1 C6'
_cell_volume   295.33086744
_cell_formula_units_Z   1
loop_
 _symmetry_equiv_pos_site_id
 _symmetry_equiv_pos_as_xyz
  1  'x, y, z'
loop_
 _atom_site_type_symbol
 _atom_site_label
 _atom_site_symmetry_multiplicity
 _atom_site_fract_x
 _atom_site_fract_y
 _atom_site_fract_z
 _atom_site_occupancy
  Cr  Cr0  1  0.249927  0.249951  0.249874  1
  Cr  Cr1  1  0.614849  0.614880  0.155280  1
  Cr  Cr2  1  0.614868  0.155275  0.614919  1
  Cr  Cr3  1  0.155266  0.614862  0.614868  1
  Cr  Cr4  1  0.614936  0.614875  0.614964  1
  Cr  Cr5  1  0.379395  0.379462  0.861868  1
  Cr  Cr6  1  0.379391  0.861904  0.379371  1
  Cr  Cr7  1  0.861908  0.379466  0.379361  1
  Cr  Cr8  1  0.379308  0.379461  0.379306  1
  Cr  Cr9  1  0.000457  0.000381  0.341475  1
  Cr  Cr10  1  0.657748  0.000164  0.341797  1
  Cr  Cr11  1  0.000271  0.657774  0.341630  1
  Cr  Cr12  1  0.657603  0.341814  0.000221  1
  Cr  Cr13  1  0.000498  0.341499  0.000493  1
  Cr  Cr14  1  0.000248  0.341754  0.657654  1
  Cr  Cr15  1  0.341614  0.657825  0.000239  1
  Cr  Cr16  1  0.341739  0.000163  0.657827  1
  Cr  Cr17  1  0.341466  0.000368  0.000441  1
  Cr  Cr18  1  0.000352  0.000316  0.657549  1
  Cr  Cr19  1  0.000411  0.657592  0.000401  1
  Cr  Cr20  1  0.657536  0.000313  0.000332  1
  Ga  Ga21  1  0.000142  0.999936  0.000079  1
  Os  Os22  1  0.749957  0.749958  0.749965  1
  C  C23  1  0.721386  0.721225  0.278830  1
  C  C24  1  0.278604  0.721362  0.278611  1
  C  C25  1  0.721394  0.278637  0.278661  1
  C  C26  1  0.278651  0.278625  0.721380  1
  C  C27  1  0.721260  0.278895  0.721222  1
  C  C28  1  0.278814  0.721265  0.721383  1
