# generated using pymatgen
data_Ho17Er3(IrPt2)4
_symmetry_space_group_name_H-M   'P 1'
_cell_length_a   11.01829300
_cell_length_b   11.01829300
_cell_length_c   6.30646100
_cell_angle_alpha   90.00000000
_cell_angle_beta   90.00000000
_cell_angle_gamma   90.00000000
_symmetry_Int_Tables_number   1
_chemical_formula_structural   Ho17Er3(IrPt2)4
_chemical_formula_sum   'Ho17 Er3 Ir4 Pt8'
_cell_volume   765.62190136
_cell_formula_units_Z   1
loop_
 _symmetry_equiv_pos_site_id
 _symmetry_equiv_pos_as_xyz
  1  'x, y, z'
loop_
 _atom_site_type_symbol
 _atom_site_label
 _atom_site_symmetry_multiplicity
 _atom_site_fract_x
 _atom_site_fract_y
 _atom_site_fract_z
 _atom_site_occupancy
  Ho  Ho0  1  0.294393  0.087419  0.374652  1
  Ho  Ho1  1  0.294402  0.912586  0.874618  1
  Ho  Ho2  1  0.705598  0.087414  0.874618  1
  Ho  Ho3  1  0.705607  0.912581  0.374652  1
  Ho  Ho4  1  0.587431  0.794462  0.874640  1
  Ho  Ho5  1  0.587442  0.205494  0.374588  1
  Ho  Ho6  1  0.412558  0.794506  0.374588  1
  Ho  Ho7  1  0.412569  0.205538  0.874640  1
  Ho  Ho8  1  0.205494  0.412558  0.625412  1
  Ho  Ho9  1  0.205538  0.587431  0.125360  1
  Ho  Ho10  1  0.794462  0.412569  0.125360  1
  Ho  Ho11  1  0.794506  0.587442  0.625412  1
  Ho  Ho12  1  0.912586  0.705598  0.125382  1
  Ho  Ho13  1  0.912581  0.294393  0.625348  1
  Ho  Ho14  1  0.087419  0.705607  0.625348  1
  Ho  Ho15  1  0.087414  0.294402  0.125382  1
  Ho  Ho16  1  0.500000  0.500000  0.500000  1
  Er  Er17  1  0.000000  0.000000  0.500000  1
  Er  Er18  1  0.000000  0.000000  0.000000  1
  Er  Er19  1  0.500000  0.500000  0.000000  1
  Ir  Ir20  1  0.500000  0.000000  0.120537  1
  Ir  Ir21  1  0.500000  0.000000  0.620578  1
  Ir  Ir22  1  0.000000  0.500000  0.879463  1
  Ir  Ir23  1  0.000000  0.500000  0.379422  1
  Pt  Pt24  1  0.846536  0.153461  0.249970  1
  Pt  Pt25  1  0.846539  0.846536  0.750030  1
  Pt  Pt26  1  0.153461  0.153464  0.750030  1
  Pt  Pt27  1  0.153464  0.846539  0.249970  1
  Pt  Pt28  1  0.653598  0.346431  0.750229  1
  Pt  Pt29  1  0.653569  0.653598  0.249771  1
  Pt  Pt30  1  0.346431  0.346402  0.249771  1
  Pt  Pt31  1  0.346402  0.653569  0.750229  1
