# generated using pymatgen
data_Lu4Co13Si5(PRu)7
_symmetry_space_group_name_H-M   'P 1'
_cell_length_a   3.71960900
_cell_length_b   10.54781429
_cell_length_c   11.88140735
_cell_angle_alpha   89.98613062
_cell_angle_beta   90.00000000
_cell_angle_gamma   90.00000000
_symmetry_Int_Tables_number   1
_chemical_formula_structural   Lu4Co13Si5(PRu)7
_chemical_formula_sum   'Lu4 Co13 Si5 P7 Ru7'
_cell_volume   466.15209189
_cell_formula_units_Z   1
loop_
 _symmetry_equiv_pos_site_id
 _symmetry_equiv_pos_as_xyz
  1  'x, y, z'
loop_
 _atom_site_type_symbol
 _atom_site_label
 _atom_site_symmetry_multiplicity
 _atom_site_fract_x
 _atom_site_fract_y
 _atom_site_fract_z
 _atom_site_occupancy
  Lu  Lu0  1  0.250000  0.584259  0.707094  1
  Lu  Lu1  1  0.250000  0.916350  0.203476  1
  Lu  Lu2  1  0.750000  0.414765  0.292277  1
  Lu  Lu3  1  0.750000  0.084744  0.792604  1
  Co  Co4  1  0.750000  0.907369  0.010709  1
  Co  Co5  1  0.250000  0.225408  0.178480  1
  Co  Co6  1  0.250000  0.272738  0.679395  1
  Co  Co7  1  0.750000  0.786018  0.825708  1
  Co  Co8  1  0.750000  0.719777  0.319994  1
  Co  Co9  1  0.250000  0.888239  0.701167  1
  Co  Co10  1  0.250000  0.613204  0.200316  1
  Co  Co11  1  0.750000  0.117056  0.297768  1
  Co  Co12  1  0.750000  0.379458  0.804958  1
  Co  Co13  1  0.250000  0.461709  0.934874  1
  Co  Co14  1  0.250000  0.038317  0.432570  1
  Co  Co15  1  0.750000  0.530927  0.070341  1
  Co  Co16  1  0.750000  0.969070  0.569673  1
  Si  Si17  1  0.750000  0.581871  0.887410  1
  Si  Si18  1  0.750000  0.918911  0.385930  1
  Si  Si19  1  0.750000  0.731186  0.129851  1
  Si  Si20  1  0.750000  0.771979  0.633909  1
  Si  Si21  1  0.750000  0.398125  0.614594  1
  P  P22  1  0.250000  0.422887  0.115424  1
  P  P23  1  0.250000  0.077912  0.614121  1
  P  P24  1  0.250000  0.271415  0.865708  1
  P  P25  1  0.250000  0.227322  0.364120  1
  P  P26  1  0.250000  0.602034  0.386054  1
  P  P27  1  0.250000  0.900084  0.887441  1
  P  P28  1  0.750000  0.096135  0.112779  1
  Ru  Ru29  1  0.250000  0.710130  0.986718  1
  Ru  Ru30  1  0.250000  0.797975  0.483535  1
  Ru  Ru31  1  0.750000  0.290290  0.017280  1
  Ru  Ru32  1  0.750000  0.202760  0.513558  1
  Ru  Ru33  1  0.250000  0.401803  0.482974  1
  Ru  Ru34  1  0.250000  0.092496  0.987973  1
  Ru  Ru35  1  0.750000  0.595276  0.509218  1
