# generated using pymatgen
data_HgRh2PbO7
_symmetry_space_group_name_H-M   'P 1'
_cell_length_a   7.28489293
_cell_length_b   7.20377465
_cell_length_c   7.28489311
_cell_angle_alpha   60.36765289
_cell_angle_beta   61.03296968
_cell_angle_gamma   60.36765470
_symmetry_Int_Tables_number   1
_chemical_formula_structural   HgRh2PbO7
_chemical_formula_sum   'Hg2 Rh4 Pb2 O14'
_cell_volume   273.90290114
_cell_formula_units_Z   2
loop_
 _symmetry_equiv_pos_site_id
 _symmetry_equiv_pos_as_xyz
  1  'x, y, z'
loop_
 _atom_site_type_symbol
 _atom_site_label
 _atom_site_symmetry_multiplicity
 _atom_site_fract_x
 _atom_site_fract_y
 _atom_site_fract_z
 _atom_site_occupancy
  Hg  Hg0  1  0.125000  0.125000  0.125000  1
  Hg  Hg1  1  0.125000  0.625000  0.125000  1
  Rh  Rh2  1  0.625000  0.625000  0.125000  1
  Rh  Rh3  1  0.625000  0.625000  0.625000  1
  Rh  Rh4  1  0.625000  0.125000  0.625000  1
  Rh  Rh5  1  0.125000  0.625000  0.625000  1
  Pb  Pb6  1  0.625000  0.125000  0.125000  1
  Pb  Pb7  1  0.125000  0.125000  0.625000  1
  O  O8  1  0.690869  0.295951  0.300756  1
  O  O9  1  0.708450  0.291550  0.708450  1
  O  O10  1  0.012369  0.987631  0.012369  1
  O  O11  1  0.304534  0.695466  0.304534  1
  O  O12  1  0.690869  0.712423  0.300756  1
  O  O13  1  0.949244  0.537577  0.559131  1
  O  O14  1  0.300756  0.712423  0.690869  1
  O  O15  1  0.237631  0.262369  0.237631  1
  O  O16  1  0.945466  0.554534  0.945466  1
  O  O17  1  0.541550  0.958450  0.541550  1
  O  O18  1  0.559131  0.537577  0.949244  1
  O  O19  1  0.949244  0.954049  0.559131  1
  O  O20  1  0.559131  0.954049  0.949244  1
  O  O21  1  0.300756  0.295951  0.690869  1
