# generated using pymatgen
data_Th5Sc11(CoAg)4
_symmetry_space_group_name_H-M   'P 1'
_cell_length_a   9.09349210
_cell_length_b   9.18511029
_cell_length_c   9.18521100
_cell_angle_alpha   59.76718157
_cell_angle_beta   60.31870169
_cell_angle_gamma   60.31792722
_symmetry_Int_Tables_number   1
_chemical_formula_structural   Th5Sc11(CoAg)4
_chemical_formula_sum   'Th5 Sc11 Co4 Ag4'
_cell_volume   544.10768551
_cell_formula_units_Z   1
loop_
 _symmetry_equiv_pos_site_id
 _symmetry_equiv_pos_as_xyz
  1  'x, y, z'
loop_
 _atom_site_type_symbol
 _atom_site_label
 _atom_site_symmetry_multiplicity
 _atom_site_fract_x
 _atom_site_fract_y
 _atom_site_fract_z
 _atom_site_occupancy
  Th  Th0  1  0.341944  0.354310  0.354230  1
  Th  Th1  1  0.350810  0.350507  0.947814  1
  Th  Th2  1  0.350847  0.947749  0.350496  1
  Th  Th3  1  0.949350  0.354281  0.354216  1
  Th  Th4  1  0.819825  0.180119  0.180172  1
  Sc  Sc5  1  0.182238  0.817745  0.817887  1
  Sc  Sc6  1  0.192335  0.810554  0.180625  1
  Sc  Sc7  1  0.816412  0.180606  0.810544  1
  Sc  Sc8  1  0.192356  0.180667  0.810568  1
  Sc  Sc9  1  0.816500  0.810523  0.180550  1
  Sc  Sc10  1  0.928118  0.571986  0.571913  1
  Sc  Sc11  1  0.571256  0.928711  0.928732  1
  Sc  Sc12  1  0.565288  0.929313  0.571637  1
  Sc  Sc13  1  0.933904  0.571557  0.929359  1
  Sc  Sc14  1  0.565226  0.571614  0.929388  1
  Sc  Sc15  1  0.933904  0.929327  0.571562  1
  Co  Co16  1  0.133066  0.143458  0.143455  1
  Co  Co17  1  0.140665  0.140460  0.578300  1
  Co  Co18  1  0.140633  0.578389  0.140441  1
  Co  Co19  1  0.580001  0.143385  0.143388  1
  Ag  Ag20  1  0.584357  0.586919  0.586921  1
  Ag  Ag21  1  0.584560  0.590784  0.240124  1
  Ag  Ag22  1  0.584558  0.240134  0.590771  1
  Ag  Ag23  1  0.241850  0.586900  0.586908  1
