# generated using pymatgen
data_DyTlSiS4
_symmetry_space_group_name_H-M   'P 1'
_cell_length_a   6.65049800
_cell_length_b   6.42430034
_cell_length_c   8.72751400
_cell_angle_alpha   72.21260242
_cell_angle_beta   90.00000000
_cell_angle_gamma   90.00000000
_symmetry_Int_Tables_number   1
_chemical_formula_structural   DyTlSiS4
_chemical_formula_sum   'Dy2 Tl2 Si2 S8'
_cell_volume   355.05627153
_cell_formula_units_Z   2
loop_
 _symmetry_equiv_pos_site_id
 _symmetry_equiv_pos_as_xyz
  1  'x, y, z'
loop_
 _atom_site_type_symbol
 _atom_site_label
 _atom_site_symmetry_multiplicity
 _atom_site_fract_x
 _atom_site_fract_y
 _atom_site_fract_z
 _atom_site_occupancy
  Dy  Dy0  1  0.499130  0.230102  0.450739  1
  Dy  Dy1  1  0.999130  0.769898  0.549261  1
  Tl  Tl2  1  0.978190  0.729967  0.065541  1
  Tl  Tl3  1  0.478190  0.270033  0.934459  1
  Si  Si4  1  0.462663  0.780889  0.326449  1
  Si  Si5  1  0.962663  0.219111  0.673551  1
  S  S6  1  0.463769  0.583741  0.172055  1
  S  S7  1  0.230574  0.022480  0.280848  1
  S  S8  1  0.727812  0.977564  0.300678  1
  S  S9  1  0.904861  0.421837  0.433192  1
  S  S10  1  0.404861  0.578163  0.566808  1
  S  S11  1  0.227812  0.022436  0.699322  1
  S  S12  1  0.730574  0.977520  0.719152  1
  S  S13  1  0.963769  0.416259  0.827945  1
