# generated using pymatgen
data_Zr18CrFeRe7Ni
_symmetry_space_group_name_H-M   'P 1'
_cell_length_a   8.51284601
_cell_length_b   8.67172288
_cell_length_c   8.67144029
_cell_angle_alpha   119.96796074
_cell_angle_beta   89.99853763
_cell_angle_gamma   89.99753678
_symmetry_Int_Tables_number   1
_chemical_formula_structural   Zr18CrFeRe7Ni
_chemical_formula_sum   'Zr18 Cr1 Fe1 Re7 Ni1'
_cell_volume   554.55184900
_cell_formula_units_Z   1
loop_
 _symmetry_equiv_pos_site_id
 _symmetry_equiv_pos_as_xyz
  1  'x, y, z'
loop_
 _atom_site_type_symbol
 _atom_site_label
 _atom_site_symmetry_multiplicity
 _atom_site_fract_x
 _atom_site_fract_y
 _atom_site_fract_z
 _atom_site_occupancy
  Zr  Zr0  1  0.556749  0.803944  0.607867  1
  Zr  Zr1  1  0.556973  0.803816  0.196141  1
  Zr  Zr2  1  0.556790  0.392136  0.196035  1
  Zr  Zr3  1  0.442330  0.199227  0.398485  1
  Zr  Zr4  1  0.442295  0.199327  0.800646  1
  Zr  Zr5  1  0.442401  0.601563  0.800783  1
  Zr  Zr6  1  0.059084  0.200182  0.400414  1
  Zr  Zr7  1  0.059086  0.200251  0.799717  1
  Zr  Zr8  1  0.058996  0.599607  0.799809  1
  Zr  Zr9  1  0.942123  0.803110  0.606223  1
  Zr  Zr10  1  0.941870  0.802942  0.197002  1
  Zr  Zr11  1  0.942095  0.393730  0.196841  1
  Zr  Zr12  1  0.750005  0.457544  0.915200  1
  Zr  Zr13  1  0.749988  0.457548  0.542349  1
  Zr  Zr14  1  0.749999  0.084738  0.542374  1
  Zr  Zr15  1  0.250252  0.541732  0.083347  1
  Zr  Zr16  1  0.250259  0.541699  0.458247  1
  Zr  Zr17  1  0.250251  0.916567  0.458200  1
  Cr  Cr18  1  0.498893  0.000433  0.000011  1
  Fe  Fe19  1  0.250082  0.333868  0.666824  1
  Re  Re20  1  0.745713  0.107397  0.214860  1
  Re  Re21  1  0.745702  0.107416  0.892472  1
  Re  Re22  1  0.745672  0.785064  0.892520  1
  Re  Re23  1  0.254016  0.892791  0.785629  1
  Re  Re24  1  0.254040  0.892844  0.106999  1
  Re  Re25  1  0.253960  0.214248  0.107078  1
  Re  Re26  1  0.000138  0.999981  0.999914  1
  Ni  Ni27  1  0.750237  0.666295  0.334013  1
