# generated using pymatgen
data_KNdNp2(SbAu)4
_symmetry_space_group_name_H-M   'P 1'
_cell_length_a   4.69150800
_cell_length_b   4.69150790
_cell_length_c   17.33388200
_cell_angle_alpha   90.00000000
_cell_angle_beta   90.00000000
_cell_angle_gamma   120.00000067
_symmetry_Int_Tables_number   1
_chemical_formula_structural   KNdNp2(SbAu)4
_chemical_formula_sum   'K1 Nd1 Np2 Sb4 Au4'
_cell_volume   330.40862693
_cell_formula_units_Z   1
loop_
 _symmetry_equiv_pos_site_id
 _symmetry_equiv_pos_as_xyz
  1  'x, y, z'
loop_
 _atom_site_type_symbol
 _atom_site_label
 _atom_site_symmetry_multiplicity
 _atom_site_fract_x
 _atom_site_fract_y
 _atom_site_fract_z
 _atom_site_occupancy
  K  K0  1  0.000000  0.000000  0.250000  1
  Nd  Nd1  1  0.000000  0.000000  0.750000  1
  Np  Np2  1  0.000000  0.000000  0.511760  1
  Np  Np3  1  0.000000  0.000000  0.988240  1
  Sb  Sb4  1  0.333333  0.666667  0.393392  1
  Sb  Sb5  1  0.666667  0.333333  0.615589  1
  Sb  Sb6  1  0.666667  0.333333  0.884411  1
  Sb  Sb7  1  0.333333  0.666667  0.106608  1
  Au  Au8  1  0.666667  0.333333  0.419322  1
  Au  Au9  1  0.333333  0.666667  0.663793  1
  Au  Au10  1  0.333333  0.666667  0.836207  1
  Au  Au11  1  0.666667  0.333333  0.080678  1
