# generated using pymatgen
data_CaTb5Yb2(Si3Pd)4
_symmetry_space_group_name_H-M   'P 1'
_cell_length_a   8.22935000
_cell_length_b   8.24167264
_cell_length_c   8.09382500
_cell_angle_alpha   90.00000000
_cell_angle_beta   90.00000000
_cell_angle_gamma   119.95056074
_symmetry_Int_Tables_number   1
_chemical_formula_structural   CaTb5Yb2(Si3Pd)4
_chemical_formula_sum   'Ca1 Tb5 Yb2 Si12 Pd4'
_cell_volume   475.64340384
_cell_formula_units_Z   1
loop_
 _symmetry_equiv_pos_site_id
 _symmetry_equiv_pos_as_xyz
  1  'x, y, z'
loop_
 _atom_site_type_symbol
 _atom_site_label
 _atom_site_symmetry_multiplicity
 _atom_site_fract_x
 _atom_site_fract_y
 _atom_site_fract_z
 _atom_site_occupancy
  Ca  Ca0  1  0.507875  0.015747  0.250000  1
  Tb  Tb1  1  0.494374  0.988750  0.750000  1
  Tb  Tb2  1  0.011673  0.505996  0.750000  1
  Tb  Tb3  1  0.494322  0.505996  0.750000  1
  Tb  Tb4  1  0.999761  0.999523  0.250000  1
  Tb  Tb5  1  0.999861  0.999723  0.750000  1
  Yb  Yb6  1  0.986105  0.493051  0.250000  1
  Yb  Yb7  1  0.506947  0.493051  0.250000  1
  Si  Si8  1  0.164337  0.328674  0.996179  1
  Si  Si9  1  0.835717  0.671434  0.996498  1
  Si  Si10  1  0.669930  0.835183  0.994375  1
  Si  Si11  1  0.835717  0.671434  0.503502  1
  Si  Si12  1  0.329814  0.164534  0.995303  1
  Si  Si13  1  0.164337  0.328674  0.503821  1
  Si  Si14  1  0.165254  0.835183  0.994375  1
  Si  Si15  1  0.329814  0.164534  0.504697  1
  Si  Si16  1  0.834720  0.164534  0.995303  1
  Si  Si17  1  0.669930  0.835183  0.505625  1
  Si  Si18  1  0.834720  0.164534  0.504697  1
  Si  Si19  1  0.165254  0.835183  0.505625  1
  Pd  Pd20  1  0.332317  0.664634  0.019055  1
  Pd  Pd21  1  0.667452  0.334904  0.973928  1
  Pd  Pd22  1  0.667452  0.334904  0.526072  1
  Pd  Pd23  1  0.332317  0.664634  0.480945  1
