# generated using pymatgen
data_KBa3GeSb7Au8
_symmetry_space_group_name_H-M   'P 1'
_cell_length_a   4.84251600
_cell_length_b   8.97508938
_cell_length_c   12.44606567
_cell_angle_alpha   89.88665814
_cell_angle_beta   90.00000000
_cell_angle_gamma   90.00000000
_symmetry_Int_Tables_number   1
_chemical_formula_structural   KBa3GeSb7Au8
_chemical_formula_sum   'K1 Ba3 Ge1 Sb7 Au8'
_cell_volume   540.93002112
_cell_formula_units_Z   1
loop_
 _symmetry_equiv_pos_site_id
 _symmetry_equiv_pos_as_xyz
  1  'x, y, z'
loop_
 _atom_site_type_symbol
 _atom_site_label
 _atom_site_symmetry_multiplicity
 _atom_site_fract_x
 _atom_site_fract_y
 _atom_site_fract_z
 _atom_site_occupancy
  K  K0  1  0.750000  0.744572  0.333690  1
  Ba  Ba1  1  0.250000  0.756142  0.841423  1
  Ba  Ba2  1  0.250000  0.254672  0.664075  1
  Ba  Ba3  1  0.750000  0.242552  0.159262  1
  Ge  Ge4  1  0.250000  0.388773  0.950521  1
  Sb  Sb5  1  0.250000  0.406919  0.343180  1
  Sb  Sb6  1  0.250000  0.904519  0.156219  1
  Sb  Sb7  1  0.750000  0.597643  0.038293  1
  Sb  Sb8  1  0.750000  0.598363  0.656973  1
  Sb  Sb9  1  0.750000  0.100399  0.849087  1
  Sb  Sb10  1  0.250000  0.892940  0.541680  1
  Sb  Sb11  1  0.750000  0.108465  0.458978  1
  Au  Au12  1  0.250000  0.102623  0.975420  1
  Au  Au13  1  0.750000  0.423353  0.846561  1
  Au  Au14  1  0.750000  0.925438  0.662668  1
  Au  Au15  1  0.250000  0.562258  0.147440  1
  Au  Au16  1  0.250000  0.082358  0.339913  1
  Au  Au17  1  0.750000  0.906463  0.035195  1
  Au  Au18  1  0.250000  0.583800  0.535358  1
  Au  Au19  1  0.750000  0.417748  0.464062  1
