# generated using pymatgen
data_TbDy23Ru14
_symmetry_space_group_name_H-M   'P 1'
_cell_length_a   11.34212509
_cell_length_b   8.38054203
_cell_length_c   11.23902213
_cell_angle_alpha   56.52463892
_cell_angle_beta   90.01227514
_cell_angle_gamma   89.99994418
_symmetry_Int_Tables_number   1
_chemical_formula_structural   TbDy23Ru14
_chemical_formula_sum   'Tb1 Dy23 Ru14'
_cell_volume   891.09744719
_cell_formula_units_Z   1
loop_
 _symmetry_equiv_pos_site_id
 _symmetry_equiv_pos_as_xyz
  1  'x, y, z'
loop_
 _atom_site_type_symbol
 _atom_site_label
 _atom_site_symmetry_multiplicity
 _atom_site_fract_x
 _atom_site_fract_y
 _atom_site_fract_z
 _atom_site_occupancy
  Tb  Tb0  1  0.845276  0.507959  0.654786  1
  Dy  Dy1  1  0.493298  0.853487  0.860863  1
  Dy  Dy2  1  0.654454  0.507846  0.154631  1
  Dy  Dy3  1  0.801304  0.757861  0.824282  1
  Dy  Dy4  1  0.568664  0.777724  0.589020  1
  Dy  Dy5  1  0.924918  0.281019  0.292887  1
  Dy  Dy6  1  0.574941  0.280886  0.792944  1
  Dy  Dy7  1  0.293905  0.758276  0.468947  1
  Dy  Dy8  1  0.301338  0.242167  0.675857  1
  Dy  Dy9  1  0.424879  0.719066  0.207117  1
  Dy  Dy10  1  0.431203  0.222283  0.411009  1
  Dy  Dy11  1  0.506643  0.146507  0.139111  1
  Dy  Dy12  1  0.345543  0.492165  0.845361  1
  Dy  Dy13  1  0.006781  0.853696  0.360679  1
  Dy  Dy14  1  0.075259  0.719207  0.707159  1
  Dy  Dy15  1  0.931241  0.777660  0.089036  1
  Dy  Dy16  1  0.206085  0.758250  0.968931  1
  Dy  Dy17  1  0.793894  0.241691  0.031219  1
  Dy  Dy18  1  0.706021  0.241662  0.530978  1
  Dy  Dy19  1  0.993443  0.146366  0.639073  1
  Dy  Dy20  1  0.698586  0.757894  0.324032  1
  Dy  Dy21  1  0.198675  0.242167  0.175857  1
  Dy  Dy22  1  0.154480  0.492143  0.345320  1
  Dy  Dy23  1  0.068899  0.222180  0.911130  1
  Ru  Ru24  1  0.500002  0.499991  0.500022  1
  Ru  Ru25  1  0.352797  0.075305  0.965955  1
  Ru  Ru26  1  0.180274  0.901813  0.150277  1
  Ru  Ru27  1  0.852845  0.924961  0.533938  1
  Ru  Ru28  1  0.398300  0.484312  0.102912  1
  Ru  Ru29  1  0.101965  0.484280  0.602850  1
  Ru  Ru30  1  0.647207  0.924679  0.034052  1
  Ru  Ru31  1  0.601674  0.515690  0.897105  1
  Ru  Ru32  1  0.999979  0.499985  0.999980  1
  Ru  Ru33  1  0.680263  0.098224  0.349715  1
  Ru  Ru34  1  0.147150  0.075326  0.465935  1
  Ru  Ru35  1  0.319754  0.901766  0.650311  1
  Ru  Ru36  1  0.898369  0.515724  0.396810  1
  Ru  Ru37  1  0.819692  0.097781  0.849908  1
