# generated using pymatgen
data_Ce3ZnCd2PdPt2
_symmetry_space_group_name_H-M   'P 1'
_cell_length_a   7.67418289
_cell_length_b   7.67418219
_cell_length_c   3.90353000
_cell_angle_alpha   90.00000000
_cell_angle_beta   90.00000000
_cell_angle_gamma   119.63987690
_symmetry_Int_Tables_number   1
_chemical_formula_structural   Ce3ZnCd2PdPt2
_chemical_formula_sum   'Ce3 Zn1 Cd2 Pd1 Pt2'
_cell_volume   199.80988863
_cell_formula_units_Z   1
loop_
 _symmetry_equiv_pos_site_id
 _symmetry_equiv_pos_as_xyz
  1  'x, y, z'
loop_
 _atom_site_type_symbol
 _atom_site_label
 _atom_site_symmetry_multiplicity
 _atom_site_fract_x
 _atom_site_fract_y
 _atom_site_fract_z
 _atom_site_occupancy
  Ce  Ce0  1  0.425208  0.425208  0.000000  1
  Ce  Ce1  1  0.591632  0.996819  0.000000  1
  Ce  Ce2  1  0.996819  0.591632  0.000000  1
  Zn  Zn3  1  0.742668  0.742668  0.500000  1
  Cd  Cd4  1  0.251213  0.007107  0.500000  1
  Cd  Cd5  1  0.007107  0.251213  0.500000  1
  Pd  Pd6  1  0.970008  0.970008  0.000000  1
  Pt  Pt7  1  0.671810  0.343534  0.500000  1
  Pt  Pt8  1  0.343534  0.671810  0.500000  1
