# generated using pymatgen
data_ErPa3(B4Os)4
_symmetry_space_group_name_H-M   'P 1'
_cell_length_a   3.59289000
_cell_length_b   5.98687358
_cell_length_c   11.60785111
_cell_angle_alpha   89.94988712
_cell_angle_beta   90.00000000
_cell_angle_gamma   90.00000000
_symmetry_Int_Tables_number   1
_chemical_formula_structural   ErPa3(B4Os)4
_chemical_formula_sum   'Er1 Pa3 B16 Os4'
_cell_volume   249.68685027
_cell_formula_units_Z   1
loop_
 _symmetry_equiv_pos_site_id
 _symmetry_equiv_pos_as_xyz
  1  'x, y, z'
loop_
 _atom_site_type_symbol
 _atom_site_label
 _atom_site_symmetry_multiplicity
 _atom_site_fract_x
 _atom_site_fract_y
 _atom_site_fract_z
 _atom_site_occupancy
  Er  Er0  1  0.000000  0.870477  0.851101  1
  Pa  Pa1  1  0.000000  0.628230  0.350580  1
  Pa  Pa2  1  0.000000  0.371214  0.650981  1
  Pa  Pa3  1  0.000000  0.129004  0.148507  1
  B  B4  1  0.500000  0.789454  0.188008  1
  B  B5  1  0.500000  0.210378  0.812553  1
  B  B6  1  0.500000  0.290863  0.311258  1
  B  B7  1  0.500000  0.710556  0.688068  1
  B  B8  1  0.500000  0.865172  0.030306  1
  B  B9  1  0.500000  0.135892  0.967267  1
  B  B10  1  0.500000  0.364893  0.468084  1
  B  B11  1  0.500000  0.633293  0.533224  1
  B  B12  1  0.500000  0.885820  0.455027  1
  B  B13  1  0.500000  0.111910  0.546831  1
  B  B14  1  0.500000  0.387379  0.044260  1
  B  B15  1  0.500000  0.614417  0.953166  1
  B  B16  1  0.500000  0.971580  0.308814  1
  B  B17  1  0.500000  0.025445  0.692113  1
  B  B18  1  0.500000  0.472122  0.190555  1
  B  B19  1  0.500000  0.528761  0.809433  1
  Os  Os20  1  0.000000  0.643722  0.097207  1
  Os  Os21  1  0.000000  0.358211  0.905525  1
  Os  Os22  1  0.000000  0.142508  0.402280  1
  Os  Os23  1  0.000000  0.858698  0.594851  1
