# generated using pymatgen
data_NdTh9(Sn3S)2
_symmetry_space_group_name_H-M   'P 1'
_cell_length_a   9.44255700
_cell_length_b   9.47425769
_cell_length_c   6.64373500
_cell_angle_alpha   90.00000000
_cell_angle_beta   90.00000000
_cell_angle_gamma   120.11112221
_symmetry_Int_Tables_number   1
_chemical_formula_structural   NdTh9(Sn3S)2
_chemical_formula_sum   'Nd1 Th9 Sn6 S2'
_cell_volume   514.15060821
_cell_formula_units_Z   1
loop_
 _symmetry_equiv_pos_site_id
 _symmetry_equiv_pos_as_xyz
  1  'x, y, z'
loop_
 _atom_site_type_symbol
 _atom_site_label
 _atom_site_symmetry_multiplicity
 _atom_site_fract_x
 _atom_site_fract_y
 _atom_site_fract_z
 _atom_site_occupancy
  Nd  Nd0  1  0.000000  0.744799  0.750000  1
  Th  Th1  1  0.253639  0.253491  0.750000  1
  Th  Th2  1  0.334561  0.666202  0.498979  1
  Th  Th3  1  0.665439  0.331639  0.498979  1
  Th  Th4  1  0.747095  0.747269  0.250000  1
  Th  Th5  1  0.746361  0.999852  0.750000  1
  Th  Th6  1  0.000000  0.255705  0.250000  1
  Th  Th7  1  0.252905  0.000174  0.250000  1
  Th  Th8  1  0.334561  0.666202  0.001021  1
  Th  Th9  1  0.665439  0.331639  0.001021  1
  Sn  Sn10  1  0.609063  0.607929  0.750000  1
  Sn  Sn11  1  0.000000  0.391951  0.750000  1
  Sn  Sn12  1  0.390937  0.998867  0.750000  1
  Sn  Sn13  1  0.607758  0.999931  0.250000  1
  Sn  Sn14  1  0.392242  0.392173  0.250000  1
  Sn  Sn15  1  0.000000  0.608032  0.250000  1
  S  S16  1  0.000000  0.002072  0.001227  1
  S  S17  1  0.000000  0.002072  0.498773  1
