# generated using pymatgen
data_Nb2SbOsF20
_symmetry_space_group_name_H-M   'P 1'
_cell_length_a   5.80594262
_cell_length_b   7.56471326
_cell_length_c   9.97583499
_cell_angle_alpha   87.92391779
_cell_angle_beta   106.20731947
_cell_angle_gamma   99.36520097
_symmetry_Int_Tables_number   1
_chemical_formula_structural   Nb2SbOsF20
_chemical_formula_sum   'Nb2 Sb1 Os1 F20'
_cell_volume   415.10160878
_cell_formula_units_Z   1
loop_
 _symmetry_equiv_pos_site_id
 _symmetry_equiv_pos_as_xyz
  1  'x, y, z'
loop_
 _atom_site_type_symbol
 _atom_site_label
 _atom_site_symmetry_multiplicity
 _atom_site_fract_x
 _atom_site_fract_y
 _atom_site_fract_z
 _atom_site_occupancy
  Nb  Nb0  1  0.338230  0.381502  0.221124  1
  Nb  Nb1  1  0.662196  0.620561  0.779366  1
  Sb  Sb2  1  0.035555  0.234750  0.685410  1
  Os  Os3  1  0.963319  0.758554  0.313680  1
  F  F4  1  0.028199  0.249076  0.168304  1
  F  F5  1  0.972611  0.751270  0.831925  1
  F  F6  1  0.495865  0.221430  0.158372  1
  F  F7  1  0.503254  0.778985  0.841948  1
  F  F8  1  0.114245  0.226117  0.882816  1
  F  F9  1  0.885537  0.780079  0.116301  1
  F  F10  1  0.960817  0.288091  0.493083  1
  F  F11  1  0.039540  0.717905  0.508252  1
  F  F12  1  0.761753  0.053447  0.663466  1
  F  F13  1  0.228219  0.942502  0.336541  1
  F  F14  1  0.258123  0.083717  0.674853  1
  F  F15  1  0.752380  0.914771  0.325384  1
  F  F16  1  0.306016  0.445661  0.711641  1
  F  F17  1  0.688120  0.553775  0.288502  1
  F  F18  1  0.829776  0.419027  0.699394  1
  F  F19  1  0.177136  0.580506  0.300719  1
  F  F20  1  0.690462  0.450719  0.923475  1
  F  F21  1  0.308967  0.549612  0.075105  1
  F  F22  1  0.571932  0.664698  0.587310  1
  F  F23  1  0.427747  0.333246  0.413030  1
