# generated using pymatgen
data_Pr12B(PBr4)3
_symmetry_space_group_name_H-M   'P 1'
_cell_length_a   10.45827008
_cell_length_b   10.32110858
_cell_length_c   10.32110900
_cell_angle_alpha   109.20045178
_cell_angle_beta   109.74064750
_cell_angle_gamma   109.74065308
_symmetry_Int_Tables_number   1
_chemical_formula_structural   Pr12B(PBr4)3
_chemical_formula_sum   'Pr12 B1 P3 Br12'
_cell_volume   854.74344345
_cell_formula_units_Z   1
loop_
 _symmetry_equiv_pos_site_id
 _symmetry_equiv_pos_as_xyz
  1  'x, y, z'
loop_
 _atom_site_type_symbol
 _atom_site_label
 _atom_site_symmetry_multiplicity
 _atom_site_fract_x
 _atom_site_fract_y
 _atom_site_fract_z
 _atom_site_occupancy
  Pr  Pr0  1  0.466759  0.489743  0.227510  1
  Pr  Pr1  1  0.750000  0.236216  0.263784  1
  Pr  Pr2  1  0.750000  0.013301  0.486699  1
  Pr  Pr3  1  0.236699  0.473399  0.486699  1
  Pr  Pr4  1  0.260751  0.737767  0.227510  1
  Pr  Pr5  1  0.033241  0.272490  0.010257  1
  Pr  Pr6  1  0.013784  0.027567  0.263784  1
  Pr  Pr7  1  0.477016  0.737767  0.010257  1
  Pr  Pr8  1  0.486216  0.236216  0.472433  1
  Pr  Pr9  1  0.022984  0.489743  0.762233  1
  Pr  Pr10  1  0.263301  0.013301  0.026601  1
  Pr  Pr11  1  0.239249  0.272490  0.762233  1
  B  B12  1  0.250000  0.500000  0.000000  1
  P  P13  1  0.250000  0.250527  0.249473  1
  P  P14  1  0.499473  0.998946  0.249473  1
  P  P15  1  0.000527  0.250527  0.501054  1
  Br  Br16  1  0.250000  0.756542  0.743458  1
  Br  Br17  1  0.512112  0.506038  0.757220  1
  Br  Br18  1  0.987888  0.742780  0.993962  1
  Br  Br19  1  0.745109  0.251182  0.757220  1
  Br  Br20  1  0.993458  0.986915  0.743458  1
  Br  Br21  1  0.250000  0.995124  0.504876  1
  Br  Br22  1  0.754876  0.509753  0.504876  1
  Br  Br23  1  0.506074  0.251182  0.993962  1
  Br  Br24  1  0.754891  0.742780  0.248818  1
  Br  Br25  1  0.745124  0.995124  0.990247  1
  Br  Br26  1  0.993926  0.506038  0.248818  1
  Br  Br27  1  0.506542  0.756542  0.513085  1
