# generated using pymatgen
data_Ho3Sc2BiPb2
_symmetry_space_group_name_H-M   'P 1'
_cell_length_a   8.90505230
_cell_length_b   8.89397500
_cell_length_c   6.30127500
_cell_angle_alpha   90.00000000
_cell_angle_beta   90.00000000
_cell_angle_gamma   119.95886424
_symmetry_Int_Tables_number   1
_chemical_formula_structural   Ho3Sc2BiPb2
_chemical_formula_sum   'Ho6 Sc4 Bi2 Pb4'
_cell_volume   432.38569205
_cell_formula_units_Z   2
loop_
 _symmetry_equiv_pos_site_id
 _symmetry_equiv_pos_as_xyz
  1  'x, y, z'
loop_
 _atom_site_type_symbol
 _atom_site_label
 _atom_site_symmetry_multiplicity
 _atom_site_fract_x
 _atom_site_fract_y
 _atom_site_fract_z
 _atom_site_occupancy
  Ho  Ho0  1  0.237128  0.999485  0.250000  1
  Ho  Ho1  1  0.237128  0.237643  0.750000  1
  Ho  Ho2  1  0.001959  0.761714  0.750000  1
  Ho  Ho3  1  0.001959  0.240245  0.250000  1
  Ho  Ho4  1  0.761723  0.759210  0.250000  1
  Ho  Ho5  1  0.761723  0.002513  0.750000  1
  Sc  Sc6  1  0.331667  0.665834  0.000000  1
  Sc  Sc7  1  0.667715  0.333857  0.500000  1
  Sc  Sc8  1  0.667715  0.333857  0.000000  1
  Sc  Sc9  1  0.331667  0.665834  0.500000  1
  Bi  Bi10  1  0.601370  0.999581  0.250000  1
  Bi  Bi11  1  0.601370  0.601789  0.750000  1
  Pb  Pb12  1  0.999809  0.399109  0.750000  1
  Pb  Pb13  1  0.999809  0.600700  0.250000  1
  Pb  Pb14  1  0.398630  0.398467  0.250000  1
  Pb  Pb15  1  0.398630  0.000163  0.750000  1
