# generated using pymatgen
data_BaTmAlZn3O7
_symmetry_space_group_name_H-M   'P 1'
_cell_length_a   6.34768200
_cell_length_b   6.34768312
_cell_length_c   10.23114400
_cell_angle_alpha   90.00000000
_cell_angle_beta   90.00000000
_cell_angle_gamma   120.00001503
_symmetry_Int_Tables_number   1
_chemical_formula_structural   BaTmAlZn3O7
_chemical_formula_sum   'Ba2 Tm2 Al2 Zn6 O14'
_cell_volume   357.01393099
_cell_formula_units_Z   2
loop_
 _symmetry_equiv_pos_site_id
 _symmetry_equiv_pos_as_xyz
  1  'x, y, z'
loop_
 _atom_site_type_symbol
 _atom_site_label
 _atom_site_symmetry_multiplicity
 _atom_site_fract_x
 _atom_site_fract_y
 _atom_site_fract_z
 _atom_site_occupancy
  Ba  Ba0  1  0.666667  0.333333  0.990160  1
  Ba  Ba1  1  0.333333  0.666667  0.490160  1
  Tm  Tm2  1  0.666667  0.333333  0.632350  1
  Tm  Tm3  1  0.333333  0.666667  0.132350  1
  Al  Al4  1  0.000000  0.000000  0.067054  1
  Al  Al5  1  0.000000  0.000000  0.567054  1
  Zn  Zn6  1  0.169852  0.830148  0.817602  1
  Zn  Zn7  1  0.660297  0.830148  0.817602  1
  Zn  Zn8  1  0.169852  0.339703  0.817602  1
  Zn  Zn9  1  0.830148  0.169852  0.317602  1
  Zn  Zn10  1  0.339703  0.169852  0.317602  1
  Zn  Zn11  1  0.830148  0.660297  0.317602  1
  O  O12  1  0.507651  0.492349  0.762690  1
  O  O13  1  0.984698  0.492349  0.762690  1
  O  O14  1  0.507651  0.015302  0.762690  1
  O  O15  1  0.492349  0.507651  0.262690  1
  O  O16  1  0.015302  0.507651  0.262690  1
  O  O17  1  0.492349  0.984698  0.262690  1
  O  O18  1  0.000000  0.000000  0.242396  1
  O  O19  1  0.000000  0.000000  0.742396  1
  O  O20  1  0.154771  0.845229  0.013471  1
  O  O21  1  0.690458  0.845229  0.013471  1
  O  O22  1  0.154771  0.309542  0.013471  1
  O  O23  1  0.845229  0.154771  0.513471  1
  O  O24  1  0.309542  0.154771  0.513471  1
  O  O25  1  0.845229  0.690458  0.513471  1
