# generated using pymatgen
data_SmEr11(Si3Rh)4
_symmetry_space_group_name_H-M   'P 1'
_cell_length_a   4.21144000
_cell_length_b   10.62568228
_cell_length_c   12.29172155
_cell_angle_alpha   90.14291655
_cell_angle_beta   90.00000000
_cell_angle_gamma   90.00000000
_symmetry_Int_Tables_number   1
_chemical_formula_structural   SmEr11(Si3Rh)4
_chemical_formula_sum   'Sm1 Er11 Si12 Rh4'
_cell_volume   550.04574039
_cell_formula_units_Z   1
loop_
 _symmetry_equiv_pos_site_id
 _symmetry_equiv_pos_as_xyz
  1  'x, y, z'
loop_
 _atom_site_type_symbol
 _atom_site_label
 _atom_site_symmetry_multiplicity
 _atom_site_fract_x
 _atom_site_fract_y
 _atom_site_fract_z
 _atom_site_occupancy
  Sm  Sm0  1  0.750000  0.158728  0.696924  1
  Er  Er1  1  0.250000  0.878539  0.021836  1
  Er  Er2  1  0.250000  0.620992  0.521262  1
  Er  Er3  1  0.750000  0.119889  0.980595  1
  Er  Er4  1  0.750000  0.381431  0.477710  1
  Er  Er5  1  0.250000  0.919595  0.603911  1
  Er  Er6  1  0.250000  0.579585  0.104381  1
  Er  Er7  1  0.750000  0.080532  0.394137  1
  Er  Er8  1  0.750000  0.420596  0.896030  1
  Er  Er9  1  0.250000  0.661426  0.801107  1
  Er  Er10  1  0.250000  0.838015  0.301255  1
  Er  Er11  1  0.750000  0.340166  0.198795  1
  Si  Si12  1  0.250000  0.011560  0.824722  1
  Si  Si13  1  0.250000  0.486713  0.322418  1
  Si  Si14  1  0.750000  0.984984  0.177471  1
  Si  Si15  1  0.750000  0.514608  0.677661  1
  Si  Si16  1  0.250000  0.247730  0.843233  1
  Si  Si17  1  0.250000  0.253821  0.339752  1
  Si  Si18  1  0.750000  0.752204  0.158715  1
  Si  Si19  1  0.750000  0.747760  0.658723  1
  Si  Si20  1  0.250000  0.201349  0.537088  1
  Si  Si21  1  0.250000  0.300844  0.042224  1
  Si  Si22  1  0.750000  0.801359  0.458318  1
  Si  Si23  1  0.750000  0.698050  0.958890  1
  Rh  Rh24  1  0.250000  0.393539  0.682807  1
  Rh  Rh25  1  0.250000  0.109133  0.181461  1
  Rh  Rh26  1  0.750000  0.609053  0.317711  1
  Rh  Rh27  1  0.750000  0.887798  0.820867  1
