# generated using pymatgen
data_Sc2UBe2Rh5
_symmetry_space_group_name_H-M   'P 1'
_cell_length_a   9.38218100
_cell_length_b   9.38218100
_cell_length_c   3.45811600
_cell_angle_alpha   90.00000000
_cell_angle_beta   90.00000000
_cell_angle_gamma   90.00000000
_symmetry_Int_Tables_number   1
_chemical_formula_structural   Sc2UBe2Rh5
_chemical_formula_sum   'Sc4 U2 Be4 Rh10'
_cell_volume   304.40176859
_cell_formula_units_Z   2
loop_
 _symmetry_equiv_pos_site_id
 _symmetry_equiv_pos_as_xyz
  1  'x, y, z'
loop_
 _atom_site_type_symbol
 _atom_site_label
 _atom_site_symmetry_multiplicity
 _atom_site_fract_x
 _atom_site_fract_y
 _atom_site_fract_z
 _atom_site_occupancy
  Sc  Sc0  1  0.830306  0.330306  0.000000  1
  Sc  Sc1  1  0.330306  0.169694  0.000000  1
  Sc  Sc2  1  0.669694  0.830306  0.000000  1
  Sc  Sc3  1  0.169694  0.669694  0.000000  1
  U  U4  1  0.000000  0.000000  0.000000  1
  U  U5  1  0.500000  0.500000  0.000000  1
  Be  Be6  1  0.620571  0.120571  0.000000  1
  Be  Be7  1  0.120571  0.379429  0.000000  1
  Be  Be8  1  0.879429  0.620571  0.000000  1
  Be  Be9  1  0.379429  0.879429  0.000000  1
  Rh  Rh10  1  0.071449  0.211553  0.500000  1
  Rh  Rh11  1  0.211553  0.928551  0.500000  1
  Rh  Rh12  1  0.788447  0.071449  0.500000  1
  Rh  Rh13  1  0.928551  0.788447  0.500000  1
  Rh  Rh14  1  0.428551  0.711553  0.500000  1
  Rh  Rh15  1  0.571449  0.288447  0.500000  1
  Rh  Rh16  1  0.711553  0.571449  0.500000  1
  Rh  Rh17  1  0.288447  0.428551  0.500000  1
  Rh  Rh18  1  0.500000  0.000000  0.500000  1
  Rh  Rh19  1  0.000000  0.500000  0.500000  1
