# generated using pymatgen
data_Ba3Eu4O9
_symmetry_space_group_name_H-M   'P 1'
_cell_length_a   9.35905932
_cell_length_b   9.35905904
_cell_length_c   9.35905900
_cell_angle_alpha   38.75831207
_cell_angle_beta   38.75831419
_cell_angle_gamma   38.75831380
_symmetry_Int_Tables_number   1
_chemical_formula_structural   Ba3Eu4O9
_chemical_formula_sum   'Ba3 Eu4 O9'
_cell_volume   288.80943198
_cell_formula_units_Z   1
loop_
 _symmetry_equiv_pos_site_id
 _symmetry_equiv_pos_as_xyz
  1  'x, y, z'
loop_
 _atom_site_type_symbol
 _atom_site_label
 _atom_site_symmetry_multiplicity
 _atom_site_fract_x
 _atom_site_fract_y
 _atom_site_fract_z
 _atom_site_occupancy
  Ba  Ba0  1  0.004639  0.004639  0.004639  1
  Ba  Ba1  1  0.172114  0.172114  0.172114  1
  Ba  Ba2  1  0.589098  0.589098  0.589098  1
  Eu  Eu3  1  0.307000  0.307000  0.307000  1
  Eu  Eu4  1  0.432488  0.432488  0.432488  1
  Eu  Eu5  1  0.744277  0.744277  0.744277  1
  Eu  Eu6  1  0.869508  0.869508  0.869508  1
  O  O7  1  0.588570  0.159309  0.017128  1
  O  O8  1  0.445078  0.602020  0.045186  1
  O  O9  1  0.573972  0.732540  0.130770  1
  O  O10  1  0.017128  0.588570  0.159309  1
  O  O11  1  0.602020  0.045186  0.445078  1
  O  O12  1  0.732540  0.130771  0.573971  1
  O  O13  1  0.159309  0.017128  0.588570  1
  O  O14  1  0.045186  0.445077  0.602021  1
  O  O15  1  0.130770  0.573971  0.732540  1
