# generated using pymatgen
data_TbLu2AuO7
_symmetry_space_group_name_H-M   'P 1'
_cell_length_a   6.40091771
_cell_length_b   6.40091931
_cell_length_c   7.36677500
_cell_angle_alpha   90.00000000
_cell_angle_beta   90.00000000
_cell_angle_gamma   108.71096457
_symmetry_Int_Tables_number   1
_chemical_formula_structural   TbLu2AuO7
_chemical_formula_sum   'Tb2 Lu4 Au2 O14'
_cell_volume   285.87768988
_cell_formula_units_Z   2
loop_
 _symmetry_equiv_pos_site_id
 _symmetry_equiv_pos_as_xyz
  1  'x, y, z'
loop_
 _atom_site_type_symbol
 _atom_site_label
 _atom_site_symmetry_multiplicity
 _atom_site_fract_x
 _atom_site_fract_y
 _atom_site_fract_z
 _atom_site_occupancy
  Tb  Tb0  1  0.500000  0.500000  0.500000  1
  Tb  Tb1  1  0.500000  0.500000  0.000000  1
  Lu  Lu2  1  0.528487  0.998163  0.750000  1
  Lu  Lu3  1  0.998163  0.528487  0.250000  1
  Lu  Lu4  1  0.471513  0.001837  0.250000  1
  Lu  Lu5  1  0.001837  0.471513  0.750000  1
  Au  Au6  1  0.000000  0.000000  0.500000  1
  Au  Au7  1  0.000000  0.000000  0.000000  1
  O  O8  1  0.666335  0.920126  0.475410  1
  O  O9  1  0.920126  0.666335  0.524590  1
  O  O10  1  0.666335  0.920126  0.024590  1
  O  O11  1  0.920126  0.666335  0.975410  1
  O  O12  1  0.333665  0.079874  0.524590  1
  O  O13  1  0.079874  0.333665  0.475410  1
  O  O14  1  0.333665  0.079874  0.975410  1
  O  O15  1  0.079874  0.333665  0.024590  1
  O  O16  1  0.917472  0.082528  0.750000  1
  O  O17  1  0.082528  0.917472  0.250000  1
  O  O18  1  0.362917  0.637083  0.750000  1
  O  O19  1  0.637083  0.362917  0.250000  1
  O  O20  1  0.643323  0.356677  0.750000  1
  O  O21  1  0.356677  0.643323  0.250000  1
