# generated using pymatgen
data_Lu3Al2GaNi6
_symmetry_space_group_name_H-M   'P 1'
_cell_length_a   5.13704600
_cell_length_b   5.13704521
_cell_length_c   15.77710500
_cell_angle_alpha   90.00000000
_cell_angle_beta   90.00000000
_cell_angle_gamma   119.99999222
_symmetry_Int_Tables_number   1
_chemical_formula_structural   Lu3Al2GaNi6
_chemical_formula_sum   'Lu6 Al4 Ga2 Ni12'
_cell_volume   360.56604320
_cell_formula_units_Z   2
loop_
 _symmetry_equiv_pos_site_id
 _symmetry_equiv_pos_as_xyz
  1  'x, y, z'
loop_
 _atom_site_type_symbol
 _atom_site_label
 _atom_site_symmetry_multiplicity
 _atom_site_fract_x
 _atom_site_fract_y
 _atom_site_fract_z
 _atom_site_occupancy
  Lu  Lu0  1  0.333333  0.666667  0.542939  1
  Lu  Lu1  1  0.666667  0.333333  0.457061  1
  Lu  Lu2  1  0.666667  0.333333  0.042939  1
  Lu  Lu3  1  0.333333  0.666667  0.957061  1
  Lu  Lu4  1  0.333333  0.666667  0.750000  1
  Lu  Lu5  1  0.666667  0.333333  0.250000  1
  Al  Al6  1  0.000000  0.000000  0.250000  1
  Al  Al7  1  0.000000  0.000000  0.750000  1
  Al  Al8  1  0.333333  0.666667  0.250000  1
  Al  Al9  1  0.666667  0.333333  0.750000  1
  Ga  Ga10  1  0.000000  0.000000  0.000000  1
  Ga  Ga11  1  0.000000  0.000000  0.500000  1
  Ni  Ni12  1  0.168595  0.337188  0.125951  1
  Ni  Ni13  1  0.831405  0.662812  0.874049  1
  Ni  Ni14  1  0.662812  0.831405  0.125951  1
  Ni  Ni15  1  0.831405  0.662812  0.625951  1
  Ni  Ni16  1  0.337188  0.168595  0.874049  1
  Ni  Ni17  1  0.168595  0.337188  0.374049  1
  Ni  Ni18  1  0.168595  0.831405  0.125951  1
  Ni  Ni19  1  0.337188  0.168595  0.625951  1
  Ni  Ni20  1  0.831405  0.168595  0.874049  1
  Ni  Ni21  1  0.662812  0.831405  0.374049  1
  Ni  Ni22  1  0.831405  0.168595  0.625951  1
  Ni  Ni23  1  0.168595  0.831405  0.374049  1
