# generated using pymatgen
data_SrTi(PO3)6
_symmetry_space_group_name_H-M   'P 1'
_cell_length_a   6.90902200
_cell_length_b   6.90902151
_cell_length_c   10.57306600
_cell_angle_alpha   90.00000000
_cell_angle_beta   90.00000000
_cell_angle_gamma   120.00000235
_symmetry_Int_Tables_number   1
_chemical_formula_structural   SrTi(PO3)6
_chemical_formula_sum   'Sr1 Ti1 P6 O18'
_cell_volume   437.08377456
_cell_formula_units_Z   1
loop_
 _symmetry_equiv_pos_site_id
 _symmetry_equiv_pos_as_xyz
  1  'x, y, z'
loop_
 _atom_site_type_symbol
 _atom_site_label
 _atom_site_symmetry_multiplicity
 _atom_site_fract_x
 _atom_site_fract_y
 _atom_site_fract_z
 _atom_site_occupancy
  Sr  Sr0  1  0.000000  0.000000  0.500000  1
  Ti  Ti1  1  0.000000  0.000000  0.000000  1
  P  P2  1  0.736704  0.129946  0.782967  1
  P  P3  1  0.870054  0.263296  0.217033  1
  P  P4  1  0.736704  0.606759  0.217033  1
  P  P5  1  0.870054  0.606759  0.782967  1
  P  P6  1  0.393241  0.263296  0.782967  1
  P  P7  1  0.393241  0.129946  0.217033  1
  O  O8  1  0.900636  0.506715  0.191536  1
  O  O9  1  0.900636  0.393921  0.808464  1
  O  O10  1  0.493285  0.099364  0.808464  1
  O  O11  1  0.606079  0.099364  0.191536  1
  O  O12  1  0.759431  0.062521  0.653625  1
  O  O13  1  0.773755  0.010112  0.893379  1
  O  O14  1  0.493285  0.393921  0.191536  1
  O  O15  1  0.759431  0.696911  0.346375  1
  O  O16  1  0.773755  0.763644  0.106621  1
  O  O17  1  0.606079  0.506715  0.808464  1
  O  O18  1  0.937479  0.240569  0.346375  1
  O  O19  1  0.989888  0.226245  0.106621  1
  O  O20  1  0.236356  0.226245  0.893379  1
  O  O21  1  0.303089  0.240569  0.653625  1
  O  O22  1  0.989888  0.763644  0.893379  1
  O  O23  1  0.937479  0.696911  0.653625  1
  O  O24  1  0.236356  0.010112  0.106621  1
  O  O25  1  0.303089  0.062521  0.346375  1
