# generated using pymatgen
data_Ce2NiIrRh2
_symmetry_space_group_name_H-M   'P 1'
_cell_length_a   5.16632686
_cell_length_b   5.42232093
_cell_length_c   5.42353207
_cell_angle_alpha   60.00739504
_cell_angle_beta   58.33436116
_cell_angle_gamma   58.34688222
_symmetry_Int_Tables_number   1
_chemical_formula_structural   Ce2NiIrRh2
_chemical_formula_sum   'Ce2 Ni1 Ir1 Rh2'
_cell_volume   104.66378537
_cell_formula_units_Z   1
loop_
 _symmetry_equiv_pos_site_id
 _symmetry_equiv_pos_as_xyz
  1  'x, y, z'
loop_
 _atom_site_type_symbol
 _atom_site_label
 _atom_site_symmetry_multiplicity
 _atom_site_fract_x
 _atom_site_fract_y
 _atom_site_fract_z
 _atom_site_occupancy
  Ce  Ce0  1  0.500006  0.499940  0.500113  1
  Ce  Ce1  1  0.749994  0.750060  0.749887  1
  Ni  Ni2  1  0.625000  0.125000  0.125000  1
  Ir  Ir3  1  0.125000  0.125000  0.625000  1
  Rh  Rh4  1  0.125000  0.125000  0.125000  1
  Rh  Rh5  1  0.125000  0.625000  0.125000  1
