# generated using pymatgen
data_Er3CdAg(HgAu)2
_symmetry_space_group_name_H-M   'P 1'
_cell_length_a   7.86488350
_cell_length_b   7.86488448
_cell_length_c   3.82054000
_cell_angle_alpha   90.00000000
_cell_angle_beta   90.00000000
_cell_angle_gamma   120.28601774
_symmetry_Int_Tables_number   1
_chemical_formula_structural   Er3CdAg(HgAu)2
_chemical_formula_sum   'Er3 Cd1 Ag1 Hg2 Au2'
_cell_volume   204.07091583
_cell_formula_units_Z   1
loop_
 _symmetry_equiv_pos_site_id
 _symmetry_equiv_pos_as_xyz
  1  'x, y, z'
loop_
 _atom_site_type_symbol
 _atom_site_label
 _atom_site_symmetry_multiplicity
 _atom_site_fract_x
 _atom_site_fract_y
 _atom_site_fract_z
 _atom_site_occupancy
  Er  Er0  1  0.594369  0.003917  0.000000  1
  Er  Er1  1  0.003917  0.594369  0.000000  1
  Er  Er2  1  0.399635  0.399635  0.000000  1
  Cd  Cd3  1  0.735678  0.735678  0.500000  1
  Ag  Ag4  1  0.996589  0.996589  0.000000  1
  Hg  Hg5  1  0.266622  0.997378  0.500000  1
  Hg  Hg6  1  0.997378  0.266622  0.500000  1
  Au  Au7  1  0.339314  0.666498  0.500000  1
  Au  Au8  1  0.666498  0.339314  0.500000  1
