# generated using pymatgen
data_Dy7Er3(Pb3Cl)2
_symmetry_space_group_name_H-M   'P 1'
_cell_length_a   9.20335900
_cell_length_b   9.20335965
_cell_length_c   6.58960900
_cell_angle_alpha   90.00000000
_cell_angle_beta   90.00000000
_cell_angle_gamma   120.00001564
_symmetry_Int_Tables_number   1
_chemical_formula_structural   Dy7Er3(Pb3Cl)2
_chemical_formula_sum   'Dy7 Er3 Pb6 Cl2'
_cell_volume   483.37364337
_cell_formula_units_Z   1
loop_
 _symmetry_equiv_pos_site_id
 _symmetry_equiv_pos_as_xyz
  1  'x, y, z'
loop_
 _atom_site_type_symbol
 _atom_site_label
 _atom_site_symmetry_multiplicity
 _atom_site_fract_x
 _atom_site_fract_y
 _atom_site_fract_z
 _atom_site_occupancy
  Dy  Dy0  1  0.260789  0.000050  0.250062  1
  Dy  Dy1  1  0.739261  0.000050  0.749938  1
  Dy  Dy2  1  0.999950  0.260739  0.250062  1
  Dy  Dy3  1  0.999950  0.739211  0.749938  1
  Dy  Dy4  1  0.739261  0.739211  0.250062  1
  Dy  Dy5  1  0.260789  0.260739  0.749938  1
  Dy  Dy6  1  0.333333  0.666667  0.000000  1
  Er  Er7  1  0.666667  0.333333  0.000000  1
  Er  Er8  1  0.666667  0.333333  0.500000  1
  Er  Er9  1  0.333333  0.666667  0.500000  1
  Pb  Pb10  1  0.610619  0.000483  0.250355  1
  Pb  Pb11  1  0.389864  0.000483  0.749645  1
  Pb  Pb12  1  0.999517  0.610136  0.250355  1
  Pb  Pb13  1  0.999517  0.389381  0.749645  1
  Pb  Pb14  1  0.389864  0.389381  0.250355  1
  Pb  Pb15  1  0.610619  0.610136  0.749645  1
  Cl  Cl16  1  0.000000  0.000000  0.000000  1
  Cl  Cl17  1  0.000000  0.000000  0.500000  1
