# generated using pymatgen
data_K3Cu(PAu)2
_symmetry_space_group_name_H-M   'P 1'
_cell_length_a   7.32040976
_cell_length_b   7.52673987
_cell_length_c   7.52673988
_cell_angle_alpha   50.00511831
_cell_angle_beta   47.36212870
_cell_angle_gamma   47.36213035
_symmetry_Int_Tables_number   1
_chemical_formula_structural   K3Cu(PAu)2
_chemical_formula_sum   'K3 Cu1 P2 Au2'
_cell_volume   211.07991894
_cell_formula_units_Z   1
loop_
 _symmetry_equiv_pos_site_id
 _symmetry_equiv_pos_as_xyz
  1  'x, y, z'
loop_
 _atom_site_type_symbol
 _atom_site_label
 _atom_site_symmetry_multiplicity
 _atom_site_fract_x
 _atom_site_fract_y
 _atom_site_fract_z
 _atom_site_occupancy
  K  K0  1  0.904974  0.912495  0.912495  1
  K  K1  1  0.500000  0.500000  0.500000  1
  K  K2  1  0.095026  0.087505  0.087505  1
  Cu  Cu3  1  0.000000  0.500000  0.500000  1
  P  P4  1  0.228537  0.265537  0.265537  1
  P  P5  1  0.771463  0.734463  0.734463  1
  Au  Au6  1  0.500000  0.500000  0.000000  1
  Au  Au7  1  0.500000  0.000000  0.500000  1
