# generated using pymatgen
data_Ho12InGa(CoNi)2
_symmetry_space_group_name_H-M   'P 1'
_cell_length_a   8.30586184
_cell_length_b   8.30512592
_cell_length_c   8.30586269
_cell_angle_alpha   113.21152487
_cell_angle_beta   109.52661888
_cell_angle_gamma   105.76470415
_symmetry_Int_Tables_number   1
_chemical_formula_structural   Ho12InGa(CoNi)2
_chemical_formula_sum   'Ho12 In1 Ga1 Co2 Ni2'
_cell_volume   439.17513174
_cell_formula_units_Z   1
loop_
 _symmetry_equiv_pos_site_id
 _symmetry_equiv_pos_as_xyz
  1  'x, y, z'
loop_
 _atom_site_type_symbol
 _atom_site_label
 _atom_site_symmetry_multiplicity
 _atom_site_fract_x
 _atom_site_fract_y
 _atom_site_fract_z
 _atom_site_occupancy
  Ho  Ho0  1  0.428969  0.231193  0.197758  1
  Ho  Ho1  1  0.571031  0.768807  0.802242  1
  Ho  Ho2  1  0.033434  0.231193  0.802224  1
  Ho  Ho3  1  0.966566  0.768807  0.197776  1
  Ho  Ho4  1  0.181523  0.281983  0.463514  1
  Ho  Ho5  1  0.818477  0.718017  0.536486  1
  Ho  Ho6  1  0.181532  0.718017  0.899539  1
  Ho  Ho7  1  0.818468  0.281983  0.100461  1
  Ho  Ho8  1  0.329020  0.640303  0.311285  1
  Ho  Ho9  1  0.670980  0.359697  0.688715  1
  Ho  Ho10  1  0.329023  0.017763  0.688741  1
  Ho  Ho11  1  0.670977  0.982237  0.311259  1
  In  In12  1  0.500000  0.500000  0.000000  1
  Ga  Ga13  1  0.000000  0.000000  0.000000  1
  Co  Co14  1  0.341722  0.000000  0.341722  1
  Co  Co15  1  0.658278  0.000000  0.658278  1
  Ni  Ni16  1  0.119214  0.619206  0.499992  1
  Ni  Ni17  1  0.880786  0.380794  0.500008  1
