# generated using pymatgen
data_Tb8Hf5Zr4Si16Mo3
_symmetry_space_group_name_H-M   'P 1'
_cell_length_a   7.23366810
_cell_length_b   7.22949407
_cell_length_c   13.23356029
_cell_angle_alpha   90.12587571
_cell_angle_beta   90.09392862
_cell_angle_gamma   90.07333859
_symmetry_Int_Tables_number   1
_chemical_formula_structural   Tb8Hf5Zr4Si16Mo3
_chemical_formula_sum   'Tb8 Hf5 Zr4 Si16 Mo3'
_cell_volume   692.05593092
_cell_formula_units_Z   1
loop_
 _symmetry_equiv_pos_site_id
 _symmetry_equiv_pos_as_xyz
  1  'x, y, z'
loop_
 _atom_site_type_symbol
 _atom_site_label
 _atom_site_symmetry_multiplicity
 _atom_site_fract_x
 _atom_site_fract_y
 _atom_site_fract_z
 _atom_site_occupancy
  Tb  Tb0  1  0.999883  0.345480  0.214594  1
  Tb  Tb1  1  0.002746  0.655935  0.713807  1
  Tb  Tb2  1  0.154835  0.500867  0.462693  1
  Tb  Tb3  1  0.500164  0.844868  0.037057  1
  Tb  Tb4  1  0.846591  0.501192  0.967682  1
  Tb  Tb5  1  0.497797  0.152599  0.532643  1
  Tb  Tb6  1  0.344466  0.996115  0.786468  1
  Tb  Tb7  1  0.654354  0.000810  0.285261  1
  Hf  Hf8  1  0.351906  0.493189  0.879341  1
  Hf  Hf9  1  0.492513  0.354241  0.125828  1
  Hf  Hf10  1  0.646792  0.508017  0.373914  1
  Hf  Hf11  1  0.994552  0.144839  0.623303  1
  Hf  Hf12  1  0.007713  0.853985  0.126490  1
  Zr  Zr13  1  0.676595  0.322914  0.750099  1
  Zr  Zr14  1  0.146009  0.993800  0.373189  1
  Zr  Zr15  1  0.855141  0.005024  0.876891  1
  Zr  Zr16  1  0.505224  0.647543  0.621294  1
  Si  Si17  1  0.361614  0.299091  0.315878  1
  Si  Si18  1  0.637388  0.704955  0.817368  1
  Si  Si19  1  0.202318  0.861713  0.565482  1
  Si  Si20  1  0.139386  0.795117  0.935102  1
  Si  Si21  1  0.796057  0.138650  0.067986  1
  Si  Si22  1  0.860404  0.204499  0.433208  1
  Si  Si23  1  0.292939  0.360487  0.683852  1
  Si  Si24  1  0.703271  0.638943  0.183391  1
  Si  Si25  1  0.295334  0.053072  0.183855  1
  Si  Si26  1  0.705617  0.945417  0.681822  1
  Si  Si27  1  0.447876  0.794417  0.432223  1
  Si  Si28  1  0.205632  0.552795  0.067365  1
  Si  Si29  1  0.547444  0.203332  0.938129  1
  Si  Si30  1  0.797223  0.450984  0.561901  1
  Si  Si31  1  0.055744  0.295093  0.817558  1
  Si  Si32  1  0.946950  0.705189  0.315083  1
  Mo  Mo33  1  0.178140  0.176513  0.002027  1
  Mo  Mo34  1  0.824285  0.823198  0.497908  1
  Mo  Mo35  1  0.325100  0.675113  0.249308  1
