# generated using pymatgen
data_Ce3(GaPt2)2
_symmetry_space_group_name_H-M   'P 1'
_cell_length_a   7.42420000
_cell_length_b   7.72324505
_cell_length_c   3.77651700
_cell_angle_alpha   90.00000000
_cell_angle_beta   90.00000000
_cell_angle_gamma   121.34162828
_symmetry_Int_Tables_number   1
_chemical_formula_structural   Ce3(GaPt2)2
_chemical_formula_sum   'Ce3 Ga2 Pt4'
_cell_volume   184.94391956
_cell_formula_units_Z   1
loop_
 _symmetry_equiv_pos_site_id
 _symmetry_equiv_pos_as_xyz
  1  'x, y, z'
loop_
 _atom_site_type_symbol
 _atom_site_label
 _atom_site_symmetry_multiplicity
 _atom_site_fract_x
 _atom_site_fract_y
 _atom_site_fract_z
 _atom_site_occupancy
  Ce  Ce0  1  0.372824  0.392042  0.500000  1
  Ce  Ce1  1  0.627176  0.019219  0.500000  1
  Ce  Ce2  1  0.000000  0.584680  0.500000  1
  Ga  Ga3  1  0.739377  0.737383  0.000000  1
  Ga  Ga4  1  0.260623  0.998006  0.000000  1
  Pt  Pt5  1  0.000000  0.263537  0.000000  1
  Pt  Pt6  1  0.646904  0.344535  0.000000  1
  Pt  Pt7  1  0.353096  0.697631  0.000000  1
  Pt  Pt8  1  0.000000  0.962970  0.500000  1
