# generated using pymatgen
data_Zr2Si(PRu2)6
_symmetry_space_group_name_H-M   'P 1'
_cell_length_a   9.37854800
_cell_length_b   9.37854766
_cell_length_c   3.91692300
_cell_angle_alpha   90.00000000
_cell_angle_beta   90.00000000
_cell_angle_gamma   119.99999416
_symmetry_Int_Tables_number   1
_chemical_formula_structural   Zr2Si(PRu2)6
_chemical_formula_sum   'Zr2 Si1 P6 Ru12'
_cell_volume   298.36431993
_cell_formula_units_Z   1
loop_
 _symmetry_equiv_pos_site_id
 _symmetry_equiv_pos_as_xyz
  1  'x, y, z'
loop_
 _atom_site_type_symbol
 _atom_site_label
 _atom_site_symmetry_multiplicity
 _atom_site_fract_x
 _atom_site_fract_y
 _atom_site_fract_z
 _atom_site_occupancy
  Zr  Zr0  1  0.666667  0.333333  0.500000  1
  Zr  Zr1  1  0.333333  0.666667  0.000000  1
  Si  Si2  1  0.000000  0.000000  0.000000  1
  P  P3  1  0.599477  0.720047  0.500000  1
  P  P4  1  0.279953  0.879430  0.500000  1
  P  P5  1  0.120570  0.400523  0.500000  1
  P  P6  1  0.884279  0.573982  0.000000  1
  P  P7  1  0.426018  0.310296  0.000000  1
  P  P8  1  0.689704  0.115721  0.000000  1
  Ru  Ru9  1  0.550778  0.946465  0.500000  1
  Ru  Ru10  1  0.395689  0.449222  0.500000  1
  Ru  Ru11  1  0.910956  0.121490  0.500000  1
  Ru  Ru12  1  0.210534  0.089044  0.500000  1
  Ru  Ru13  1  0.878510  0.789466  0.500000  1
  Ru  Ru14  1  0.717808  0.885602  0.000000  1
  Ru  Ru15  1  0.114398  0.832205  0.000000  1
  Ru  Ru16  1  0.167795  0.282192  0.000000  1
  Ru  Ru17  1  0.429174  0.072141  0.000000  1
  Ru  Ru18  1  0.927859  0.357035  0.000000  1
  Ru  Ru19  1  0.642965  0.570826  0.000000  1
  Ru  Ru20  1  0.053535  0.604311  0.500000  1
