# generated using pymatgen
data_Ho4Er8InCo4Pt
_symmetry_space_group_name_H-M   'P 1'
_cell_length_a   8.23943197
_cell_length_b   8.23943065
_cell_length_c   8.23943175
_cell_angle_alpha   110.94544304
_cell_angle_beta   110.67710391
_cell_angle_gamma   106.82324705
_symmetry_Int_Tables_number   1
_chemical_formula_structural   Ho4Er8InCo4Pt
_chemical_formula_sum   'Ho4 Er8 In1 Co4 Pt1'
_cell_volume   429.90760081
_cell_formula_units_Z   1
loop_
 _symmetry_equiv_pos_site_id
 _symmetry_equiv_pos_as_xyz
  1  'x, y, z'
loop_
 _atom_site_type_symbol
 _atom_site_label
 _atom_site_symmetry_multiplicity
 _atom_site_fract_x
 _atom_site_fract_y
 _atom_site_fract_z
 _atom_site_occupancy
  Ho  Ho0  1  0.186252  0.289671  0.475923  1
  Ho  Ho1  1  0.813748  0.710329  0.524077  1
  Ho  Ho2  1  0.186252  0.710329  0.896581  1
  Ho  Ho3  1  0.813748  0.289671  0.103419  1
  Er  Er4  1  0.315608  0.620646  0.305038  1
  Er  Er5  1  0.684392  0.379354  0.694962  1
  Er  Er6  1  0.315608  0.010571  0.694962  1
  Er  Er7  1  0.684392  0.989429  0.305038  1
  Er  Er8  1  0.415005  0.216842  0.198164  1
  Er  Er9  1  0.584995  0.783158  0.801836  1
  Er  Er10  1  0.018678  0.216842  0.801836  1
  Er  Er11  1  0.981322  0.783158  0.198164  1
  In  In12  1  0.500000  0.500000  0.000000  1
  Co  Co13  1  0.112442  0.612442  0.500000  1
  Co  Co14  1  0.887558  0.387558  0.500000  1
  Co  Co15  1  0.378343  0.000000  0.378343  1
  Co  Co16  1  0.621657  0.000000  0.621657  1
  Pt  Pt17  1  0.000000  0.000000  0.000000  1
