# generated using pymatgen
data_NaCePt4
_symmetry_space_group_name_H-M   'P 1'
_cell_length_a   5.41872071
_cell_length_b   5.41872061
_cell_length_c   5.41872100
_cell_angle_alpha   60.00000371
_cell_angle_beta   60.00000436
_cell_angle_gamma   60.00000226
_symmetry_Int_Tables_number   1
_chemical_formula_structural   NaCePt4
_chemical_formula_sum   'Na1 Ce1 Pt4'
_cell_volume   112.50591429
_cell_formula_units_Z   1
loop_
 _symmetry_equiv_pos_site_id
 _symmetry_equiv_pos_as_xyz
  1  'x, y, z'
loop_
 _atom_site_type_symbol
 _atom_site_label
 _atom_site_symmetry_multiplicity
 _atom_site_fract_x
 _atom_site_fract_y
 _atom_site_fract_z
 _atom_site_occupancy
  Na  Na0  1  0.250000  0.250000  0.250000  1
  Ce  Ce1  1  0.000000  0.000000  0.000000  1
  Pt  Pt2  1  0.624564  0.624564  0.126309  1
  Pt  Pt3  1  0.624564  0.126309  0.624564  1
  Pt  Pt4  1  0.126309  0.624564  0.624564  1
  Pt  Pt5  1  0.624564  0.624564  0.624564  1
