# generated using pymatgen
data_Y4NbOs6Ru
_symmetry_space_group_name_H-M   'P 1'
_cell_length_a   5.26701751
_cell_length_b   5.26701730
_cell_length_c   9.11461635
_cell_angle_alpha   89.91504055
_cell_angle_beta   90.08496160
_cell_angle_gamma   117.51844150
_symmetry_Int_Tables_number   1
_chemical_formula_structural   Y4NbOs6Ru
_chemical_formula_sum   'Y4 Nb1 Os6 Ru1'
_cell_volume   224.24531357
_cell_formula_units_Z   1
loop_
 _symmetry_equiv_pos_site_id
 _symmetry_equiv_pos_as_xyz
  1  'x, y, z'
loop_
 _atom_site_type_symbol
 _atom_site_label
 _atom_site_symmetry_multiplicity
 _atom_site_fract_x
 _atom_site_fract_y
 _atom_site_fract_z
 _atom_site_occupancy
  Y  Y0  1  0.327949  0.672051  0.439584  1
  Y  Y1  1  0.666089  0.333911  0.568949  1
  Y  Y2  1  0.666752  0.333248  0.931772  1
  Y  Y3  1  0.329548  0.670452  0.060709  1
  Nb  Nb4  1  0.840688  0.159312  0.250165  1
  Os  Os5  1  0.997733  0.002267  0.993100  1
  Os  Os6  1  0.823945  0.653378  0.248497  1
  Os  Os7  1  0.346622  0.176055  0.248497  1
  Os  Os8  1  0.173103  0.826897  0.751599  1
  Os  Os9  1  0.171459  0.340528  0.750545  1
  Os  Os10  1  0.659472  0.828541  0.750545  1
  Ru  Ru11  1  0.996640  0.003360  0.506038  1
