# generated using pymatgen
data_Tb4Ho4Lu4TlCo5
_symmetry_space_group_name_H-M   'P 1'
_cell_length_a   8.23200772
_cell_length_b   8.23200786
_cell_length_c   8.23200828
_cell_angle_alpha   110.85419462
_cell_angle_beta   110.38481489
_cell_angle_gamma   107.19864401
_symmetry_Int_Tables_number   1
_chemical_formula_structural   Tb4Ho4Lu4TlCo5
_chemical_formula_sum   'Tb4 Ho4 Lu4 Tl1 Co5'
_cell_volume   428.92130625
_cell_formula_units_Z   1
loop_
 _symmetry_equiv_pos_site_id
 _symmetry_equiv_pos_as_xyz
  1  'x, y, z'
loop_
 _atom_site_type_symbol
 _atom_site_label
 _atom_site_symmetry_multiplicity
 _atom_site_fract_x
 _atom_site_fract_y
 _atom_site_fract_z
 _atom_site_occupancy
  Tb  Tb0  1  0.596296  0.789066  0.807230  1
  Tb  Tb1  1  0.403704  0.210934  0.192770  1
  Tb  Tb2  1  0.981837  0.789066  0.192770  1
  Tb  Tb3  1  0.018163  0.210934  0.807230  1
  Ho  Ho4  1  0.815293  0.708759  0.524051  1
  Ho  Ho5  1  0.184707  0.291241  0.475949  1
  Ho  Ho6  1  0.184707  0.708759  0.893467  1
  Ho  Ho7  1  0.815293  0.291241  0.106533  1
  Lu  Lu8  1  0.683837  0.376209  0.692372  1
  Lu  Lu9  1  0.316163  0.623791  0.307628  1
  Lu  Lu10  1  0.683837  0.991466  0.307628  1
  Lu  Lu11  1  0.316163  0.008534  0.692372  1
  Tl  Tl12  1  0.500000  0.500000  0.000000  1
  Co  Co13  1  0.620646  0.000000  0.620646  1
  Co  Co14  1  0.379354  0.000000  0.379354  1
  Co  Co15  1  0.113658  0.613658  0.500000  1
  Co  Co16  1  0.886342  0.386342  0.500000  1
  Co  Co17  1  0.000000  0.000000  0.000000  1
