# generated using pymatgen
data_Ti8Al15VPt6
_symmetry_space_group_name_H-M   'P 1'
_cell_length_a   8.70991554
_cell_length_b   8.70991667
_cell_length_c   8.70991592
_cell_angle_alpha   120.18126801
_cell_angle_beta   119.76227779
_cell_angle_gamma   90.04928709
_symmetry_Int_Tables_number   1
_chemical_formula_structural   Ti8Al15VPt6
_chemical_formula_sum   'Ti8 Al15 V1 Pt6'
_cell_volume   467.41722445
_cell_formula_units_Z   1
loop_
 _symmetry_equiv_pos_site_id
 _symmetry_equiv_pos_as_xyz
  1  'x, y, z'
loop_
 _atom_site_type_symbol
 _atom_site_label
 _atom_site_symmetry_multiplicity
 _atom_site_fract_x
 _atom_site_fract_y
 _atom_site_fract_z
 _atom_site_occupancy
  Ti  Ti0  1  0.788087  0.288490  0.073973  1
  Ti  Ti1  1  0.214516  0.288490  0.500403  1
  Ti  Ti2  1  0.210567  0.710567  0.500000  1
  Ti  Ti3  1  0.214516  0.714114  0.926027  1
  Ti  Ti4  1  0.788087  0.714114  0.499597  1
  Ti  Ti5  1  0.785027  0.285027  0.500000  1
  Ti  Ti6  1  0.383487  0.118786  0.735299  1
  Ti  Ti7  1  0.383487  0.648189  0.264701  1
  Al  Al8  1  0.998158  0.498158  0.500000  1
  Al  Al9  1  0.155821  0.347574  0.191752  1
  Al  Al10  1  0.155821  0.964068  0.808248  1
  Al  Al11  1  0.156622  0.344719  0.811903  1
  Al  Al12  1  0.532815  0.344719  0.188097  1
  Al  Al13  1  0.845490  0.654028  0.808539  1
  Al  Al14  1  0.845490  0.036950  0.191461  1
  Al  Al15  1  0.843749  0.654815  0.188934  1
  Al  Al16  1  0.465881  0.654815  0.811066  1
  Al  Al17  1  0.380867  0.119568  0.261299  1
  Al  Al18  1  0.858270  0.119568  0.738701  1
  Al  Al19  1  0.618790  0.881103  0.262314  1
  Al  Al20  1  0.618790  0.356476  0.737686  1
  Al  Al21  1  0.620106  0.880754  0.739353  1
  Al  Al22  1  0.141400  0.880754  0.260647  1
  V  V23  1  0.496945  0.996945  0.500000  1
  Pt  Pt24  1  0.997981  0.999015  0.499048  1
  Pt  Pt25  1  0.499966  0.999015  0.001034  1
  Pt  Pt26  1  0.500358  0.500358  0.000000  1
  Pt  Pt27  1  0.499966  0.498932  0.500952  1
  Pt  Pt28  1  0.997981  0.498932  0.998966  1
  Pt  Pt29  1  0.000958  0.000958  0.000000  1
