# generated using pymatgen
data_TbY2Ga6Co5Ni4
_symmetry_space_group_name_H-M   'P 1'
_cell_length_a   4.06579200
_cell_length_b   8.70988127
_cell_length_c   8.69808549
_cell_angle_alpha   60.09332357
_cell_angle_beta   90.00000000
_cell_angle_gamma   90.00000000
_symmetry_Int_Tables_number   1
_chemical_formula_structural   TbY2Ga6Co5Ni4
_chemical_formula_sum   'Tb1 Y2 Ga6 Co5 Ni4'
_cell_volume   267.00496307
_cell_formula_units_Z   1
loop_
 _symmetry_equiv_pos_site_id
 _symmetry_equiv_pos_as_xyz
  1  'x, y, z'
loop_
 _atom_site_type_symbol
 _atom_site_label
 _atom_site_symmetry_multiplicity
 _atom_site_fract_x
 _atom_site_fract_y
 _atom_site_fract_z
 _atom_site_occupancy
  Tb  Tb0  1  0.000000  0.001334  0.998099  1
  Y  Y1  1  0.500000  0.334581  0.333439  1
  Y  Y2  1  0.500000  0.664717  0.670942  1
  Ga  Ga3  1  0.500000  0.727241  0.272329  1
  Ga  Ga4  1  0.500000  0.274897  0.998810  1
  Ga  Ga5  1  0.500000  0.999412  0.725304  1
  Ga  Ga6  1  0.000000  0.488476  0.508655  1
  Ga  Ga7  1  0.000000  0.508915  0.000755  1
  Ga  Ga8  1  0.000000  0.000321  0.490887  1
  Co  Co9  1  0.000000  0.186887  0.177880  1
  Co  Co10  1  0.000000  0.176048  0.637074  1
  Co  Co11  1  0.000000  0.636787  0.186697  1
  Co  Co12  1  0.000000  0.821853  0.813482  1
  Co  Co13  1  0.000000  0.365903  0.821094  1
  Ni  Ni14  1  0.000000  0.809922  0.368576  1
  Ni  Ni15  1  0.500000  0.298378  0.701295  1
  Ni  Ni16  1  0.500000  0.702307  0.999960  1
  Ni  Ni17  1  0.500000  0.001920  0.294818  1
