# generated using pymatgen
data_Rb4In3FeI16
_symmetry_space_group_name_H-M   'P 1'
_cell_length_a   8.39892339
_cell_length_b   8.66399021
_cell_length_c   17.00664900
_cell_angle_alpha   85.15489785
_cell_angle_beta   89.80551692
_cell_angle_gamma   89.98049848
_symmetry_Int_Tables_number   1
_chemical_formula_structural   Rb4In3FeI16
_chemical_formula_sum   'Rb4 In3 Fe1 I16'
_cell_volume   1233.11382410
_cell_formula_units_Z   1
loop_
 _symmetry_equiv_pos_site_id
 _symmetry_equiv_pos_as_xyz
  1  'x, y, z'
loop_
 _atom_site_type_symbol
 _atom_site_label
 _atom_site_symmetry_multiplicity
 _atom_site_fract_x
 _atom_site_fract_y
 _atom_site_fract_z
 _atom_site_occupancy
  Rb  Rb0  1  0.498953  0.258925  0.642073  1
  Rb  Rb1  1  0.002587  0.741032  0.859029  1
  Rb  Rb2  1  0.499259  0.741361  0.359419  1
  Rb  Rb3  1  0.001243  0.258032  0.139153  1
  In  In4  1  0.357732  0.243525  0.361212  1
  In  In5  1  0.857551  0.755495  0.138688  1
  In  In6  1  0.642162  0.756917  0.638913  1
  Fe  Fe7  1  0.142732  0.246040  0.860781  1
  I  I8  1  0.868928  0.145855  0.907877  1
  I  I9  1  0.346567  0.865552  0.590290  1
  I  I10  1  0.151893  0.863392  0.087276  1
  I  I11  1  0.652235  0.134778  0.411261  1
  I  I12  1  0.390685  0.423071  0.219431  1
  I  I13  1  0.890847  0.575721  0.280069  1
  I  I14  1  0.607714  0.575888  0.779917  1
  I  I15  1  0.107614  0.410706  0.729009  1
  I  I16  1  0.645110  0.991323  0.160953  1
  I  I17  1  0.144566  0.009035  0.338312  1
  I  I18  1  0.341699  0.027535  0.840941  1
  I  I19  1  0.854506  0.991517  0.662283  1
  I  I20  1  0.238694  0.429804  0.471875  1
  I  I21  1  0.739656  0.568660  0.028449  1
  I  I22  1  0.760735  0.569305  0.528948  1
  I  I23  1  0.256335  0.416533  0.963841  1
