# generated using pymatgen
data_LiHf2(AsO4)3
_symmetry_space_group_name_H-M   'P 1'
_cell_length_a   9.25975146
_cell_length_b   9.25975176
_cell_length_c   9.16085348
_cell_angle_alpha   59.64223596
_cell_angle_beta   59.64223424
_cell_angle_gamma   59.99999602
_symmetry_Int_Tables_number   1
_chemical_formula_structural   LiHf2(AsO4)3
_chemical_formula_sum   'Li2 Hf4 As6 O24'
_cell_volume   552.39509533
_cell_formula_units_Z   2
loop_
 _symmetry_equiv_pos_site_id
 _symmetry_equiv_pos_as_xyz
  1  'x, y, z'
loop_
 _atom_site_type_symbol
 _atom_site_label
 _atom_site_symmetry_multiplicity
 _atom_site_fract_x
 _atom_site_fract_y
 _atom_site_fract_z
 _atom_site_occupancy
  Li  Li0  1  0.500000  0.500000  0.500000  1
  Li  Li1  1  0.000000  0.000000  0.000000  1
  Hf  Hf2  1  0.639827  0.639827  0.080520  1
  Hf  Hf3  1  0.139827  0.139827  0.580520  1
  Hf  Hf4  1  0.360173  0.360173  0.919480  1
  Hf  Hf5  1  0.860173  0.860173  0.419480  1
  As  As6  1  0.457203  0.042797  0.750000  1
  As  As7  1  0.042797  0.750000  0.750000  1
  As  As8  1  0.750000  0.457203  0.750000  1
  As  As9  1  0.957203  0.250000  0.250000  1
  As  As10  1  0.250000  0.542797  0.250000  1
  As  As11  1  0.542797  0.957203  0.250000  1
  O  O12  1  0.502851  0.875139  0.936749  1
  O  O13  1  0.875139  0.685260  0.936749  1
  O  O14  1  0.685260  0.502851  0.936749  1
  O  O15  1  0.002851  0.185260  0.436749  1
  O  O16  1  0.185260  0.375139  0.436749  1
  O  O17  1  0.375139  0.002851  0.436749  1
  O  O18  1  0.497149  0.124861  0.063251  1
  O  O19  1  0.124861  0.314740  0.063251  1
  O  O20  1  0.314740  0.497149  0.063251  1
  O  O21  1  0.997149  0.814740  0.563251  1
  O  O22  1  0.814740  0.624861  0.563251  1
  O  O23  1  0.624861  0.997149  0.563251  1
  O  O24  1  0.556873  0.757589  0.268033  1
  O  O25  1  0.757589  0.417503  0.268033  1
  O  O26  1  0.417503  0.556873  0.268033  1
  O  O27  1  0.056873  0.917503  0.768033  1
  O  O28  1  0.917503  0.257589  0.768033  1
  O  O29  1  0.257589  0.056873  0.768033  1
  O  O30  1  0.443127  0.242411  0.731967  1
  O  O31  1  0.242411  0.582497  0.731967  1
  O  O32  1  0.582497  0.443127  0.731967  1
  O  O33  1  0.943127  0.082497  0.231967  1
  O  O34  1  0.082497  0.742411  0.231967  1
  O  O35  1  0.742411  0.943127  0.231967  1
