# generated using pymatgen
data_Gd3Au4
_symmetry_space_group_name_H-M   'P 1'
_cell_length_a   6.11565723
_cell_length_b   8.07107246
_cell_length_c   8.07107300
_cell_angle_alpha   113.84781543
_cell_angle_beta   104.62994837
_cell_angle_gamma   104.62994573
_symmetry_Int_Tables_number   1
_chemical_formula_structural   Gd3Au4
_chemical_formula_sum   'Gd6 Au8'
_cell_volume   323.00378923
_cell_formula_units_Z   2
loop_
 _symmetry_equiv_pos_site_id
 _symmetry_equiv_pos_as_xyz
  1  'x, y, z'
loop_
 _atom_site_type_symbol
 _atom_site_label
 _atom_site_symmetry_multiplicity
 _atom_site_fract_x
 _atom_site_fract_y
 _atom_site_fract_z
 _atom_site_occupancy
  Gd  Gd0  1  0.398335  0.383592  0.125841  1
  Gd  Gd1  1  0.272494  0.874160  0.257752  1
  Gd  Gd2  1  0.985258  0.257752  0.383593  1
  Gd  Gd3  1  0.014743  0.742248  0.616407  1
  Gd  Gd4  1  0.727505  0.125840  0.742248  1
  Gd  Gd5  1  0.601665  0.616408  0.874160  1
  Au  Au6  1  0.499999  0.000000  0.999999  1
  Au  Au7  1  0.000000  0.000000  0.000000  1
  Au  Au8  1  0.927870  0.490138  0.161203  1
  Au  Au9  1  0.766666  0.838796  0.328933  1
  Au  Au10  1  0.562268  0.328934  0.490137  1
  Au  Au11  1  0.437733  0.671066  0.509862  1
  Au  Au12  1  0.233333  0.161204  0.671066  1
  Au  Au13  1  0.072130  0.509862  0.838796  1
