# generated using pymatgen
data_Tb(S8I)3
_symmetry_space_group_name_H-M   'P 1'
_cell_length_a   15.51610804
_cell_length_b   15.51610807
_cell_length_c   15.51610841
_cell_angle_alpha   119.19417289
_cell_angle_beta   119.19417635
_cell_angle_gamma   119.19417814
_symmetry_Int_Tables_number   1
_chemical_formula_structural   Tb(S8I)3
_chemical_formula_sum   'Tb1 S24 I3'
_cell_volume   869.15314553
_cell_formula_units_Z   1
loop_
 _symmetry_equiv_pos_site_id
 _symmetry_equiv_pos_as_xyz
  1  'x, y, z'
loop_
 _atom_site_type_symbol
 _atom_site_label
 _atom_site_symmetry_multiplicity
 _atom_site_fract_x
 _atom_site_fract_y
 _atom_site_fract_z
 _atom_site_occupancy
  Tb  Tb0  1  0.458697  0.458697  0.458697  1
  S  S1  1  0.993105  0.583195  0.583195  1
  S  S2  1  0.583195  0.583195  0.993105  1
  S  S3  1  0.583195  0.993105  0.583195  1
  S  S4  1  0.250108  0.856127  0.730254  1
  S  S5  1  0.856127  0.730254  0.250108  1
  S  S6  1  0.730254  0.250108  0.856127  1
  S  S7  1  0.856127  0.250108  0.730254  1
  S  S8  1  0.250108  0.730254  0.856127  1
  S  S9  1  0.730254  0.856127  0.250108  1
  S  S10  1  0.083793  0.608471  0.429922  1
  S  S11  1  0.608471  0.429922  0.083793  1
  S  S12  1  0.429922  0.083793  0.608471  1
  S  S13  1  0.608471  0.083793  0.429922  1
  S  S14  1  0.083793  0.429922  0.608471  1
  S  S15  1  0.429922  0.608471  0.083793  1
  S  S16  1  0.376706  0.764605  0.637802  1
  S  S17  1  0.764605  0.637802  0.376706  1
  S  S18  1  0.637802  0.376706  0.764605  1
  S  S19  1  0.764605  0.376706  0.637802  1
  S  S20  1  0.376706  0.637802  0.764605  1
  S  S21  1  0.637802  0.764605  0.376706  1
  S  S22  1  0.174816  0.455846  0.455846  1
  S  S23  1  0.455846  0.455846  0.174816  1
  S  S24  1  0.455846  0.174816  0.455846  1
  I  I25  1  0.054780  0.906022  0.906022  1
  I  I26  1  0.906022  0.906022  0.054780  1
  I  I27  1  0.906022  0.054780  0.906022  1
