# generated using pymatgen
data_TbTh3(Al8Pd3)3
_symmetry_space_group_name_H-M   'P 1'
_cell_length_a   7.63435854
_cell_length_b   7.65098015
_cell_length_c   13.24693617
_cell_angle_alpha   84.50337030
_cell_angle_beta   78.99576847
_cell_angle_gamma   59.91158933
_symmetry_Int_Tables_number   1
_chemical_formula_structural   TbTh3(Al8Pd3)3
_chemical_formula_sum   'Tb1 Th3 Al24 Pd9'
_cell_volume   657.18621443
_cell_formula_units_Z   1
loop_
 _symmetry_equiv_pos_site_id
 _symmetry_equiv_pos_as_xyz
  1  'x, y, z'
loop_
 _atom_site_type_symbol
 _atom_site_label
 _atom_site_symmetry_multiplicity
 _atom_site_fract_x
 _atom_site_fract_y
 _atom_site_fract_z
 _atom_site_occupancy
  Tb  Tb0  1  0.394661  0.167836  0.807157  1
  Th  Th1  1  0.605212  0.832553  0.192525  1
  Th  Th2  1  0.733310  0.498847  0.806764  1
  Th  Th3  1  0.266839  0.501198  0.192525  1
  Al  Al4  1  0.684600  0.836251  0.943249  1
  Al  Al5  1  0.314011  0.166599  0.051659  1
  Al  Al6  1  0.144449  0.833895  0.562709  1
  Al  Al7  1  0.854079  0.166018  0.440057  1
  Al  Al8  1  0.479836  0.166847  0.560636  1
  Al  Al9  1  0.519123  0.833668  0.442250  1
  Al  Al10  1  0.211623  0.165224  0.335829  1
  Al  Al11  1  0.783849  0.837869  0.666699  1
  Al  Al12  1  0.434804  0.507028  0.666819  1
  Al  Al13  1  0.564883  0.489391  0.335938  1
  Al  Al14  1  0.114071  0.156274  0.665440  1
  Al  Al15  1  0.888266  0.844384  0.337542  1
  Al  Al16  1  0.349913  0.499559  0.943329  1
  Al  Al17  1  0.652120  0.496564  0.053067  1
  Al  Al18  1  0.017465  0.165453  0.953491  1
  Al  Al19  1  0.986256  0.835039  0.041292  1
  Al  Al20  1  0.186713  0.499750  0.442283  1
  Al  Al21  1  0.813161  0.499859  0.559103  1
  Al  Al22  1  0.738120  0.163540  0.184068  1
  Al  Al23  1  0.263032  0.838926  0.815623  1
  Al  Al24  1  0.063676  0.631552  0.814009  1
  Al  Al25  1  0.938948  0.364973  0.185544  1
  Al  Al26  1  0.856569  0.038449  0.815260  1
  Al  Al27  1  0.140430  0.962643  0.184088  1
  Pd  Pd28  1  0.119974  0.492633  0.637963  1
  Pd  Pd29  1  0.879845  0.507683  0.362129  1
  Pd  Pd30  1  0.657303  0.171177  0.999864  1
  Pd  Pd31  1  0.342700  0.828485  0.000280  1
  Pd  Pd32  1  0.537717  0.167049  0.362400  1
  Pd  Pd33  1  0.462271  0.832790  0.637982  1
  Pd  Pd34  1  0.778733  0.175099  0.637715  1
  Pd  Pd35  1  0.221537  0.824883  0.362624  1
  Pd  Pd36  1  0.999906  0.500008  0.000084  1
