# generated using pymatgen
data_Ho2Al9IrPd2
_symmetry_space_group_name_H-M   'P 1'
_cell_length_a   7.60061454
_cell_length_b   7.60061437
_cell_length_c   9.43868100
_cell_angle_alpha   90.00000000
_cell_angle_beta   90.00000000
_cell_angle_gamma   119.63597790
_symmetry_Int_Tables_number   1
_chemical_formula_structural   Ho2Al9IrPd2
_chemical_formula_sum   'Ho4 Al18 Ir2 Pd4'
_cell_volume   473.93713199
_cell_formula_units_Z   2
loop_
 _symmetry_equiv_pos_site_id
 _symmetry_equiv_pos_as_xyz
  1  'x, y, z'
loop_
 _atom_site_type_symbol
 _atom_site_label
 _atom_site_symmetry_multiplicity
 _atom_site_fract_x
 _atom_site_fract_y
 _atom_site_fract_z
 _atom_site_occupancy
  Ho  Ho0  1  0.994366  0.668947  0.250000  1
  Ho  Ho1  1  0.005634  0.331053  0.750000  1
  Ho  Ho2  1  0.668947  0.994366  0.250000  1
  Ho  Ho3  1  0.331053  0.005634  0.750000  1
  Al  Al4  1  0.127459  0.127459  0.250000  1
  Al  Al5  1  0.872541  0.872541  0.750000  1
  Al  Al6  1  0.999764  0.331418  0.076053  1
  Al  Al7  1  0.000236  0.668582  0.923947  1
  Al  Al8  1  0.000236  0.668582  0.576053  1
  Al  Al9  1  0.331418  0.999764  0.423947  1
  Al  Al10  1  0.999764  0.331418  0.423947  1
  Al  Al11  1  0.668582  0.000236  0.576053  1
  Al  Al12  1  0.668582  0.000236  0.923947  1
  Al  Al13  1  0.331418  0.999764  0.076053  1
  Al  Al14  1  0.330616  0.330616  0.556996  1
  Al  Al15  1  0.669384  0.669384  0.443004  1
  Al  Al16  1  0.669384  0.669384  0.056996  1
  Al  Al17  1  0.330616  0.330616  0.943004  1
  Al  Al18  1  0.340184  0.547591  0.250000  1
  Al  Al19  1  0.659816  0.452409  0.750000  1
  Al  Al20  1  0.547591  0.340184  0.250000  1
  Al  Al21  1  0.452409  0.659816  0.750000  1
  Ir  Ir22  1  0.000000  0.000000  0.000000  1
  Ir  Ir23  1  0.000000  0.000000  0.500000  1
  Pd  Pd24  1  0.672344  0.327656  0.000000  1
  Pd  Pd25  1  0.327656  0.672344  0.000000  1
  Pd  Pd26  1  0.327656  0.672344  0.500000  1
  Pd  Pd27  1  0.672344  0.327656  0.500000  1
