# generated using pymatgen
data_Cs6YNpBr12
_symmetry_space_group_name_H-M   'P 1'
_cell_length_a   10.05703517
_cell_length_b   10.05015054
_cell_length_c   8.34743300
_cell_angle_alpha   90.00000000
_cell_angle_beta   90.00000000
_cell_angle_gamma   89.73859848
_symmetry_Int_Tables_number   1
_chemical_formula_structural   Cs6YNpBr12
_chemical_formula_sum   'Cs6 Y1 Np1 Br12'
_cell_volume   843.70565091
_cell_formula_units_Z   1
loop_
 _symmetry_equiv_pos_site_id
 _symmetry_equiv_pos_as_xyz
  1  'x, y, z'
loop_
 _atom_site_type_symbol
 _atom_site_label
 _atom_site_symmetry_multiplicity
 _atom_site_fract_x
 _atom_site_fract_y
 _atom_site_fract_z
 _atom_site_occupancy
  Cs  Cs0  1  0.000000  0.000000  0.500000  1
  Cs  Cs1  1  0.000000  0.000000  0.000000  1
  Cs  Cs2  1  0.233268  0.582307  0.500000  1
  Cs  Cs3  1  0.766732  0.417693  0.500000  1
  Cs  Cs4  1  0.417235  0.237735  0.000000  1
  Cs  Cs5  1  0.582765  0.762265  0.000000  1
  Y  Y6  1  0.000000  0.500000  0.000000  1
  Np  Np7  1  0.500000  0.000000  0.500000  1
  Br  Br8  1  0.697519  0.058886  0.743966  1
  Br  Br9  1  0.302481  0.941114  0.743966  1
  Br  Br10  1  0.943630  0.691446  0.238911  1
  Br  Br11  1  0.056370  0.308554  0.238911  1
  Br  Br12  1  0.302481  0.941114  0.256034  1
  Br  Br13  1  0.697519  0.058886  0.256034  1
  Br  Br14  1  0.056370  0.308554  0.761089  1
  Br  Br15  1  0.943630  0.691446  0.761089  1
  Br  Br16  1  0.567826  0.719987  0.500000  1
  Br  Br17  1  0.432174  0.280013  0.500000  1
  Br  Br18  1  0.271094  0.569293  0.000000  1
  Br  Br19  1  0.728906  0.430707  0.000000  1
