# generated using pymatgen
data_Nb6Al2Pt2CN
_symmetry_space_group_name_H-M   'P 1'
_cell_length_a   7.09378395
_cell_length_b   7.09538695
_cell_length_c   7.09293800
_cell_angle_alpha   90.00000000
_cell_angle_beta   90.00000000
_cell_angle_gamma   89.87906207
_symmetry_Int_Tables_number   1
_chemical_formula_structural   Nb6Al2Pt2CN
_chemical_formula_sum   'Nb12 Al4 Pt4 C2 N2'
_cell_volume   357.00906082
_cell_formula_units_Z   2
loop_
 _symmetry_equiv_pos_site_id
 _symmetry_equiv_pos_as_xyz
  1  'x, y, z'
loop_
 _atom_site_type_symbol
 _atom_site_label
 _atom_site_symmetry_multiplicity
 _atom_site_fract_x
 _atom_site_fract_y
 _atom_site_fract_z
 _atom_site_occupancy
  Nb  Nb0  1  0.791957  0.955382  0.377958  1
  Nb  Nb1  1  0.708043  0.044618  0.877958  1
  Nb  Nb2  1  0.211098  0.456055  0.122710  1
  Nb  Nb3  1  0.288902  0.543945  0.622710  1
  Nb  Nb4  1  0.955970  0.377017  0.790976  1
  Nb  Nb5  1  0.044309  0.877752  0.709568  1
  Nb  Nb6  1  0.455691  0.122248  0.209568  1
  Nb  Nb7  1  0.544030  0.622983  0.290976  1
  Nb  Nb8  1  0.375698  0.789905  0.955775  1
  Nb  Nb9  1  0.878750  0.708474  0.044081  1
  Nb  Nb10  1  0.124302  0.210095  0.455775  1
  Nb  Nb11  1  0.621250  0.291526  0.544081  1
  Al  Al12  1  0.571807  0.429261  0.928428  1
  Al  Al13  1  0.429101  0.927864  0.571039  1
  Al  Al14  1  0.928193  0.570739  0.428428  1
  Al  Al15  1  0.070899  0.072136  0.071039  1
  Pt  Pt16  1  0.175703  0.822501  0.322456  1
  Pt  Pt17  1  0.324297  0.177499  0.822456  1
  Pt  Pt18  1  0.821297  0.323308  0.177289  1
  Pt  Pt19  1  0.678703  0.676692  0.677289  1
  C  C20  1  0.875193  0.127048  0.625097  1
  C  C21  1  0.624807  0.872952  0.125097  1
  N  N22  1  0.125724  0.623117  0.874623  1
  N  N23  1  0.374276  0.376883  0.374623  1
