# generated using pymatgen
data_TbY3Ga18(CoPd)3
_symmetry_space_group_name_H-M   'P 1'
_cell_length_a   7.53027150
_cell_length_b   7.53007384
_cell_length_c   9.49104501
_cell_angle_alpha   90.12785272
_cell_angle_beta   90.12869217
_cell_angle_gamma   119.74453352
_symmetry_Int_Tables_number   1
_chemical_formula_structural   TbY3Ga18(CoPd)3
_chemical_formula_sum   'Tb1 Y3 Ga18 Co3 Pd3'
_cell_volume   467.26413763
_cell_formula_units_Z   1
loop_
 _symmetry_equiv_pos_site_id
 _symmetry_equiv_pos_as_xyz
  1  'x, y, z'
loop_
 _atom_site_type_symbol
 _atom_site_label
 _atom_site_symmetry_multiplicity
 _atom_site_fract_x
 _atom_site_fract_y
 _atom_site_fract_z
 _atom_site_occupancy
  Tb  Tb0  1  0.668866  0.997113  0.749898  1
  Y  Y1  1  0.331593  0.003519  0.250787  1
  Y  Y2  1  0.996482  0.668408  0.749218  1
  Y  Y3  1  0.002897  0.331110  0.250105  1
  Ga  Ga4  1  0.011474  0.666135  0.077687  1
  Ga  Ga5  1  0.674200  0.011130  0.427063  1
  Ga  Ga6  1  0.992286  0.665874  0.427271  1
  Ga  Ga7  1  0.010024  0.343266  0.922483  1
  Ga  Ga8  1  0.656749  0.989969  0.077493  1
  Ga  Ga9  1  0.333842  0.988522  0.922304  1
  Ga  Ga10  1  0.675911  0.669570  0.560254  1
  Ga  Ga11  1  0.334745  0.342014  0.064665  1
  Ga  Ga12  1  0.657997  0.665248  0.935332  1
  Ga  Ga13  1  0.330424  0.324098  0.439753  1
  Ga  Ga14  1  0.124510  0.124981  0.741984  1
  Ga  Ga15  1  0.875037  0.875499  0.258016  1
  Ga  Ga16  1  0.662128  0.452892  0.258630  1
  Ga  Ga17  1  0.337265  0.547047  0.755593  1
  Ga  Ga18  1  0.452946  0.662765  0.244403  1
  Ga  Ga19  1  0.547079  0.337841  0.741371  1
  Ga  Ga20  1  0.334108  0.007707  0.572740  1
  Ga  Ga21  1  0.988884  0.325836  0.572941  1
  Co  Co22  1  0.330322  0.669672  0.000025  1
  Co  Co23  1  0.670171  0.329824  0.499983  1
  Co  Co24  1  0.999451  0.000557  0.499976  1
  Pd  Pd25  1  0.671175  0.328833  0.000021  1
  Pd  Pd26  1  0.328900  0.671088  0.499977  1
  Pd  Pd27  1  0.000533  0.999481  0.000027  1
