# generated using pymatgen
data_Er7Mg(Sn11Ru3)2
_symmetry_space_group_name_H-M   'P 1'
_cell_length_a   9.82060600
_cell_length_b   9.82060626
_cell_length_c   10.04724900
_cell_angle_alpha   90.00000000
_cell_angle_beta   90.00000000
_cell_angle_gamma   120.00000586
_symmetry_Int_Tables_number   1
_chemical_formula_structural   Er7Mg(Sn11Ru3)2
_chemical_formula_sum   'Er7 Mg1 Sn22 Ru6'
_cell_volume   839.17851875
_cell_formula_units_Z   1
loop_
 _symmetry_equiv_pos_site_id
 _symmetry_equiv_pos_as_xyz
  1  'x, y, z'
loop_
 _atom_site_type_symbol
 _atom_site_label
 _atom_site_symmetry_multiplicity
 _atom_site_fract_x
 _atom_site_fract_y
 _atom_site_fract_z
 _atom_site_occupancy
  Er  Er0  1  0.485072  0.514928  0.306114  1
  Er  Er1  1  0.514928  0.485072  0.693886  1
  Er  Er2  1  0.485072  0.970146  0.306114  1
  Er  Er3  1  0.514928  0.029854  0.693886  1
  Er  Er4  1  0.029854  0.514928  0.306114  1
  Er  Er5  1  0.970146  0.485072  0.693886  1
  Er  Er6  1  0.000000  0.000000  0.000000  1
  Mg  Mg7  1  0.000000  0.000000  0.500000  1
  Sn  Sn8  1  0.122306  0.877694  0.269372  1
  Sn  Sn9  1  0.877694  0.122306  0.730628  1
  Sn  Sn10  1  0.122306  0.244613  0.269372  1
  Sn  Sn11  1  0.877694  0.755387  0.730628  1
  Sn  Sn12  1  0.755387  0.877694  0.269372  1
  Sn  Sn13  1  0.244613  0.122306  0.730628  1
  Sn  Sn14  1  0.780161  0.219839  0.463869  1
  Sn  Sn15  1  0.219839  0.780161  0.536131  1
  Sn  Sn16  1  0.780161  0.560323  0.463869  1
  Sn  Sn17  1  0.219839  0.439677  0.536131  1
  Sn  Sn18  1  0.439677  0.219839  0.463869  1
  Sn  Sn19  1  0.560323  0.780161  0.536131  1
  Sn  Sn20  1  0.348939  0.000000  0.000000  1
  Sn  Sn21  1  0.651061  0.000000  0.000000  1
  Sn  Sn22  1  0.000000  0.348939  0.000000  1
  Sn  Sn23  1  0.000000  0.651061  0.000000  1
  Sn  Sn24  1  0.651061  0.651061  0.000000  1
  Sn  Sn25  1  0.348939  0.348939  0.000000  1
  Sn  Sn26  1  0.333333  0.666667  0.132339  1
  Sn  Sn27  1  0.666667  0.333333  0.867661  1
  Sn  Sn28  1  0.333333  0.666667  0.824072  1
  Sn  Sn29  1  0.666667  0.333333  0.175928  1
  Ru  Ru30  1  0.830644  0.169356  0.204034  1
  Ru  Ru31  1  0.169356  0.830644  0.795966  1
  Ru  Ru32  1  0.830644  0.661289  0.204034  1
  Ru  Ru33  1  0.169356  0.338711  0.795966  1
  Ru  Ru34  1  0.338711  0.169356  0.204034  1
  Ru  Ru35  1  0.661289  0.830644  0.795966  1
