# generated using pymatgen
data_Ho10ErTh5(InRu)4
_symmetry_space_group_name_H-M   'P 1'
_cell_length_a   9.65752396
_cell_length_b   9.74904119
_cell_length_c   9.74904197
_cell_angle_alpha   60.00523173
_cell_angle_beta   60.31004579
_cell_angle_gamma   60.31004908
_symmetry_Int_Tables_number   1
_chemical_formula_structural   Ho10ErTh5(InRu)4
_chemical_formula_sum   'Ho10 Er1 Th5 In4 Ru4'
_cell_volume   652.09581716
_cell_formula_units_Z   1
loop_
 _symmetry_equiv_pos_site_id
 _symmetry_equiv_pos_as_xyz
  1  'x, y, z'
loop_
 _atom_site_type_symbol
 _atom_site_label
 _atom_site_symmetry_multiplicity
 _atom_site_fract_x
 _atom_site_fract_y
 _atom_site_fract_z
 _atom_site_occupancy
  Ho  Ho0  1  0.193489  0.807474  0.186782  1
  Ho  Ho1  1  0.812255  0.186782  0.807474  1
  Ho  Ho2  1  0.193489  0.186782  0.807474  1
  Ho  Ho3  1  0.812255  0.807474  0.186782  1
  Ho  Ho4  1  0.934683  0.565317  0.565317  1
  Ho  Ho5  1  0.562291  0.937709  0.937709  1
  Ho  Ho6  1  0.560331  0.938108  0.562846  1
  Ho  Ho7  1  0.938714  0.562846  0.938108  1
  Ho  Ho8  1  0.560331  0.562846  0.938108  1
  Ho  Ho9  1  0.938714  0.938108  0.562846  1
  Er  Er10  1  0.188167  0.811833  0.811833  1
  Th  Th11  1  0.342779  0.349919  0.349919  1
  Th  Th12  1  0.347017  0.349372  0.956592  1
  Th  Th13  1  0.347017  0.956592  0.349372  1
  Th  Th14  1  0.957383  0.349919  0.349919  1
  Th  Th15  1  0.815611  0.184389  0.184389  1
  In  In16  1  0.583581  0.583302  0.583302  1
  In  In17  1  0.582641  0.585612  0.249107  1
  In  In18  1  0.582641  0.249107  0.585612  1
  In  In19  1  0.249818  0.583302  0.583302  1
  Ru  Ru20  1  0.128271  0.146697  0.146697  1
  Ru  Ru21  1  0.145094  0.140923  0.568887  1
  Ru  Ru22  1  0.145094  0.568887  0.140923  1
  Ru  Ru23  1  0.578334  0.146697  0.146697  1
