# generated using pymatgen
data_Y2ErPa(Pd2Pb)2
_symmetry_space_group_name_H-M   'P 1'
_cell_length_a   7.96372098
_cell_length_b   7.96372024
_cell_length_c   3.59483200
_cell_angle_alpha   90.00000000
_cell_angle_beta   90.00000000
_cell_angle_gamma   92.02235108
_symmetry_Int_Tables_number   1
_chemical_formula_structural   Y2ErPa(Pd2Pb)2
_chemical_formula_sum   'Y2 Er1 Pa1 Pd4 Pb2'
_cell_volume   227.84528167
_cell_formula_units_Z   1
loop_
 _symmetry_equiv_pos_site_id
 _symmetry_equiv_pos_as_xyz
  1  'x, y, z'
loop_
 _atom_site_type_symbol
 _atom_site_label
 _atom_site_symmetry_multiplicity
 _atom_site_fract_x
 _atom_site_fract_y
 _atom_site_fract_z
 _atom_site_occupancy
  Y  Y0  1  0.170102  0.330360  0.500000  1
  Y  Y1  1  0.830360  0.670102  0.500000  1
  Er  Er2  1  0.327357  0.827357  0.500000  1
  Pa  Pa3  1  0.668741  0.168741  0.500000  1
  Pd  Pd4  1  0.383435  0.128631  0.000000  1
  Pd  Pd5  1  0.123338  0.623338  0.000000  1
  Pd  Pd6  1  0.628631  0.883435  0.000000  1
  Pd  Pd7  1  0.865397  0.365397  0.000000  1
  Pb  Pb8  1  0.007137  0.995501  0.000000  1
  Pb  Pb9  1  0.495501  0.507137  0.000000  1
