# generated using pymatgen
data_HoEr7Sc12(SiGe)8
_symmetry_space_group_name_H-M   'P 1'
_cell_length_a   7.14587278
_cell_length_b   7.38374507
_cell_length_c   14.02516841
_cell_angle_alpha   90.00206498
_cell_angle_beta   90.05122898
_cell_angle_gamma   89.98453398
_symmetry_Int_Tables_number   1
_chemical_formula_structural   HoEr7Sc12(SiGe)8
_chemical_formula_sum   'Ho1 Er7 Sc12 Si8 Ge8'
_cell_volume   740.01388538
_cell_formula_units_Z   1
loop_
 _symmetry_equiv_pos_site_id
 _symmetry_equiv_pos_as_xyz
  1  'x, y, z'
loop_
 _atom_site_type_symbol
 _atom_site_label
 _atom_site_symmetry_multiplicity
 _atom_site_fract_x
 _atom_site_fract_y
 _atom_site_fract_z
 _atom_site_occupancy
  Ho  Ho0  1  0.497050  0.677352  0.598279  1
  Er  Er1  1  0.002500  0.177513  0.098516  1
  Er  Er2  1  0.997278  0.822490  0.901686  1
  Er  Er3  1  0.497428  0.677565  0.901485  1
  Er  Er4  1  0.997158  0.822825  0.598521  1
  Er  Er5  1  0.502517  0.322471  0.098541  1
  Er  Er6  1  0.002817  0.177424  0.401318  1
  Er  Er7  1  0.503096  0.322485  0.401291  1
  Sc  Sc8  1  0.173013  0.500732  0.750300  1
  Sc  Sc9  1  0.826971  0.498990  0.249859  1
  Sc  Sc10  1  0.326914  0.000827  0.249860  1
  Sc  Sc11  1  0.673182  0.999238  0.750159  1
  Sc  Sc12  1  0.342458  0.172259  0.626346  1
  Sc  Sc13  1  0.657758  0.827673  0.373494  1
  Sc  Sc14  1  0.157707  0.672432  0.373469  1
  Sc  Sc15  1  0.657034  0.827697  0.126321  1
  Sc  Sc16  1  0.842416  0.327248  0.626386  1
  Sc  Sc17  1  0.342808  0.172299  0.873796  1
  Sc  Sc18  1  0.842764  0.327665  0.873848  1
  Sc  Sc19  1  0.157343  0.672313  0.126247  1
  Si  Si20  1  0.044645  0.116150  0.750079  1
  Si  Si21  1  0.955498  0.883749  0.249920  1
  Si  Si22  1  0.455583  0.616210  0.249982  1
  Si  Si23  1  0.544652  0.383455  0.750029  1
  Si  Si24  1  0.295518  0.870746  0.750163  1
  Si  Si25  1  0.704237  0.129468  0.249957  1
  Si  Si26  1  0.204316  0.370451  0.249979  1
  Si  Si27  1  0.795962  0.629404  0.750151  1
  Ge  Ge28  1  0.175635  0.460167  0.540550  1
  Ge  Ge29  1  0.824384  0.539663  0.459380  1
  Ge  Ge30  1  0.323456  0.960587  0.459316  1
  Ge  Ge31  1  0.822860  0.539610  0.040832  1
  Ge  Ge32  1  0.676753  0.039988  0.540075  1
  Ge  Ge33  1  0.177078  0.460285  0.959584  1
  Ge  Ge34  1  0.676734  0.039748  0.959698  1
  Ge  Ge35  1  0.322475  0.960818  0.040582  1
