# generated using pymatgen
data_Zr6AlSi12Rh5
_symmetry_space_group_name_H-M   'P 1'
_cell_length_a   10.02759162
_cell_length_b   10.02556331
_cell_length_c   10.03507200
_cell_angle_alpha   148.69897591
_cell_angle_beta   133.67181820
_cell_angle_gamma   56.96273091
_symmetry_Int_Tables_number   1
_chemical_formula_structural   Zr6AlSi12Rh5
_chemical_formula_sum   'Zr6 Al1 Si12 Rh5'
_cell_volume   376.39978774
_cell_formula_units_Z   1
loop_
 _symmetry_equiv_pos_site_id
 _symmetry_equiv_pos_as_xyz
  1  'x, y, z'
loop_
 _atom_site_type_symbol
 _atom_site_label
 _atom_site_symmetry_multiplicity
 _atom_site_fract_x
 _atom_site_fract_y
 _atom_site_fract_z
 _atom_site_occupancy
  Zr  Zr0  1  0.347942  0.103641  0.262405  1
  Zr  Zr1  1  0.652058  0.896359  0.737595  1
  Zr  Zr2  1  0.163279  0.909673  0.258211  1
  Zr  Zr3  1  0.836721  0.090327  0.741789  1
  Zr  Zr4  1  0.634812  0.630027  0.987556  1
  Zr  Zr5  1  0.365188  0.369973  0.012444  1
  Al  Al6  1  0.500000  0.500000  0.500000  1
  Si  Si7  1  0.002156  0.780156  0.779551  1
  Si  Si8  1  0.997844  0.219844  0.220449  1
  Si  Si9  1  0.500687  0.228508  0.730911  1
  Si  Si10  1  0.499313  0.771492  0.269089  1
  Si  Si11  1  0.196306  0.189060  0.981315  1
  Si  Si12  1  0.803694  0.810940  0.018685  1
  Si  Si13  1  0.290783  0.806073  0.505575  1
  Si  Si14  1  0.709217  0.193927  0.494425  1
  Si  Si15  1  0.722813  0.356751  0.343556  1
  Si  Si16  1  0.277187  0.643249  0.656444  1
  Si  Si17  1  0.989998  0.634679  0.348184  1
  Si  Si18  1  0.010002  0.365321  0.651816  1
  Rh  Rh19  1  0.500000  0.000000  0.000000  1
  Rh  Rh20  1  0.000000  0.000000  0.500000  1
  Rh  Rh21  1  0.000000  0.500000  0.000000  1
  Rh  Rh22  1  0.242705  0.497866  0.744012  1
  Rh  Rh23  1  0.757295  0.502134  0.255988  1
