# generated using pymatgen
data_Mg4ZnP5Ir7
_symmetry_space_group_name_H-M   'P 1'
_cell_length_a   6.90227457
_cell_length_b   6.90227465
_cell_length_c   6.90227457
_cell_angle_alpha   110.63556057
_cell_angle_beta   107.16684369
_cell_angle_gamma   110.63555304
_symmetry_Int_Tables_number   1
_chemical_formula_structural   Mg4ZnP5Ir7
_chemical_formula_sum   'Mg4 Zn1 P5 Ir7'
_cell_volume   252.83093492
_cell_formula_units_Z   1
loop_
 _symmetry_equiv_pos_site_id
 _symmetry_equiv_pos_as_xyz
  1  'x, y, z'
loop_
 _atom_site_type_symbol
 _atom_site_label
 _atom_site_symmetry_multiplicity
 _atom_site_fract_x
 _atom_site_fract_y
 _atom_site_fract_z
 _atom_site_occupancy
  Mg  Mg0  1  0.503436  0.497315  0.503436  1
  Mg  Mg1  1  0.006121  0.000000  0.503436  1
  Mg  Mg2  1  0.503436  0.000000  0.006121  1
  Mg  Mg3  1  0.006121  0.502685  0.006121  1
  Zn  Zn4  1  0.294649  0.000000  0.294649  1
  P  P5  1  0.672464  0.000000  0.672464  1
  P  P6  1  0.997217  0.685885  0.683102  1
  P  P7  1  0.997217  0.314115  0.311332  1
  P  P8  1  0.683102  0.685885  0.997217  1
  P  P9  1  0.311332  0.314115  0.997217  1
  Ir  Ir10  1  0.978509  0.000000  0.978509  1
  Ir  Ir11  1  0.254951  0.745484  0.509467  1
  Ir  Ir12  1  0.254265  0.500000  0.754265  1
  Ir  Ir13  1  0.509467  0.745484  0.254951  1
  Ir  Ir14  1  0.509467  0.254516  0.763982  1
  Ir  Ir15  1  0.763982  0.254516  0.509467  1
  Ir  Ir16  1  0.754265  0.500000  0.254265  1
