# generated using pymatgen
data_Li2TiIr4W
_symmetry_space_group_name_H-M   'P 1'
_cell_length_a   4.30205500
_cell_length_b   6.06271800
_cell_length_c   12.87195200
_cell_angle_alpha   90.00000000
_cell_angle_beta   90.00053344
_cell_angle_gamma   90.00000000
_symmetry_Int_Tables_number   1
_chemical_formula_structural   Li2TiIr4W
_chemical_formula_sum   'Li6 Ti3 Ir12 W3'
_cell_volume   335.72813504
_cell_formula_units_Z   3
loop_
 _symmetry_equiv_pos_site_id
 _symmetry_equiv_pos_as_xyz
  1  'x, y, z'
loop_
 _atom_site_type_symbol
 _atom_site_label
 _atom_site_symmetry_multiplicity
 _atom_site_fract_x
 _atom_site_fract_y
 _atom_site_fract_z
 _atom_site_occupancy
  Li  Li0  1  0.999995  0.500000  0.998848  1
  Li  Li1  1  0.499836  0.000000  0.166640  1
  Li  Li2  1  0.999843  0.500000  0.334479  1
  Li  Li3  1  0.499995  0.000000  0.501590  1
  Li  Li4  1  0.000161  0.500000  0.666668  1
  Li  Li5  1  0.500159  0.000000  0.831770  1
  Ti  Ti6  1  0.500010  0.500000  0.504316  1
  Ti  Ti7  1  0.000147  0.000000  0.666658  1
  Ti  Ti8  1  0.500151  0.500000  0.828998  1
  Ir  Ir9  1  0.499996  0.249875  0.001333  1
  Ir  Ir10  1  0.499996  0.750126  0.001333  1
  Ir  Ir11  1  0.999853  0.247883  0.166681  1
  Ir  Ir12  1  0.999853  0.752117  0.166681  1
  Ir  Ir13  1  0.499852  0.249845  0.332018  1
  Ir  Ir14  1  0.499852  0.750155  0.332018  1
  Ir  Ir15  1  0.000004  0.250942  0.499530  1
  Ir  Ir16  1  0.000004  0.749058  0.499530  1
  Ir  Ir17  1  0.500155  0.250298  0.666649  1
  Ir  Ir18  1  0.500155  0.749702  0.666649  1
  Ir  Ir19  1  0.000150  0.250927  0.833789  1
  Ir  Ir20  1  0.000150  0.749073  0.833789  1
  W  W21  1  0.999997  0.000000  0.995391  1
  W  W22  1  0.499842  0.500000  0.166688  1
  W  W23  1  0.999849  0.000000  0.337957  1
