# generated using pymatgen
data_LuTh2(MgAu)3
_symmetry_space_group_name_H-M   'P 1'
_cell_length_a   7.67697110
_cell_length_b   7.67697069
_cell_length_c   4.18248100
_cell_angle_alpha   90.00000000
_cell_angle_beta   90.00000000
_cell_angle_gamma   119.95844555
_symmetry_Int_Tables_number   1
_chemical_formula_structural   LuTh2(MgAu)3
_chemical_formula_sum   'Lu1 Th2 Mg3 Au3'
_cell_volume   213.56304125
_cell_formula_units_Z   1
loop_
 _symmetry_equiv_pos_site_id
 _symmetry_equiv_pos_as_xyz
  1  'x, y, z'
loop_
 _atom_site_type_symbol
 _atom_site_label
 _atom_site_symmetry_multiplicity
 _atom_site_fract_x
 _atom_site_fract_y
 _atom_site_fract_z
 _atom_site_occupancy
  Lu  Lu0  1  0.411302  0.411302  0.000000  1
  Th  Th1  1  0.586801  0.999753  0.000000  1
  Th  Th2  1  0.999753  0.586801  0.000000  1
  Mg  Mg3  1  0.245181  0.007343  0.500000  1
  Mg  Mg4  1  0.007343  0.245181  0.500000  1
  Mg  Mg5  1  0.750856  0.750856  0.500000  1
  Au  Au6  1  0.335109  0.661906  0.500000  1
  Au  Au7  1  0.661906  0.335109  0.500000  1
  Au  Au8  1  0.001750  0.001750  0.000000  1
