# generated using pymatgen
data_Ho6TmZn(Co3Sn11)2
_symmetry_space_group_name_H-M   'P 1'
_cell_length_a   9.64940403
_cell_length_b   9.64940277
_cell_length_c   9.93642804
_cell_angle_alpha   89.99070487
_cell_angle_beta   90.00929684
_cell_angle_gamma   119.99992185
_symmetry_Int_Tables_number   1
_chemical_formula_structural   Ho6TmZn(Co3Sn11)2
_chemical_formula_sum   'Ho6 Tm1 Zn1 Co6 Sn22'
_cell_volume   801.23919041
_cell_formula_units_Z   1
loop_
 _symmetry_equiv_pos_site_id
 _symmetry_equiv_pos_as_xyz
  1  'x, y, z'
loop_
 _atom_site_type_symbol
 _atom_site_label
 _atom_site_symmetry_multiplicity
 _atom_site_fract_x
 _atom_site_fract_y
 _atom_site_fract_z
 _atom_site_occupancy
  Ho  Ho0  1  0.000009  0.999991  0.999987  1
  Ho  Ho1  1  0.520699  0.041367  0.693929  1
  Ho  Ho2  1  0.958633  0.479301  0.693929  1
  Ho  Ho3  1  0.041359  0.520667  0.306073  1
  Ho  Ho4  1  0.479333  0.958641  0.306073  1
  Ho  Ho5  1  0.479317  0.520683  0.306172  1
  Tm  Tm6  1  0.520508  0.479492  0.693951  1
  Zn  Zn7  1  0.000004  0.999996  0.500019  1
  Co  Co8  1  0.167788  0.832212  0.802715  1
  Co  Co9  1  0.168045  0.335694  0.802658  1
  Co  Co10  1  0.664306  0.831955  0.802658  1
  Co  Co11  1  0.335598  0.167797  0.197266  1
  Co  Co12  1  0.832203  0.664402  0.197266  1
  Co  Co13  1  0.832188  0.167812  0.197255  1
  Sn  Sn14  1  0.666665  0.333335  0.181142  1
  Sn  Sn15  1  0.666452  0.333548  0.879920  1
  Sn  Sn16  1  0.333341  0.666659  0.119787  1
  Sn  Sn17  1  0.346094  0.346094  0.999916  1
  Sn  Sn18  1  0.999992  0.653961  0.999978  1
  Sn  Sn19  1  0.653937  0.999947  0.999998  1
  Sn  Sn20  1  0.653906  0.653906  0.999916  1
  Sn  Sn21  1  0.333396  0.666604  0.818846  1
  Sn  Sn22  1  0.434026  0.217143  0.453655  1
  Sn  Sn23  1  0.217002  0.782998  0.546511  1
  Sn  Sn24  1  0.217304  0.434029  0.546663  1
  Sn  Sn25  1  0.565971  0.782696  0.546663  1
  Sn  Sn26  1  0.113970  0.886030  0.276341  1
  Sn  Sn27  1  0.782857  0.565974  0.453655  1
  Sn  Sn28  1  0.783000  0.217000  0.453508  1
  Sn  Sn29  1  0.346039  0.000008  0.999978  1
  Sn  Sn30  1  0.113972  0.227946  0.276324  1
  Sn  Sn31  1  0.772054  0.886028  0.276324  1
  Sn  Sn32  1  0.228121  0.114187  0.723636  1
  Sn  Sn33  1  0.885813  0.771879  0.723636  1
  Sn  Sn34  1  0.886048  0.113952  0.723651  1
  Sn  Sn35  1  0.000053  0.346063  0.999998  1
