# generated using pymatgen
data_CsZn4BiO7
_symmetry_space_group_name_H-M   'P 1'
_cell_length_a   6.40989500
_cell_length_b   6.40989533
_cell_length_c   10.42711400
_cell_angle_alpha   90.00000000
_cell_angle_beta   90.00000000
_cell_angle_gamma   120.00000345
_symmetry_Int_Tables_number   1
_chemical_formula_structural   CsZn4BiO7
_chemical_formula_sum   'Cs2 Zn8 Bi2 O14'
_cell_volume   371.01937686
_cell_formula_units_Z   2
loop_
 _symmetry_equiv_pos_site_id
 _symmetry_equiv_pos_as_xyz
  1  'x, y, z'
loop_
 _atom_site_type_symbol
 _atom_site_label
 _atom_site_symmetry_multiplicity
 _atom_site_fract_x
 _atom_site_fract_y
 _atom_site_fract_z
 _atom_site_occupancy
  Cs  Cs0  1  0.333333  0.666667  0.821599  1
  Cs  Cs1  1  0.666667  0.333333  0.321599  1
  Zn  Zn2  1  0.000000  0.000000  0.251976  1
  Zn  Zn3  1  0.000000  0.000000  0.751976  1
  Zn  Zn4  1  0.340874  0.170437  0.006742  1
  Zn  Zn5  1  0.829563  0.659126  0.006742  1
  Zn  Zn6  1  0.829563  0.170437  0.006742  1
  Zn  Zn7  1  0.659126  0.829563  0.506742  1
  Zn  Zn8  1  0.170437  0.340874  0.506742  1
  Zn  Zn9  1  0.170437  0.829563  0.506742  1
  Bi  Bi10  1  0.333333  0.666667  0.194897  1
  Bi  Bi11  1  0.666667  0.333333  0.694897  1
  O  O12  1  0.000000  0.000000  0.061120  1
  O  O13  1  0.000000  0.000000  0.561120  1
  O  O14  1  0.170853  0.341704  0.315816  1
  O  O15  1  0.170853  0.829147  0.315816  1
  O  O16  1  0.658296  0.829147  0.315816  1
  O  O17  1  0.829147  0.658296  0.815816  1
  O  O18  1  0.829147  0.170853  0.815816  1
  O  O19  1  0.341704  0.170853  0.815816  1
  O  O20  1  0.495751  0.991503  0.074352  1
  O  O21  1  0.495751  0.504249  0.074352  1
  O  O22  1  0.008497  0.504249  0.074352  1
  O  O23  1  0.504249  0.008497  0.574352  1
  O  O24  1  0.504249  0.495751  0.574352  1
  O  O25  1  0.991503  0.495751  0.574352  1
