# generated using pymatgen
data_YU5(Cu2S7)2
_symmetry_space_group_name_H-M   'P 1'
_cell_length_a   9.68245461
_cell_length_b   9.66695168
_cell_length_c   5.69682773
_cell_angle_alpha   90.01661520
_cell_angle_beta   89.80414625
_cell_angle_gamma   120.05545767
_symmetry_Int_Tables_number   1
_chemical_formula_structural   YU5(Cu2S7)2
_chemical_formula_sum   'Y1 U5 Cu4 S14'
_cell_volume   461.52225210
_cell_formula_units_Z   1
loop_
 _symmetry_equiv_pos_site_id
 _symmetry_equiv_pos_as_xyz
  1  'x, y, z'
loop_
 _atom_site_type_symbol
 _atom_site_label
 _atom_site_symmetry_multiplicity
 _atom_site_fract_x
 _atom_site_fract_y
 _atom_site_fract_z
 _atom_site_occupancy
  Y  Y0  1  0.227092  0.848095  0.031962  1
  U  U1  1  0.149337  0.380200  0.028623  1
  U  U2  1  0.849546  0.621431  0.530995  1
  U  U3  1  0.619292  0.773042  0.028158  1
  U  U4  1  0.769358  0.150584  0.534699  1
  U  U5  1  0.379095  0.229412  0.531178  1
  Cu  Cu6  1  0.667058  0.333591  0.150948  1
  Cu  Cu7  1  0.334392  0.665085  0.647643  1
  Cu  Cu8  1  0.000354  0.001036  0.498466  1
  Cu  Cu9  1  0.000586  0.998883  0.999654  1
  S  S10  1  0.666030  0.334133  0.752793  1
  S  S11  1  0.567819  0.487093  0.284470  1
  S  S12  1  0.152524  0.892120  0.513861  1
  S  S13  1  0.516334  0.082455  0.286868  1
  S  S14  1  0.434395  0.513395  0.783622  1
  S  S15  1  0.490546  0.919307  0.779858  1
  S  S16  1  0.847295  0.107991  0.015986  1
  S  S17  1  0.078317  0.562333  0.778400  1
  S  S18  1  0.739073  0.846987  0.512717  1
  S  S19  1  0.335358  0.663491  0.251254  1
  S  S20  1  0.919522  0.432951  0.282866  1
  S  S21  1  0.262218  0.158239  0.014569  1
  S  S22  1  0.108540  0.262723  0.514307  1
  S  S23  1  0.885921  0.735423  0.012508  1
