# generated using pymatgen
data_Sc3In3CuHg2
_symmetry_space_group_name_H-M   'P 1'
_cell_length_a   7.78980600
_cell_length_b   7.78980733
_cell_length_c   3.64721900
_cell_angle_alpha   90.00000000
_cell_angle_beta   90.00000000
_cell_angle_gamma   119.99998586
_symmetry_Int_Tables_number   1
_chemical_formula_structural   Sc3In3CuHg2
_chemical_formula_sum   'Sc3 In3 Cu1 Hg2'
_cell_volume   191.66635923
_cell_formula_units_Z   1
loop_
 _symmetry_equiv_pos_site_id
 _symmetry_equiv_pos_as_xyz
  1  'x, y, z'
loop_
 _atom_site_type_symbol
 _atom_site_label
 _atom_site_symmetry_multiplicity
 _atom_site_fract_x
 _atom_site_fract_y
 _atom_site_fract_z
 _atom_site_occupancy
  Sc  Sc0  1  0.378406  0.000000  0.500000  1
  Sc  Sc1  1  0.000000  0.378406  0.500000  1
  Sc  Sc2  1  0.621594  0.621594  0.500000  1
  In  In3  1  0.741644  0.000000  0.000000  1
  In  In4  1  0.000000  0.741644  0.000000  1
  In  In5  1  0.258356  0.258356  0.000000  1
  Cu  Cu6  1  0.000000  0.000000  0.500000  1
  Hg  Hg7  1  0.333333  0.666667  0.000000  1
  Hg  Hg8  1  0.666667  0.333333  0.000000  1
