# generated using pymatgen
data_Yb(Ge2Rh3)2
_symmetry_space_group_name_H-M   'P 1'
_cell_length_a   7.22539200
_cell_length_b   7.22539198
_cell_length_c   3.83584700
_cell_angle_alpha   90.00000000
_cell_angle_beta   90.00000000
_cell_angle_gamma   120.00000010
_symmetry_Int_Tables_number   1
_chemical_formula_structural   Yb(Ge2Rh3)2
_chemical_formula_sum   'Yb1 Ge4 Rh6'
_cell_volume   173.42621029
_cell_formula_units_Z   1
loop_
 _symmetry_equiv_pos_site_id
 _symmetry_equiv_pos_as_xyz
  1  'x, y, z'
loop_
 _atom_site_type_symbol
 _atom_site_label
 _atom_site_symmetry_multiplicity
 _atom_site_fract_x
 _atom_site_fract_y
 _atom_site_fract_z
 _atom_site_occupancy
  Yb  Yb0  1  0.000000  0.000000  0.500000  1
  Ge  Ge1  1  0.666667  0.333333  0.500000  1
  Ge  Ge2  1  0.197657  0.394214  0.000000  1
  Ge  Ge3  1  0.196558  0.802343  0.000000  1
  Ge  Ge4  1  0.605786  0.803442  0.000000  1
  Rh  Rh5  1  0.469000  0.933625  0.500000  1
  Rh  Rh6  1  0.464625  0.531000  0.500000  1
  Rh  Rh7  1  0.066375  0.535375  0.500000  1
  Rh  Rh8  1  0.800821  0.604486  0.000000  1
  Rh  Rh9  1  0.803665  0.199179  0.000000  1
  Rh  Rh10  1  0.395514  0.196335  0.000000  1
