# generated using pymatgen
data_Tb3Er5Cd2PdRu
_symmetry_space_group_name_H-M   'P 1'
_cell_length_a   9.61440853
_cell_length_b   9.61440867
_cell_length_c   9.66613700
_cell_angle_alpha   59.82185773
_cell_angle_beta   59.82185726
_cell_angle_gamma   59.69249689
_symmetry_Int_Tables_number   1
_chemical_formula_structural   Tb3Er5Cd2PdRu
_chemical_formula_sum   'Tb6 Er10 Cd4 Pd2 Ru2'
_cell_volume   628.62902708
_cell_formula_units_Z   2
loop_
 _symmetry_equiv_pos_site_id
 _symmetry_equiv_pos_as_xyz
  1  'x, y, z'
loop_
 _atom_site_type_symbol
 _atom_site_label
 _atom_site_symmetry_multiplicity
 _atom_site_fract_x
 _atom_site_fract_y
 _atom_site_fract_z
 _atom_site_occupancy
  Tb  Tb0  1  0.936923  0.558721  0.566774  1
  Tb  Tb1  1  0.558721  0.936923  0.937582  1
  Tb  Tb2  1  0.558721  0.936923  0.566774  1
  Tb  Tb3  1  0.936923  0.558721  0.937582  1
  Tb  Tb4  1  0.563927  0.563927  0.936073  1
  Tb  Tb5  1  0.938286  0.938286  0.561714  1
  Er  Er6  1  0.349190  0.349190  0.354681  1
  Er  Er7  1  0.349190  0.349190  0.946939  1
  Er  Er8  1  0.344815  0.954832  0.350177  1
  Er  Er9  1  0.954832  0.344815  0.350177  1
  Er  Er10  1  0.817723  0.186596  0.188820  1
  Er  Er11  1  0.186596  0.817723  0.806863  1
  Er  Er12  1  0.186596  0.817723  0.188820  1
  Er  Er13  1  0.817723  0.186596  0.806863  1
  Er  Er14  1  0.186739  0.186739  0.813261  1
  Er  Er15  1  0.810075  0.810075  0.189925  1
  Cd  Cd16  1  0.579825  0.579825  0.581036  1
  Cd  Cd17  1  0.579825  0.579825  0.259311  1
  Cd  Cd18  1  0.581054  0.256021  0.581462  1
  Cd  Cd19  1  0.256021  0.581054  0.581462  1
  Pd  Pd20  1  0.145339  0.571738  0.141461  1
  Pd  Pd21  1  0.571738  0.145339  0.141461  1
  Ru  Ru22  1  0.144609  0.144609  0.138721  1
  Ru  Ru23  1  0.144609  0.144609  0.572060  1
