# generated using pymatgen
data_NdCdCuNi3
_symmetry_space_group_name_H-M   'P 1'
_cell_length_a   5.08454513
_cell_length_b   5.08454565
_cell_length_c   5.05364937
_cell_angle_alpha   59.79754682
_cell_angle_beta   59.79754162
_cell_angle_gamma   59.99999587
_symmetry_Int_Tables_number   1
_chemical_formula_structural   NdCdCuNi3
_chemical_formula_sum   'Nd1 Cd1 Cu1 Ni3'
_cell_volume   92.09977312
_cell_formula_units_Z   1
loop_
 _symmetry_equiv_pos_site_id
 _symmetry_equiv_pos_as_xyz
  1  'x, y, z'
loop_
 _atom_site_type_symbol
 _atom_site_label
 _atom_site_symmetry_multiplicity
 _atom_site_fract_x
 _atom_site_fract_y
 _atom_site_fract_z
 _atom_site_occupancy
  Nd  Nd0  1  0.249224  0.249224  0.252328  1
  Cd  Cd1  1  0.000396  0.000396  0.998813  1
  Cu  Cu2  1  0.626127  0.626127  0.121619  1
  Ni  Ni3  1  0.626546  0.121162  0.625747  1
  Ni  Ni4  1  0.121162  0.626546  0.625747  1
  Ni  Ni5  1  0.626546  0.626546  0.625747  1
