# generated using pymatgen
data_TbMg2Si2(PPd5)4
_symmetry_space_group_name_H-M   'P 1'
_cell_length_a   8.63032775
_cell_length_b   8.61930856
_cell_length_c   8.61930805
_cell_angle_alpha   60.08459624
_cell_angle_beta   59.95769989
_cell_angle_gamma   59.95769930
_symmetry_Int_Tables_number   1
_chemical_formula_structural   TbMg2Si2(PPd5)4
_chemical_formula_sum   'Tb1 Mg2 Si2 P4 Pd20'
_cell_volume   453.37303430
_cell_formula_units_Z   1
loop_
 _symmetry_equiv_pos_site_id
 _symmetry_equiv_pos_as_xyz
  1  'x, y, z'
loop_
 _atom_site_type_symbol
 _atom_site_label
 _atom_site_symmetry_multiplicity
 _atom_site_fract_x
 _atom_site_fract_y
 _atom_site_fract_z
 _atom_site_occupancy
  Tb  Tb0  1  0.750000  0.750000  0.750000  1
  Mg  Mg1  1  0.250000  0.250000  0.250000  1
  Mg  Mg2  1  0.000000  0.000000  0.000000  1
  Si  Si3  1  0.735003  0.264997  0.264997  1
  Si  Si4  1  0.264997  0.735003  0.735003  1
  P  P5  1  0.265051  0.734949  0.265051  1
  P  P6  1  0.734949  0.265051  0.734949  1
  P  P7  1  0.265051  0.265051  0.734949  1
  P  P8  1  0.734949  0.734949  0.265051  1
  Pd  Pd9  1  0.379985  0.381356  0.381356  1
  Pd  Pd10  1  0.615226  0.612731  0.612731  1
  Pd  Pd11  1  0.381356  0.379985  0.857303  1
  Pd  Pd12  1  0.381356  0.857303  0.379985  1
  Pd  Pd13  1  0.612731  0.615226  0.159314  1
  Pd  Pd14  1  0.612731  0.159314  0.615226  1
  Pd  Pd15  1  0.857303  0.381356  0.381356  1
  Pd  Pd16  1  0.159314  0.612731  0.612731  1
  Pd  Pd17  1  0.342947  0.999291  0.999291  1
  Pd  Pd18  1  0.658470  0.999291  0.999291  1
  Pd  Pd19  1  0.999291  0.342947  0.658470  1
  Pd  Pd20  1  0.999291  0.658470  0.342947  1
  Pd  Pd21  1  0.000940  0.345278  0.996946  1
  Pd  Pd22  1  0.656836  0.996946  0.345278  1
  Pd  Pd23  1  0.996946  0.656836  0.000940  1
  Pd  Pd24  1  0.345278  0.000940  0.656836  1
  Pd  Pd25  1  0.000940  0.996946  0.345278  1
  Pd  Pd26  1  0.996946  0.000940  0.656836  1
  Pd  Pd27  1  0.656836  0.345278  0.996946  1
  Pd  Pd28  1  0.345278  0.656836  0.000940  1
