# generated using pymatgen
data_Ba3AcB24
_symmetry_space_group_name_H-M   'P 1'
_cell_length_a   4.25476400
_cell_length_b   4.25476400
_cell_length_c   17.02725400
_cell_angle_alpha   90.00000000
_cell_angle_beta   90.00000000
_cell_angle_gamma   90.00000000
_symmetry_Int_Tables_number   1
_chemical_formula_structural   Ba3AcB24
_chemical_formula_sum   'Ba3 Ac1 B24'
_cell_volume   308.24466344
_cell_formula_units_Z   1
loop_
 _symmetry_equiv_pos_site_id
 _symmetry_equiv_pos_as_xyz
  1  'x, y, z'
loop_
 _atom_site_type_symbol
 _atom_site_label
 _atom_site_symmetry_multiplicity
 _atom_site_fract_x
 _atom_site_fract_y
 _atom_site_fract_z
 _atom_site_occupancy
  Ba  Ba0  1  0.000000  0.000000  0.250487  1
  Ba  Ba1  1  0.000000  0.000000  0.500000  1
  Ba  Ba2  1  0.000000  0.000000  0.749513  1
  Ac  Ac3  1  0.000000  0.000000  0.000000  1
  B  B4  1  0.203342  0.500000  0.122885  1
  B  B5  1  0.204730  0.500000  0.374044  1
  B  B6  1  0.204730  0.500000  0.625956  1
  B  B7  1  0.203342  0.500000  0.877115  1
  B  B8  1  0.500000  0.500000  0.197351  1
  B  B9  1  0.500000  0.500000  0.448221  1
  B  B10  1  0.500000  0.500000  0.699945  1
  B  B11  1  0.500000  0.500000  0.950368  1
  B  B12  1  0.500000  0.203342  0.122885  1
  B  B13  1  0.500000  0.204730  0.374044  1
  B  B14  1  0.500000  0.204730  0.625956  1
  B  B15  1  0.500000  0.203342  0.877115  1
  B  B16  1  0.500000  0.500000  0.049632  1
  B  B17  1  0.500000  0.500000  0.300055  1
  B  B18  1  0.500000  0.500000  0.551779  1
  B  B19  1  0.500000  0.500000  0.802649  1
  B  B20  1  0.500000  0.796658  0.122885  1
  B  B21  1  0.500000  0.795270  0.374044  1
  B  B22  1  0.500000  0.795270  0.625956  1
  B  B23  1  0.500000  0.796658  0.877115  1
  B  B24  1  0.796658  0.500000  0.122885  1
  B  B25  1  0.795270  0.500000  0.374044  1
  B  B26  1  0.795270  0.500000  0.625956  1
  B  B27  1  0.796658  0.500000  0.877115  1
