# generated using pymatgen
data_YbEuTiSbO7
_symmetry_space_group_name_H-M   'P 1'
_cell_length_a   7.32642200
_cell_length_b   7.32642200
_cell_length_c   10.34500900
_cell_angle_alpha   90.00000000
_cell_angle_beta   90.00000000
_cell_angle_gamma   90.00000000
_symmetry_Int_Tables_number   1
_chemical_formula_structural   YbEuTiSbO7
_chemical_formula_sum   'Yb4 Eu4 Ti4 Sb4 O28'
_cell_volume   555.28345478
_cell_formula_units_Z   4
loop_
 _symmetry_equiv_pos_site_id
 _symmetry_equiv_pos_as_xyz
  1  'x, y, z'
loop_
 _atom_site_type_symbol
 _atom_site_label
 _atom_site_symmetry_multiplicity
 _atom_site_fract_x
 _atom_site_fract_y
 _atom_site_fract_z
 _atom_site_occupancy
  Yb  Yb0  1  0.000000  0.751362  0.000000  1
  Yb  Yb1  1  0.751362  0.000000  0.750000  1
  Yb  Yb2  1  0.000000  0.248638  0.500000  1
  Yb  Yb3  1  0.248638  0.000000  0.250000  1
  Eu  Eu4  1  0.500000  0.240606  0.500000  1
  Eu  Eu5  1  0.500000  0.759394  0.000000  1
  Eu  Eu6  1  0.759394  0.500000  0.750000  1
  Eu  Eu7  1  0.240606  0.500000  0.250000  1
  Ti  Ti8  1  0.762580  0.000000  0.250000  1
  Ti  Ti9  1  0.000000  0.762580  0.500000  1
  Ti  Ti10  1  0.000000  0.237420  0.000000  1
  Ti  Ti11  1  0.237420  0.000000  0.750000  1
  Sb  Sb12  1  0.242505  0.500000  0.750000  1
  Sb  Sb13  1  0.500000  0.757495  0.500000  1
  Sb  Sb14  1  0.500000  0.242505  0.000000  1
  Sb  Sb15  1  0.757495  0.500000  0.250000  1
  O  O16  1  0.252962  0.747038  0.125000  1
  O  O17  1  0.550116  0.953446  0.373135  1
  O  O18  1  0.750611  0.750993  0.575955  1
  O  O19  1  0.747038  0.252962  0.625000  1
  O  O20  1  0.750993  0.750611  0.174045  1
  O  O21  1  0.945731  0.945731  0.375000  1
  O  O22  1  0.054269  0.054269  0.875000  1
  O  O23  1  0.054269  0.945731  0.625000  1
  O  O24  1  0.046554  0.449884  0.876865  1
  O  O25  1  0.249389  0.249007  0.075955  1
  O  O26  1  0.249389  0.750993  0.424045  1
  O  O27  1  0.249007  0.750611  0.825955  1
  O  O28  1  0.249007  0.249389  0.674045  1
  O  O29  1  0.449884  0.046554  0.873135  1
  O  O30  1  0.449884  0.953446  0.626865  1
  O  O31  1  0.452756  0.452756  0.875000  1
  O  O32  1  0.547244  0.547244  0.375000  1
  O  O33  1  0.550116  0.046554  0.126865  1
  O  O34  1  0.547244  0.452756  0.125000  1
  O  O35  1  0.750993  0.249389  0.325955  1
  O  O36  1  0.750611  0.249007  0.924045  1
  O  O37  1  0.945731  0.054269  0.125000  1
  O  O38  1  0.953446  0.550116  0.376865  1
  O  O39  1  0.953446  0.449884  0.123135  1
  O  O40  1  0.046554  0.550116  0.623135  1
  O  O41  1  0.252962  0.252962  0.375000  1
  O  O42  1  0.452756  0.547244  0.625000  1
  O  O43  1  0.747038  0.747038  0.875000  1
