# generated using pymatgen
data_Tm12CdFe3Bi
_symmetry_space_group_name_H-M   'P 1'
_cell_length_a   8.26926032
_cell_length_b   8.26925111
_cell_length_c   8.26926114
_cell_angle_alpha   108.90824956
_cell_angle_beta   108.19879862
_cell_angle_gamma   111.32343576
_symmetry_Int_Tables_number   1
_chemical_formula_structural   Tm12CdFe3Bi
_chemical_formula_sum   'Tm12 Cd1 Fe3 Bi1'
_cell_volume   434.93014600
_cell_formula_units_Z   1
loop_
 _symmetry_equiv_pos_site_id
 _symmetry_equiv_pos_as_xyz
  1  'x, y, z'
loop_
 _atom_site_type_symbol
 _atom_site_label
 _atom_site_symmetry_multiplicity
 _atom_site_fract_x
 _atom_site_fract_y
 _atom_site_fract_z
 _atom_site_occupancy
  Tm  Tm0  1  0.189484  0.428810  0.239326  1
  Tm  Tm1  1  0.810516  0.571190  0.760674  1
  Tm  Tm2  1  0.189481  0.950158  0.760676  1
  Tm  Tm3  1  0.964360  0.194226  0.770134  1
  Tm  Tm4  1  0.810519  0.049842  0.239324  1
  Tm  Tm5  1  0.035640  0.805774  0.229866  1
  Tm  Tm6  1  0.424092  0.194226  0.229868  1
  Tm  Tm7  1  0.575908  0.805774  0.770132  1
  Tm  Tm8  1  0.304685  0.312399  0.617086  1
  Tm  Tm9  1  0.695315  0.687601  0.382914  1
  Tm  Tm10  1  0.695313  0.312399  0.007713  1
  Tm  Tm11  1  0.304687  0.687601  0.992287  1
  Cd  Cd12  1  0.000000  0.500000  0.500000  1
  Fe  Fe13  1  0.385220  0.385221  0.000001  1
  Fe  Fe14  1  0.614780  0.614779  0.999999  1
  Fe  Fe15  1  0.000000  0.000000  0.000000  1
  Bi  Bi16  1  0.500000  0.000000  0.500000  1
