# generated using pymatgen
data_Pr3Al7Pd2
_symmetry_space_group_name_H-M   'P 1'
_cell_length_a   9.39584367
_cell_length_b   9.39584414
_cell_length_c   9.39584309
_cell_angle_alpha   35.00038646
_cell_angle_beta   35.00038004
_cell_angle_gamma   35.00038296
_symmetry_Int_Tables_number   1
_chemical_formula_structural   Pr3Al7Pd2
_chemical_formula_sum   'Pr3 Al7 Pd2'
_cell_volume   243.66432638
_cell_formula_units_Z   1
loop_
 _symmetry_equiv_pos_site_id
 _symmetry_equiv_pos_as_xyz
  1  'x, y, z'
loop_
 _atom_site_type_symbol
 _atom_site_label
 _atom_site_symmetry_multiplicity
 _atom_site_fract_x
 _atom_site_fract_y
 _atom_site_fract_z
 _atom_site_occupancy
  Pr  Pr0  1  0.000000  0.000000  0.000000  1
  Pr  Pr1  1  0.143403  0.143403  0.143403  1
  Pr  Pr2  1  0.856597  0.856597  0.856597  1
  Al  Al3  1  0.581587  0.581587  0.071316  1
  Al  Al4  1  0.928685  0.418412  0.418414  1
  Al  Al5  1  0.418412  0.928685  0.418414  1
  Al  Al6  1  0.500000  0.500000  0.500000  1
  Al  Al7  1  0.581588  0.071315  0.581586  1
  Al  Al8  1  0.071315  0.581588  0.581586  1
  Al  Al9  1  0.418413  0.418413  0.928684  1
  Pd  Pd10  1  0.336119  0.336119  0.336119  1
  Pd  Pd11  1  0.663882  0.663882  0.663882  1
