# generated using pymatgen
data_Cs5Tc3S7
_symmetry_space_group_name_H-M   'P 1'
_cell_length_a   11.08068561
_cell_length_b   11.08068500
_cell_length_c   11.24671736
_cell_angle_alpha   59.59160529
_cell_angle_beta   59.59160706
_cell_angle_gamma   60.01314516
_symmetry_Int_Tables_number   1
_chemical_formula_structural   Cs5Tc3S7
_chemical_formula_sum   'Cs10 Tc6 S14'
_cell_volume   970.46080874
_cell_formula_units_Z   2
loop_
 _symmetry_equiv_pos_site_id
 _symmetry_equiv_pos_as_xyz
  1  'x, y, z'
loop_
 _atom_site_type_symbol
 _atom_site_label
 _atom_site_symmetry_multiplicity
 _atom_site_fract_x
 _atom_site_fract_y
 _atom_site_fract_z
 _atom_site_occupancy
  Cs  Cs0  1  0.010799  0.010799  0.988332  1
  Cs  Cs1  1  0.423952  0.986217  0.003946  1
  Cs  Cs2  1  0.413321  0.996577  0.582754  1
  Cs  Cs3  1  0.851966  0.851966  0.855563  1
  Cs  Cs4  1  0.837129  0.837129  0.434967  1
  Cs  Cs5  1  0.996577  0.413321  0.582754  1
  Cs  Cs6  1  0.034521  0.034521  0.439000  1
  Cs  Cs7  1  0.986217  0.423952  0.003946  1
  Cs  Cs8  1  0.190479  0.571661  0.117860  1
  Cs  Cs9  1  0.571661  0.190479  0.117860  1
  Tc  Tc10  1  0.378819  0.619132  0.618061  1
  Tc  Tc11  1  0.378517  0.378517  0.621845  1
  Tc  Tc12  1  0.377225  0.618323  0.384280  1
  Tc  Tc13  1  0.619132  0.378819  0.618061  1
  Tc  Tc14  1  0.619077  0.619077  0.378615  1
  Tc  Tc15  1  0.618323  0.377225  0.384280  1
  S  S16  1  0.220489  0.220489  0.782369  1
  S  S17  1  0.211170  0.778474  0.770603  1
  S  S18  1  0.390030  0.390030  0.825570  1
  S  S19  1  0.169629  0.607145  0.611728  1
  S  S20  1  0.608954  0.608954  0.605406  1
  S  S21  1  0.204747  0.779837  0.243294  1
  S  S22  1  0.388520  0.388520  0.395561  1
  S  S23  1  0.394863  0.827162  0.388192  1
  S  S24  1  0.607145  0.169629  0.611728  1
  S  S25  1  0.778474  0.211170  0.770603  1
  S  S26  1  0.827162  0.394863  0.388192  1
  S  S27  1  0.606061  0.606061  0.176301  1
  S  S28  1  0.780005  0.780005  0.209839  1
  S  S29  1  0.779837  0.204747  0.243294  1
