# generated using pymatgen
data_Yb12Ho7LuSi16
_symmetry_space_group_name_H-M   'P 1'
_cell_length_a   7.36605316
_cell_length_b   7.78790866
_cell_length_c   15.09243737
_cell_angle_alpha   90.01557927
_cell_angle_beta   89.95359594
_cell_angle_gamma   89.95557861
_symmetry_Int_Tables_number   1
_chemical_formula_structural   Yb12Ho7LuSi16
_chemical_formula_sum   'Yb12 Ho7 Lu1 Si16'
_cell_volume   865.79443739
_cell_formula_units_Z   1
loop_
 _symmetry_equiv_pos_site_id
 _symmetry_equiv_pos_as_xyz
  1  'x, y, z'
loop_
 _atom_site_type_symbol
 _atom_site_label
 _atom_site_symmetry_multiplicity
 _atom_site_fract_x
 _atom_site_fract_y
 _atom_site_fract_z
 _atom_site_occupancy
  Yb  Yb0  1  0.974340  0.816544  0.404076  1
  Yb  Yb1  1  0.474617  0.683527  0.095682  1
  Yb  Yb2  1  0.525670  0.316544  0.596032  1
  Yb  Yb3  1  0.025230  0.183152  0.904038  1
  Yb  Yb4  1  0.025551  0.183305  0.596075  1
  Yb  Yb5  1  0.526041  0.316430  0.904050  1
  Yb  Yb6  1  0.474248  0.683517  0.404059  1
  Yb  Yb7  1  0.974047  0.816623  0.095766  1
  Yb  Yb8  1  0.351711  0.020645  0.750186  1
  Yb  Yb9  1  0.851281  0.479485  0.750278  1
  Yb  Yb10  1  0.148553  0.520914  0.250024  1
  Yb  Yb11  1  0.648644  0.979032  0.249950  1
  Ho  Ho12  1  0.315026  0.176529  0.120834  1
  Ho  Ho13  1  0.814787  0.323328  0.378927  1
  Ho  Ho14  1  0.185153  0.676979  0.878877  1
  Ho  Ho15  1  0.685159  0.823220  0.621244  1
  Ho  Ho16  1  0.314790  0.176688  0.378928  1
  Ho  Ho17  1  0.814785  0.323349  0.120932  1
  Ho  Ho18  1  0.185293  0.676780  0.621199  1
  Lu  Lu19  1  0.685178  0.823901  0.878878  1
  Si  Si20  1  0.857124  0.533661  0.538146  1
  Si  Si21  1  0.358605  0.965535  0.961340  1
  Si  Si22  1  0.642908  0.033705  0.461933  1
  Si  Si23  1  0.142410  0.466769  0.037923  1
  Si  Si24  1  0.142967  0.466323  0.461909  1
  Si  Si25  1  0.644001  0.032804  0.037253  1
  Si  Si26  1  0.356941  0.966211  0.538083  1
  Si  Si27  1  0.855385  0.534709  0.961414  1
  Si  Si28  1  0.976049  0.880386  0.750793  1
  Si  Si29  1  0.477695  0.620022  0.750377  1
  Si  Si30  1  0.523070  0.381045  0.249937  1
  Si  Si31  1  0.023120  0.118922  0.249947  1
  Si  Si32  1  0.249694  0.395982  0.750175  1
  Si  Si33  1  0.748265  0.103552  0.750820  1
  Si  Si34  1  0.250911  0.895566  0.249949  1
  Si  Si35  1  0.750750  0.604318  0.249966  1
