# generated using pymatgen
data_ErZr3(BiRh5)2
_symmetry_space_group_name_H-M   'P 1'
_cell_length_a   5.76247726
_cell_length_b   5.76247627
_cell_length_c   8.34112301
_cell_angle_alpha   89.99723087
_cell_angle_beta   89.99722806
_cell_angle_gamma   97.35013133
_symmetry_Int_Tables_number   1
_chemical_formula_structural   ErZr3(BiRh5)2
_chemical_formula_sum   'Er1 Zr3 Bi2 Rh10'
_cell_volume   274.70053748
_cell_formula_units_Z   1
loop_
 _symmetry_equiv_pos_site_id
 _symmetry_equiv_pos_as_xyz
  1  'x, y, z'
loop_
 _atom_site_type_symbol
 _atom_site_label
 _atom_site_symmetry_multiplicity
 _atom_site_fract_x
 _atom_site_fract_y
 _atom_site_fract_z
 _atom_site_occupancy
  Er  Er0  1  0.783757  0.216243  0.500000  1
  Zr  Zr1  1  0.210763  0.789237  0.000000  1
  Zr  Zr2  1  0.209698  0.790302  0.500000  1
  Zr  Zr3  1  0.789214  0.210786  0.000000  1
  Bi  Bi4  1  0.500311  0.501795  0.750701  1
  Bi  Bi5  1  0.498205  0.499689  0.249299  1
  Rh  Rh6  1  0.731771  0.732317  0.000529  1
  Rh  Rh7  1  0.733421  0.730011  0.499419  1
  Rh  Rh8  1  0.267683  0.268229  0.999471  1
  Rh  Rh9  1  0.269989  0.266579  0.500581  1
  Rh  Rh10  1  0.496773  0.996934  0.754352  1
  Rh  Rh11  1  0.496842  0.996350  0.245693  1
  Rh  Rh12  1  0.002557  0.997701  0.245892  1
  Rh  Rh13  1  0.002299  0.997443  0.754108  1
  Rh  Rh14  1  0.003650  0.503158  0.754307  1
  Rh  Rh15  1  0.003066  0.503227  0.245648  1
