# generated using pymatgen
data_Ta5Nb3Cu2(NiN)2
_symmetry_space_group_name_H-M   'P 1'
_cell_length_a   8.25543574
_cell_length_b   8.25543546
_cell_length_c   8.25543600
_cell_angle_alpha   59.99999785
_cell_angle_beta   59.99999898
_cell_angle_gamma   60.00000513
_symmetry_Int_Tables_number   1
_chemical_formula_structural   Ta5Nb3Cu2(NiN)2
_chemical_formula_sum   'Ta10 Nb6 Cu4 Ni4 N4'
_cell_volume   397.83685373
_cell_formula_units_Z   2
loop_
 _symmetry_equiv_pos_site_id
 _symmetry_equiv_pos_as_xyz
  1  'x, y, z'
loop_
 _atom_site_type_symbol
 _atom_site_label
 _atom_site_symmetry_multiplicity
 _atom_site_fract_x
 _atom_site_fract_y
 _atom_site_fract_z
 _atom_site_occupancy
  Ta  Ta0  1  0.118555  0.627148  0.627148  1
  Ta  Ta1  1  0.627148  0.118555  0.627148  1
  Ta  Ta2  1  0.627148  0.627148  0.118555  1
  Ta  Ta3  1  0.627148  0.627148  0.627148  1
  Ta  Ta4  1  0.435097  0.435097  0.064903  1
  Ta  Ta5  1  0.064903  0.064903  0.435097  1
  Ta  Ta6  1  0.435097  0.064903  0.435097  1
  Ta  Ta7  1  0.064903  0.435097  0.064903  1
  Ta  Ta8  1  0.064903  0.435097  0.435097  1
  Ta  Ta9  1  0.435097  0.064903  0.064903  1
  Nb  Nb10  1  0.816287  0.816287  0.183713  1
  Nb  Nb11  1  0.183713  0.183713  0.816287  1
  Nb  Nb12  1  0.816287  0.183713  0.816287  1
  Nb  Nb13  1  0.183713  0.816287  0.183713  1
  Nb  Nb14  1  0.183713  0.816287  0.816287  1
  Nb  Nb15  1  0.816287  0.183713  0.183713  1
  Cu  Cu16  1  0.749266  0.416911  0.416911  1
  Cu  Cu17  1  0.416911  0.749266  0.416911  1
  Cu  Cu18  1  0.416911  0.416911  0.749266  1
  Cu  Cu19  1  0.416911  0.416911  0.416911  1
  Ni  Ni20  1  0.511412  0.829529  0.829529  1
  Ni  Ni21  1  0.829529  0.511412  0.829529  1
  Ni  Ni22  1  0.829529  0.829529  0.511412  1
  Ni  Ni23  1  0.829529  0.829529  0.829529  1
  N  N24  1  0.617757  0.127414  0.127414  1
  N  N25  1  0.127414  0.617757  0.127414  1
  N  N26  1  0.127414  0.127414  0.617757  1
  N  N27  1  0.127414  0.127414  0.127414  1
