# generated using pymatgen
data_Ce8Ti5Si16Mo4W3
_symmetry_space_group_name_H-M   'P 1'
_cell_length_a   6.98635987
_cell_length_b   6.99318263
_cell_length_c   13.02633817
_cell_angle_alpha   90.01073555
_cell_angle_beta   90.10594171
_cell_angle_gamma   89.97984749
_symmetry_Int_Tables_number   1
_chemical_formula_structural   Ce8Ti5Si16Mo4W3
_chemical_formula_sum   'Ce8 Ti5 Si16 Mo4 W3'
_cell_volume   636.42523944
_cell_formula_units_Z   1
loop_
 _symmetry_equiv_pos_site_id
 _symmetry_equiv_pos_as_xyz
  1  'x, y, z'
loop_
 _atom_site_type_symbol
 _atom_site_label
 _atom_site_symmetry_multiplicity
 _atom_site_fract_x
 _atom_site_fract_y
 _atom_site_fract_z
 _atom_site_occupancy
  Ce  Ce0  1  0.995601  0.667729  0.031868  1
  Ce  Ce1  1  0.004463  0.334004  0.530295  1
  Ce  Ce2  1  0.666657  0.994956  0.969104  1
  Ce  Ce3  1  0.166416  0.505769  0.781352  1
  Ce  Ce4  1  0.833695  0.496351  0.281102  1
  Ce  Ce5  1  0.503700  0.164916  0.219384  1
  Ce  Ce6  1  0.494458  0.834393  0.717919  1
  Ce  Ce7  1  0.334089  0.003327  0.469146  1
  Ti  Ti8  1  0.669577  0.669626  0.499039  1
  Ti  Ti9  1  0.831416  0.167895  0.748579  1
  Ti  Ti10  1  0.167856  0.830731  0.250594  1
  Ti  Ti11  1  0.328788  0.329218  0.001585  1
  Ti  Ti12  1  0.663715  0.496012  0.873892  1
  Si  Si13  1  0.037804  0.710882  0.435305  1
  Si  Si14  1  0.963170  0.288841  0.936220  1
  Si  Si15  1  0.712533  0.036576  0.564461  1
  Si  Si16  1  0.210702  0.463353  0.185987  1
  Si  Si17  1  0.788806  0.539597  0.684442  1
  Si  Si18  1  0.461796  0.210105  0.814922  1
  Si  Si19  1  0.535574  0.788761  0.314700  1
  Si  Si20  1  0.289387  0.962303  0.064433  1
  Si  Si21  1  0.800483  0.877579  0.187375  1
  Si  Si22  1  0.301681  0.621122  0.562254  1
  Si  Si23  1  0.700670  0.375990  0.063606  1
  Si  Si24  1  0.622891  0.299992  0.436484  1
  Si  Si25  1  0.375140  0.701033  0.938116  1
  Si  Si26  1  0.122651  0.199209  0.313741  1
  Si  Si27  1  0.199033  0.125047  0.687518  1
  Si  Si28  1  0.876629  0.802864  0.810991  1
  Mo  Mo29  1  0.998052  0.837613  0.622744  1
  Mo  Mo30  1  0.506933  0.333516  0.626066  1
  Mo  Mo31  1  0.163766  0.004340  0.875514  1
  Mo  Mo32  1  0.494726  0.663859  0.126609  1
  W  W33  1  0.334864  0.503604  0.373445  1
  W  W34  1  0.835780  0.995517  0.376306  1
  W  W35  1  0.006502  0.163367  0.124897  1
