# generated using pymatgen
data_Tb5In4PtAu
_symmetry_space_group_name_H-M   'P 1'
_cell_length_a   3.70054100
_cell_length_b   8.14289933
_cell_length_c   18.41438700
_cell_angle_alpha   89.98377432
_cell_angle_beta   90.00000000
_cell_angle_gamma   90.00000000
_symmetry_Int_Tables_number   1
_chemical_formula_structural   Tb5In4PtAu
_chemical_formula_sum   'Tb10 In8 Pt2 Au2'
_cell_volume   554.88314696
_cell_formula_units_Z   2
loop_
 _symmetry_equiv_pos_site_id
 _symmetry_equiv_pos_as_xyz
  1  'x, y, z'
loop_
 _atom_site_type_symbol
 _atom_site_label
 _atom_site_symmetry_multiplicity
 _atom_site_fract_x
 _atom_site_fract_y
 _atom_site_fract_z
 _atom_site_occupancy
  Tb  Tb0  1  0.000000  0.120883  0.419199  1
  Tb  Tb1  1  0.000000  0.879117  0.580801  1
  Tb  Tb2  1  0.000000  0.382836  0.916278  1
  Tb  Tb3  1  0.000000  0.617164  0.083722  1
  Tb  Tb4  1  0.000000  0.251978  0.217379  1
  Tb  Tb5  1  0.000000  0.748022  0.782621  1
  Tb  Tb6  1  0.000000  0.270561  0.720902  1
  Tb  Tb7  1  0.000000  0.729439  0.279098  1
  Tb  Tb8  1  0.000000  0.000000  0.000000  1
  Tb  Tb9  1  0.000000  0.500000  0.500000  1
  In  In10  1  0.500000  0.423564  0.352200  1
  In  In11  1  0.500000  0.576436  0.647800  1
  In  In12  1  0.500000  0.076314  0.852178  1
  In  In13  1  0.500000  0.923686  0.147822  1
  In  In14  1  0.500000  0.291548  0.067003  1
  In  In15  1  0.500000  0.708452  0.932997  1
  In  In16  1  0.500000  0.209571  0.568301  1
  In  In17  1  0.500000  0.790429  0.431699  1
  Pt  Pt18  1  0.500000  0.473147  0.804289  1
  Pt  Pt19  1  0.500000  0.526853  0.195711  1
  Au  Au20  1  0.500000  0.027440  0.302510  1
  Au  Au21  1  0.500000  0.972560  0.697490  1
