# generated using pymatgen
data_Dy2Si2Pt3
_symmetry_space_group_name_H-M   'P 1'
_cell_length_a   4.19046800
_cell_length_b   6.69735400
_cell_length_c   8.95602400
_cell_angle_alpha   90.00000000
_cell_angle_beta   90.00000000
_cell_angle_gamma   90.00000000
_symmetry_Int_Tables_number   1
_chemical_formula_structural   Dy2Si2Pt3
_chemical_formula_sum   'Dy4 Si4 Pt6'
_cell_volume   251.35124006
_cell_formula_units_Z   2
loop_
 _symmetry_equiv_pos_site_id
 _symmetry_equiv_pos_as_xyz
  1  'x, y, z'
loop_
 _atom_site_type_symbol
 _atom_site_label
 _atom_site_symmetry_multiplicity
 _atom_site_fract_x
 _atom_site_fract_y
 _atom_site_fract_z
 _atom_site_occupancy
  Dy  Dy0  1  0.000000  0.887724  0.328953  1
  Dy  Dy1  1  0.000000  0.112276  0.671047  1
  Dy  Dy2  1  0.000000  0.387724  0.171047  1
  Dy  Dy3  1  0.000000  0.612276  0.828953  1
  Si  Si4  1  0.500000  0.574055  0.357190  1
  Si  Si5  1  0.500000  0.425945  0.642810  1
  Si  Si6  1  0.500000  0.074055  0.142810  1
  Si  Si7  1  0.500000  0.925945  0.857190  1
  Pt  Pt8  1  0.500000  0.695110  0.090581  1
  Pt  Pt9  1  0.500000  0.304890  0.909419  1
  Pt  Pt10  1  0.500000  0.195110  0.409419  1
  Pt  Pt11  1  0.500000  0.804890  0.590581  1
  Pt  Pt12  1  0.000000  0.500000  0.500000  1
  Pt  Pt13  1  0.000000  0.000000  0.000000  1
