# generated using pymatgen
data_Pr3Sm3FeCl10
_symmetry_space_group_name_H-M   'P 1'
_cell_length_a   7.39273691
_cell_length_b   8.92183163
_cell_length_c   9.27246320
_cell_angle_alpha   109.27394342
_cell_angle_beta   97.31389731
_cell_angle_gamma   105.83375212
_symmetry_Int_Tables_number   1
_chemical_formula_structural   Pr3Sm3FeCl10
_chemical_formula_sum   'Pr3 Sm3 Fe1 Cl10'
_cell_volume   539.25432275
_cell_formula_units_Z   1
loop_
 _symmetry_equiv_pos_site_id
 _symmetry_equiv_pos_as_xyz
  1  'x, y, z'
loop_
 _atom_site_type_symbol
 _atom_site_label
 _atom_site_symmetry_multiplicity
 _atom_site_fract_x
 _atom_site_fract_y
 _atom_site_fract_z
 _atom_site_occupancy
  Pr  Pr0  1  0.029784  0.713492  0.910376  1
  Pr  Pr1  1  0.378389  0.151877  0.199447  1
  Pr  Pr2  1  0.968023  0.285397  0.087811  1
  Sm  Sm3  1  0.133356  0.052903  0.749187  1
  Sm  Sm4  1  0.626722  0.852952  0.805243  1
  Sm  Sm5  1  0.863442  0.944244  0.249283  1
  Fe  Fe6  1  0.999745  0.999653  0.000199  1
  Cl  Cl7  1  0.206330  0.750652  0.655388  1
  Cl  Cl8  1  0.643002  0.543126  0.725504  1
  Cl  Cl9  1  0.236143  0.077890  0.450862  1
  Cl  Cl10  1  0.805170  0.251382  0.349561  1
  Cl  Cl11  1  0.547178  0.167828  0.918765  1
  Cl  Cl12  1  0.757468  0.918134  0.552317  1
  Cl  Cl13  1  0.906917  0.632820  0.167449  1
  Cl  Cl14  1  0.351981  0.464389  0.273007  1
  Cl  Cl15  1  0.091768  0.365190  0.830735  1
  Cl  Cl16  1  0.454585  0.828073  0.074866  1
