# generated using pymatgen
data_Ga2IrRhS6
_symmetry_space_group_name_H-M   'P 1'
_cell_length_a   3.66431300
_cell_length_b   9.76744259
_cell_length_c   12.06609709
_cell_angle_alpha   89.58287615
_cell_angle_beta   90.00000000
_cell_angle_gamma   90.00000000
_symmetry_Int_Tables_number   1
_chemical_formula_structural   Ga2IrRhS6
_chemical_formula_sum   'Ga4 Ir2 Rh2 S12'
_cell_volume   431.84583661
_cell_formula_units_Z   2
loop_
 _symmetry_equiv_pos_site_id
 _symmetry_equiv_pos_as_xyz
  1  'x, y, z'
loop_
 _atom_site_type_symbol
 _atom_site_label
 _atom_site_symmetry_multiplicity
 _atom_site_fract_x
 _atom_site_fract_y
 _atom_site_fract_z
 _atom_site_occupancy
  Ga  Ga0  1  0.750000  0.260856  0.800126  1
  Ga  Ga1  1  0.250000  0.739144  0.199874  1
  Ga  Ga2  1  0.750000  0.759757  0.698757  1
  Ga  Ga3  1  0.250000  0.240243  0.301243  1
  Ir  Ir4  1  0.250000  0.908360  0.891080  1
  Ir  Ir5  1  0.750000  0.091640  0.108920  1
  Rh  Rh6  1  0.250000  0.407913  0.609042  1
  Rh  Rh7  1  0.750000  0.592087  0.390958  1
  S  S8  1  0.250000  0.936651  0.088010  1
  S  S9  1  0.750000  0.063349  0.911990  1
  S  S10  1  0.250000  0.435281  0.411488  1
  S  S11  1  0.750000  0.564719  0.588512  1
  S  S12  1  0.750000  0.095486  0.309112  1
  S  S13  1  0.250000  0.904514  0.690888  1
  S  S14  1  0.750000  0.595747  0.189647  1
  S  S15  1  0.250000  0.404253  0.810353  1
  S  S16  1  0.250000  0.252930  0.110384  1
  S  S17  1  0.750000  0.747070  0.889616  1
  S  S18  1  0.250000  0.754004  0.389679  1
  S  S19  1  0.750000  0.245996  0.610321  1
