# generated using pymatgen
data_Li8PrNd7Sn5Bi3
_symmetry_space_group_name_H-M   'P 1'
_cell_length_a   9.63808500
_cell_length_b   9.63585703
_cell_length_c   7.62003900
_cell_angle_alpha   90.00294022
_cell_angle_beta   90.00000000
_cell_angle_gamma   120.00764545
_symmetry_Int_Tables_number   1
_chemical_formula_structural   Li8PrNd7Sn5Bi3
_chemical_formula_sum   'Li8 Pr1 Nd7 Sn5 Bi3'
_cell_volume   612.82357131
_cell_formula_units_Z   1
loop_
 _symmetry_equiv_pos_site_id
 _symmetry_equiv_pos_as_xyz
  1  'x, y, z'
loop_
 _atom_site_type_symbol
 _atom_site_label
 _atom_site_symmetry_multiplicity
 _atom_site_fract_x
 _atom_site_fract_y
 _atom_site_fract_z
 _atom_site_occupancy
  Li  Li0  1  0.167167  0.334334  0.280575  1
  Li  Li1  1  0.166952  0.832603  0.280503  1
  Li  Li2  1  0.665651  0.832603  0.280503  1
  Li  Li3  1  0.831631  0.663262  0.787976  1
  Li  Li4  1  0.831739  0.168575  0.788151  1
  Li  Li5  1  0.336836  0.168575  0.788151  1
  Li  Li6  1  0.333242  0.666484  0.666547  1
  Li  Li7  1  0.666680  0.333359  0.173904  1
  Pr  Pr8  1  0.513927  0.027855  0.489922  1
  Nd  Nd9  1  0.514163  0.486138  0.489592  1
  Nd  Nd10  1  0.971974  0.486138  0.489592  1
  Nd  Nd11  1  0.490517  0.981034  0.999646  1
  Nd  Nd12  1  0.490595  0.509416  0.999778  1
  Nd  Nd13  1  0.018822  0.509416  0.999778  1
  Nd  Nd14  1  0.999955  0.999911  0.492985  1
  Nd  Nd15  1  0.999958  0.999916  0.006685  1
  Sn  Sn16  1  0.833426  0.666850  0.232551  1
  Sn  Sn17  1  0.834004  0.166958  0.231561  1
  Sn  Sn18  1  0.332956  0.166958  0.231561  1
  Sn  Sn19  1  0.333112  0.666226  0.263514  1
  Sn  Sn20  1  0.667038  0.334075  0.765000  1
  Bi  Bi21  1  0.166796  0.333593  0.734136  1
  Bi  Bi22  1  0.166070  0.832860  0.734683  1
  Bi  Bi23  1  0.666789  0.832860  0.734683  1
