# generated using pymatgen
data_Pa2FeNiH6
_symmetry_space_group_name_H-M   'P 1'
_cell_length_a   5.96758481
_cell_length_b   5.96758404
_cell_length_c   4.50614000
_cell_angle_alpha   90.00000000
_cell_angle_beta   90.00000000
_cell_angle_gamma   144.27551550
_symmetry_Int_Tables_number   1
_chemical_formula_structural   Pa2FeNiH6
_chemical_formula_sum   'Pa2 Fe1 Ni1 H6'
_cell_volume   93.69825775
_cell_formula_units_Z   1
loop_
 _symmetry_equiv_pos_site_id
 _symmetry_equiv_pos_as_xyz
  1  'x, y, z'
loop_
 _atom_site_type_symbol
 _atom_site_label
 _atom_site_symmetry_multiplicity
 _atom_site_fract_x
 _atom_site_fract_y
 _atom_site_fract_z
 _atom_site_occupancy
  Pa  Pa0  1  0.865946  0.134054  0.750000  1
  Pa  Pa1  1  0.134170  0.865830  0.250000  1
  Fe  Fe2  1  0.568406  0.431594  0.750000  1
  Ni  Ni3  1  0.441838  0.558162  0.250000  1
  H  H4  1  0.070440  0.929560  0.750000  1
  H  H5  1  0.928818  0.071182  0.250000  1
  H  H6  1  0.684662  0.315338  0.515222  1
  H  H7  1  0.310528  0.689472  0.489614  1
  H  H8  1  0.684662  0.315338  0.984778  1
  H  H9  1  0.310528  0.689472  0.010386  1
