# generated using pymatgen
data_Nd7Si4BiO20
_symmetry_space_group_name_H-M   'P 1'
_cell_length_a   7.40307307
_cell_length_b   6.92561422
_cell_length_c   9.35547794
_cell_angle_alpha   71.47821996
_cell_angle_beta   90.15252564
_cell_angle_gamma   90.41242424
_symmetry_Int_Tables_number   1
_chemical_formula_structural   Nd7Si4BiO20
_chemical_formula_sum   'Nd7 Si4 Bi1 O20'
_cell_volume   454.80615826
_cell_formula_units_Z   1
loop_
 _symmetry_equiv_pos_site_id
 _symmetry_equiv_pos_as_xyz
  1  'x, y, z'
loop_
 _atom_site_type_symbol
 _atom_site_label
 _atom_site_symmetry_multiplicity
 _atom_site_fract_x
 _atom_site_fract_y
 _atom_site_fract_z
 _atom_site_occupancy
  Nd  Nd0  1  0.127291  0.264573  0.019733  1
  Nd  Nd1  1  0.656914  0.095719  0.606692  1
  Nd  Nd2  1  0.845595  0.592065  0.611020  1
  Nd  Nd3  1  0.155233  0.407243  0.390138  1
  Nd  Nd4  1  0.344817  0.907446  0.390181  1
  Nd  Nd5  1  0.877588  0.728806  0.979364  1
  Nd  Nd6  1  0.375308  0.763287  0.022356  1
  Si  Si7  1  0.080613  0.043120  0.700853  1
  Si  Si8  1  0.579367  0.460811  0.299637  1
  Si  Si9  1  0.418206  0.545017  0.702838  1
  Si  Si10  1  0.919417  0.955204  0.298806  1
  Bi  Bi11  1  0.628677  0.219174  0.977811  1
  O  O12  1  0.568472  0.363741  0.708453  1
  O  O13  1  0.357809  0.501138  0.880126  1
  O  O14  1  0.374955  0.042375  0.115829  1
  O  O15  1  0.867760  0.998072  0.118472  1
  O  O16  1  0.250401  0.057334  0.589181  1
  O  O17  1  0.748554  0.943633  0.408512  1
  O  O18  1  0.038481  0.745770  0.368431  1
  O  O19  1  0.135705  0.993662  0.880532  1
  O  O20  1  0.460834  0.247726  0.364494  1
  O  O21  1  0.627031  0.959632  0.882745  1
  O  O22  1  0.072355  0.135684  0.291594  1
  O  O23  1  0.122852  0.547924  0.115695  1
  O  O24  1  0.748210  0.442950  0.413437  1
  O  O25  1  0.541404  0.754209  0.634850  1
  O  O26  1  0.961090  0.252953  0.631739  1
  O  O27  1  0.926491  0.864286  0.706499  1
  O  O28  1  0.636142  0.525790  0.120094  1
  O  O29  1  0.879757  0.447694  0.882921  1
  O  O30  1  0.423515  0.634278  0.297200  1
  O  O31  1  0.249157  0.558683  0.589766  1
