# generated using pymatgen
data_Y2TaNb2Co9As7
_symmetry_space_group_name_H-M   'P 1'
_cell_length_a   3.82760800
_cell_length_b   9.53116146
_cell_length_c   9.53576408
_cell_angle_alpha   119.94108709
_cell_angle_beta   90.00000000
_cell_angle_gamma   90.00000000
_symmetry_Int_Tables_number   1
_chemical_formula_structural   Y2TaNb2Co9As7
_chemical_formula_sum   'Y2 Ta1 Nb2 Co9 As7'
_cell_volume   301.45113326
_cell_formula_units_Z   1
loop_
 _symmetry_equiv_pos_site_id
 _symmetry_equiv_pos_as_xyz
  1  'x, y, z'
loop_
 _atom_site_type_symbol
 _atom_site_label
 _atom_site_symmetry_multiplicity
 _atom_site_fract_x
 _atom_site_fract_y
 _atom_site_fract_z
 _atom_site_occupancy
  Y  Y0  1  0.000000  0.666746  0.333879  1
  Y  Y1  1  0.500000  0.332610  0.666590  1
  Ta  Ta2  1  0.500000  0.775308  0.894671  1
  Nb  Nb3  1  0.500000  0.120271  0.224087  1
  Nb  Nb4  1  0.500000  0.104162  0.879748  1
  Co  Co5  1  0.000000  0.572659  0.937072  1
  Co  Co6  1  0.000000  0.366539  0.428414  1
  Co  Co7  1  0.000000  0.061373  0.633537  1
  Co  Co8  1  0.000000  0.876021  0.157724  1
  Co  Co9  1  0.000000  0.283359  0.123667  1
  Co  Co10  1  0.000000  0.840080  0.719204  1
  Co  Co11  1  0.500000  0.948328  0.384996  1
  Co  Co12  1  0.500000  0.436938  0.051172  1
  Co  Co13  1  0.500000  0.615438  0.564559  1
  As  As14  1  0.000000  0.000725  0.000375  1
  As  As15  1  0.500000  0.708780  0.124755  1
  As  As16  1  0.500000  0.415551  0.291311  1
  As  As17  1  0.500000  0.876403  0.584969  1
  As  As18  1  0.000000  0.579365  0.691258  1
  As  As19  1  0.000000  0.110822  0.419134  1
  As  As20  1  0.000000  0.308523  0.888876  1
