# generated using pymatgen
data_Ca10Si4SnSb
_symmetry_space_group_name_H-M   'P 1'
_cell_length_a   9.31234180
_cell_length_b   9.31234071
_cell_length_c   9.31234168
_cell_angle_alpha   130.65517178
_cell_angle_beta   130.65517373
_cell_angle_gamma   72.36152158
_symmetry_Int_Tables_number   1
_chemical_formula_structural   Ca10Si4SnSb
_chemical_formula_sum   'Ca10 Si4 Sn1 Sb1'
_cell_volume   454.32017040
_cell_formula_units_Z   1
loop_
 _symmetry_equiv_pos_site_id
 _symmetry_equiv_pos_as_xyz
  1  'x, y, z'
loop_
 _atom_site_type_symbol
 _atom_site_label
 _atom_site_symmetry_multiplicity
 _atom_site_fract_x
 _atom_site_fract_y
 _atom_site_fract_z
 _atom_site_occupancy
  Ca  Ca0  1  0.811558  0.314028  0.852576  1
  Ca  Ca1  1  0.185972  0.688442  0.147424  1
  Ca  Ca2  1  0.461452  0.958982  0.147424  1
  Ca  Ca3  1  0.314028  0.461452  0.502470  1
  Ca  Ca4  1  0.038548  0.185972  0.497530  1
  Ca  Ca5  1  0.541018  0.038548  0.852576  1
  Ca  Ca6  1  0.688442  0.541018  0.502470  1
  Ca  Ca7  1  0.958982  0.811558  0.497530  1
  Ca  Ca8  1  0.998540  0.998540  0.000000  1
  Ca  Ca9  1  0.501460  0.501460  0.000000  1
  Si  Si10  1  0.113243  0.613243  0.726486  1
  Si  Si11  1  0.886757  0.386757  0.273514  1
  Si  Si12  1  0.613243  0.886757  0.500000  1
  Si  Si13  1  0.386757  0.113243  0.500000  1
  Sn  Sn14  1  0.750000  0.750000  0.000000  1
  Sb  Sb15  1  0.250000  0.250000  0.000000  1
