# generated using pymatgen
data_Sr7Pr13Pb16
_symmetry_space_group_name_H-M   'P 1'
_cell_length_a   8.34695070
_cell_length_b   8.87255943
_cell_length_c   16.80950000
_cell_angle_alpha   90.06653306
_cell_angle_beta   89.79639139
_cell_angle_gamma   89.98212287
_symmetry_Int_Tables_number   1
_chemical_formula_structural   Sr7Pr13Pb16
_chemical_formula_sum   'Sr7 Pr13 Pb16'
_cell_volume   1244.88290796
_cell_formula_units_Z   1
loop_
 _symmetry_equiv_pos_site_id
 _symmetry_equiv_pos_as_xyz
  1  'x, y, z'
loop_
 _atom_site_type_symbol
 _atom_site_label
 _atom_site_symmetry_multiplicity
 _atom_site_fract_x
 _atom_site_fract_y
 _atom_site_fract_z
 _atom_site_occupancy
  Sr  Sr0  1  0.498400  0.318070  0.405455  1
  Sr  Sr1  1  0.502289  0.683085  0.909877  1
  Sr  Sr2  1  0.001894  0.817491  0.590693  1
  Sr  Sr3  1  0.002192  0.819587  0.910184  1
  Sr  Sr4  1  0.502912  0.682183  0.590836  1
  Sr  Sr5  1  0.498690  0.317737  0.092811  1
  Sr  Sr6  1  0.999116  0.181244  0.406131  1
  Pr  Pr7  1  0.825277  0.661866  0.123524  1
  Pr  Pr8  1  0.323480  0.838764  0.376529  1
  Pr  Pr9  1  0.673957  0.159385  0.878912  1
  Pr  Pr10  1  0.174335  0.340117  0.621815  1
  Pr  Pr11  1  0.173586  0.338792  0.877696  1
  Pr  Pr12  1  0.674558  0.160951  0.621626  1
  Pr  Pr13  1  0.327077  0.840137  0.121421  1
  Pr  Pr14  1  0.824928  0.658839  0.375165  1
  Pr  Pr15  1  0.993451  0.186848  0.096092  1
  Pr  Pr16  1  0.663193  0.009747  0.251627  1
  Pr  Pr17  1  0.167209  0.489958  0.250014  1
  Pr  Pr18  1  0.834452  0.511501  0.750653  1
  Pr  Pr19  1  0.331687  0.988265  0.750201  1
  Pb  Pb20  1  0.023570  0.872133  0.248875  1
  Pb  Pb21  1  0.523796  0.633348  0.248579  1
  Pb  Pb22  1  0.474311  0.364829  0.750665  1
  Pb  Pb23  1  0.973509  0.134265  0.749203  1
  Pb  Pb24  1  0.798946  0.354516  0.247150  1
  Pb  Pb25  1  0.289552  0.139075  0.245085  1
  Pb  Pb26  1  0.709588  0.862738  0.750684  1
  Pb  Pb27  1  0.211364  0.638902  0.750109  1
  Pb  Pb28  1  0.829646  0.454360  0.960589  1
  Pb  Pb29  1  0.329859  0.041037  0.542909  1
  Pb  Pb30  1  0.679198  0.964639  0.046302  1
  Pb  Pb31  1  0.170384  0.540076  0.455561  1
  Pb  Pb32  1  0.169107  0.532554  0.045816  1
  Pb  Pb33  1  0.670675  0.959293  0.455625  1
  Pb  Pb34  1  0.324637  0.044153  0.958739  1
  Pb  Pb35  1  0.829171  0.459510  0.542847  1
