# generated using pymatgen
data_Y3Ag5Ir
_symmetry_space_group_name_H-M   'P 1'
_cell_length_a   7.76505300
_cell_length_b   7.76505125
_cell_length_c   3.80586400
_cell_angle_alpha   90.00000000
_cell_angle_beta   90.00000000
_cell_angle_gamma   120.00000207
_symmetry_Int_Tables_number   1
_chemical_formula_structural   Y3Ag5Ir
_chemical_formula_sum   'Y3 Ag5 Ir1'
_cell_volume   198.73421248
_cell_formula_units_Z   1
loop_
 _symmetry_equiv_pos_site_id
 _symmetry_equiv_pos_as_xyz
  1  'x, y, z'
loop_
 _atom_site_type_symbol
 _atom_site_label
 _atom_site_symmetry_multiplicity
 _atom_site_fract_x
 _atom_site_fract_y
 _atom_site_fract_z
 _atom_site_occupancy
  Y  Y0  1  0.420413  0.387830  0.500000  1
  Y  Y1  1  0.967418  0.579587  0.500000  1
  Y  Y2  1  0.612170  0.032582  0.500000  1
  Ag  Ag3  1  0.730731  0.737507  0.000000  1
  Ag  Ag4  1  0.262493  0.993225  0.000000  1
  Ag  Ag5  1  0.006775  0.269269  0.000000  1
  Ag  Ag6  1  0.333333  0.666667  0.000000  1
  Ag  Ag7  1  0.000000  0.000000  0.500000  1
  Ir  Ir8  1  0.666667  0.333333  0.000000  1
