# generated using pymatgen
data_Nd3Eu2Pb3Cl
_symmetry_space_group_name_H-M   'P 1'
_cell_length_a   9.49412904
_cell_length_b   9.49412923
_cell_length_c   7.14335400
_cell_angle_alpha   90.00000000
_cell_angle_beta   90.00000000
_cell_angle_gamma   120.01069453
_symmetry_Int_Tables_number   1
_chemical_formula_structural   Nd3Eu2Pb3Cl
_chemical_formula_sum   'Nd6 Eu4 Pb6 Cl2'
_cell_volume   557.56597258
_cell_formula_units_Z   2
loop_
 _symmetry_equiv_pos_site_id
 _symmetry_equiv_pos_as_xyz
  1  'x, y, z'
loop_
 _atom_site_type_symbol
 _atom_site_label
 _atom_site_symmetry_multiplicity
 _atom_site_fract_x
 _atom_site_fract_y
 _atom_site_fract_z
 _atom_site_occupancy
  Nd  Nd0  1  0.746221  0.746221  0.250000  1
  Nd  Nd1  1  0.253779  0.253779  0.750000  1
  Nd  Nd2  1  0.331900  0.668100  0.000000  1
  Nd  Nd3  1  0.668100  0.331900  0.000000  1
  Nd  Nd4  1  0.668100  0.331900  0.500000  1
  Nd  Nd5  1  0.331900  0.668100  0.500000  1
  Eu  Eu6  1  0.254837  0.001300  0.250000  1
  Eu  Eu7  1  0.745163  0.998700  0.750000  1
  Eu  Eu8  1  0.001300  0.254837  0.250000  1
  Eu  Eu9  1  0.998700  0.745163  0.750000  1
  Pb  Pb10  1  0.604447  0.996210  0.250000  1
  Pb  Pb11  1  0.395553  0.003790  0.750000  1
  Pb  Pb12  1  0.996210  0.604447  0.250000  1
  Pb  Pb13  1  0.003790  0.395553  0.750000  1
  Pb  Pb14  1  0.400756  0.400756  0.250000  1
  Pb  Pb15  1  0.599244  0.599244  0.750000  1
  Cl  Cl16  1  0.000000  0.000000  0.000000  1
  Cl  Cl17  1  0.000000  0.000000  0.500000  1
