# generated using pymatgen
data_TbSmNiSn5Rh2
_symmetry_space_group_name_H-M   'P 1'
_cell_length_a   13.42427509
_cell_length_b   13.42427655
_cell_length_c   7.23231900
_cell_angle_alpha   90.00000000
_cell_angle_beta   90.00000000
_cell_angle_gamma   160.94515489
_symmetry_Int_Tables_number   1
_chemical_formula_structural   TbSmNiSn5Rh2
_chemical_formula_sum   'Tb2 Sm2 Ni2 Sn10 Rh4'
_cell_volume   425.50697752
_cell_formula_units_Z   2
loop_
 _symmetry_equiv_pos_site_id
 _symmetry_equiv_pos_as_xyz
  1  'x, y, z'
loop_
 _atom_site_type_symbol
 _atom_site_label
 _atom_site_symmetry_multiplicity
 _atom_site_fract_x
 _atom_site_fract_y
 _atom_site_fract_z
 _atom_site_occupancy
  Tb  Tb0  1  0.475942  0.524058  0.741788  1
  Tb  Tb1  1  0.524058  0.475942  0.241788  1
  Sm  Sm2  1  0.171705  0.828295  0.752371  1
  Sm  Sm3  1  0.828295  0.171705  0.252371  1
  Ni  Ni4  1  0.049996  0.950004  0.518018  1
  Ni  Ni5  1  0.950004  0.049996  0.018018  1
  Sn  Sn6  1  0.881284  0.118716  0.734262  1
  Sn  Sn7  1  0.118716  0.881284  0.234262  1
  Sn  Sn8  1  0.703775  0.296225  0.048203  1
  Sn  Sn9  1  0.296225  0.703775  0.548203  1
  Sn  Sn10  1  0.593437  0.406563  0.609443  1
  Sn  Sn11  1  0.406563  0.593437  0.109443  1
  Sn  Sn12  1  0.954245  0.045755  0.397999  1
  Sn  Sn13  1  0.045755  0.954245  0.897999  1
  Sn  Sn14  1  0.290645  0.709355  0.977106  1
  Sn  Sn15  1  0.709355  0.290645  0.477106  1
  Rh  Rh16  1  0.777942  0.222058  0.765797  1
  Rh  Rh17  1  0.222058  0.777942  0.265797  1
  Rh  Rh18  1  0.396381  0.603619  0.483011  1
  Rh  Rh19  1  0.603619  0.396381  0.983011  1
