# generated using pymatgen
data_Pr3Nd9IrPd3
_symmetry_space_group_name_H-M   'P 1'
_cell_length_a   6.64599029
_cell_length_b   7.34312902
_cell_length_c   10.05239400
_cell_angle_alpha   90.00000000
_cell_angle_beta   90.00000000
_cell_angle_gamma   89.97835088
_symmetry_Int_Tables_number   1
_chemical_formula_structural   Pr3Nd9IrPd3
_chemical_formula_sum   'Pr3 Nd9 Ir1 Pd3'
_cell_volume   490.58055828
_cell_formula_units_Z   1
loop_
 _symmetry_equiv_pos_site_id
 _symmetry_equiv_pos_as_xyz
  1  'x, y, z'
loop_
 _atom_site_type_symbol
 _atom_site_label
 _atom_site_symmetry_multiplicity
 _atom_site_fract_x
 _atom_site_fract_y
 _atom_site_fract_z
 _atom_site_occupancy
  Pr  Pr0  1  0.861687  0.527297  0.250000  1
  Pr  Pr1  1  0.637339  0.027936  0.250000  1
  Pr  Pr2  1  0.145942  0.472746  0.750000  1
  Nd  Nd3  1  0.331699  0.678548  0.058762  1
  Nd  Nd4  1  0.167092  0.177403  0.439357  1
  Nd  Nd5  1  0.666431  0.327911  0.565014  1
  Nd  Nd6  1  0.826926  0.818898  0.936095  1
  Nd  Nd7  1  0.666431  0.327911  0.934986  1
  Nd  Nd8  1  0.826926  0.818898  0.563905  1
  Nd  Nd9  1  0.331699  0.678548  0.441238  1
  Nd  Nd10  1  0.167092  0.177403  0.060643  1
  Nd  Nd11  1  0.368661  0.961085  0.750000  1
  Ir  Ir12  1  0.569388  0.618475  0.750000  1
  Pd  Pd13  1  0.071557  0.885057  0.250000  1
  Pd  Pd14  1  0.425342  0.386762  0.250000  1
  Pd  Pd15  1  0.935787  0.115124  0.750000  1
