# generated using pymatgen
data_Pr16Cd4IrRh3
_symmetry_space_group_name_H-M   'P 1'
_cell_length_a   10.02634226
_cell_length_b   9.99538203
_cell_length_c   9.99538300
_cell_angle_alpha   60.00000011
_cell_angle_beta   60.10209416
_cell_angle_gamma   60.10209139
_symmetry_Int_Tables_number   1
_chemical_formula_structural   Pr16Cd4IrRh3
_chemical_formula_sum   'Pr16 Cd4 Ir1 Rh3'
_cell_volume   709.40593673
_cell_formula_units_Z   1
loop_
 _symmetry_equiv_pos_site_id
 _symmetry_equiv_pos_as_xyz
  1  'x, y, z'
loop_
 _atom_site_type_symbol
 _atom_site_label
 _atom_site_symmetry_multiplicity
 _atom_site_fract_x
 _atom_site_fract_y
 _atom_site_fract_z
 _atom_site_occupancy
  Pr  Pr0  1  0.348330  0.347992  0.347992  1
  Pr  Pr1  1  0.348330  0.347992  0.955684  1
  Pr  Pr2  1  0.348330  0.955684  0.347992  1
  Pr  Pr3  1  0.955308  0.348230  0.348230  1
  Pr  Pr4  1  0.810064  0.189671  0.189671  1
  Pr  Pr5  1  0.189976  0.810192  0.810192  1
  Pr  Pr6  1  0.189976  0.810192  0.189639  1
  Pr  Pr7  1  0.810064  0.189671  0.810595  1
  Pr  Pr8  1  0.189976  0.189639  0.810192  1
  Pr  Pr9  1  0.810064  0.810595  0.189671  1
  Pr  Pr10  1  0.937013  0.563010  0.563010  1
  Pr  Pr11  1  0.563047  0.937837  0.937837  1
  Pr  Pr12  1  0.563047  0.937837  0.561280  1
  Pr  Pr13  1  0.937013  0.563010  0.936967  1
  Pr  Pr14  1  0.563047  0.561280  0.937837  1
  Pr  Pr15  1  0.937013  0.936967  0.563010  1
  Cd  Cd16  1  0.579499  0.579510  0.579510  1
  Cd  Cd17  1  0.579499  0.579510  0.261479  1
  Cd  Cd18  1  0.579499  0.261479  0.579510  1
  Cd  Cd19  1  0.261578  0.579474  0.579474  1
  Ir  Ir20  1  0.573908  0.142031  0.142031  1
  Rh  Rh21  1  0.141805  0.141740  0.141740  1
  Rh  Rh22  1  0.141805  0.141740  0.574714  1
  Rh  Rh23  1  0.141805  0.574714  0.141740  1
