# generated using pymatgen
data_V20Si12C
_symmetry_space_group_name_H-M   'P 1'
_cell_length_a   4.82850707
_cell_length_b   7.12749290
_cell_length_c   12.33491900
_cell_angle_alpha   90.00000000
_cell_angle_beta   90.00000000
_cell_angle_gamma   90.02268398
_symmetry_Int_Tables_number   1
_chemical_formula_structural   V20Si12C
_chemical_formula_sum   'V20 Si12 C1'
_cell_volume   424.50805271
_cell_formula_units_Z   1
loop_
 _symmetry_equiv_pos_site_id
 _symmetry_equiv_pos_as_xyz
  1  'x, y, z'
loop_
 _atom_site_type_symbol
 _atom_site_label
 _atom_site_symmetry_multiplicity
 _atom_site_fract_x
 _atom_site_fract_y
 _atom_site_fract_z
 _atom_site_occupancy
  V  V0  1  0.499997  0.000030  0.332366  1
  V  V1  1  0.500001  0.500011  0.834098  1
  V  V2  1  0.500001  0.500011  0.165902  1
  V  V3  1  0.499997  0.000030  0.667634  1
  V  V4  1  0.000000  0.500015  0.167990  1
  V  V5  1  0.999984  0.000022  0.665557  1
  V  V6  1  0.999984  0.000022  0.334443  1
  V  V7  1  0.000000  0.500015  0.832010  1
  V  V8  1  0.745375  0.238551  0.000000  1
  V  V9  1  0.748655  0.745304  0.500000  1
  V  V10  1  0.749906  0.376688  0.378492  1
  V  V11  1  0.744818  0.881104  0.880557  1
  V  V12  1  0.744818  0.881104  0.119443  1
  V  V13  1  0.749906  0.376688  0.621508  1
  V  V14  1  0.254695  0.761512  0.000000  1
  V  V15  1  0.251296  0.254427  0.500000  1
  V  V16  1  0.255223  0.118865  0.119430  1
  V  V17  1  0.250067  0.623300  0.621544  1
  V  V18  1  0.250067  0.623300  0.378456  1
  V  V19  1  0.255223  0.118865  0.880570  1
  Si  Si20  1  0.757902  0.599540  0.000000  1
  Si  Si21  1  0.748945  0.103802  0.500000  1
  Si  Si22  1  0.757501  0.200367  0.200506  1
  Si  Si23  1  0.749831  0.697510  0.697496  1
  Si  Si24  1  0.749831  0.697510  0.302504  1
  Si  Si25  1  0.757501  0.200367  0.799494  1
  Si  Si26  1  0.242112  0.400507  0.000000  1
  Si  Si27  1  0.251020  0.896173  0.500000  1
  Si  Si28  1  0.250138  0.302545  0.302534  1
  Si  Si29  1  0.242511  0.799637  0.799487  1
  Si  Si30  1  0.242511  0.799637  0.200513  1
  Si  Si31  1  0.250138  0.302545  0.697466  1
  C  C32  1  0.500049  0.999999  0.000000  1
