# generated using pymatgen
data_KNiAs2Ru
_symmetry_space_group_name_H-M   'P 1'
_cell_length_a   7.45631226
_cell_length_b   7.45631258
_cell_length_c   7.45631136
_cell_angle_alpha   149.53116666
_cell_angle_beta   149.53117293
_cell_angle_gamma   43.63003439
_symmetry_Int_Tables_number   1
_chemical_formula_structural   KNiAs2Ru
_chemical_formula_sum   'K1 Ni1 As2 Ru1'
_cell_volume   106.29417530
_cell_formula_units_Z   1
loop_
 _symmetry_equiv_pos_site_id
 _symmetry_equiv_pos_as_xyz
  1  'x, y, z'
loop_
 _atom_site_type_symbol
 _atom_site_label
 _atom_site_symmetry_multiplicity
 _atom_site_fract_x
 _atom_site_fract_y
 _atom_site_fract_z
 _atom_site_occupancy
  K  K0  1  0.000000  0.000000  0.000000  1
  Ni  Ni1  1  0.750000  0.250000  0.500000  1
  As  As2  1  0.350501  0.350501  0.000000  1
  As  As3  1  0.649499  0.649499  0.000000  1
  Ru  Ru4  1  0.250000  0.750000  0.500000  1
