# generated using pymatgen
data_Gd5Dy3Y2(SiB4)4
_symmetry_space_group_name_H-M   'P 1'
_cell_length_a   7.26227204
_cell_length_b   7.26161503
_cell_length_c   8.17391501
_cell_angle_alpha   90.00251386
_cell_angle_beta   90.00527170
_cell_angle_gamma   89.98980623
_symmetry_Int_Tables_number   1
_chemical_formula_structural   Gd5Dy3Y2(SiB4)4
_chemical_formula_sum   'Gd5 Dy3 Y2 Si4 B16'
_cell_volume   431.05813249
_cell_formula_units_Z   1
loop_
 _symmetry_equiv_pos_site_id
 _symmetry_equiv_pos_as_xyz
  1  'x, y, z'
loop_
 _atom_site_type_symbol
 _atom_site_label
 _atom_site_symmetry_multiplicity
 _atom_site_fract_x
 _atom_site_fract_y
 _atom_site_fract_z
 _atom_site_occupancy
  Gd  Gd0  1  0.680408  0.180449  0.225148  1
  Gd  Gd1  1  0.319495  0.819703  0.774757  1
  Gd  Gd2  1  0.319496  0.819605  0.225082  1
  Gd  Gd3  1  0.819598  0.680248  0.224819  1
  Gd  Gd4  1  0.819466  0.680443  0.775009  1
  Dy  Dy5  1  0.680268  0.180409  0.777281  1
  Dy  Dy6  1  0.180385  0.319617  0.777523  1
  Dy  Dy7  1  0.180257  0.319694  0.222285  1
  Y  Y8  1  0.000301  0.000448  0.500203  1
  Y  Y9  1  0.499915  0.499512  0.500193  1
  Si  Si10  1  0.115354  0.613098  0.500515  1
  Si  Si11  1  0.885686  0.383856  0.500623  1
  Si  Si12  1  0.384701  0.116261  0.500804  1
  Si  Si13  1  0.614389  0.886646  0.500875  1
  B  B14  1  0.172668  0.039977  0.999613  1
  B  B15  1  0.827552  0.961200  0.999778  1
  B  B16  1  0.960886  0.173025  0.999753  1
  B  B17  1  0.327251  0.538677  0.999656  1
  B  B18  1  0.039300  0.827882  0.999660  1
  B  B19  1  0.672439  0.460227  0.999767  1
  B  B20  1  0.539154  0.672111  0.999578  1
  B  B21  1  0.460399  0.327014  0.999790  1
  B  B22  1  0.090092  0.589708  0.999876  1
  B  B23  1  0.910228  0.409847  0.999923  1
  B  B24  1  0.409940  0.090300  0.999452  1
  B  B25  1  0.590158  0.910063  0.999432  1
  B  B26  1  0.000418  0.000504  0.159821  1
  B  B27  1  0.000063  0.000766  0.839501  1
  B  B28  1  0.499993  0.499183  0.839495  1
  B  B29  1  0.499738  0.499530  0.159787  1
