# generated using pymatgen
data_NaFe3CuAs12
_symmetry_space_group_name_H-M   'P 1'
_cell_length_a   7.27345904
_cell_length_b   7.27345871
_cell_length_c   7.27345955
_cell_angle_alpha   109.49679030
_cell_angle_beta   109.49678621
_cell_angle_gamma   109.49678160
_symmetry_Int_Tables_number   1
_chemical_formula_structural   NaFe3CuAs12
_chemical_formula_sum   'Na1 Fe3 Cu1 As12'
_cell_volume   295.93024669
_cell_formula_units_Z   1
loop_
 _symmetry_equiv_pos_site_id
 _symmetry_equiv_pos_as_xyz
  1  'x, y, z'
loop_
 _atom_site_type_symbol
 _atom_site_label
 _atom_site_symmetry_multiplicity
 _atom_site_fract_x
 _atom_site_fract_y
 _atom_site_fract_z
 _atom_site_occupancy
  Na  Na0  1  0.000000  0.000000  0.000000  1
  Fe  Fe1  1  0.500000  0.000000  0.000000  1
  Fe  Fe2  1  0.000000  0.500000  0.000000  1
  Fe  Fe3  1  0.000000  0.000000  0.500000  1
  Cu  Cu4  1  0.500000  0.500000  0.500000  1
  As  As5  1  0.859750  0.660670  0.501032  1
  As  As6  1  0.140250  0.339330  0.498968  1
  As  As7  1  0.155942  0.660339  0.814915  1
  As  As8  1  0.844058  0.339661  0.185085  1
  As  As9  1  0.660670  0.501032  0.859750  1
  As  As10  1  0.339330  0.498968  0.140250  1
  As  As11  1  0.660339  0.814915  0.155942  1
  As  As12  1  0.339661  0.185085  0.844058  1
  As  As13  1  0.501032  0.859750  0.660670  1
  As  As14  1  0.498968  0.140250  0.339330  1
  As  As15  1  0.185085  0.844058  0.339661  1
  As  As16  1  0.814915  0.155942  0.660339  1
