# generated using pymatgen
data_Zn2Cd2P7N12
_symmetry_space_group_name_H-M   'P 1'
_cell_length_a   7.28143146
_cell_length_b   7.27114467
_cell_length_c   7.28143235
_cell_angle_alpha   110.04508485
_cell_angle_beta   108.38794498
_cell_angle_gamma   110.04509102
_symmetry_Int_Tables_number   1
_chemical_formula_structural   Zn2Cd2P7N12
_chemical_formula_sum   'Zn2 Cd2 P7 N12'
_cell_volume   296.46819895
_cell_formula_units_Z   1
loop_
 _symmetry_equiv_pos_site_id
 _symmetry_equiv_pos_as_xyz
  1  'x, y, z'
loop_
 _atom_site_type_symbol
 _atom_site_label
 _atom_site_symmetry_multiplicity
 _atom_site_fract_x
 _atom_site_fract_y
 _atom_site_fract_z
 _atom_site_occupancy
  Zn  Zn0  1  0.647096  0.000000  0.000302  1
  Zn  Zn1  1  0.000302  0.000000  0.647096  1
  Cd  Cd2  1  0.016921  0.704614  0.016921  1
  Cd  Cd3  1  0.312307  0.295386  0.312307  1
  P  P4  1  0.253788  0.750406  0.507059  1
  P  P5  1  0.756653  0.249594  0.503382  1
  P  P6  1  0.753306  0.500000  0.253306  1
  P  P7  1  0.253306  0.500000  0.753306  1
  P  P8  1  0.507059  0.750406  0.253788  1
  P  P9  1  0.503382  0.249594  0.756653  1
  P  P10  1  0.949076  0.000000  0.949076  1
  N  N11  1  0.716537  0.275019  0.278421  1
  N  N12  1  0.288611  0.720722  0.288611  1
  N  N13  1  0.286693  0.562015  0.565757  1
  N  N14  1  0.565757  0.562015  0.286693  1
  N  N15  1  0.441518  0.724981  0.003403  1
  N  N16  1  0.003403  0.724981  0.441518  1
  N  N17  1  0.567889  0.279278  0.567889  1
  N  N18  1  0.733870  0.000000  0.435683  1
  N  N19  1  0.435683  0.000000  0.733870  1
  N  N20  1  0.724678  0.437985  0.003742  1
  N  N21  1  0.278421  0.275019  0.716537  1
  N  N22  1  0.003742  0.437985  0.724678  1
