# generated using pymatgen
data_TbCd2Ga2Ni
_symmetry_space_group_name_H-M   'P 1'
_cell_length_a   8.51831401
_cell_length_b   8.51831479
_cell_length_c   6.71766900
_cell_angle_alpha   90.00000000
_cell_angle_beta   90.00000000
_cell_angle_gamma   151.98352441
_symmetry_Int_Tables_number   1
_chemical_formula_structural   TbCd2Ga2Ni
_chemical_formula_sum   'Tb2 Cd4 Ga4 Ni2'
_cell_volume   228.96548016
_cell_formula_units_Z   2
loop_
 _symmetry_equiv_pos_site_id
 _symmetry_equiv_pos_as_xyz
  1  'x, y, z'
loop_
 _atom_site_type_symbol
 _atom_site_label
 _atom_site_symmetry_multiplicity
 _atom_site_fract_x
 _atom_site_fract_y
 _atom_site_fract_z
 _atom_site_occupancy
  Tb  Tb0  1  0.368833  0.631167  0.750000  1
  Tb  Tb1  1  0.631167  0.368833  0.250000  1
  Cd  Cd2  1  0.000000  0.000000  0.000000  1
  Cd  Cd3  1  0.000000  0.000000  0.500000  1
  Cd  Cd4  1  0.573632  0.426368  0.750000  1
  Cd  Cd5  1  0.426368  0.573632  0.250000  1
  Ga  Ga6  1  0.189840  0.810160  0.945849  1
  Ga  Ga7  1  0.810160  0.189840  0.054151  1
  Ga  Ga8  1  0.189840  0.810160  0.554151  1
  Ga  Ga9  1  0.810160  0.189840  0.445849  1
  Ni  Ni10  1  0.732076  0.267924  0.750000  1
  Ni  Ni11  1  0.267924  0.732076  0.250000  1
