# generated using pymatgen
data_Y8ErMg(Ni2Bi)2
_symmetry_space_group_name_H-M   'P 1'
_cell_length_a   8.79060042
_cell_length_b   8.79060061
_cell_length_c   8.79060105
_cell_angle_alpha   129.24199968
_cell_angle_beta   129.24201085
_cell_angle_gamma   74.62148829
_symmetry_Int_Tables_number   1
_chemical_formula_structural   Y8ErMg(Ni2Bi)2
_chemical_formula_sum   'Y8 Er1 Mg1 Ni4 Bi2'
_cell_volume   397.00108171
_cell_formula_units_Z   1
loop_
 _symmetry_equiv_pos_site_id
 _symmetry_equiv_pos_as_xyz
  1  'x, y, z'
loop_
 _atom_site_type_symbol
 _atom_site_label
 _atom_site_symmetry_multiplicity
 _atom_site_fract_x
 _atom_site_fract_y
 _atom_site_fract_z
 _atom_site_occupancy
  Y  Y0  1  0.800030  0.283197  0.824397  1
  Y  Y1  1  0.199970  0.716803  0.175603  1
  Y  Y2  1  0.458799  0.975632  0.175603  1
  Y  Y3  1  0.283197  0.458799  0.483167  1
  Y  Y4  1  0.024368  0.199970  0.483167  1
  Y  Y5  1  0.541201  0.024368  0.824397  1
  Y  Y6  1  0.716803  0.541201  0.516833  1
  Y  Y7  1  0.975632  0.800030  0.516833  1
  Er  Er8  1  0.500000  0.500000  0.000000  1
  Mg  Mg9  1  0.000000  0.000000  0.000000  1
  Ni  Ni10  1  0.132118  0.623452  0.755570  1
  Ni  Ni11  1  0.867882  0.376548  0.244430  1
  Ni  Ni12  1  0.623452  0.867882  0.491334  1
  Ni  Ni13  1  0.376548  0.132118  0.508666  1
  Bi  Bi14  1  0.258744  0.258744  0.000000  1
  Bi  Bi15  1  0.741256  0.741256  0.000000  1
