# generated using pymatgen
data_Tm4Lu4Ga3Rh
_symmetry_space_group_name_H-M   'P 1'
_cell_length_a   9.89262400
_cell_length_b   9.89262390
_cell_length_c   6.88392400
_cell_angle_alpha   90.00000000
_cell_angle_beta   90.00000000
_cell_angle_gamma   120.00000703
_symmetry_Int_Tables_number   1
_chemical_formula_structural   Tm4Lu4Ga3Rh
_chemical_formula_sum   'Tm8 Lu8 Ga6 Rh2'
_cell_volume   583.43122523
_cell_formula_units_Z   2
loop_
 _symmetry_equiv_pos_site_id
 _symmetry_equiv_pos_as_xyz
  1  'x, y, z'
loop_
 _atom_site_type_symbol
 _atom_site_label
 _atom_site_symmetry_multiplicity
 _atom_site_fract_x
 _atom_site_fract_y
 _atom_site_fract_z
 _atom_site_occupancy
  Tm  Tm0  1  0.466041  0.533959  0.295219  1
  Tm  Tm1  1  0.932080  0.466041  0.795219  1
  Tm  Tm2  1  0.533959  0.067920  0.795219  1
  Tm  Tm3  1  0.466041  0.932080  0.295219  1
  Tm  Tm4  1  0.067920  0.533959  0.295219  1
  Tm  Tm5  1  0.533959  0.466041  0.795219  1
  Tm  Tm6  1  0.000000  0.000000  0.267080  1
  Tm  Tm7  1  0.000000  0.000000  0.767080  1
  Lu  Lu8  1  0.171662  0.828338  0.988602  1
  Lu  Lu9  1  0.343323  0.171662  0.488602  1
  Lu  Lu10  1  0.828338  0.656677  0.488602  1
  Lu  Lu11  1  0.171662  0.343323  0.988602  1
  Lu  Lu12  1  0.656677  0.828338  0.988602  1
  Lu  Lu13  1  0.828338  0.171662  0.488602  1
  Lu  Lu14  1  0.333333  0.666667  0.665072  1
  Lu  Lu15  1  0.666667  0.333333  0.165072  1
  Ga  Ga16  1  0.163340  0.836660  0.541175  1
  Ga  Ga17  1  0.326680  0.163340  0.041175  1
  Ga  Ga18  1  0.836660  0.673320  0.041175  1
  Ga  Ga19  1  0.163340  0.326680  0.541175  1
  Ga  Ga20  1  0.673320  0.836660  0.541175  1
  Ga  Ga21  1  0.836660  0.163340  0.041175  1
  Rh  Rh22  1  0.333333  0.666667  0.054865  1
  Rh  Rh23  1  0.666667  0.333333  0.554865  1
