# generated using pymatgen
data_ErLu7Hg4
_symmetry_space_group_name_H-M   'P 1'
_cell_length_a   5.05039300
_cell_length_b   6.84474968
_cell_length_c   9.06847832
_cell_angle_alpha   90.01539626
_cell_angle_beta   90.00000000
_cell_angle_gamma   90.00000000
_symmetry_Int_Tables_number   1
_chemical_formula_structural   ErLu7Hg4
_chemical_formula_sum   'Er1 Lu7 Hg4'
_cell_volume   313.48527649
_cell_formula_units_Z   1
loop_
 _symmetry_equiv_pos_site_id
 _symmetry_equiv_pos_as_xyz
  1  'x, y, z'
loop_
 _atom_site_type_symbol
 _atom_site_label
 _atom_site_symmetry_multiplicity
 _atom_site_fract_x
 _atom_site_fract_y
 _atom_site_fract_z
 _atom_site_occupancy
  Er  Er0  1  0.250000  0.827996  0.925158  1
  Lu  Lu1  1  0.250000  0.483589  0.197546  1
  Lu  Lu2  1  0.750000  0.514927  0.802412  1
  Lu  Lu3  1  0.250000  0.983448  0.302705  1
  Lu  Lu4  1  0.750000  0.016352  0.696133  1
  Lu  Lu5  1  0.750000  0.670002  0.426080  1
  Lu  Lu6  1  0.250000  0.328636  0.574182  1
  Lu  Lu7  1  0.750000  0.172428  0.074911  1
  Hg  Hg8  1  0.250000  0.267483  0.900692  1
  Hg  Hg9  1  0.750000  0.735411  0.101907  1
  Hg  Hg10  1  0.250000  0.765306  0.597696  1
  Hg  Hg11  1  0.750000  0.234425  0.400578  1
