# generated using pymatgen
data_Ca2Pr(SiRh)2
_symmetry_space_group_name_H-M   'P 1'
_cell_length_a   5.80114700
_cell_length_b   7.79241600
_cell_length_c   13.37551000
_cell_angle_alpha   90.00000000
_cell_angle_beta   90.00000000
_cell_angle_gamma   90.00000000
_symmetry_Int_Tables_number   1
_chemical_formula_structural   Ca2Pr(SiRh)2
_chemical_formula_sum   'Ca8 Pr4 Si8 Rh8'
_cell_volume   604.63927015
_cell_formula_units_Z   4
loop_
 _symmetry_equiv_pos_site_id
 _symmetry_equiv_pos_as_xyz
  1  'x, y, z'
loop_
 _atom_site_type_symbol
 _atom_site_label
 _atom_site_symmetry_multiplicity
 _atom_site_fract_x
 _atom_site_fract_y
 _atom_site_fract_z
 _atom_site_occupancy
  Ca  Ca0  1  0.131826  0.610463  0.100520  1
  Ca  Ca1  1  0.131826  0.889537  0.899480  1
  Ca  Ca2  1  0.868174  0.110463  0.399480  1
  Ca  Ca3  1  0.868174  0.389537  0.600520  1
  Ca  Ca4  1  0.868174  0.389537  0.899480  1
  Ca  Ca5  1  0.868174  0.110463  0.100520  1
  Ca  Ca6  1  0.131826  0.889537  0.600520  1
  Ca  Ca7  1  0.131826  0.610463  0.399480  1
  Pr  Pr8  1  0.360131  0.260174  0.250000  1
  Pr  Pr9  1  0.360131  0.239826  0.750000  1
  Pr  Pr10  1  0.639869  0.760174  0.250000  1
  Pr  Pr11  1  0.639869  0.739826  0.750000  1
  Si  Si12  1  0.850818  0.405105  0.250000  1
  Si  Si13  1  0.850818  0.094895  0.750000  1
  Si  Si14  1  0.149182  0.905105  0.250000  1
  Si  Si15  1  0.149182  0.594895  0.750000  1
  Si  Si16  1  0.406626  0.250000  0.000000  1
  Si  Si17  1  0.593374  0.750000  0.500000  1
  Si  Si18  1  0.593374  0.750000  0.000000  1
  Si  Si19  1  0.406626  0.250000  0.500000  1
  Rh  Rh20  1  0.630437  0.476018  0.088907  1
  Rh  Rh21  1  0.630437  0.023982  0.911093  1
  Rh  Rh22  1  0.369563  0.976018  0.411093  1
  Rh  Rh23  1  0.369563  0.523982  0.588907  1
  Rh  Rh24  1  0.369563  0.523982  0.911093  1
  Rh  Rh25  1  0.369563  0.976018  0.088907  1
  Rh  Rh26  1  0.630437  0.023982  0.588907  1
  Rh  Rh27  1  0.630437  0.476018  0.411093  1
