# generated using pymatgen
data_YTm5Co14Ni2(P6Os)2
_symmetry_space_group_name_H-M   'P 1'
_cell_length_a   3.71414300
_cell_length_b   10.43366600
_cell_length_c   12.19443400
_cell_angle_alpha   90.00000000
_cell_angle_beta   90.00000000
_cell_angle_gamma   90.00000000
_symmetry_Int_Tables_number   1
_chemical_formula_structural   YTm5Co14Ni2(P6Os)2
_chemical_formula_sum   'Y1 Tm5 Co14 Ni2 P12 Os2'
_cell_volume   472.56026162
_cell_formula_units_Z   1
loop_
 _symmetry_equiv_pos_site_id
 _symmetry_equiv_pos_as_xyz
  1  'x, y, z'
loop_
 _atom_site_type_symbol
 _atom_site_label
 _atom_site_symmetry_multiplicity
 _atom_site_fract_x
 _atom_site_fract_y
 _atom_site_fract_z
 _atom_site_occupancy
  Y  Y0  1  0.000000  0.500000  0.524720  1
  Tm  Tm1  1  0.500000  0.000000  0.474982  1
  Tm  Tm2  1  0.500000  0.816526  0.207425  1
  Tm  Tm3  1  0.500000  0.183474  0.207425  1
  Tm  Tm4  1  0.000000  0.683686  0.792979  1
  Tm  Tm5  1  0.000000  0.316314  0.792979  1
  Co  Co6  1  0.000000  0.500000  0.987263  1
  Co  Co7  1  0.500000  0.000000  0.012926  1
  Co  Co8  1  0.500000  0.332312  0.989069  1
  Co  Co9  1  0.500000  0.667688  0.989069  1
  Co  Co10  1  0.000000  0.167704  0.011214  1
  Co  Co11  1  0.000000  0.832296  0.011214  1
  Co  Co12  1  0.500000  0.298401  0.431081  1
  Co  Co13  1  0.500000  0.701599  0.431081  1
  Co  Co14  1  0.000000  0.199888  0.568358  1
  Co  Co15  1  0.000000  0.800112  0.568358  1
  Co  Co16  1  0.500000  0.878997  0.708631  1
  Co  Co17  1  0.500000  0.121003  0.708631  1
  Co  Co18  1  0.000000  0.621374  0.290880  1
  Co  Co19  1  0.000000  0.378626  0.290880  1
  Ni  Ni20  1  0.500000  0.500000  0.703971  1
  Ni  Ni21  1  0.000000  0.000000  0.297212  1
  P  P22  1  0.500000  0.500000  0.880631  1
  P  P23  1  0.000000  0.000000  0.119924  1
  P  P24  1  0.500000  0.500000  0.350888  1
  P  P25  1  0.000000  0.000000  0.647759  1
  P  P26  1  0.500000  0.310939  0.616396  1
  P  P27  1  0.500000  0.689061  0.616396  1
  P  P28  1  0.000000  0.187981  0.384042  1
  P  P29  1  0.000000  0.812019  0.384042  1
  P  P30  1  0.500000  0.846133  0.892148  1
  P  P31  1  0.500000  0.153867  0.892148  1
  P  P32  1  0.000000  0.653986  0.107921  1
  P  P33  1  0.000000  0.346014  0.107921  1
  Os  Os34  1  0.500000  0.500000  0.158515  1
  Os  Os35  1  0.000000  0.000000  0.840917  1
