# generated using pymatgen
data_DyY3Al13Ga5Ir6
_symmetry_space_group_name_H-M   'P 1'
_cell_length_a   7.52903509
_cell_length_b   7.53105173
_cell_length_c   9.57598400
_cell_angle_alpha   90.00000000
_cell_angle_beta   90.00000000
_cell_angle_gamma   119.57605330
_symmetry_Int_Tables_number   1
_chemical_formula_structural   DyY3Al13Ga5Ir6
_chemical_formula_sum   'Dy1 Y3 Al13 Ga5 Ir6'
_cell_volume   472.22446265
_cell_formula_units_Z   1
loop_
 _symmetry_equiv_pos_site_id
 _symmetry_equiv_pos_as_xyz
  1  'x, y, z'
loop_
 _atom_site_type_symbol
 _atom_site_label
 _atom_site_symmetry_multiplicity
 _atom_site_fract_x
 _atom_site_fract_y
 _atom_site_fract_z
 _atom_site_occupancy
  Dy  Dy0  1  0.330233  0.006462  0.250000  1
  Y  Y1  1  0.994953  0.669933  0.750000  1
  Y  Y2  1  0.001283  0.326906  0.250000  1
  Y  Y3  1  0.670033  0.996095  0.750000  1
  Al  Al4  1  0.002359  0.334859  0.572120  1
  Al  Al5  1  0.999323  0.665565  0.427307  1
  Al  Al6  1  0.999323  0.665565  0.072693  1
  Al  Al7  1  0.334735  0.001842  0.928141  1
  Al  Al8  1  0.002359  0.334859  0.927880  1
  Al  Al9  1  0.664771  0.997929  0.072959  1
  Al  Al10  1  0.664771  0.997929  0.427041  1
  Al  Al11  1  0.334735  0.001842  0.571859  1
  Al  Al12  1  0.333856  0.334184  0.056026  1
  Al  Al13  1  0.665914  0.665929  0.947284  1
  Al  Al14  1  0.665914  0.665929  0.552716  1
  Al  Al15  1  0.333856  0.334184  0.443974  1
  Al  Al16  1  0.451416  0.661704  0.250000  1
  Ga  Ga17  1  0.128770  0.128834  0.750000  1
  Ga  Ga18  1  0.870093  0.869134  0.250000  1
  Ga  Ga19  1  0.338647  0.546876  0.750000  1
  Ga  Ga20  1  0.661504  0.454249  0.250000  1
  Ga  Ga21  1  0.546921  0.339199  0.750000  1
  Ir  Ir22  1  0.672290  0.328044  0.500205  1
  Ir  Ir23  1  0.329354  0.671806  0.497742  1
  Ir  Ir24  1  0.329354  0.671806  0.002258  1
  Ir  Ir25  1  0.672290  0.328044  0.999795  1
  Ir  Ir26  1  0.000474  0.000146  0.499931  1
  Ir  Ir27  1  0.000474  0.000146  0.000069  1
