# generated using pymatgen
data_TbY3Er4(B6Ru)4
_symmetry_space_group_name_H-M   'P 1'
_cell_length_a   3.64938100
_cell_length_b   9.12093003
_cell_length_c   11.50466900
_cell_angle_alpha   89.99380970
_cell_angle_beta   90.00000000
_cell_angle_gamma   90.00000000
_symmetry_Int_Tables_number   1
_chemical_formula_structural   TbY3Er4(B6Ru)4
_chemical_formula_sum   'Tb1 Y3 Er4 B24 Ru4'
_cell_volume   382.94151980
_cell_formula_units_Z   1
loop_
 _symmetry_equiv_pos_site_id
 _symmetry_equiv_pos_as_xyz
  1  'x, y, z'
loop_
 _atom_site_type_symbol
 _atom_site_label
 _atom_site_symmetry_multiplicity
 _atom_site_fract_x
 _atom_site_fract_y
 _atom_site_fract_z
 _atom_site_occupancy
  Tb  Tb0  1  0.000000  0.177806  0.914193  1
  Y  Y1  1  0.000000  0.321865  0.414277  1
  Y  Y2  1  0.000000  0.678137  0.585802  1
  Y  Y3  1  0.000000  0.821876  0.085718  1
  Er  Er4  1  0.000000  0.943531  0.372142  1
  Er  Er5  1  0.000000  0.056439  0.627778  1
  Er  Er6  1  0.000000  0.443606  0.127755  1
  Er  Er7  1  0.000000  0.556563  0.872215  1
  B  B8  1  0.500000  0.554264  0.432832  1
  B  B9  1  0.500000  0.445618  0.567326  1
  B  B10  1  0.500000  0.054403  0.067150  1
  B  B11  1  0.500000  0.945737  0.932731  1
  B  B12  1  0.500000  0.748668  0.419250  1
  B  B13  1  0.500000  0.251273  0.580876  1
  B  B14  1  0.500000  0.248687  0.080661  1
  B  B15  1  0.500000  0.751444  0.919312  1
  B  B16  1  0.500000  0.790994  0.265930  1
  B  B17  1  0.500000  0.209001  0.734089  1
  B  B18  1  0.500000  0.290964  0.233864  1
  B  B19  1  0.500000  0.709068  0.766080  1
  B  B20  1  0.500000  0.631066  0.184784  1
  B  B21  1  0.500000  0.368894  0.815276  1
  B  B22  1  0.500000  0.131045  0.315078  1
  B  B23  1  0.500000  0.869054  0.684888  1
  B  B24  1  0.500000  0.983286  0.212982  1
  B  B25  1  0.500000  0.016698  0.786940  1
  B  B26  1  0.500000  0.483227  0.286832  1
  B  B27  1  0.500000  0.516672  0.713242  1
  B  B28  1  0.500000  0.606122  0.029177  1
  B  B29  1  0.500000  0.394082  0.970839  1
  B  B30  1  0.500000  0.105895  0.470823  1
  B  B31  1  0.500000  0.894147  0.529146  1
  Ru  Ru32  1  0.000000  0.637915  0.320618  1
  Ru  Ru33  1  0.000000  0.361986  0.679495  1
  Ru  Ru34  1  0.000000  0.137958  0.179314  1
  Ru  Ru35  1  0.000000  0.862005  0.820589  1
