# generated using pymatgen
data_La8Tb2(AlSn)3
_symmetry_space_group_name_H-M   'P 1'
_cell_length_a   9.40435244
_cell_length_b   9.40435285
_cell_length_c   9.46961808
_cell_angle_alpha   96.11565925
_cell_angle_beta   96.11565925
_cell_angle_gamma   141.76229124
_symmetry_Int_Tables_number   1
_chemical_formula_structural   La8Tb2(AlSn)3
_chemical_formula_sum   'La8 Tb2 Al3 Sn3'
_cell_volume   490.16869452
_cell_formula_units_Z   1
loop_
 _symmetry_equiv_pos_site_id
 _symmetry_equiv_pos_as_xyz
  1  'x, y, z'
loop_
 _atom_site_type_symbol
 _atom_site_label
 _atom_site_symmetry_multiplicity
 _atom_site_fract_x
 _atom_site_fract_y
 _atom_site_fract_z
 _atom_site_occupancy
  La  La0  1  0.913339  0.220178  0.133517  1
  La  La1  1  0.220781  0.087356  0.308137  1
  La  La2  1  0.781624  0.910297  0.691920  1
  La  La3  1  0.084876  0.779459  0.864335  1
  La  La4  1  0.720541  0.415124  0.135665  1
  La  La5  1  0.279822  0.586661  0.866483  1
  La  La6  1  0.589703  0.718376  0.308080  1
  La  La7  1  0.412644  0.279219  0.691863  1
  Tb  Tb8  1  0.747686  0.251428  0.500000  1
  Tb  Tb9  1  0.248572  0.752314  0.500000  1
  Al  Al10  1  0.749826  0.750174  0.000000  1
  Al  Al11  1  0.249826  0.250174  0.000000  1
  Al  Al12  1  0.844841  0.655159  0.500000  1
  Sn  Sn13  1  0.656776  0.155597  0.812373  1
  Sn  Sn14  1  0.344403  0.843224  0.187627  1
  Sn  Sn15  1  0.154740  0.345260  0.500000  1
