# generated using pymatgen
data_Y2Fe3Co(PRh)6
_symmetry_space_group_name_H-M   'P 1'
_cell_length_a   3.80277500
_cell_length_b   10.59270730
_cell_length_c   12.26745396
_cell_angle_alpha   90.24283571
_cell_angle_beta   90.00000000
_cell_angle_gamma   90.00000000
_symmetry_Int_Tables_number   1
_chemical_formula_structural   Y2Fe3Co(PRh)6
_chemical_formula_sum   'Y4 Fe6 Co2 P12 Rh12'
_cell_volume   494.14924707
_cell_formula_units_Z   2
loop_
 _symmetry_equiv_pos_site_id
 _symmetry_equiv_pos_as_xyz
  1  'x, y, z'
loop_
 _atom_site_type_symbol
 _atom_site_label
 _atom_site_symmetry_multiplicity
 _atom_site_fract_x
 _atom_site_fract_y
 _atom_site_fract_z
 _atom_site_occupancy
  Y  Y0  1  0.250000  0.919730  0.209871  1
  Y  Y1  1  0.750000  0.080270  0.790129  1
  Y  Y2  1  0.750000  0.418202  0.290791  1
  Y  Y3  1  0.250000  0.581798  0.709209  1
  Fe  Fe4  1  0.250000  0.618930  0.196384  1
  Fe  Fe5  1  0.750000  0.381070  0.803616  1
  Fe  Fe6  1  0.750000  0.121965  0.303115  1
  Fe  Fe7  1  0.250000  0.878035  0.696885  1
  Fe  Fe8  1  0.250000  0.040298  0.434861  1
  Fe  Fe9  1  0.750000  0.959702  0.565139  1
  Co  Co10  1  0.750000  0.537564  0.066090  1
  Co  Co11  1  0.250000  0.462436  0.933910  1
  P  P12  1  0.250000  0.061279  0.611587  1
  P  P13  1  0.750000  0.938721  0.388413  1
  P  P14  1  0.750000  0.565245  0.888936  1
  P  P15  1  0.250000  0.434755  0.111064  1
  P  P16  1  0.250000  0.225839  0.365949  1
  P  P17  1  0.750000  0.774161  0.634051  1
  P  P18  1  0.750000  0.726097  0.132782  1
  P  P19  1  0.250000  0.273903  0.867218  1
  P  P20  1  0.250000  0.899356  0.879834  1
  P  P21  1  0.750000  0.100644  0.120166  1
  P  P22  1  0.750000  0.399079  0.619860  1
  P  P23  1  0.250000  0.600921  0.380140  1
  Rh  Rh24  1  0.250000  0.786364  0.489416  1
  Rh  Rh25  1  0.750000  0.213636  0.510584  1
  Rh  Rh26  1  0.750000  0.283250  0.009174  1
  Rh  Rh27  1  0.250000  0.716750  0.990826  1
  Rh  Rh28  1  0.250000  0.091628  0.979160  1
  Rh  Rh29  1  0.750000  0.908372  0.020840  1
  Rh  Rh30  1  0.750000  0.592146  0.520298  1
  Rh  Rh31  1  0.250000  0.407854  0.479702  1
  Rh  Rh32  1  0.250000  0.270739  0.676867  1
  Rh  Rh33  1  0.750000  0.729261  0.323133  1
  Rh  Rh34  1  0.750000  0.770567  0.824505  1
  Rh  Rh35  1  0.250000  0.229433  0.175495  1
