# generated using pymatgen
data_NaNi3(BrO3)8
_symmetry_space_group_name_H-M   'P 1'
_cell_length_a   5.76127667
_cell_length_b   10.61347509
_cell_length_c   10.67030776
_cell_angle_alpha   119.08182510
_cell_angle_beta   90.08306450
_cell_angle_gamma   88.92120717
_symmetry_Int_Tables_number   1
_chemical_formula_structural   NaNi3(BrO3)8
_chemical_formula_sum   'Na1 Ni3 Br8 O24'
_cell_volume   570.07803792
_cell_formula_units_Z   1
loop_
 _symmetry_equiv_pos_site_id
 _symmetry_equiv_pos_as_xyz
  1  'x, y, z'
loop_
 _atom_site_type_symbol
 _atom_site_label
 _atom_site_symmetry_multiplicity
 _atom_site_fract_x
 _atom_site_fract_y
 _atom_site_fract_z
 _atom_site_occupancy
  Na  Na0  1  0.125979  0.768850  0.508364  1
  Ni  Ni1  1  0.643201  0.235673  0.492233  1
  Ni  Ni2  1  0.139821  0.260205  0.005096  1
  Ni  Ni3  1  0.640953  0.739789  0.991639  1
  Br  Br4  1  0.273407  0.411124  0.342618  1
  Br  Br5  1  0.742481  0.575197  0.650077  1
  Br  Br6  1  0.267861  0.914343  0.856999  1
  Br  Br7  1  0.768263  0.084084  0.152145  1
  Br  Br8  1  0.776360  0.107421  0.708858  1
  Br  Br9  1  0.309626  0.922326  0.306019  1
  Br  Br10  1  0.283847  0.416236  0.815017  1
  Br  Br11  1  0.783780  0.581057  0.173562  1
  O  O12  1  0.430395  0.894447  0.980553  1
  O  O13  1  0.935907  0.116547  0.041636  1
  O  O14  1  0.383374  0.800236  0.698325  1
  O  O15  1  0.877619  0.189244  0.319314  1
  O  O16  1  0.361879  0.287873  0.172771  1
  O  O17  1  0.849269  0.688951  0.817354  1
  O  O18  1  0.940929  0.242747  0.834859  1
  O  O19  1  0.454034  0.776728  0.171329  1
  O  O20  1  0.898793  0.954648  0.684525  1
  O  O21  1  0.450100  0.073488  0.331841  1
  O  O22  1  0.349435  0.079935  0.882749  1
  O  O23  1  0.861273  0.914893  0.112187  1
  O  O24  1  0.422130  0.278413  0.672772  1
  O  O25  1  0.913229  0.720677  0.305162  1
  O  O26  1  0.356911  0.388815  0.954697  1
  O  O27  1  0.844942  0.594394  0.023035  1
  O  O28  1  0.417363  0.570064  0.847585  1
  O  O29  1  0.937410  0.432088  0.151192  1
  O  O30  1  0.373385  0.567225  0.367973  1
  O  O31  1  0.838320  0.409752  0.624212  1
  O  O32  1  0.441069  0.377125  0.455135  1
  O  O33  1  0.913159  0.604057  0.542470  1
  O  O34  1  0.841283  0.112021  0.554213  1
  O  O35  1  0.361814  0.909328  0.451477  1
