# generated using pymatgen
data_Lu2PaSn3Ir2Rh
_symmetry_space_group_name_H-M   'P 1'
_cell_length_a   7.51705143
_cell_length_b   7.51705197
_cell_length_c   3.80972100
_cell_angle_alpha   90.00000000
_cell_angle_beta   90.00000000
_cell_angle_gamma   119.25803519
_symmetry_Int_Tables_number   1
_chemical_formula_structural   Lu2PaSn3Ir2Rh
_chemical_formula_sum   'Lu2 Pa1 Sn3 Ir2 Rh1'
_cell_volume   187.80951025
_cell_formula_units_Z   1
loop_
 _symmetry_equiv_pos_site_id
 _symmetry_equiv_pos_as_xyz
  1  'x, y, z'
loop_
 _atom_site_type_symbol
 _atom_site_label
 _atom_site_symmetry_multiplicity
 _atom_site_fract_x
 _atom_site_fract_y
 _atom_site_fract_z
 _atom_site_occupancy
  Lu  Lu0  1  0.596683  0.000149  0.500000  1
  Lu  Lu1  1  0.000149  0.596683  0.500000  1
  Pa  Pa2  1  0.412505  0.412505  0.500000  1
  Sn  Sn3  1  0.753902  0.753902  0.000000  1
  Sn  Sn4  1  0.260268  0.985487  0.000000  1
  Sn  Sn5  1  0.985487  0.260268  0.000000  1
  Ir  Ir6  1  0.644079  0.335188  0.000000  1
  Ir  Ir7  1  0.335188  0.644079  0.000000  1
  Rh  Rh8  1  0.011738  0.011738  0.500000  1
