# generated using pymatgen
data_TiCo2Si2Mo
_symmetry_space_group_name_H-M   'P 1'
_cell_length_a   3.59264300
_cell_length_b   6.11973700
_cell_length_c   6.96075100
_cell_angle_alpha   90.00000000
_cell_angle_beta   90.00000000
_cell_angle_gamma   90.00000000
_symmetry_Int_Tables_number   1
_chemical_formula_structural   TiCo2Si2Mo
_chemical_formula_sum   'Ti2 Co4 Si4 Mo2'
_cell_volume   153.03928236
_cell_formula_units_Z   2
loop_
 _symmetry_equiv_pos_site_id
 _symmetry_equiv_pos_as_xyz
  1  'x, y, z'
loop_
 _atom_site_type_symbol
 _atom_site_label
 _atom_site_symmetry_multiplicity
 _atom_site_fract_x
 _atom_site_fract_y
 _atom_site_fract_z
 _atom_site_occupancy
  Ti  Ti0  1  0.250000  0.521873  0.682173  1
  Ti  Ti1  1  0.750000  0.978127  0.182173  1
  Co  Co2  1  0.250000  0.645437  0.061570  1
  Co  Co3  1  0.750000  0.362437  0.934732  1
  Co  Co4  1  0.250000  0.137563  0.434732  1
  Co  Co5  1  0.750000  0.854563  0.561570  1
  Si  Si6  1  0.750000  0.732214  0.879432  1
  Si  Si7  1  0.250000  0.767786  0.379432  1
  Si  Si8  1  0.750000  0.225045  0.618958  1
  Si  Si9  1  0.250000  0.274955  0.118958  1
  Mo  Mo10  1  0.250000  0.024895  0.823135  1
  Mo  Mo11  1  0.750000  0.475105  0.323135  1
