# generated using pymatgen
data_TaNb3(PO4)6
_symmetry_space_group_name_H-M   'P 1'
_cell_length_a   8.81082072
_cell_length_b   8.81091742
_cell_length_c   9.10801972
_cell_angle_alpha   90.28238126
_cell_angle_beta   118.68334945
_cell_angle_gamma   119.98429432
_symmetry_Int_Tables_number   1
_chemical_formula_structural   TaNb3(PO4)6
_chemical_formula_sum   'Ta1 Nb3 P6 O24'
_cell_volume   508.63677783
_cell_formula_units_Z   1
loop_
 _symmetry_equiv_pos_site_id
 _symmetry_equiv_pos_as_xyz
  1  'x, y, z'
loop_
 _atom_site_type_symbol
 _atom_site_label
 _atom_site_symmetry_multiplicity
 _atom_site_fract_x
 _atom_site_fract_y
 _atom_site_fract_z
 _atom_site_occupancy
  Ta  Ta0  1  0.214099  0.858443  0.072062  1
  Nb  Nb1  1  0.784517  0.641330  0.428059  1
  Nb  Nb2  1  0.215133  0.358905  0.571509  1
  Nb  Nb3  1  0.785520  0.141086  0.927140  1
  P  P4  1  0.999259  0.966659  0.247586  1
  P  P5  1  0.280930  0.534464  0.250788  1
  P  P6  1  0.280885  0.750984  0.747018  1
  P  P7  1  0.716665  0.246425  0.252864  1
  P  P8  1  0.718850  0.467853  0.749004  1
  P  P9  1  0.003932  0.033844  0.752871  1
  O  O10  1  0.285945  0.708615  0.213306  1
  O  O11  1  0.861110  0.989593  0.077576  1
  O  O12  1  0.859179  0.855597  0.595464  1
  O  O13  1  0.855180  0.799586  0.279715  1
  O  O14  1  0.140264  0.927974  0.221040  1
  O  O15  1  0.483287  0.561748  0.284187  1
  O  O16  1  0.093056  0.732207  0.582204  1
  O  O17  1  0.915814  0.640105  0.913994  1
  O  O18  1  0.276615  0.785250  0.912046  1
  O  O19  1  0.485026  0.917073  0.775199  1
  O  O20  1  0.732204  0.488853  0.587658  1
  O  O21  1  0.719752  0.421164  0.277901  1
  O  O22  1  0.272910  0.573475  0.725269  1
  O  O23  1  0.269459  0.516083  0.412950  1
  O  O24  1  0.508221  0.077600  0.221112  1
  O  O25  1  0.718363  0.214842  0.087783  1
  O  O26  1  0.089659  0.365206  0.085876  1
  O  O27  1  0.902233  0.263260  0.417934  1
  O  O28  1  0.521385  0.448724  0.717760  1
  O  O29  1  0.862194  0.071057  0.776098  1
  O  O30  1  0.152995  0.198842  0.723430  1
  O  O31  1  0.145595  0.143482  0.406039  1
  O  O32  1  0.139013  0.005422  0.922893  1
  O  O33  1  0.710753  0.294249  0.783665  1
