# generated using pymatgen
data_TiGaCo20B6Mo
_symmetry_space_group_name_H-M   'P 1'
_cell_length_a   7.41315650
_cell_length_b   7.41315644
_cell_length_c   7.41315600
_cell_angle_alpha   60.00000197
_cell_angle_beta   60.00000225
_cell_angle_gamma   60.00000122
_symmetry_Int_Tables_number   1
_chemical_formula_structural   TiGaCo20B6Mo
_chemical_formula_sum   'Ti1 Ga1 Co20 B6 Mo1'
_cell_volume   288.06765249
_cell_formula_units_Z   1
loop_
 _symmetry_equiv_pos_site_id
 _symmetry_equiv_pos_as_xyz
  1  'x, y, z'
loop_
 _atom_site_type_symbol
 _atom_site_label
 _atom_site_symmetry_multiplicity
 _atom_site_fract_x
 _atom_site_fract_y
 _atom_site_fract_z
 _atom_site_occupancy
  Ti  Ti0  1  0.750000  0.750000  0.750000  1
  Ga  Ga1  1  0.000000  0.000000  0.000000  1
  Co  Co2  1  0.617682  0.617682  0.146954  1
  Co  Co3  1  0.617682  0.146954  0.617682  1
  Co  Co4  1  0.146954  0.617682  0.617682  1
  Co  Co5  1  0.617682  0.617682  0.617682  1
  Co  Co6  1  0.381826  0.381826  0.854523  1
  Co  Co7  1  0.381826  0.854523  0.381826  1
  Co  Co8  1  0.854523  0.381826  0.381826  1
  Co  Co9  1  0.381826  0.381826  0.381826  1
  Co  Co10  1  0.000130  0.000130  0.341902  1
  Co  Co11  1  0.657838  0.000130  0.341902  1
  Co  Co12  1  0.000130  0.657838  0.341902  1
  Co  Co13  1  0.657838  0.341902  0.000130  1
  Co  Co14  1  0.000130  0.341902  0.000130  1
  Co  Co15  1  0.000130  0.341902  0.657838  1
  Co  Co16  1  0.341902  0.657838  0.000130  1
  Co  Co17  1  0.341902  0.000130  0.657838  1
  Co  Co18  1  0.341902  0.000130  0.000130  1
  Co  Co19  1  0.000130  0.000130  0.657838  1
  Co  Co20  1  0.000130  0.657838  0.000130  1
  Co  Co21  1  0.657838  0.000130  0.000130  1
  B  B22  1  0.722793  0.722793  0.277207  1
  B  B23  1  0.277207  0.722793  0.277207  1
  B  B24  1  0.722793  0.277207  0.277207  1
  B  B25  1  0.277207  0.277207  0.722793  1
  B  B26  1  0.722793  0.277207  0.722793  1
  B  B27  1  0.277207  0.722793  0.722793  1
  Mo  Mo28  1  0.250000  0.250000  0.250000  1
