# generated using pymatgen
data_Hf3ZrTa2(Si2W)2
_symmetry_space_group_name_H-M   'P 1'
_cell_length_a   3.56076300
_cell_length_b   6.96436384
_cell_length_c   8.34489201
_cell_angle_alpha   89.94370633
_cell_angle_beta   90.00000000
_cell_angle_gamma   90.00000000
_symmetry_Int_Tables_number   1
_chemical_formula_structural   Hf3ZrTa2(Si2W)2
_chemical_formula_sum   'Hf3 Zr1 Ta2 Si4 W2'
_cell_volume   206.94027964
_cell_formula_units_Z   1
loop_
 _symmetry_equiv_pos_site_id
 _symmetry_equiv_pos_as_xyz
  1  'x, y, z'
loop_
 _atom_site_type_symbol
 _atom_site_label
 _atom_site_symmetry_multiplicity
 _atom_site_fract_x
 _atom_site_fract_y
 _atom_site_fract_z
 _atom_site_occupancy
  Hf  Hf0  1  0.250000  0.542103  0.166192  1
  Hf  Hf1  1  0.250000  0.041984  0.334541  1
  Hf  Hf2  1  0.750000  0.960301  0.667823  1
  Zr  Zr3  1  0.750000  0.460465  0.831965  1
  Ta  Ta4  1  0.250000  0.633215  0.558999  1
  Ta  Ta5  1  0.250000  0.131898  0.940955  1
  Si  Si6  1  0.250000  0.757215  0.862784  1
  Si  Si7  1  0.250000  0.255887  0.636798  1
  Si  Si8  1  0.750000  0.242801  0.144271  1
  Si  Si9  1  0.750000  0.742675  0.355889  1
  W  W10  1  0.750000  0.365468  0.438700  1
  W  W11  1  0.750000  0.865989  0.061084  1
