# generated using pymatgen
data_TbYb3(DyIr)6
_symmetry_space_group_name_H-M   'P 1'
_cell_length_a   10.81545994
_cell_length_b   10.89303500
_cell_length_c   6.36601140
_cell_angle_alpha   90.00000000
_cell_angle_beta   90.28562483
_cell_angle_gamma   90.00000000
_symmetry_Int_Tables_number   1
_chemical_formula_structural   TbYb3(DyIr)6
_chemical_formula_sum   'Tb2 Yb6 Dy12 Ir12'
_cell_volume   749.99075100
_cell_formula_units_Z   2
loop_
 _symmetry_equiv_pos_site_id
 _symmetry_equiv_pos_as_xyz
  1  'x, y, z'
loop_
 _atom_site_type_symbol
 _atom_site_label
 _atom_site_symmetry_multiplicity
 _atom_site_fract_x
 _atom_site_fract_y
 _atom_site_fract_z
 _atom_site_occupancy
  Tb  Tb0  1  0.089846  0.709619  0.621989  1
  Tb  Tb1  1  0.089846  0.290381  0.121989  1
  Yb  Yb2  1  0.289383  0.088065  0.376934  1
  Yb  Yb3  1  0.289383  0.911935  0.876934  1
  Yb  Yb4  1  0.002122  0.999785  0.499038  1
  Yb  Yb5  1  0.002122  0.000215  0.999038  1
  Yb  Yb6  1  0.500380  0.500060  0.996368  1
  Yb  Yb7  1  0.500380  0.499940  0.496368  1
  Dy  Dy8  1  0.708755  0.087964  0.881805  1
  Dy  Dy9  1  0.708755  0.912036  0.381805  1
  Dy  Dy10  1  0.587417  0.792901  0.880372  1
  Dy  Dy11  1  0.587417  0.207099  0.380372  1
  Dy  Dy12  1  0.409489  0.793563  0.382148  1
  Dy  Dy13  1  0.409489  0.206437  0.882148  1
  Dy  Dy14  1  0.210534  0.412124  0.621217  1
  Dy  Dy15  1  0.210534  0.587876  0.121217  1
  Dy  Dy16  1  0.791000  0.410529  0.118833  1
  Dy  Dy17  1  0.791000  0.589471  0.618833  1
  Dy  Dy18  1  0.911458  0.709011  0.121037  1
  Dy  Dy19  1  0.911458  0.290989  0.621037  1
  Ir  Ir20  1  0.844649  0.157883  0.250888  1
  Ir  Ir21  1  0.844649  0.842117  0.750888  1
  Ir  Ir22  1  0.152282  0.165107  0.749695  1
  Ir  Ir23  1  0.152282  0.834893  0.249695  1
  Ir  Ir24  1  0.656143  0.341184  0.749864  1
  Ir  Ir25  1  0.656143  0.658816  0.249864  1
  Ir  Ir26  1  0.342870  0.348058  0.245517  1
  Ir  Ir27  1  0.342870  0.651942  0.745517  1
  Ir  Ir28  1  0.504162  0.000388  0.123953  1
  Ir  Ir29  1  0.504162  0.999612  0.623953  1
  Ir  Ir30  1  0.999508  0.500081  0.880343  1
  Ir  Ir31  1  0.999508  0.499919  0.380343  1
