# generated using pymatgen
data_Ac2PuRu2
_symmetry_space_group_name_H-M   'P 1'
_cell_length_a   6.32697721
_cell_length_b   6.32697724
_cell_length_c   6.32697733
_cell_angle_alpha   140.95415265
_cell_angle_beta   121.46339335
_cell_angle_gamma   72.62672662
_symmetry_Int_Tables_number   1
_chemical_formula_structural   Ac2PuRu2
_chemical_formula_sum   'Ac2 Pu1 Ru2'
_cell_volume   133.37560099
_cell_formula_units_Z   1
loop_
 _symmetry_equiv_pos_site_id
 _symmetry_equiv_pos_as_xyz
  1  'x, y, z'
loop_
 _atom_site_type_symbol
 _atom_site_label
 _atom_site_symmetry_multiplicity
 _atom_site_fract_x
 _atom_site_fract_y
 _atom_site_fract_z
 _atom_site_occupancy
  Ac  Ac0  1  0.689511  0.189511  0.500000  1
  Ac  Ac1  1  0.310489  0.810488  0.500000  1
  Pu  Pu2  1  0.000000  0.000000  0.000000  1
  Ru  Ru3  1  0.758530  0.500000  0.258530  1
  Ru  Ru4  1  0.241470  0.500000  0.741469  1
