# generated using pymatgen
data_NdTm2Th(Al3Ir)6
_symmetry_space_group_name_H-M   'P 1'
_cell_length_a   7.58805305
_cell_length_b   7.59207780
_cell_length_c   9.49340400
_cell_angle_alpha   90.00000000
_cell_angle_beta   90.00000000
_cell_angle_gamma   119.46641374
_symmetry_Int_Tables_number   1
_chemical_formula_structural   NdTm2Th(Al3Ir)6
_chemical_formula_sum   'Nd1 Tm2 Th1 Al18 Ir6'
_cell_volume   476.16084844
_cell_formula_units_Z   1
loop_
 _symmetry_equiv_pos_site_id
 _symmetry_equiv_pos_as_xyz
  1  'x, y, z'
loop_
 _atom_site_type_symbol
 _atom_site_label
 _atom_site_symmetry_multiplicity
 _atom_site_fract_x
 _atom_site_fract_y
 _atom_site_fract_z
 _atom_site_occupancy
  Nd  Nd0  1  0.671949  0.994736  0.250000  1
  Tm  Tm1  1  0.003801  0.327809  0.750000  1
  Tm  Tm2  1  0.326813  0.004337  0.750000  1
  Th  Th3  1  0.995189  0.671203  0.250000  1
  Al  Al4  1  0.133809  0.133921  0.250000  1
  Al  Al5  1  0.872288  0.873911  0.750000  1
  Al  Al6  1  0.003290  0.332728  0.069880  1
  Al  Al7  1  0.999663  0.664036  0.917717  1
  Al  Al8  1  0.999663  0.664036  0.582283  1
  Al  Al9  1  0.338465  0.005368  0.430108  1
  Al  Al10  1  0.003290  0.332728  0.430120  1
  Al  Al11  1  0.664250  0.000615  0.578930  1
  Al  Al12  1  0.664250  0.000615  0.921070  1
  Al  Al13  1  0.338465  0.005368  0.069892  1
  Al  Al14  1  0.332088  0.332137  0.556698  1
  Al  Al15  1  0.663267  0.665336  0.457042  1
  Al  Al16  1  0.663267  0.665336  0.042958  1
  Al  Al17  1  0.332088  0.332137  0.943302  1
  Al  Al18  1  0.342006  0.546358  0.250000  1
  Al  Al19  1  0.657805  0.448287  0.750000  1
  Al  Al20  1  0.544390  0.338919  0.250000  1
  Al  Al21  1  0.448276  0.659832  0.750000  1
  Ir  Ir22  1  0.673133  0.329569  0.999284  1
  Ir  Ir23  1  0.326054  0.671143  0.999233  1
  Ir  Ir24  1  0.326054  0.671143  0.500767  1
  Ir  Ir25  1  0.673133  0.329569  0.500716  1
  Ir  Ir26  1  0.001625  0.999411  0.999039  1
  Ir  Ir27  1  0.001625  0.999411  0.500961  1
