# generated using pymatgen
data_Li3La4ZnRh4
_symmetry_space_group_name_H-M   'P 1'
_cell_length_a   4.04719000
_cell_length_b   7.17406672
_cell_length_c   8.73076846
_cell_angle_alpha   89.60213112
_cell_angle_beta   90.00000000
_cell_angle_gamma   90.00000000
_symmetry_Int_Tables_number   1
_chemical_formula_structural   Li3La4ZnRh4
_chemical_formula_sum   'Li3 La4 Zn1 Rh4'
_cell_volume   253.49010100
_cell_formula_units_Z   1
loop_
 _symmetry_equiv_pos_site_id
 _symmetry_equiv_pos_as_xyz
  1  'x, y, z'
loop_
 _atom_site_type_symbol
 _atom_site_label
 _atom_site_symmetry_multiplicity
 _atom_site_fract_x
 _atom_site_fract_y
 _atom_site_fract_z
 _atom_site_occupancy
  Li  Li0  1  0.750000  0.878065  0.950870  1
  Li  Li1  1  0.250000  0.122539  0.051362  1
  Li  Li2  1  0.250000  0.618901  0.450604  1
  La  La3  1  0.750000  0.952274  0.322028  1
  La  La4  1  0.250000  0.048614  0.678864  1
  La  La5  1  0.250000  0.542950  0.814584  1
  La  La6  1  0.750000  0.457682  0.183535  1
  Zn  Zn7  1  0.750000  0.379403  0.552383  1
  Rh  Rh8  1  0.750000  0.754835  0.626972  1
  Rh  Rh9  1  0.250000  0.244636  0.376190  1
  Rh  Rh10  1  0.250000  0.736929  0.133716  1
  Rh  Rh11  1  0.750000  0.263172  0.858892  1
