# generated using pymatgen
data_SmHoSi4OsPt3
_symmetry_space_group_name_H-M   'P 1'
_cell_length_a   4.17917200
_cell_length_b   4.17995000
_cell_length_c   9.91271700
_cell_angle_alpha   90.00000000
_cell_angle_beta   90.00000000
_cell_angle_gamma   90.00000000
_symmetry_Int_Tables_number   1
_chemical_formula_structural   SmHoSi4OsPt3
_chemical_formula_sum   'Sm1 Ho1 Si4 Os1 Pt3'
_cell_volume   173.16257685
_cell_formula_units_Z   1
loop_
 _symmetry_equiv_pos_site_id
 _symmetry_equiv_pos_as_xyz
  1  'x, y, z'
loop_
 _atom_site_type_symbol
 _atom_site_label
 _atom_site_symmetry_multiplicity
 _atom_site_fract_x
 _atom_site_fract_y
 _atom_site_fract_z
 _atom_site_occupancy
  Sm  Sm0  1  0.500000  0.000000  0.257119  1
  Ho  Ho1  1  0.000000  0.500000  0.743395  1
  Si  Si2  1  0.000000  0.500000  0.129564  1
  Si  Si3  1  0.500000  0.500000  0.501858  1
  Si  Si4  1  0.500000  0.000000  0.868515  1
  Si  Si5  1  0.000000  0.000000  0.501578  1
  Os  Os6  1  0.000000  0.000000  0.997814  1
  Pt  Pt7  1  0.500000  0.000000  0.626958  1
  Pt  Pt8  1  0.500000  0.500000  0.998134  1
  Pt  Pt9  1  0.000000  0.500000  0.375065  1
