# generated using pymatgen
data_CeMo13P9
_symmetry_space_group_name_H-M   'P 1'
_cell_length_a   10.90156000
_cell_length_b   10.90155922
_cell_length_c   3.33016300
_cell_angle_alpha   90.00000000
_cell_angle_beta   90.00000000
_cell_angle_gamma   120.00000237
_symmetry_Int_Tables_number   1
_chemical_formula_structural   CeMo13P9
_chemical_formula_sum   'Ce1 Mo13 P9'
_cell_volume   342.74677754
_cell_formula_units_Z   1
loop_
 _symmetry_equiv_pos_site_id
 _symmetry_equiv_pos_as_xyz
  1  'x, y, z'
loop_
 _atom_site_type_symbol
 _atom_site_label
 _atom_site_symmetry_multiplicity
 _atom_site_fract_x
 _atom_site_fract_y
 _atom_site_fract_z
 _atom_site_occupancy
  Ce  Ce0  1  0.666667  0.333333  0.000000  1
  Mo  Mo1  1  0.240745  0.481489  0.500000  1
  Mo  Mo2  1  0.240745  0.759255  0.500000  1
  Mo  Mo3  1  0.524634  0.049269  0.500000  1
  Mo  Mo4  1  0.524634  0.475366  0.500000  1
  Mo  Mo5  1  0.950731  0.475366  0.500000  1
  Mo  Mo6  1  0.996141  0.278827  0.000000  1
  Mo  Mo7  1  0.721173  0.717314  0.000000  1
  Mo  Mo8  1  0.721173  0.003859  0.000000  1
  Mo  Mo9  1  0.996141  0.717314  0.000000  1
  Mo  Mo10  1  0.282686  0.278827  0.000000  1
  Mo  Mo11  1  0.000000  0.000000  0.000000  1
  Mo  Mo12  1  0.518511  0.759255  0.500000  1
  Mo  Mo13  1  0.282686  0.003859  0.000000  1
  P  P14  1  0.410089  0.205044  0.500000  1
  P  P15  1  0.131682  0.565842  0.000000  1
  P  P16  1  0.434158  0.565842  0.000000  1
  P  P17  1  0.434158  0.868318  0.000000  1
  P  P18  1  0.806907  0.903454  0.500000  1
  P  P19  1  0.096546  0.903454  0.500000  1
  P  P20  1  0.096546  0.193093  0.500000  1
  P  P21  1  0.794956  0.205044  0.500000  1
  P  P22  1  0.794956  0.589911  0.500000  1
