# generated using pymatgen
data_SrZnPd3O8
_symmetry_space_group_name_H-M   'P 1'
_cell_length_a   6.19156100
_cell_length_b   6.92444266
_cell_length_c   10.72447501
_cell_angle_alpha   104.95713791
_cell_angle_beta   89.99914482
_cell_angle_gamma   63.44303453
_symmetry_Int_Tables_number   1
_chemical_formula_structural   SrZnPd3O8
_chemical_formula_sum   'Sr2 Zn2 Pd6 O16'
_cell_volume   393.78557870
_cell_formula_units_Z   2
loop_
 _symmetry_equiv_pos_site_id
 _symmetry_equiv_pos_as_xyz
  1  'x, y, z'
loop_
 _atom_site_type_symbol
 _atom_site_label
 _atom_site_symmetry_multiplicity
 _atom_site_fract_x
 _atom_site_fract_y
 _atom_site_fract_z
 _atom_site_occupancy
  Sr  Sr0  1  0.750028  0.499945  0.749991  1
  Sr  Sr1  1  0.250029  0.499944  0.249988  1
  Zn  Zn2  1  0.500041  0.999920  0.499985  1
  Zn  Zn3  1  0.000039  0.999923  0.999987  1
  Pd  Pd4  1  0.249981  0.000019  0.750009  1
  Pd  Pd5  1  0.749971  0.000028  0.249989  1
  Pd  Pd6  1  0.999988  0.000020  0.500014  1
  Pd  Pd7  1  0.499987  0.000021  0.000014  1
  Pd  Pd8  1  0.749997  0.000020  0.750010  1
  Pd  Pd9  1  0.249998  0.000027  0.249987  1
  O  O10  1  0.083967  0.832074  0.638673  1
  O  O11  1  0.583971  0.832072  0.138684  1
  O  O12  1  0.415976  0.168030  0.861334  1
  O  O13  1  0.915981  0.168027  0.361344  1
  O  O14  1  0.827814  0.822043  0.883280  1
  O  O15  1  0.327817  0.822044  0.383283  1
  O  O16  1  0.911016  0.177939  0.855571  1
  O  O17  1  0.411014  0.177950  0.355578  1
  O  O18  1  0.672160  0.177943  0.616705  1
  O  O19  1  0.172162  0.177946  0.116710  1
  O  O20  1  0.149955  0.177932  0.616696  1
  O  O21  1  0.649952  0.177933  0.116700  1
  O  O22  1  0.588991  0.822042  0.644441  1
  O  O23  1  0.088990  0.822052  0.144449  1
  O  O24  1  0.350091  0.822053  0.883287  1
  O  O25  1  0.850089  0.822054  0.383291  1
