# generated using pymatgen
data_ScU8Se17
_symmetry_space_group_name_H-M   'P 1'
_cell_length_a   8.27476648
_cell_length_b   8.27476520
_cell_length_c   10.99249286
_cell_angle_alpha   80.52840959
_cell_angle_beta   80.52841141
_cell_angle_gamma   64.66516786
_symmetry_Int_Tables_number   1
_chemical_formula_structural   ScU8Se17
_chemical_formula_sum   'Sc1 U8 Se17'
_cell_volume   667.25890494
_cell_formula_units_Z   1
loop_
 _symmetry_equiv_pos_site_id
 _symmetry_equiv_pos_as_xyz
  1  'x, y, z'
loop_
 _atom_site_type_symbol
 _atom_site_label
 _atom_site_symmetry_multiplicity
 _atom_site_fract_x
 _atom_site_fract_y
 _atom_site_fract_z
 _atom_site_occupancy
  Sc  Sc0  1  0.000000  0.000000  0.000000  1
  U  U1  1  0.797441  0.797441  0.461924  1
  U  U2  1  0.202559  0.202559  0.538076  1
  U  U3  1  0.698695  0.182945  0.698771  1
  U  U4  1  0.182945  0.698695  0.698771  1
  U  U5  1  0.817055  0.301305  0.301229  1
  U  U6  1  0.679202  0.679202  0.986999  1
  U  U7  1  0.320798  0.320798  0.013001  1
  U  U8  1  0.301305  0.817055  0.301229  1
  Se  Se9  1  0.479037  0.479037  0.170109  1
  Se  Se10  1  0.697057  0.697057  0.248850  1
  Se  Se11  1  0.566391  0.179018  0.464794  1
  Se  Se12  1  0.056872  0.670653  0.963837  1
  Se  Se13  1  0.212107  0.212107  0.277067  1
  Se  Se14  1  0.433609  0.820982  0.535206  1
  Se  Se15  1  0.520963  0.520963  0.829891  1
  Se  Se16  1  0.670653  0.056872  0.963837  1
  Se  Se17  1  0.937183  0.937183  0.234743  1
  Se  Se18  1  0.062817  0.062817  0.765257  1
  Se  Se19  1  0.302943  0.302943  0.751150  1
  Se  Se20  1  0.329347  0.943128  0.036163  1
  Se  Se21  1  0.820982  0.433609  0.535206  1
  Se  Se22  1  0.943128  0.329347  0.036163  1
  Se  Se23  1  0.179018  0.566391  0.464794  1
  Se  Se24  1  0.000000  0.000000  0.500000  1
  Se  Se25  1  0.787893  0.787893  0.722933  1
