# generated using pymatgen
data_CeGdY4Ta2O14
_symmetry_space_group_name_H-M   'P 1'
_cell_length_a   6.45276855
_cell_length_b   6.45276774
_cell_length_c   7.51912654
_cell_angle_alpha   89.92290453
_cell_angle_beta   90.07709081
_cell_angle_gamma   109.26700200
_symmetry_Int_Tables_number   1
_chemical_formula_structural   CeGdY4Ta2O14
_chemical_formula_sum   'Ce1 Gd1 Y4 Ta2 O14'
_cell_volume   295.54719698
_cell_formula_units_Z   1
loop_
 _symmetry_equiv_pos_site_id
 _symmetry_equiv_pos_as_xyz
  1  'x, y, z'
loop_
 _atom_site_type_symbol
 _atom_site_label
 _atom_site_symmetry_multiplicity
 _atom_site_fract_x
 _atom_site_fract_y
 _atom_site_fract_z
 _atom_site_occupancy
  Ce  Ce0  1  0.500000  0.500000  0.500000  1
  Gd  Gd1  1  0.500000  0.500000  0.000000  1
  Y  Y2  1  0.534933  0.000154  0.751166  1
  Y  Y3  1  0.000154  0.534933  0.248834  1
  Y  Y4  1  0.465067  0.999846  0.248834  1
  Y  Y5  1  0.999846  0.465067  0.751166  1
  Ta  Ta6  1  0.000000  0.000000  0.500000  1
  Ta  Ta7  1  0.000000  0.000000  0.000000  1
  O  O8  1  0.679141  0.930874  0.467063  1
  O  O9  1  0.930874  0.679141  0.532937  1
  O  O10  1  0.679239  0.929619  0.032823  1
  O  O11  1  0.929619  0.679239  0.967177  1
  O  O12  1  0.320859  0.069126  0.532937  1
  O  O13  1  0.069126  0.320859  0.467063  1
  O  O14  1  0.320761  0.070381  0.967177  1
  O  O15  1  0.070381  0.320761  0.032823  1
  O  O16  1  0.934140  0.065860  0.749705  1
  O  O17  1  0.065860  0.934140  0.250295  1
  O  O18  1  0.366370  0.633630  0.752263  1
  O  O19  1  0.633630  0.366370  0.247737  1
  O  O20  1  0.639403  0.360597  0.751362  1
  O  O21  1  0.360597  0.639403  0.248638  1
