# generated using pymatgen
data_Ho8Ti6Nb6Si15As
_symmetry_space_group_name_H-M   'P 1'
_cell_length_a   7.04912086
_cell_length_b   7.05022488
_cell_length_c   12.97497756
_cell_angle_alpha   90.08134099
_cell_angle_beta   89.88393372
_cell_angle_gamma   89.98074204
_symmetry_Int_Tables_number   1
_chemical_formula_structural   Ho8Ti6Nb6Si15As
_chemical_formula_sum   'Ho8 Ti6 Nb6 Si15 As1'
_cell_volume   644.82696240
_cell_formula_units_Z   1
loop_
 _symmetry_equiv_pos_site_id
 _symmetry_equiv_pos_as_xyz
  1  'x, y, z'
loop_
 _atom_site_type_symbol
 _atom_site_label
 _atom_site_symmetry_multiplicity
 _atom_site_fract_x
 _atom_site_fract_y
 _atom_site_fract_z
 _atom_site_occupancy
  Ho  Ho0  1  0.342542  0.000068  0.465331  1
  Ho  Ho1  1  0.498789  0.843175  0.717176  1
  Ho  Ho2  1  0.501032  0.156863  0.216674  1
  Ho  Ho3  1  0.840252  0.499363  0.283496  1
  Ho  Ho4  1  0.158271  0.499331  0.782878  1
  Ho  Ho5  1  0.659140  0.996648  0.967823  1
  Ho  Ho6  1  0.997570  0.344470  0.532000  1
  Ho  Ho7  1  0.999730  0.659520  0.033257  1
  Ti  Ti8  1  0.508621  0.347584  0.625965  1
  Ti  Ti9  1  0.654720  0.493536  0.876025  1
  Ti  Ti10  1  0.347411  0.508304  0.375636  1
  Ti  Ti11  1  0.846582  0.991590  0.374141  1
  Ti  Ti12  1  0.008119  0.152071  0.125505  1
  Ti  Ti13  1  0.989175  0.843561  0.624719  1
  Nb  Nb14  1  0.327231  0.328071  0.000328  1
  Nb  Nb15  1  0.172003  0.827870  0.250511  1
  Nb  Nb16  1  0.826015  0.172663  0.749884  1
  Nb  Nb17  1  0.671888  0.671690  0.500213  1
  Nb  Nb18  1  0.153583  0.007882  0.874464  1
  Nb  Nb19  1  0.491949  0.652451  0.123567  1
  Si  Si20  1  0.368440  0.704389  0.931657  1
  Si  Si21  1  0.629915  0.296926  0.434252  1
  Si  Si22  1  0.705614  0.365579  0.067462  1
  Si  Si23  1  0.296693  0.631872  0.566113  1
  Si  Si24  1  0.797781  0.868907  0.184135  1
  Si  Si25  1  0.130880  0.203880  0.317036  1
  Si  Si26  1  0.866274  0.794787  0.816498  1
  Si  Si27  1  0.292090  0.954030  0.064049  1
  Si  Si28  1  0.547392  0.792357  0.314173  1
  Si  Si29  1  0.461793  0.210918  0.817491  1
  Si  Si30  1  0.791653  0.546626  0.686406  1
  Si  Si31  1  0.206371  0.451729  0.187548  1
  Si  Si32  1  0.708281  0.047268  0.563074  1
  Si  Si33  1  0.952587  0.294675  0.936794  1
  Si  Si34  1  0.046474  0.708588  0.436327  1
  As  As35  1  0.203141  0.130756  0.677392  1
