# generated using pymatgen
data_MnNb6Al4CuC2
_symmetry_space_group_name_H-M   'P 1'
_cell_length_a   8.28119786
_cell_length_b   8.28119765
_cell_length_c   8.24655600
_cell_angle_alpha   60.13827394
_cell_angle_beta   60.13827475
_cell_angle_gamma   60.37836486
_symmetry_Int_Tables_number   1
_chemical_formula_structural   MnNb6Al4CuC2
_chemical_formula_sum   'Mn2 Nb12 Al8 Cu2 C4'
_cell_volume   401.86496581
_cell_formula_units_Z   2
loop_
 _symmetry_equiv_pos_site_id
 _symmetry_equiv_pos_as_xyz
  1  'x, y, z'
loop_
 _atom_site_type_symbol
 _atom_site_label
 _atom_site_symmetry_multiplicity
 _atom_site_fract_x
 _atom_site_fract_y
 _atom_site_fract_z
 _atom_site_occupancy
  Mn  Mn0  1  0.625000  0.125000  0.125000  1
  Mn  Mn1  1  0.125000  0.625000  0.125000  1
  Nb  Nb2  1  0.568159  0.938519  0.552225  1
  Nb  Nb3  1  0.311481  0.681841  0.697775  1
  Nb  Nb4  1  0.681841  0.311481  0.308904  1
  Nb  Nb5  1  0.311481  0.681841  0.308904  1
  Nb  Nb6  1  0.694447  0.694447  0.305553  1
  Nb  Nb7  1  0.316324  0.316324  0.683676  1
  Nb  Nb8  1  0.555553  0.555553  0.944447  1
  Nb  Nb9  1  0.938519  0.568159  0.552225  1
  Nb  Nb10  1  0.568159  0.938519  0.941096  1
  Nb  Nb11  1  0.933676  0.933676  0.566324  1
  Nb  Nb12  1  0.681841  0.311481  0.697775  1
  Nb  Nb13  1  0.938519  0.568159  0.941096  1
  Al  Al14  1  0.918635  0.918635  0.918719  1
  Al  Al15  1  0.996452  0.335313  0.334117  1
  Al  Al16  1  0.335313  0.996452  0.334117  1
  Al  Al17  1  0.331365  0.331365  0.005988  1
  Al  Al18  1  0.914687  0.253548  0.915883  1
  Al  Al19  1  0.918635  0.918635  0.244012  1
  Al  Al20  1  0.253548  0.914687  0.915883  1
  Al  Al21  1  0.331365  0.331365  0.331281  1
  Cu  Cu22  1  0.125000  0.125000  0.125000  1
  Cu  Cu23  1  0.125000  0.125000  0.625000  1
  C  C24  1  0.625000  0.625000  0.625000  1
  C  C25  1  0.125000  0.625000  0.625000  1
  C  C26  1  0.625000  0.125000  0.625000  1
  C  C27  1  0.625000  0.625000  0.125000  1
