# generated using pymatgen
data_TbAl8(FeCu)2
_symmetry_space_group_name_H-M   'P 1'
_cell_length_a   6.67230356
_cell_length_b   6.67230420
_cell_length_c   6.69586404
_cell_angle_alpha   98.30354697
_cell_angle_beta   98.30354451
_cell_angle_gamma   135.24672769
_symmetry_Int_Tables_number   1
_chemical_formula_structural   TbAl8(FeCu)2
_chemical_formula_sum   'Tb1 Al8 Fe2 Cu2'
_cell_volume   194.18913405
_cell_formula_units_Z   1
loop_
 _symmetry_equiv_pos_site_id
 _symmetry_equiv_pos_as_xyz
  1  'x, y, z'
loop_
 _atom_site_type_symbol
 _atom_site_label
 _atom_site_symmetry_multiplicity
 _atom_site_fract_x
 _atom_site_fract_y
 _atom_site_fract_z
 _atom_site_occupancy
  Tb  Tb0  1  0.000000  0.000000  0.000000  1
  Al  Al1  1  0.654162  0.989987  0.644149  1
  Al  Al2  1  0.989987  0.654162  0.644149  1
  Al  Al3  1  0.010013  0.345838  0.355851  1
  Al  Al4  1  0.345838  0.010013  0.355851  1
  Al  Al5  1  0.720384  0.504002  0.224386  1
  Al  Al6  1  0.504002  0.720384  0.224386  1
  Al  Al7  1  0.495998  0.279616  0.775614  1
  Al  Al8  1  0.279616  0.495998  0.775614  1
  Fe  Fe9  1  0.000000  0.000000  0.500000  1
  Fe  Fe10  1  0.500000  0.500000  0.500000  1
  Cu  Cu11  1  0.500000  0.000000  0.000000  1
  Cu  Cu12  1  0.000000  0.500000  0.000000  1
