# generated using pymatgen
data_Pr2Sc3Nb3(Co4P3)4
_symmetry_space_group_name_H-M   'P 1'
_cell_length_a   12.17589200
_cell_length_b   12.17589132
_cell_length_c   3.67098500
_cell_angle_alpha   90.00000000
_cell_angle_beta   90.00000000
_cell_angle_gamma   120.00000185
_symmetry_Int_Tables_number   1
_chemical_formula_structural   Pr2Sc3Nb3(Co4P3)4
_chemical_formula_sum   'Pr2 Sc3 Nb3 Co16 P12'
_cell_volume   471.31882226
_cell_formula_units_Z   1
loop_
 _symmetry_equiv_pos_site_id
 _symmetry_equiv_pos_as_xyz
  1  'x, y, z'
loop_
 _atom_site_type_symbol
 _atom_site_label
 _atom_site_symmetry_multiplicity
 _atom_site_fract_x
 _atom_site_fract_y
 _atom_site_fract_z
 _atom_site_occupancy
  Pr  Pr0  1  0.333333  0.666667  0.000000  1
  Pr  Pr1  1  0.666667  0.333333  0.000000  1
  Sc  Sc2  1  0.817451  0.000000  0.500000  1
  Sc  Sc3  1  0.000000  0.817451  0.500000  1
  Sc  Sc4  1  0.182549  0.182549  0.500000  1
  Nb  Nb5  1  0.445706  0.000000  0.000000  1
  Nb  Nb6  1  0.000000  0.445706  0.000000  1
  Nb  Nb7  1  0.554294  0.554294  0.000000  1
  Co  Co8  1  0.273474  0.000000  0.500000  1
  Co  Co9  1  0.000000  0.273474  0.500000  1
  Co  Co10  1  0.726526  0.726526  0.500000  1
  Co  Co11  1  0.633732  0.807854  0.000000  1
  Co  Co12  1  0.192146  0.825877  0.000000  1
  Co  Co13  1  0.174123  0.366268  0.000000  1
  Co  Co14  1  0.366268  0.174123  0.000000  1
  Co  Co15  1  0.807854  0.633732  0.000000  1
  Co  Co16  1  0.825877  0.192146  0.000000  1
  Co  Co17  1  0.525391  0.876717  0.500000  1
  Co  Co18  1  0.123283  0.648674  0.500000  1
  Co  Co19  1  0.351326  0.474609  0.500000  1
  Co  Co20  1  0.474609  0.351326  0.500000  1
  Co  Co21  1  0.876717  0.525391  0.500000  1
  Co  Co22  1  0.648674  0.123283  0.500000  1
  Co  Co23  1  0.000000  0.000000  0.000000  1
  P  P24  1  0.172897  0.000000  0.000000  1
  P  P25  1  0.000000  0.172897  0.000000  1
  P  P26  1  0.827103  0.827103  0.000000  1
  P  P27  1  0.527539  0.691490  0.500000  1
  P  P28  1  0.308510  0.836048  0.500000  1
  P  P29  1  0.163952  0.472461  0.500000  1
  P  P30  1  0.472461  0.163952  0.500000  1
  P  P31  1  0.691490  0.527539  0.500000  1
  P  P32  1  0.836048  0.308510  0.500000  1
  P  P33  1  0.648858  0.000000  0.000000  1
  P  P34  1  0.000000  0.648858  0.000000  1
  P  P35  1  0.351142  0.351142  0.000000  1
