# generated using pymatgen
data_Li4Nd4Sn2BiPb
_symmetry_space_group_name_H-M   'P 1'
_cell_length_a   9.62936546
_cell_length_b   9.62735548
_cell_length_c   7.64577995
_cell_angle_alpha   90.05128175
_cell_angle_beta   89.91134705
_cell_angle_gamma   120.07378178
_symmetry_Int_Tables_number   1
_chemical_formula_structural   Li4Nd4Sn2BiPb
_chemical_formula_sum   'Li8 Nd8 Sn4 Bi2 Pb2'
_cell_volume   613.38508734
_cell_formula_units_Z   2
loop_
 _symmetry_equiv_pos_site_id
 _symmetry_equiv_pos_as_xyz
  1  'x, y, z'
loop_
 _atom_site_type_symbol
 _atom_site_label
 _atom_site_symmetry_multiplicity
 _atom_site_fract_x
 _atom_site_fract_y
 _atom_site_fract_z
 _atom_site_occupancy
  Li  Li0  1  0.167277  0.830730  0.198272  1
  Li  Li1  1  0.336624  0.169605  0.698302  1
  Li  Li2  1  0.830140  0.664203  0.696530  1
  Li  Li3  1  0.165795  0.335880  0.196545  1
  Li  Li4  1  0.664657  0.833235  0.199183  1
  Li  Li5  1  0.831371  0.166758  0.699092  1
  Li  Li6  1  0.335500  0.667094  0.813865  1
  Li  Li7  1  0.668420  0.333073  0.313836  1
  Nd  Nd8  1  0.513405  0.492936  0.987866  1
  Nd  Nd9  1  0.020760  0.506889  0.487919  1
  Nd  Nd10  1  0.495683  0.976450  0.490778  1
  Nd  Nd11  1  0.518880  0.023401  0.990915  1
  Nd  Nd12  1  0.974277  0.482901  0.991925  1
  Nd  Nd13  1  0.491327  0.516929  0.492013  1
  Nd  Nd14  1  0.992976  0.999967  0.986041  1
  Nd  Nd15  1  0.992821  0.999859  0.485865  1
  Sn  Sn16  1  0.666898  0.833445  0.752813  1
  Sn  Sn17  1  0.833492  0.166645  0.252831  1
  Sn  Sn18  1  0.333365  0.667208  0.221291  1
  Sn  Sn19  1  0.666186  0.332886  0.721288  1
  Bi  Bi20  1  0.166875  0.833724  0.752184  1
  Bi  Bi21  1  0.332903  0.166212  0.252176  1
  Pb  Pb22  1  0.833584  0.666757  0.254230  1
  Pb  Pb23  1  0.166786  0.333214  0.754245  1
