# generated using pymatgen
data_La2PrHg3Pd2Rh
_symmetry_space_group_name_H-M   'P 1'
_cell_length_a   7.86270361
_cell_length_b   7.81707043
_cell_length_c   4.03499900
_cell_angle_alpha   90.00000000
_cell_angle_beta   90.00000000
_cell_angle_gamma   119.64413386
_symmetry_Int_Tables_number   1
_chemical_formula_structural   La2PrHg3Pd2Rh
_chemical_formula_sum   'La2 Pr1 Hg3 Pd2 Rh1'
_cell_volume   215.54413280
_cell_formula_units_Z   1
loop_
 _symmetry_equiv_pos_site_id
 _symmetry_equiv_pos_as_xyz
  1  'x, y, z'
loop_
 _atom_site_type_symbol
 _atom_site_label
 _atom_site_symmetry_multiplicity
 _atom_site_fract_x
 _atom_site_fract_y
 _atom_site_fract_z
 _atom_site_occupancy
  La  La0  1  0.409065  0.396229  0.500000  1
  La  La1  1  0.603915  0.012923  0.500000  1
  Pr  Pr2  1  0.989323  0.593963  0.500000  1
  Hg  Hg3  1  0.740166  0.740790  0.000000  1
  Hg  Hg4  1  0.257564  0.995419  0.000000  1
  Hg  Hg5  1  0.002856  0.263999  0.000000  1
  Pd  Pd6  1  0.334246  0.666287  0.000000  1
  Pd  Pd7  1  0.000052  0.000590  0.500000  1
  Rh  Rh8  1  0.662812  0.329800  0.000000  1
