# generated using pymatgen
data_Sr2P3Pd
_symmetry_space_group_name_H-M   'P 1'
_cell_length_a   7.05582500
_cell_length_b   6.26435293
_cell_length_c   12.43542976
_cell_angle_alpha   87.11052485
_cell_angle_beta   90.00000000
_cell_angle_gamma   90.00000000
_symmetry_Int_Tables_number   1
_chemical_formula_structural   Sr2P3Pd
_chemical_formula_sum   'Sr8 P12 Pd4'
_cell_volume   548.94940519
_cell_formula_units_Z   4
loop_
 _symmetry_equiv_pos_site_id
 _symmetry_equiv_pos_as_xyz
  1  'x, y, z'
loop_
 _atom_site_type_symbol
 _atom_site_label
 _atom_site_symmetry_multiplicity
 _atom_site_fract_x
 _atom_site_fract_y
 _atom_site_fract_z
 _atom_site_occupancy
  Sr  Sr0  1  0.256697  0.625822  0.329135  1
  Sr  Sr1  1  0.243303  0.625822  0.829135  1
  Sr  Sr2  1  0.743303  0.374178  0.670865  1
  Sr  Sr3  1  0.756697  0.374178  0.170865  1
  Sr  Sr4  1  0.748545  0.847708  0.438186  1
  Sr  Sr5  1  0.248545  0.152292  0.061814  1
  Sr  Sr6  1  0.251455  0.152292  0.561814  1
  Sr  Sr7  1  0.751455  0.847708  0.938186  1
  P  P8  1  0.076238  0.678613  0.590409  1
  P  P9  1  0.576238  0.321387  0.909591  1
  P  P10  1  0.923762  0.321387  0.409591  1
  P  P11  1  0.423762  0.678613  0.090409  1
  P  P12  1  0.387724  0.658190  0.584076  1
  P  P13  1  0.887724  0.341810  0.915924  1
  P  P14  1  0.612276  0.341810  0.415924  1
  P  P15  1  0.574386  0.905445  0.194045  1
  P  P16  1  0.925614  0.905445  0.694045  1
  P  P17  1  0.425614  0.094555  0.805955  1
  P  P18  1  0.074386  0.094555  0.305955  1
  P  P19  1  0.112276  0.658190  0.084076  1
  Pd  Pd20  1  0.909140  0.872143  0.187591  1
  Pd  Pd21  1  0.090860  0.127857  0.812409  1
  Pd  Pd22  1  0.409140  0.127857  0.312409  1
  Pd  Pd23  1  0.590860  0.872143  0.687591  1
