# generated using pymatgen
data_Th2Al20Re3Pt
_symmetry_space_group_name_H-M   'P 1'
_cell_length_a   6.95708843
_cell_length_b   6.93865040
_cell_length_c   9.27250636
_cell_angle_alpha   90.49871044
_cell_angle_beta   90.35071142
_cell_angle_gamma   96.98906833
_symmetry_Int_Tables_number   1
_chemical_formula_structural   Th2Al20Re3Pt
_chemical_formula_sum   'Th2 Al20 Re3 Pt1'
_cell_volume   444.25541441
_cell_formula_units_Z   1
loop_
 _symmetry_equiv_pos_site_id
 _symmetry_equiv_pos_as_xyz
  1  'x, y, z'
loop_
 _atom_site_type_symbol
 _atom_site_label
 _atom_site_symmetry_multiplicity
 _atom_site_fract_x
 _atom_site_fract_y
 _atom_site_fract_z
 _atom_site_occupancy
  Th  Th0  1  0.862782  0.122376  0.753016  1
  Th  Th1  1  0.137218  0.877624  0.246984  1
  Al  Al2  1  0.513208  0.779162  0.747680  1
  Al  Al3  1  0.486792  0.220838  0.252320  1
  Al  Al4  1  0.595487  0.858432  0.249287  1
  Al  Al5  1  0.775567  0.776115  0.998841  1
  Al  Al6  1  0.160657  0.842291  0.604133  1
  Al  Al7  1  0.224433  0.223885  0.001159  1
  Al  Al8  1  0.146562  0.409559  0.248155  1
  Al  Al9  1  0.621437  0.377277  0.955174  1
  Al  Al10  1  0.841640  0.161231  0.103263  1
  Al  Al11  1  0.384491  0.623639  0.448811  1
  Al  Al12  1  0.158360  0.838769  0.896737  1
  Al  Al13  1  0.219188  0.481045  0.756291  1
  Al  Al14  1  0.378563  0.622723  0.044826  1
  Al  Al15  1  0.839343  0.157709  0.395867  1
  Al  Al16  1  0.615509  0.376361  0.551189  1
  Al  Al17  1  0.404513  0.141568  0.750713  1
  Al  Al18  1  0.780812  0.518955  0.243709  1
  Al  Al19  1  0.774045  0.776716  0.501739  1
  Al  Al20  1  0.225955  0.223284  0.498261  1
  Al  Al21  1  0.853438  0.590441  0.751845  1
  Re  Re22  1  0.000000  0.500000  0.000000  1
  Re  Re23  1  0.500000  0.000000  0.000000  1
  Re  Re24  1  0.500000  0.000000  0.500000  1
  Pt  Pt25  1  0.000000  0.500000  0.500000  1
