# generated using pymatgen
data_Li2Hf6MoIr3
_symmetry_space_group_name_H-M   'P 1'
_cell_length_a   4.64783800
_cell_length_b   6.54626800
_cell_length_c   13.89569900
_cell_angle_alpha   90.00000000
_cell_angle_beta   90.00010300
_cell_angle_gamma   90.00000000
_symmetry_Int_Tables_number   1
_chemical_formula_structural   Li2Hf6MoIr3
_chemical_formula_sum   'Li4 Hf12 Mo2 Ir6'
_cell_volume   422.79044285
_cell_formula_units_Z   2
loop_
 _symmetry_equiv_pos_site_id
 _symmetry_equiv_pos_as_xyz
  1  'x, y, z'
loop_
 _atom_site_type_symbol
 _atom_site_label
 _atom_site_symmetry_multiplicity
 _atom_site_fract_x
 _atom_site_fract_y
 _atom_site_fract_z
 _atom_site_occupancy
  Li  Li0  1  0.000001  0.500000  0.000243  1
  Li  Li1  1  0.499974  0.000000  0.166713  1
  Li  Li2  1  0.999988  0.500000  0.333251  1
  Li  Li3  1  0.500001  0.000000  0.499762  1
  Hf  Hf4  1  0.500002  0.247248  0.996941  1
  Hf  Hf5  1  0.500002  0.752752  0.996941  1
  Hf  Hf6  1  0.999988  0.249959  0.166133  1
  Hf  Hf7  1  0.999988  0.750041  0.166133  1
  Hf  Hf8  1  0.499988  0.250034  0.333868  1
  Hf  Hf9  1  0.499988  0.749966  0.333868  1
  Hf  Hf10  1  0.000001  0.252765  0.503061  1
  Hf  Hf11  1  0.000001  0.747235  0.503061  1
  Hf  Hf12  1  0.500011  0.251062  0.668316  1
  Hf  Hf13  1  0.500011  0.748938  0.668316  1
  Hf  Hf14  1  0.000014  0.248933  0.831686  1
  Hf  Hf15  1  0.000014  0.751067  0.831686  1
  Mo  Mo16  1  0.000011  0.500000  0.664926  1
  Mo  Mo17  1  0.500014  0.000000  0.835115  1
  Ir  Ir18  1  0.000005  0.000000  0.005896  1
  Ir  Ir19  1  0.499982  0.500000  0.169345  1
  Ir  Ir20  1  0.999989  0.000000  0.330608  1
  Ir  Ir21  1  0.500000  0.500000  0.494104  1
  Ir  Ir22  1  0.000015  0.000000  0.662649  1
  Ir  Ir23  1  0.500014  0.500000  0.837377  1
