# generated using pymatgen
data_Ca3Pr(Sn2Ir)8
_symmetry_space_group_name_H-M   'P 1'
_cell_length_a   4.48044800
_cell_length_b   7.31958215
_cell_length_c   18.65361840
_cell_angle_alpha   90.02364362
_cell_angle_beta   90.00000000
_cell_angle_gamma   90.00000000
_symmetry_Int_Tables_number   1
_chemical_formula_structural   Ca3Pr(Sn2Ir)8
_chemical_formula_sum   'Ca3 Pr1 Sn16 Ir8'
_cell_volume   611.74549813
_cell_formula_units_Z   1
loop_
 _symmetry_equiv_pos_site_id
 _symmetry_equiv_pos_as_xyz
  1  'x, y, z'
loop_
 _atom_site_type_symbol
 _atom_site_label
 _atom_site_symmetry_multiplicity
 _atom_site_fract_x
 _atom_site_fract_y
 _atom_site_fract_z
 _atom_site_occupancy
  Ca  Ca0  1  0.250000  0.994445  0.857759  1
  Ca  Ca1  1  0.250000  0.505522  0.356182  1
  Ca  Ca2  1  0.750000  0.006519  0.143003  1
  Pr  Pr3  1  0.750000  0.497050  0.642907  1
  Sn  Sn4  1  0.250000  0.300165  0.182121  1
  Sn  Sn5  1  0.250000  0.196345  0.683380  1
  Sn  Sn6  1  0.750000  0.700040  0.818279  1
  Sn  Sn7  1  0.750000  0.799860  0.317886  1
  Sn  Sn8  1  0.250000  0.727042  0.192785  1
  Sn  Sn9  1  0.250000  0.778152  0.694317  1
  Sn  Sn10  1  0.750000  0.272907  0.808303  1
  Sn  Sn11  1  0.750000  0.225719  0.306980  1
  Sn  Sn12  1  0.250000  0.869858  0.034037  1
  Sn  Sn13  1  0.250000  0.630013  0.531020  1
  Sn  Sn14  1  0.750000  0.128848  0.966739  1
  Sn  Sn15  1  0.750000  0.368089  0.464955  1
  Sn  Sn16  1  0.250000  0.519146  0.931984  1
  Sn  Sn17  1  0.250000  0.980738  0.431782  1
  Sn  Sn18  1  0.750000  0.479657  0.067948  1
  Sn  Sn19  1  0.750000  0.020398  0.567457  1
  Ir  Ir20  1  0.250000  0.252533  0.036285  1
  Ir  Ir21  1  0.250000  0.246721  0.536563  1
  Ir  Ir22  1  0.750000  0.746770  0.963634  1
  Ir  Ir23  1  0.750000  0.752865  0.464056  1
  Ir  Ir24  1  0.250000  0.017083  0.284969  1
  Ir  Ir25  1  0.250000  0.483268  0.784711  1
  Ir  Ir26  1  0.750000  0.983176  0.714466  1
  Ir  Ir27  1  0.750000  0.517070  0.215491  1
