# generated using pymatgen
data_DyHoAl5Ga4Ir3
_symmetry_space_group_name_H-M   'P 1'
_cell_length_a   7.53491003
_cell_length_b   7.53350578
_cell_length_c   9.55049801
_cell_angle_alpha   90.10892237
_cell_angle_beta   89.84865625
_cell_angle_gamma   119.68033305
_symmetry_Int_Tables_number   1
_chemical_formula_structural   DyHoAl5Ga4Ir3
_chemical_formula_sum   'Dy2 Ho2 Al10 Ga8 Ir6'
_cell_volume   470.99920756
_cell_formula_units_Z   2
loop_
 _symmetry_equiv_pos_site_id
 _symmetry_equiv_pos_as_xyz
  1  'x, y, z'
loop_
 _atom_site_type_symbol
 _atom_site_label
 _atom_site_symmetry_multiplicity
 _atom_site_fract_x
 _atom_site_fract_y
 _atom_site_fract_z
 _atom_site_occupancy
  Dy  Dy0  1  0.996445  0.666841  0.245704  1
  Dy  Dy1  1  0.003555  0.333159  0.754296  1
  Ho  Ho2  1  0.672392  0.998666  0.249146  1
  Ho  Ho3  1  0.327608  0.001334  0.750854  1
  Al  Al4  1  0.997650  0.665363  0.570853  1
  Al  Al5  1  0.334457  0.000688  0.427597  1
  Al  Al6  1  0.002350  0.334637  0.429147  1
  Al  Al7  1  0.665543  0.999312  0.572403  1
  Al  Al8  1  0.664074  0.997067  0.926702  1
  Al  Al9  1  0.335926  0.002933  0.073298  1
  Al  Al10  1  0.333578  0.333478  0.556415  1
  Al  Al11  1  0.666422  0.666522  0.443585  1
  Al  Al12  1  0.666785  0.666264  0.054803  1
  Al  Al13  1  0.333215  0.333736  0.945197  1
  Ga  Ga14  1  0.129749  0.126352  0.250598  1
  Ga  Ga15  1  0.870251  0.873648  0.749402  1
  Ga  Ga16  1  0.999679  0.333439  0.079795  1
  Ga  Ga17  1  0.000321  0.666561  0.920205  1
  Ga  Ga18  1  0.340966  0.548774  0.250844  1
  Ga  Ga19  1  0.659034  0.451226  0.749156  1
  Ga  Ga20  1  0.546382  0.339268  0.249995  1
  Ga  Ga21  1  0.453618  0.660732  0.750005  1
  Ir  Ir22  1  0.667284  0.325825  0.999170  1
  Ir  Ir23  1  0.332716  0.674175  0.000830  1
  Ir  Ir24  1  0.328007  0.671850  0.500839  1
  Ir  Ir25  1  0.671993  0.328150  0.499161  1
  Ir  Ir26  1  0.000000  0.000000  0.000000  1
  Ir  Ir27  1  0.000000  0.000000  0.500000  1
