# generated using pymatgen
data_Zr10AlTl4ZnPb2
_symmetry_space_group_name_H-M   'P 1'
_cell_length_a   8.84503716
_cell_length_b   8.81769260
_cell_length_c   5.94688723
_cell_angle_alpha   89.96813081
_cell_angle_beta   90.01588509
_cell_angle_gamma   119.89779529
_symmetry_Int_Tables_number   1
_chemical_formula_structural   Zr10AlTl4ZnPb2
_chemical_formula_sum   'Zr10 Al1 Tl4 Zn1 Pb2'
_cell_volume   402.08811439
_cell_formula_units_Z   1
loop_
 _symmetry_equiv_pos_site_id
 _symmetry_equiv_pos_as_xyz
  1  'x, y, z'
loop_
 _atom_site_type_symbol
 _atom_site_label
 _atom_site_symmetry_multiplicity
 _atom_site_fract_x
 _atom_site_fract_y
 _atom_site_fract_z
 _atom_site_occupancy
  Zr  Zr0  1  0.333568  0.666784  0.000000  1
  Zr  Zr1  1  0.667738  0.333868  0.500000  1
  Zr  Zr2  1  0.667023  0.333511  0.000000  1
  Zr  Zr3  1  0.333996  0.666999  0.500000  1
  Zr  Zr4  1  0.263751  0.000003  0.250259  1
  Zr  Zr5  1  0.263751  0.263749  0.749741  1
  Zr  Zr6  1  0.999438  0.734243  0.749773  1
  Zr  Zr7  1  0.999438  0.265195  0.250227  1
  Zr  Zr8  1  0.735432  0.735860  0.250673  1
  Zr  Zr9  1  0.735432  0.999572  0.749327  1
  Al  Al10  1  0.998893  0.999446  0.000000  1
  Tl  Tl11  1  0.617151  0.000016  0.250501  1
  Tl  Tl12  1  0.617151  0.617135  0.749499  1
  Tl  Tl13  1  0.000158  0.384275  0.749389  1
  Tl  Tl14  1  0.000158  0.615883  0.250611  1
  Zn  Zn15  1  0.998909  0.999454  0.500000  1
  Pb  Pb16  1  0.384007  0.383976  0.250394  1
  Pb  Pb17  1  0.384007  0.000030  0.749606  1
