# generated using pymatgen
data_Dy2Y2CdSnAu4
_symmetry_space_group_name_H-M   'P 1'
_cell_length_a   8.02443700
_cell_length_b   8.02443700
_cell_length_c   7.37486300
_cell_angle_alpha   90.00000000
_cell_angle_beta   90.00000000
_cell_angle_gamma   90.00000000
_symmetry_Int_Tables_number   1
_chemical_formula_structural   Dy2Y2CdSnAu4
_chemical_formula_sum   'Dy4 Y4 Cd2 Sn2 Au8'
_cell_volume   474.87914846
_cell_formula_units_Z   2
loop_
 _symmetry_equiv_pos_site_id
 _symmetry_equiv_pos_as_xyz
  1  'x, y, z'
loop_
 _atom_site_type_symbol
 _atom_site_label
 _atom_site_symmetry_multiplicity
 _atom_site_fract_x
 _atom_site_fract_y
 _atom_site_fract_z
 _atom_site_occupancy
  Dy  Dy0  1  0.682655  0.682655  0.500000  1
  Dy  Dy1  1  0.317345  0.317345  0.500000  1
  Dy  Dy2  1  0.182655  0.817345  0.000000  1
  Dy  Dy3  1  0.817345  0.182655  0.000000  1
  Y  Y4  1  0.840997  0.159003  0.500000  1
  Y  Y5  1  0.159003  0.840997  0.500000  1
  Y  Y6  1  0.340997  0.340997  0.000000  1
  Y  Y7  1  0.659003  0.659003  0.000000  1
  Cd  Cd8  1  0.500000  0.000000  0.250000  1
  Cd  Cd9  1  0.000000  0.500000  0.750000  1
  Sn  Sn10  1  0.500000  0.000000  0.750000  1
  Sn  Sn11  1  0.000000  0.500000  0.250000  1
  Au  Au12  1  0.624754  0.368703  0.273890  1
  Au  Au13  1  0.375246  0.631297  0.273890  1
  Au  Au14  1  0.124754  0.131297  0.773890  1
  Au  Au15  1  0.875246  0.868703  0.773890  1
  Au  Au16  1  0.368703  0.624754  0.726110  1
  Au  Au17  1  0.631297  0.375246  0.726110  1
  Au  Au18  1  0.868703  0.875246  0.226110  1
  Au  Au19  1  0.131297  0.124754  0.226110  1
