# generated using pymatgen
data_Tb2Al16FePt8
_symmetry_space_group_name_H-M   'P 1'
_cell_length_a   11.10234312
_cell_length_b   11.10234376
_cell_length_c   11.10234414
_cell_angle_alpha   158.47256060
_cell_angle_beta   116.01310280
_cell_angle_gamma   68.35722647
_symmetry_Int_Tables_number   1
_chemical_formula_structural   Tb2Al16FePt8
_chemical_formula_sum   'Tb2 Al16 Fe1 Pt8'
_cell_volume   448.09939782
_cell_formula_units_Z   1
loop_
 _symmetry_equiv_pos_site_id
 _symmetry_equiv_pos_as_xyz
  1  'x, y, z'
loop_
 _atom_site_type_symbol
 _atom_site_label
 _atom_site_symmetry_multiplicity
 _atom_site_fract_x
 _atom_site_fract_y
 _atom_site_fract_z
 _atom_site_occupancy
  Tb  Tb0  1  0.228506  0.229266  0.999240  1
  Tb  Tb1  1  0.769974  0.770734  0.999240  1
  Al  Al2  1  0.272768  0.390568  0.882200  1
  Al  Al3  1  0.090358  0.921771  0.168587  1
  Al  Al4  1  0.510434  0.204476  0.305960  1
  Al  Al5  1  0.246816  0.078229  0.168587  1
  Al  Al6  1  0.910963  0.415654  0.495310  1
  Al  Al7  1  0.722464  0.598520  0.123944  1
  Al  Al8  1  0.898694  0.205461  0.693233  1
  Al  Al9  1  0.487774  0.794539  0.693233  1
  Al  Al10  1  0.388064  0.000000  0.388064  1
  Al  Al11  1  0.625117  0.000000  0.625117  1
  Al  Al12  1  0.491631  0.609432  0.882200  1
  Al  Al13  1  0.101484  0.795524  0.305960  1
  Al  Al14  1  0.898648  0.078842  0.819806  1
  Al  Al15  1  0.740963  0.921158  0.819806  1
  Al  Al16  1  0.525424  0.401480  0.123944  1
  Al  Al17  1  0.079656  0.584346  0.495310  1
  Fe  Fe18  1  0.769918  0.500000  0.269918  1
  Pt  Pt19  1  0.022675  0.340729  0.681945  1
  Pt  Pt20  1  0.628388  0.126359  0.502029  1
  Pt  Pt21  1  0.253859  0.500000  0.753859  1
  Pt  Pt22  1  0.375670  0.873641  0.502029  1
  Pt  Pt23  1  0.991293  0.000000  0.991293  1
  Pt  Pt24  1  0.653410  0.339788  0.313622  1
  Pt  Pt25  1  0.341217  0.659271  0.681945  1
  Pt  Pt26  1  0.973832  0.660212  0.313622  1
