# generated using pymatgen
data_Yb3Ga5(PdRh2)2
_symmetry_space_group_name_H-M   'P 1'
_cell_length_a   8.01489609
_cell_length_b   8.01489542
_cell_length_c   8.01489618
_cell_angle_alpha   148.67256355
_cell_angle_beta   111.62079930
_cell_angle_gamma   77.13397840
_symmetry_Int_Tables_number   1
_chemical_formula_structural   Yb3Ga5(PdRh2)2
_chemical_formula_sum   'Yb3 Ga5 Pd2 Rh4'
_cell_volume   244.30215482
_cell_formula_units_Z   1
loop_
 _symmetry_equiv_pos_site_id
 _symmetry_equiv_pos_as_xyz
  1  'x, y, z'
loop_
 _atom_site_type_symbol
 _atom_site_label
 _atom_site_symmetry_multiplicity
 _atom_site_fract_x
 _atom_site_fract_y
 _atom_site_fract_z
 _atom_site_occupancy
  Yb  Yb0  1  0.500000  0.500000  0.000000  1
  Yb  Yb1  1  0.199399  0.199399  0.000000  1
  Yb  Yb2  1  0.800601  0.800601  0.000000  1
  Ga  Ga3  1  0.798024  0.152908  0.645116  1
  Ga  Ga4  1  0.201976  0.847092  0.354884  1
  Ga  Ga5  1  0.507790  0.152908  0.354884  1
  Ga  Ga6  1  0.492210  0.847092  0.645116  1
  Ga  Ga7  1  0.000000  0.500000  0.500000  1
  Pd  Pd8  1  0.826533  0.000000  0.826533  1
  Pd  Pd9  1  0.173467  0.000000  0.173467  1
  Rh  Rh10  1  0.060304  0.346256  0.714048  1
  Rh  Rh11  1  0.939696  0.653744  0.285952  1
  Rh  Rh12  1  0.632210  0.346256  0.285952  1
  Rh  Rh13  1  0.367790  0.653744  0.714048  1
