# generated using pymatgen
data_Pa7Pb
_symmetry_space_group_name_H-M   'P 1'
_cell_length_a   6.57151394
_cell_length_b   6.57151432
_cell_length_c   6.57151300
_cell_angle_alpha   60.00000163
_cell_angle_beta   59.99999972
_cell_angle_gamma   59.99999882
_symmetry_Int_Tables_number   1
_chemical_formula_structural   Pa7Pb
_chemical_formula_sum   'Pa7 Pb1'
_cell_volume   200.66945295
_cell_formula_units_Z   1
loop_
 _symmetry_equiv_pos_site_id
 _symmetry_equiv_pos_as_xyz
  1  'x, y, z'
loop_
 _atom_site_type_symbol
 _atom_site_label
 _atom_site_symmetry_multiplicity
 _atom_site_fract_x
 _atom_site_fract_y
 _atom_site_fract_z
 _atom_site_occupancy
  Pa  Pa0  1  0.499999  0.000000  0.000000  1
  Pa  Pa1  1  0.000000  0.499999  0.000000  1
  Pa  Pa2  1  0.500001  0.500001  0.000000  1
  Pa  Pa3  1  0.000000  0.000000  0.499999  1
  Pa  Pa4  1  0.500001  0.000000  0.500001  1
  Pa  Pa5  1  0.000000  0.500001  0.500001  1
  Pa  Pa6  1  0.500001  0.500001  0.500001  1
  Pb  Pb7  1  0.000000  0.000000  0.000000  1
