# generated using pymatgen
data_Er2Al9Ni2Ru
_symmetry_space_group_name_H-M   'P 1'
_cell_length_a   7.40900330
_cell_length_b   7.40900280
_cell_length_c   9.28850700
_cell_angle_alpha   90.00000000
_cell_angle_beta   90.00000000
_cell_angle_gamma   118.69860462
_symmetry_Int_Tables_number   1
_chemical_formula_structural   Er2Al9Ni2Ru
_chemical_formula_sum   'Er4 Al18 Ni4 Ru2'
_cell_volume   447.24265676
_cell_formula_units_Z   2
loop_
 _symmetry_equiv_pos_site_id
 _symmetry_equiv_pos_as_xyz
  1  'x, y, z'
loop_
 _atom_site_type_symbol
 _atom_site_label
 _atom_site_symmetry_multiplicity
 _atom_site_fract_x
 _atom_site_fract_y
 _atom_site_fract_z
 _atom_site_occupancy
  Er  Er0  1  0.994082  0.677020  0.750000  1
  Er  Er1  1  0.005918  0.322980  0.250000  1
  Er  Er2  1  0.677020  0.994082  0.750000  1
  Er  Er3  1  0.322980  0.005918  0.250000  1
  Al  Al4  1  0.133168  0.133168  0.750000  1
  Al  Al5  1  0.866832  0.866832  0.250000  1
  Al  Al6  1  0.997965  0.337965  0.574044  1
  Al  Al7  1  0.002035  0.662035  0.425956  1
  Al  Al8  1  0.002035  0.662035  0.074044  1
  Al  Al9  1  0.337965  0.997965  0.925956  1
  Al  Al10  1  0.997965  0.337965  0.925956  1
  Al  Al11  1  0.662035  0.002035  0.074044  1
  Al  Al12  1  0.662035  0.002035  0.425956  1
  Al  Al13  1  0.337965  0.997965  0.574044  1
  Al  Al14  1  0.333680  0.333680  0.047205  1
  Al  Al15  1  0.666320  0.666320  0.952795  1
  Al  Al16  1  0.666320  0.666320  0.547205  1
  Al  Al17  1  0.333680  0.333680  0.452795  1
  Al  Al18  1  0.342658  0.557260  0.750000  1
  Al  Al19  1  0.657342  0.442740  0.250000  1
  Al  Al20  1  0.557260  0.342658  0.750000  1
  Al  Al21  1  0.442740  0.657342  0.250000  1
  Ni  Ni22  1  0.671234  0.328766  0.500000  1
  Ni  Ni23  1  0.328766  0.671234  0.500000  1
  Ni  Ni24  1  0.328766  0.671234  0.000000  1
  Ni  Ni25  1  0.671234  0.328766  0.000000  1
  Ru  Ru26  1  0.000000  0.000000  0.500000  1
  Ru  Ru27  1  0.000000  0.000000  0.000000  1
