# generated using pymatgen
data_Pr7Nd3(CoBi2)2
_symmetry_space_group_name_H-M   'P 1'
_cell_length_a   8.41074231
_cell_length_b   9.15201519
_cell_length_c   12.86401623
_cell_angle_alpha   89.99548527
_cell_angle_beta   89.97891198
_cell_angle_gamma   89.97725992
_symmetry_Int_Tables_number   1
_chemical_formula_structural   Pr7Nd3(CoBi2)2
_chemical_formula_sum   'Pr14 Nd6 Co4 Bi8'
_cell_volume   990.21060561
_cell_formula_units_Z   2
loop_
 _symmetry_equiv_pos_site_id
 _symmetry_equiv_pos_as_xyz
  1  'x, y, z'
loop_
 _atom_site_type_symbol
 _atom_site_label
 _atom_site_symmetry_multiplicity
 _atom_site_fract_x
 _atom_site_fract_y
 _atom_site_fract_z
 _atom_site_occupancy
  Pr  Pr0  1  0.850240  0.749663  0.799868  1
  Pr  Pr1  1  0.149760  0.250337  0.200132  1
  Pr  Pr2  1  0.349954  0.250105  0.700594  1
  Pr  Pr3  1  0.650046  0.749895  0.299406  1
  Pr  Pr4  1  0.377631  0.749988  0.692398  1
  Pr  Pr5  1  0.622369  0.250012  0.307602  1
  Pr  Pr6  1  0.877833  0.250366  0.808033  1
  Pr  Pr7  1  0.122167  0.749634  0.191967  1
  Pr  Pr8  1  0.679934  0.032986  0.562793  1
  Pr  Pr9  1  0.320066  0.967014  0.437207  1
  Pr  Pr10  1  0.179859  0.966888  0.937160  1
  Pr  Pr11  1  0.320110  0.532936  0.436945  1
  Pr  Pr12  1  0.820141  0.033112  0.062840  1
  Pr  Pr13  1  0.679890  0.467064  0.563055  1
  Nd  Nd14  1  0.954288  0.750024  0.502655  1
  Nd  Nd15  1  0.045712  0.249976  0.497345  1
  Nd  Nd16  1  0.454427  0.250187  0.997313  1
  Nd  Nd17  1  0.545573  0.749813  0.002687  1
  Nd  Nd18  1  0.821193  0.467303  0.062842  1
  Nd  Nd19  1  0.178807  0.532697  0.937158  1
  Co  Co20  1  0.565272  0.749946  0.509248  1
  Co  Co21  1  0.434728  0.250054  0.490752  1
  Co  Co22  1  0.064940  0.251272  0.991020  1
  Co  Co23  1  0.935060  0.748728  0.008980  1
  Bi  Bi24  1  0.572562  0.494052  0.826740  1
  Bi  Bi25  1  0.427438  0.505948  0.173260  1
  Bi  Bi26  1  0.073387  0.505972  0.673771  1
  Bi  Bi27  1  0.426965  0.994019  0.173538  1
  Bi  Bi28  1  0.926613  0.494028  0.326229  1
  Bi  Bi29  1  0.573035  0.005981  0.826462  1
  Bi  Bi30  1  0.927161  0.005865  0.326425  1
  Bi  Bi31  1  0.072839  0.994135  0.673575  1
