# generated using pymatgen
data_Ac9Yb3(PrSi2)8
_symmetry_space_group_name_H-M   'P 1'
_cell_length_a   8.11590768
_cell_length_b   8.11590712
_cell_length_c   15.49059552
_cell_angle_alpha   89.84394070
_cell_angle_beta   90.15606064
_cell_angle_gamma   90.02465250
_symmetry_Int_Tables_number   1
_chemical_formula_structural   Ac9Yb3(PrSi2)8
_chemical_formula_sum   'Ac9 Yb3 Pr8 Si16'
_cell_volume   1020.32615587
_cell_formula_units_Z   1
loop_
 _symmetry_equiv_pos_site_id
 _symmetry_equiv_pos_as_xyz
  1  'x, y, z'
loop_
 _atom_site_type_symbol
 _atom_site_label
 _atom_site_symmetry_multiplicity
 _atom_site_fract_x
 _atom_site_fract_y
 _atom_site_fract_z
 _atom_site_occupancy
  Ac  Ac0  1  0.307860  0.307860  0.000000  1
  Ac  Ac1  1  0.372637  0.011156  0.449286  1
  Ac  Ac2  1  0.488012  0.873553  0.698257  1
  Ac  Ac3  1  0.512196  0.127607  0.201947  1
  Ac  Ac4  1  0.873553  0.488012  0.301743  1
  Ac  Ac5  1  0.127607  0.512196  0.798053  1
  Ac  Ac6  1  0.629621  0.987154  0.949966  1
  Ac  Ac7  1  0.011156  0.372637  0.550714  1
  Ac  Ac8  1  0.987154  0.629621  0.050034  1
  Yb  Yb9  1  0.188991  0.810793  0.250330  1
  Yb  Yb10  1  0.810793  0.188991  0.749670  1
  Yb  Yb11  1  0.688433  0.688433  0.500000  1
  Pr  Pr12  1  0.124031  0.985057  0.874915  1
  Pr  Pr13  1  0.516497  0.627796  0.127720  1
  Pr  Pr14  1  0.488822  0.372423  0.626312  1
  Pr  Pr15  1  0.627796  0.516497  0.872280  1
  Pr  Pr16  1  0.372423  0.488822  0.373688  1
  Pr  Pr17  1  0.874679  0.012213  0.377263  1
  Pr  Pr18  1  0.985057  0.124031  0.125085  1
  Pr  Pr19  1  0.012213  0.874679  0.622737  1
  Si  Si20  1  0.203175  0.162384  0.699982  1
  Si  Si21  1  0.335751  0.701853  0.950702  1
  Si  Si22  1  0.663663  0.297792  0.451770  1
  Si  Si23  1  0.701853  0.335751  0.049298  1
  Si  Si24  1  0.297792  0.663663  0.548230  1
  Si  Si25  1  0.796372  0.837189  0.202564  1
  Si  Si26  1  0.162384  0.203175  0.300018  1
  Si  Si27  1  0.837189  0.796372  0.797436  1
  Si  Si28  1  0.287578  0.917547  0.060492  1
  Si  Si29  1  0.582609  0.785277  0.311726  1
  Si  Si30  1  0.420837  0.212520  0.807342  1
  Si  Si31  1  0.785277  0.582609  0.688274  1
  Si  Si32  1  0.212520  0.420837  0.192658  1
  Si  Si33  1  0.714244  0.081677  0.559526  1
  Si  Si34  1  0.917547  0.287578  0.939508  1
  Si  Si35  1  0.081677  0.714244  0.440474  1
