# generated using pymatgen
data_Y2Zn14IrPd2
_symmetry_space_group_name_H-M   'P 1'
_cell_length_a   6.86188947
_cell_length_b   6.82510004
_cell_length_c   6.82509981
_cell_angle_alpha   82.72589689
_cell_angle_beta   82.39864481
_cell_angle_gamma   82.39865198
_symmetry_Int_Tables_number   1
_chemical_formula_structural   Y2Zn14IrPd2
_chemical_formula_sum   'Y2 Zn14 Ir1 Pd2'
_cell_volume   312.10456049
_cell_formula_units_Z   1
loop_
 _symmetry_equiv_pos_site_id
 _symmetry_equiv_pos_as_xyz
  1  'x, y, z'
loop_
 _atom_site_type_symbol
 _atom_site_label
 _atom_site_symmetry_multiplicity
 _atom_site_fract_x
 _atom_site_fract_y
 _atom_site_fract_z
 _atom_site_occupancy
  Y  Y0  1  0.662969  0.672351  0.672351  1
  Y  Y1  1  0.337031  0.327649  0.327649  1
  Zn  Zn2  1  0.352940  0.352054  0.842445  1
  Zn  Zn3  1  0.840394  0.353821  0.353821  1
  Zn  Zn4  1  0.107875  0.096124  0.096124  1
  Zn  Zn5  1  0.892125  0.903876  0.903876  1
  Zn  Zn6  1  0.295792  0.703749  0.000648  1
  Zn  Zn7  1  0.704208  0.999352  0.296251  1
  Zn  Zn8  1  0.000000  0.301553  0.698447  1
  Zn  Zn9  1  0.704208  0.296251  0.999352  1
  Zn  Zn10  1  0.295792  0.000648  0.703749  1
  Zn  Zn11  1  0.000000  0.698447  0.301553  1
  Zn  Zn12  1  0.159606  0.646179  0.646179  1
  Zn  Zn13  1  0.647060  0.647946  0.157555  1
  Zn  Zn14  1  0.647060  0.157555  0.647946  1
  Zn  Zn15  1  0.352940  0.842445  0.352054  1
  Ir  Ir16  1  0.500000  0.000000  0.000000  1
  Pd  Pd17  1  0.000000  0.000000  0.500000  1
  Pd  Pd18  1  0.000000  0.500000  0.000000  1
