# generated using pymatgen
data_NaThCuS3
_symmetry_space_group_name_H-M   'P 1'
_cell_length_a   6.76488132
_cell_length_b   6.76488083
_cell_length_c   10.58741200
_cell_angle_alpha   90.00000000
_cell_angle_beta   90.00000000
_cell_angle_gamma   145.26877037
_symmetry_Int_Tables_number   1
_chemical_formula_structural   NaThCuS3
_chemical_formula_sum   'Na2 Th2 Cu2 S6'
_cell_volume   276.04340255
_cell_formula_units_Z   2
loop_
 _symmetry_equiv_pos_site_id
 _symmetry_equiv_pos_as_xyz
  1  'x, y, z'
loop_
 _atom_site_type_symbol
 _atom_site_label
 _atom_site_symmetry_multiplicity
 _atom_site_fract_x
 _atom_site_fract_y
 _atom_site_fract_z
 _atom_site_occupancy
  Na  Na0  1  0.249981  0.750019  0.750000  1
  Na  Na1  1  0.750019  0.249981  0.250000  1
  Th  Th2  1  0.000000  0.000000  0.500000  1
  Th  Th3  1  0.000000  0.000000  0.000000  1
  Cu  Cu4  1  0.527911  0.472089  0.750000  1
  Cu  Cu5  1  0.472089  0.527911  0.250000  1
  S  S6  1  0.076501  0.923499  0.250000  1
  S  S7  1  0.635031  0.364969  0.924629  1
  S  S8  1  0.923499  0.076501  0.750000  1
  S  S9  1  0.635031  0.364969  0.575371  1
  S  S10  1  0.364969  0.635031  0.075371  1
  S  S11  1  0.364969  0.635031  0.424629  1
