# generated using pymatgen
data_La10Ga3AsIr2
_symmetry_space_group_name_H-M   'P 1'
_cell_length_a   8.30113483
_cell_length_b   9.09539388
_cell_length_c   12.52598800
_cell_angle_alpha   90.16987063
_cell_angle_beta   90.40543639
_cell_angle_gamma   89.85686896
_symmetry_Int_Tables_number   1
_chemical_formula_structural   La10Ga3AsIr2
_chemical_formula_sum   'La20 Ga6 As2 Ir4'
_cell_volume   945.70754916
_cell_formula_units_Z   2
loop_
 _symmetry_equiv_pos_site_id
 _symmetry_equiv_pos_as_xyz
  1  'x, y, z'
loop_
 _atom_site_type_symbol
 _atom_site_label
 _atom_site_symmetry_multiplicity
 _atom_site_fract_x
 _atom_site_fract_y
 _atom_site_fract_z
 _atom_site_occupancy
  La  La0  1  0.670807  0.748561  0.714168  1
  La  La1  1  0.329193  0.251439  0.285832  1
  La  La2  1  0.174632  0.253112  0.788097  1
  La  La3  1  0.825368  0.746888  0.211903  1
  La  La4  1  0.146995  0.748825  0.803421  1
  La  La5  1  0.853005  0.251175  0.196579  1
  La  La6  1  0.639527  0.252475  0.699525  1
  La  La7  1  0.360473  0.747525  0.300475  1
  La  La8  1  0.542504  0.747729  0.999275  1
  La  La9  1  0.457496  0.252271  0.000725  1
  La  La10  1  0.043550  0.249758  0.500160  1
  La  La11  1  0.956450  0.750242  0.499840  1
  La  La12  1  0.819129  0.462567  0.925000  1
  La  La13  1  0.180871  0.537433  0.075000  1
  La  La14  1  0.322921  0.536805  0.577724  1
  La  La15  1  0.178685  0.963525  0.076261  1
  La  La16  1  0.677079  0.463195  0.422276  1
  La  La17  1  0.821315  0.036475  0.923739  1
  La  La18  1  0.678516  0.036832  0.423610  1
  La  La19  1  0.321484  0.963168  0.576390  1
  Ga  Ga20  1  0.940640  0.009789  0.669976  1
  Ga  Ga21  1  0.059360  0.990211  0.330024  1
  Ga  Ga22  1  0.441196  0.992415  0.829024  1
  Ga  Ga23  1  0.061115  0.509452  0.329651  1
  Ga  Ga24  1  0.558804  0.007585  0.170976  1
  Ga  Ga25  1  0.938885  0.490548  0.670349  1
  As  As26  1  0.557596  0.494059  0.172589  1
  As  As27  1  0.442404  0.505941  0.827411  1
  Ir  Ir28  1  0.925673  0.747530  0.986988  1
  Ir  Ir29  1  0.074327  0.252470  0.013012  1
  Ir  Ir30  1  0.424842  0.251923  0.513707  1
  Ir  Ir31  1  0.575158  0.748077  0.486293  1
