# generated using pymatgen
data_SrInBIr3
_symmetry_space_group_name_H-M   'P 1'
_cell_length_a   5.65084800
_cell_length_b   5.65084893
_cell_length_c   7.30714000
_cell_angle_alpha   90.00000000
_cell_angle_beta   90.00000000
_cell_angle_gamma   119.99999453
_symmetry_Int_Tables_number   1
_chemical_formula_structural   SrInBIr3
_chemical_formula_sum   'Sr2 In2 B2 Ir6'
_cell_volume   202.07165887
_cell_formula_units_Z   2
loop_
 _symmetry_equiv_pos_site_id
 _symmetry_equiv_pos_as_xyz
  1  'x, y, z'
loop_
 _atom_site_type_symbol
 _atom_site_label
 _atom_site_symmetry_multiplicity
 _atom_site_fract_x
 _atom_site_fract_y
 _atom_site_fract_z
 _atom_site_occupancy
  Sr  Sr0  1  0.000000  0.000000  0.000000  1
  Sr  Sr1  1  0.000000  0.000000  0.500000  1
  In  In2  1  0.666666  0.333332  0.000000  1
  In  In3  1  0.333333  0.666667  0.000000  1
  B  B4  1  0.666666  0.333332  0.500000  1
  B  B5  1  0.333333  0.666667  0.500000  1
  Ir  Ir6  1  0.500000  0.000000  0.304498  1
  Ir  Ir7  1  0.000000  0.500001  0.304498  1
  Ir  Ir8  1  0.500001  0.500001  0.304498  1
  Ir  Ir9  1  0.500000  0.000000  0.695502  1
  Ir  Ir10  1  0.000000  0.500001  0.695502  1
  Ir  Ir11  1  0.500001  0.500001  0.695502  1
