# generated using pymatgen
data_Ho(TmSe2)2
_symmetry_space_group_name_H-M   'P 1'
_cell_length_a   4.01937700
_cell_length_b   6.93506462
_cell_length_c   6.94586867
_cell_angle_alpha   71.73440582
_cell_angle_beta   90.00000000
_cell_angle_gamma   90.00000000
_symmetry_Int_Tables_number   1
_chemical_formula_structural   Ho(TmSe2)2
_chemical_formula_sum   'Ho1 Tm2 Se4'
_cell_volume   183.85814185
_cell_formula_units_Z   1
loop_
 _symmetry_equiv_pos_site_id
 _symmetry_equiv_pos_as_xyz
  1  'x, y, z'
loop_
 _atom_site_type_symbol
 _atom_site_label
 _atom_site_symmetry_multiplicity
 _atom_site_fract_x
 _atom_site_fract_y
 _atom_site_fract_z
 _atom_site_occupancy
  Ho  Ho0  1  0.000000  0.500000  0.500000  1
  Tm  Tm1  1  0.000000  0.000000  0.000000  1
  Tm  Tm2  1  0.500000  0.500000  0.000000  1
  Se  Se3  1  0.500000  0.755895  0.252657  1
  Se  Se4  1  0.000000  0.254423  0.244037  1
  Se  Se5  1  0.500000  0.244105  0.747343  1
  Se  Se6  1  0.000000  0.745577  0.755963  1
