# generated using pymatgen
data_DyU(FeB)8
_symmetry_space_group_name_H-M   'P 1'
_cell_length_a   5.02870900
_cell_length_b   5.02870900
_cell_length_c   6.89837700
_cell_angle_alpha   90.00000000
_cell_angle_beta   90.00000000
_cell_angle_gamma   90.00000000
_symmetry_Int_Tables_number   1
_chemical_formula_structural   DyU(FeB)8
_chemical_formula_sum   'Dy1 U1 Fe8 B8'
_cell_volume   174.44556574
_cell_formula_units_Z   1
loop_
 _symmetry_equiv_pos_site_id
 _symmetry_equiv_pos_as_xyz
  1  'x, y, z'
loop_
 _atom_site_type_symbol
 _atom_site_label
 _atom_site_symmetry_multiplicity
 _atom_site_fract_x
 _atom_site_fract_y
 _atom_site_fract_z
 _atom_site_occupancy
  Dy  Dy0  1  0.000000  0.000000  0.000000  1
  U  U1  1  0.500000  0.500000  0.500000  1
  Fe  Fe2  1  0.500000  0.738946  0.137876  1
  Fe  Fe3  1  0.755094  0.000000  0.630205  1
  Fe  Fe4  1  0.244906  0.000000  0.630205  1
  Fe  Fe5  1  0.000000  0.755094  0.369795  1
  Fe  Fe6  1  0.000000  0.244906  0.369795  1
  Fe  Fe7  1  0.500000  0.261054  0.137876  1
  Fe  Fe8  1  0.738946  0.500000  0.862124  1
  Fe  Fe9  1  0.261054  0.500000  0.862124  1
  B  B10  1  0.500000  0.826457  0.842814  1
  B  B11  1  0.674308  0.000000  0.340411  1
  B  B12  1  0.325692  0.000000  0.340411  1
  B  B13  1  0.000000  0.674308  0.659589  1
  B  B14  1  0.000000  0.325692  0.659589  1
  B  B15  1  0.500000  0.173543  0.842814  1
  B  B16  1  0.826457  0.500000  0.157186  1
  B  B17  1  0.173543  0.500000  0.157186  1
