# generated using pymatgen
data_Al5Ga3Pt16
_symmetry_space_group_name_H-M   'P 1'
_cell_length_a   16.59969989
_cell_length_b   3.95923300
_cell_length_c   5.52737063
_cell_angle_alpha   90.00000000
_cell_angle_beta   89.88828104
_cell_angle_gamma   90.00000000
_symmetry_Int_Tables_number   1
_chemical_formula_structural   Al5Ga3Pt16
_chemical_formula_sum   'Al5 Ga3 Pt16'
_cell_volume   363.26960169
_cell_formula_units_Z   1
loop_
 _symmetry_equiv_pos_site_id
 _symmetry_equiv_pos_as_xyz
  1  'x, y, z'
loop_
 _atom_site_type_symbol
 _atom_site_label
 _atom_site_symmetry_multiplicity
 _atom_site_fract_x
 _atom_site_fract_y
 _atom_site_fract_z
 _atom_site_occupancy
  Al  Al0  1  0.092182  0.000000  0.309562  1
  Al  Al1  1  0.408659  0.000000  0.308237  1
  Al  Al2  1  0.591341  0.000000  0.691763  1
  Al  Al3  1  0.907817  0.000000  0.690438  1
  Al  Al4  1  0.500000  0.499999  0.000000  1
  Ga  Ga5  1  0.250297  0.000000  0.792040  1
  Ga  Ga6  1  0.749703  0.000000  0.207961  1
  Ga  Ga7  1  0.000000  0.499999  0.000000  1
  Pt  Pt8  1  0.250408  0.000000  0.266986  1
  Pt  Pt9  1  0.749592  0.000000  0.733015  1
  Pt  Pt10  1  0.167205  0.499999  0.552606  1
  Pt  Pt11  1  0.333002  0.499999  0.552814  1
  Pt  Pt12  1  0.666997  0.499999  0.447185  1
  Pt  Pt13  1  0.832796  0.499999  0.447393  1
  Pt  Pt14  1  0.155625  0.499999  0.051712  1
  Pt  Pt15  1  0.345732  0.499999  0.051665  1
  Pt  Pt16  1  0.654269  0.499999  0.948334  1
  Pt  Pt17  1  0.844376  0.499999  0.948287  1
  Pt  Pt18  1  0.000000  0.499999  0.499999  1
  Pt  Pt19  1  0.500000  0.499999  0.499999  1
  Pt  Pt20  1  0.069122  0.000000  0.791241  1
  Pt  Pt21  1  0.432267  0.000000  0.794447  1
  Pt  Pt22  1  0.567732  0.000000  0.205553  1
  Pt  Pt23  1  0.930878  0.000000  0.208759  1
