# generated using pymatgen
data_Dy8Zr3Si16Mo9
_symmetry_space_group_name_H-M   'P 1'
_cell_length_a   7.00057030
_cell_length_b   7.00056993
_cell_length_c   12.94997444
_cell_angle_alpha   89.91266979
_cell_angle_beta   90.08732871
_cell_angle_gamma   89.89316329
_symmetry_Int_Tables_number   1
_chemical_formula_structural   Dy8Zr3Si16Mo9
_chemical_formula_sum   'Dy8 Zr3 Si16 Mo9'
_cell_volume   634.64953278
_cell_formula_units_Z   1
loop_
 _symmetry_equiv_pos_site_id
 _symmetry_equiv_pos_as_xyz
  1  'x, y, z'
loop_
 _atom_site_type_symbol
 _atom_site_label
 _atom_site_symmetry_multiplicity
 _atom_site_fract_x
 _atom_site_fract_y
 _atom_site_fract_z
 _atom_site_occupancy
  Dy  Dy0  1  0.997376  0.661193  0.031767  1
  Dy  Dy1  1  0.000204  0.340708  0.531106  1
  Dy  Dy2  1  0.661193  0.997376  0.968233  1
  Dy  Dy3  1  0.161206  0.504205  0.779444  1
  Dy  Dy4  1  0.837284  0.500287  0.283453  1
  Dy  Dy5  1  0.504205  0.161206  0.220556  1
  Dy  Dy6  1  0.500287  0.837284  0.716547  1
  Dy  Dy7  1  0.340708  0.000204  0.468894  1
  Zr  Zr8  1  0.830237  0.168702  0.747432  1
  Zr  Zr9  1  0.168702  0.830237  0.252568  1
  Zr  Zr10  1  0.332146  0.332146  0.000000  1
  Si  Si11  1  0.032342  0.711924  0.441913  1
  Si  Si12  1  0.956255  0.290381  0.937963  1
  Si  Si13  1  0.711924  0.032342  0.558087  1
  Si  Si14  1  0.208756  0.457823  0.189280  1
  Si  Si15  1  0.787728  0.547443  0.682775  1
  Si  Si16  1  0.457823  0.208756  0.810720  1
  Si  Si17  1  0.547443  0.787728  0.317225  1
  Si  Si18  1  0.290381  0.956255  0.062037  1
  Si  Si19  1  0.793404  0.871756  0.182597  1
  Si  Si20  1  0.303898  0.625025  0.565410  1
  Si  Si21  1  0.705741  0.372828  0.068444  1
  Si  Si22  1  0.625025  0.303898  0.434590  1
  Si  Si23  1  0.372828  0.705741  0.931556  1
  Si  Si24  1  0.126419  0.207475  0.317917  1
  Si  Si25  1  0.207475  0.126419  0.682083  1
  Si  Si26  1  0.871756  0.793404  0.817403  1
  Mo  Mo27  1  0.333512  0.503725  0.377597  1
  Mo  Mo28  1  0.843158  0.998272  0.373705  1
  Mo  Mo29  1  0.005391  0.159623  0.126871  1
  Mo  Mo30  1  0.998272  0.843158  0.626295  1
  Mo  Mo31  1  0.503725  0.333512  0.622403  1
  Mo  Mo32  1  0.159623  0.005391  0.873129  1
  Mo  Mo33  1  0.667502  0.667502  0.500000  1
  Mo  Mo34  1  0.495535  0.660539  0.124884  1
  Mo  Mo35  1  0.660539  0.495535  0.875116  1
