# generated using pymatgen
data_Er8TmHfIr6
_symmetry_space_group_name_H-M   'P 1'
_cell_length_a   10.78634800
_cell_length_b   10.78634800
_cell_length_c   6.27400900
_cell_angle_alpha   90.00000000
_cell_angle_beta   90.00000000
_cell_angle_gamma   90.00000000
_symmetry_Int_Tables_number   1
_chemical_formula_structural   Er8TmHfIr6
_chemical_formula_sum   'Er16 Tm2 Hf2 Ir12'
_cell_volume   729.95147924
_cell_formula_units_Z   2
loop_
 _symmetry_equiv_pos_site_id
 _symmetry_equiv_pos_as_xyz
  1  'x, y, z'
loop_
 _atom_site_type_symbol
 _atom_site_label
 _atom_site_symmetry_multiplicity
 _atom_site_fract_x
 _atom_site_fract_y
 _atom_site_fract_z
 _atom_site_occupancy
  Er  Er0  1  0.289259  0.086279  0.374980  1
  Er  Er1  1  0.289259  0.913721  0.874980  1
  Er  Er2  1  0.710741  0.086279  0.874980  1
  Er  Er3  1  0.710741  0.913721  0.374980  1
  Er  Er4  1  0.587460  0.792294  0.875170  1
  Er  Er5  1  0.587460  0.207706  0.375170  1
  Er  Er6  1  0.412540  0.792294  0.375170  1
  Er  Er7  1  0.412540  0.207706  0.875170  1
  Er  Er8  1  0.207706  0.412540  0.624830  1
  Er  Er9  1  0.207706  0.587460  0.124830  1
  Er  Er10  1  0.792294  0.412540  0.124830  1
  Er  Er11  1  0.792294  0.587460  0.624830  1
  Er  Er12  1  0.913721  0.710741  0.125020  1
  Er  Er13  1  0.913721  0.289259  0.625020  1
  Er  Er14  1  0.086279  0.710741  0.625020  1
  Er  Er15  1  0.086279  0.289259  0.125020  1
  Tm  Tm16  1  0.500000  0.500000  0.000000  1
  Tm  Tm17  1  0.500000  0.500000  0.500000  1
  Hf  Hf18  1  0.000000  0.000000  0.500000  1
  Hf  Hf19  1  0.000000  0.000000  0.000000  1
  Ir  Ir20  1  0.856683  0.143317  0.250000  1
  Ir  Ir21  1  0.856683  0.856683  0.750000  1
  Ir  Ir22  1  0.143317  0.143317  0.750000  1
  Ir  Ir23  1  0.143317  0.856683  0.250000  1
  Ir  Ir24  1  0.654106  0.345894  0.750000  1
  Ir  Ir25  1  0.654106  0.654106  0.250000  1
  Ir  Ir26  1  0.345894  0.345894  0.250000  1
  Ir  Ir27  1  0.345894  0.654106  0.750000  1
  Ir  Ir28  1  0.500000  0.000000  0.122358  1
  Ir  Ir29  1  0.500000  0.000000  0.622358  1
  Ir  Ir30  1  0.000000  0.500000  0.877642  1
  Ir  Ir31  1  0.000000  0.500000  0.377642  1
