# generated using pymatgen
data_RbGa11O17
_symmetry_space_group_name_H-M   'P 1'
_cell_length_a   12.47875954
_cell_length_b   12.47875989
_cell_length_c   12.47875970
_cell_angle_alpha   27.45316409
_cell_angle_beta   27.45316163
_cell_angle_gamma   27.45315816
_symmetry_Int_Tables_number   1
_chemical_formula_structural   RbGa11O17
_chemical_formula_sum   'Rb1 Ga11 O17'
_cell_volume   364.51286440
_cell_formula_units_Z   1
loop_
 _symmetry_equiv_pos_site_id
 _symmetry_equiv_pos_as_xyz
  1  'x, y, z'
loop_
 _atom_site_type_symbol
 _atom_site_label
 _atom_site_symmetry_multiplicity
 _atom_site_fract_x
 _atom_site_fract_y
 _atom_site_fract_z
 _atom_site_occupancy
  Rb  Rb0  1  0.170366  0.170366  0.170366  1
  Ga  Ga1  1  0.902162  0.407987  0.902162  1
  Ga  Ga2  1  0.000219  0.000219  0.000219  1
  Ga  Ga3  1  0.902162  0.902162  0.407987  1
  Ga  Ga4  1  0.407987  0.902162  0.902162  1
  Ga  Ga5  1  0.550072  0.550072  0.550072  1
  Ga  Ga6  1  0.650473  0.650473  0.650473  1
  Ga  Ga7  1  0.449816  0.449816  0.449816  1
  Ga  Ga8  1  0.349803  0.349803  0.349803  1
  Ga  Ga9  1  0.595164  0.096811  0.096811  1
  Ga  Ga10  1  0.096811  0.096811  0.595164  1
  Ga  Ga11  1  0.096811  0.595164  0.096811  1
  O  O12  1  0.703691  0.703691  0.703691  1
  O  O13  1  0.905993  0.905993  0.905993  1
  O  O14  1  0.719101  0.190244  0.190244  1
  O  O15  1  0.809485  0.281278  0.809485  1
  O  O16  1  0.910765  0.399306  0.399306  1
  O  O17  1  0.599620  0.090689  0.599620  1
  O  O18  1  0.399306  0.399306  0.910765  1
  O  O19  1  0.809485  0.809485  0.281278  1
  O  O20  1  0.190244  0.190244  0.719101  1
  O  O21  1  0.500032  0.500032  0.500032  1
  O  O22  1  0.599620  0.599620  0.090689  1
  O  O23  1  0.090689  0.599620  0.599620  1
  O  O24  1  0.399306  0.910765  0.399306  1
  O  O25  1  0.190244  0.719101  0.190244  1
  O  O26  1  0.281278  0.809485  0.809485  1
  O  O27  1  0.296250  0.296250  0.296250  1
  O  O28  1  0.093725  0.093725  0.093725  1
