# generated using pymatgen
data_KSc(RhSe2)4
_symmetry_space_group_name_H-M   'P 1'
_cell_length_a   9.64019123
_cell_length_b   9.64019189
_cell_length_c   8.90709301
_cell_angle_alpha   75.28378489
_cell_angle_beta   75.28378363
_cell_angle_gamma   22.53331054
_symmetry_Int_Tables_number   1
_chemical_formula_structural   KSc(RhSe2)4
_chemical_formula_sum   'K1 Sc1 Rh4 Se8'
_cell_volume   306.39041866
_cell_formula_units_Z   1
loop_
 _symmetry_equiv_pos_site_id
 _symmetry_equiv_pos_as_xyz
  1  'x, y, z'
loop_
 _atom_site_type_symbol
 _atom_site_label
 _atom_site_symmetry_multiplicity
 _atom_site_fract_x
 _atom_site_fract_y
 _atom_site_fract_z
 _atom_site_occupancy
  K  K0  1  0.487123  0.487123  0.503549  1
  Sc  Sc1  1  0.643746  0.643746  0.026545  1
  Rh  Rh2  1  0.008543  0.008543  0.995765  1
  Rh  Rh3  1  0.342500  0.342500  0.976236  1
  Rh  Rh4  1  0.303480  0.303480  0.325865  1
  Rh  Rh5  1  0.706730  0.706730  0.678658  1
  Se  Se6  1  0.431384  0.431384  0.134557  1
  Se  Se7  1  0.916182  0.916182  0.836053  1
  Se  Se8  1  0.828602  0.828602  0.486940  1
  Se  Se9  1  0.765308  0.765308  0.155748  1
  Se  Se10  1  0.238266  0.238266  0.841470  1
  Se  Se11  1  0.180828  0.180828  0.512697  1
  Se  Se12  1  0.078292  0.078292  0.212863  1
  Se  Se13  1  0.569016  0.569016  0.813054  1
