# generated using pymatgen
data_Ac3Pr(Br3N)2
_symmetry_space_group_name_H-M   'P 1'
_cell_length_a   8.88625686
_cell_length_b   8.90902746
_cell_length_c   8.90902648
_cell_angle_alpha   137.06249584
_cell_angle_beta   130.26336254
_cell_angle_gamma   67.80793263
_symmetry_Int_Tables_number   1
_chemical_formula_structural   Ac3Pr(Br3N)2
_chemical_formula_sum   'Ac3 Pr1 Br6 N2'
_cell_volume   360.39463078
_cell_formula_units_Z   1
loop_
 _symmetry_equiv_pos_site_id
 _symmetry_equiv_pos_as_xyz
  1  'x, y, z'
loop_
 _atom_site_type_symbol
 _atom_site_label
 _atom_site_symmetry_multiplicity
 _atom_site_fract_x
 _atom_site_fract_y
 _atom_site_fract_z
 _atom_site_occupancy
  Ac  Ac0  1  0.074549  0.906732  0.167817  1
  Ac  Ac1  1  0.919471  0.090619  0.828852  1
  Ac  Ac2  1  0.268483  0.592077  0.676406  1
  Pr  Pr3  1  0.758401  0.416673  0.341727  1
  Br  Br4  1  0.383618  0.204200  0.179418  1
  Br  Br5  1  0.614720  0.802325  0.812393  1
  Br  Br6  1  0.499410  0.246303  0.756086  1
  Br  Br7  1  0.499410  0.743324  0.253108  1
  Br  Br8  1  0.008560  0.695988  0.312573  1
  Br  Br9  1  0.971981  0.301503  0.670476  1
  N  N10  1  0.000699  0.746973  0.747418  1
  N  N11  1  0.000699  0.253281  0.253725  1
