# generated using pymatgen
data_Sm2Gd4OsO12
_symmetry_space_group_name_H-M   'P 1'
_cell_length_a   6.59834230
_cell_length_b   6.57398826
_cell_length_c   6.60076276
_cell_angle_alpha   98.85965012
_cell_angle_beta   98.54952189
_cell_angle_gamma   98.44518132
_symmetry_Int_Tables_number   1
_chemical_formula_structural   Sm2Gd4OsO12
_chemical_formula_sum   'Sm2 Gd4 Os1 O12'
_cell_volume   275.50930811
_cell_formula_units_Z   1
loop_
 _symmetry_equiv_pos_site_id
 _symmetry_equiv_pos_as_xyz
  1  'x, y, z'
loop_
 _atom_site_type_symbol
 _atom_site_label
 _atom_site_symmetry_multiplicity
 _atom_site_fract_x
 _atom_site_fract_y
 _atom_site_fract_z
 _atom_site_occupancy
  Sm  Sm0  1  0.857433  0.388597  0.689947  1
  Sm  Sm1  1  0.610931  0.309949  0.143073  1
  Gd  Gd2  1  0.311035  0.143151  0.608666  1
  Gd  Gd3  1  0.688022  0.855987  0.391009  1
  Gd  Gd4  1  0.390111  0.688560  0.855982  1
  Gd  Gd5  1  0.144438  0.610780  0.312474  1
  Os  Os6  1  0.000287  0.999533  0.000207  1
  O  O7  1  0.928421  0.033896  0.706973  1
  O  O8  1  0.965941  0.293567  0.070834  1
  O  O9  1  0.590520  0.175143  0.436635  1
  O  O10  1  0.823896  0.565712  0.407625  1
  O  O11  1  0.290418  0.071240  0.965203  1
  O  O12  1  0.561114  0.409128  0.821461  1
  O  O13  1  0.434574  0.594093  0.177121  1
  O  O14  1  0.708660  0.928600  0.034412  1
  O  O15  1  0.179822  0.436289  0.590425  1
  O  O16  1  0.408221  0.822504  0.565632  1
  O  O17  1  0.034613  0.707455  0.929493  1
  O  O18  1  0.071544  0.965814  0.292829  1
