# generated using pymatgen
data_Tm5Pt9
_symmetry_space_group_name_H-M   'P 1'
_cell_length_a   9.69335400
_cell_length_b   9.69335400
_cell_length_c   5.74756000
_cell_angle_alpha   90.00000000
_cell_angle_beta   90.00000000
_cell_angle_gamma   90.00000000
_symmetry_Int_Tables_number   1
_chemical_formula_structural   Tm5Pt9
_chemical_formula_sum   'Tm10 Pt18'
_cell_volume   540.04712756
_cell_formula_units_Z   2
loop_
 _symmetry_equiv_pos_site_id
 _symmetry_equiv_pos_as_xyz
  1  'x, y, z'
loop_
 _atom_site_type_symbol
 _atom_site_label
 _atom_site_symmetry_multiplicity
 _atom_site_fract_x
 _atom_site_fract_y
 _atom_site_fract_z
 _atom_site_occupancy
  Tm  Tm0  1  0.452229  0.809049  0.000000  1
  Tm  Tm1  1  0.547771  0.190951  0.000000  1
  Tm  Tm2  1  0.190951  0.547771  0.000000  1
  Tm  Tm3  1  0.809049  0.452229  0.000000  1
  Tm  Tm4  1  0.500000  0.500000  0.500000  1
  Tm  Tm5  1  0.309049  0.047771  0.500000  1
  Tm  Tm6  1  0.690951  0.952229  0.500000  1
  Tm  Tm7  1  0.952229  0.690951  0.500000  1
  Tm  Tm8  1  0.047771  0.309049  0.500000  1
  Tm  Tm9  1  0.000000  0.000000  0.000000  1
  Pt  Pt10  1  0.191573  0.808427  0.250537  1
  Pt  Pt11  1  0.808427  0.191573  0.749463  1
  Pt  Pt12  1  0.808427  0.191573  0.250537  1
  Pt  Pt13  1  0.191573  0.808427  0.749463  1
  Pt  Pt14  1  0.441415  0.782750  0.500000  1
  Pt  Pt15  1  0.558585  0.217250  0.500000  1
  Pt  Pt16  1  0.217250  0.558585  0.500000  1
  Pt  Pt17  1  0.782750  0.441415  0.500000  1
  Pt  Pt18  1  0.308427  0.308427  0.249463  1
  Pt  Pt19  1  0.691573  0.691573  0.750537  1
  Pt  Pt20  1  0.691573  0.691573  0.249463  1
  Pt  Pt21  1  0.308427  0.308427  0.750537  1
  Pt  Pt22  1  0.282750  0.058585  0.000000  1
  Pt  Pt23  1  0.717250  0.941415  0.000000  1
  Pt  Pt24  1  0.941415  0.717250  0.000000  1
  Pt  Pt25  1  0.058585  0.282750  0.000000  1
  Pt  Pt26  1  0.000000  0.000000  0.500000  1
  Pt  Pt27  1  0.500000  0.500000  0.000000  1
