# generated using pymatgen
data_Ho16Cd4TcPd2Pt
_symmetry_space_group_name_H-M   'P 1'
_cell_length_a   9.69468900
_cell_length_b   9.68040887
_cell_length_c   9.68040856
_cell_angle_alpha   59.22121539
_cell_angle_beta   59.24010217
_cell_angle_gamma   59.24010080
_symmetry_Int_Tables_number   1
_chemical_formula_structural   Ho16Cd4TcPd2Pt
_chemical_formula_sum   'Ho16 Cd4 Tc1 Pd2 Pt1'
_cell_volume   631.18910254
_cell_formula_units_Z   1
loop_
 _symmetry_equiv_pos_site_id
 _symmetry_equiv_pos_as_xyz
  1  'x, y, z'
loop_
 _atom_site_type_symbol
 _atom_site_label
 _atom_site_symmetry_multiplicity
 _atom_site_fract_x
 _atom_site_fract_y
 _atom_site_fract_z
 _atom_site_occupancy
  Ho  Ho0  1  0.603595  0.601841  0.601841  1
  Ho  Ho1  1  0.602323  0.600206  0.196565  1
  Ho  Ho2  1  0.602323  0.196565  0.600206  1
  Ho  Ho3  1  0.194740  0.601297  0.601297  1
  Ho  Ho4  1  0.065199  0.438010  0.438010  1
  Ho  Ho5  1  0.439029  0.060019  0.060019  1
  Ho  Ho6  1  0.438128  0.066597  0.437579  1
  Ho  Ho7  1  0.058782  0.438742  0.061073  1
  Ho  Ho8  1  0.438128  0.437579  0.066597  1
  Ho  Ho9  1  0.058782  0.061073  0.438742  1
  Ho  Ho10  1  0.184392  0.816114  0.816114  1
  Ho  Ho11  1  0.806643  0.187528  0.187528  1
  Ho  Ho12  1  0.816202  0.184651  0.815019  1
  Ho  Ho13  1  0.187358  0.806830  0.187155  1
  Ho  Ho14  1  0.816202  0.815019  0.184651  1
  Ho  Ho15  1  0.187358  0.187155  0.806830  1
  Cd  Cd16  1  0.829975  0.829884  0.829884  1
  Cd  Cd17  1  0.831241  0.831123  0.503879  1
  Cd  Cd18  1  0.831241  0.503879  0.831123  1
  Cd  Cd19  1  0.503983  0.831137  0.831137  1
  Tc  Tc20  1  0.394880  0.394831  0.394831  1
  Pd  Pd21  1  0.394052  0.394746  0.820604  1
  Pd  Pd22  1  0.394052  0.820604  0.394746  1
  Pt  Pt23  1  0.821387  0.394564  0.394564  1
