# generated using pymatgen
data_Li3Pr2YAgSn4
_symmetry_space_group_name_H-M   'P 1'
_cell_length_a   8.83874440
_cell_length_b   8.84785459
_cell_length_c   8.84785369
_cell_angle_alpha   149.09869281
_cell_angle_beta   132.55802470
_cell_angle_gamma   57.70738932
_symmetry_Int_Tables_number   1
_chemical_formula_structural   Li3Pr2YAgSn4
_chemical_formula_sum   'Li3 Pr2 Y1 Ag1 Sn4'
_cell_volume   259.79945875
_cell_formula_units_Z   1
loop_
 _symmetry_equiv_pos_site_id
 _symmetry_equiv_pos_as_xyz
  1  'x, y, z'
loop_
 _atom_site_type_symbol
 _atom_site_label
 _atom_site_symmetry_multiplicity
 _atom_site_fract_x
 _atom_site_fract_y
 _atom_site_fract_z
 _atom_site_occupancy
  Li  Li0  1  0.481288  0.672057  0.809232  1
  Li  Li1  1  0.859721  0.671337  0.188382  1
  Li  Li2  1  0.140937  0.330499  0.810437  1
  Pr  Pr3  1  0.870638  0.869414  0.001224  1
  Pr  Pr4  1  0.133998  0.130606  0.003393  1
  Y  Y5  1  0.498525  0.998405  0.500120  1
  Ag  Ag6  1  0.518805  0.327809  0.190994  1
  Sn  Sn7  1  0.277849  0.787820  0.490029  1
  Sn  Sn8  1  0.713066  0.209212  0.503855  1
  Sn  Sn9  1  0.800924  0.502146  0.298779  1
  Sn  Sn10  1  0.204249  0.500696  0.703553  1
