# generated using pymatgen
data_KF37
_symmetry_space_group_name_H-M   'P 1'
_cell_length_a   6.03732974
_cell_length_b   11.34987376
_cell_length_c   10.75176858
_cell_angle_alpha   83.04351281
_cell_angle_beta   96.70625512
_cell_angle_gamma   75.14331855
_symmetry_Int_Tables_number   1
_chemical_formula_structural   KF37
_chemical_formula_sum   'K1 F37'
_cell_volume   698.42998770
_cell_formula_units_Z   1
loop_
 _symmetry_equiv_pos_site_id
 _symmetry_equiv_pos_as_xyz
  1  'x, y, z'
loop_
 _atom_site_type_symbol
 _atom_site_label
 _atom_site_symmetry_multiplicity
 _atom_site_fract_x
 _atom_site_fract_y
 _atom_site_fract_z
 _atom_site_occupancy
  K  K0  1  0.170487  0.154888  0.240326  1
  F  F1  1  0.716562  0.854475  0.732524  1
  F  F2  1  0.262401  0.379755  0.902725  1
  F  F3  1  0.698389  0.629459  0.077836  1
  F  F4  1  0.368492  0.234532  0.566166  1
  F  F5  1  0.717047  0.718332  0.413638  1
  F  F6  1  0.805979  0.201239  0.803032  1
  F  F7  1  0.178934  0.795485  0.194083  1
  F  F8  1  0.704990  0.878452  0.021362  1
  F  F9  1  0.310424  0.121284  0.973121  1
  F  F10  1  0.766811  0.577420  0.838976  1
  F  F11  1  0.208734  0.415736  0.163244  1
  F  F12  1  0.425047  0.438178  0.855405  1
  F  F13  1  0.598225  0.565728  0.168488  1
  F  F14  1  0.751927  0.583775  0.704794  1
  F  F15  1  0.292718  0.412316  0.294193  1
  F  F16  1  0.746721  0.060312  0.465271  1
  F  F17  1  0.280939  0.973562  0.478191  1
  F  F18  1  0.278111  0.208841  0.679944  1
  F  F19  1  0.689318  0.841850  0.347745  1
  F  F20  1  0.848342  0.066834  0.597791  1
  F  F21  1  0.188982  0.913562  0.382846  1
  F  F22  1  0.802917  0.975645  0.981025  1
  F  F23  1  0.203192  0.023819  0.997226  1
  F  F24  1  0.885552  0.309167  0.802440  1
  F  F25  1  0.092850  0.689755  0.207266  1
  F  F26  1  0.166000  0.707507  0.929539  1
  F  F27  1  0.782169  0.271867  0.086716  1
  F  F28  1  0.483038  0.922617  0.733337  1
  F  F29  1  0.612488  0.052555  0.279714  1
  F  F30  1  0.112682  0.759373  0.596837  1
  F  F31  1  0.873767  0.275888  0.437201  1
  F  F32  1  0.197787  0.635971  0.662617  1
  F  F33  1  0.834363  0.384059  0.344806  1
  F  F34  1  0.287580  0.786704  0.872011  1
  F  F35  1  0.702161  0.168216  0.177829  1
  F  F36  1  0.455770  0.448844  0.520542  1
  F  F37  1  0.498105  0.561997  0.469191  1
