# generated using pymatgen
data_Tb4TiAl3Ir3Rh
_symmetry_space_group_name_H-M   'P 1'
_cell_length_a   4.27519000
_cell_length_b   6.93647923
_cell_length_c   7.96750196
_cell_angle_alpha   89.89264459
_cell_angle_beta   90.00000000
_cell_angle_gamma   90.00000000
_symmetry_Int_Tables_number   1
_chemical_formula_structural   Tb4TiAl3Ir3Rh
_chemical_formula_sum   'Tb4 Ti1 Al3 Ir3 Rh1'
_cell_volume   236.27399665
_cell_formula_units_Z   1
loop_
 _symmetry_equiv_pos_site_id
 _symmetry_equiv_pos_as_xyz
  1  'x, y, z'
loop_
 _atom_site_type_symbol
 _atom_site_label
 _atom_site_symmetry_multiplicity
 _atom_site_fract_x
 _atom_site_fract_y
 _atom_site_fract_z
 _atom_site_occupancy
  Tb  Tb0  1  0.250000  0.534943  0.174048  1
  Tb  Tb1  1  0.750000  0.463862  0.823246  1
  Tb  Tb2  1  0.250000  0.028646  0.315744  1
  Tb  Tb3  1  0.750000  0.962187  0.683624  1
  Ti  Ti4  1  0.750000  0.375733  0.435012  1
  Al  Al5  1  0.250000  0.138514  0.937882  1
  Al  Al6  1  0.750000  0.862309  0.064606  1
  Al  Al7  1  0.250000  0.638551  0.561012  1
  Ir  Ir8  1  0.750000  0.728995  0.382218  1
  Ir  Ir9  1  0.250000  0.266043  0.613211  1
  Ir  Ir10  1  0.750000  0.232466  0.125516  1
  Rh  Rh11  1  0.250000  0.767751  0.883879  1
