# generated using pymatgen
data_Nd15ErIn2(AgRh2)2
_symmetry_space_group_name_H-M   'P 1'
_cell_length_a   9.89243934
_cell_length_b   9.91072880
_cell_length_c   9.88003794
_cell_angle_alpha   59.83679754
_cell_angle_beta   59.71193407
_cell_angle_gamma   59.81502974
_symmetry_Int_Tables_number   1
_chemical_formula_structural   Nd15ErIn2(AgRh2)2
_chemical_formula_sum   'Nd15 Er1 In2 Ag2 Rh4'
_cell_volume   681.64044289
_cell_formula_units_Z   1
loop_
 _symmetry_equiv_pos_site_id
 _symmetry_equiv_pos_as_xyz
  1  'x, y, z'
loop_
 _atom_site_type_symbol
 _atom_site_label
 _atom_site_symmetry_multiplicity
 _atom_site_fract_x
 _atom_site_fract_y
 _atom_site_fract_z
 _atom_site_occupancy
  Nd  Nd0  1  0.189615  0.189961  0.812747  1
  Nd  Nd1  1  0.436701  0.059005  0.062207  1
  Nd  Nd2  1  0.438473  0.058969  0.436798  1
  Nd  Nd3  1  0.064435  0.438122  0.057395  1
  Nd  Nd4  1  0.650247  0.050566  0.648718  1
  Nd  Nd5  1  0.190598  0.810032  0.812965  1
  Nd  Nd6  1  0.066211  0.056036  0.437321  1
  Nd  Nd7  1  0.809199  0.192011  0.193931  1
  Nd  Nd8  1  0.812020  0.808160  0.191029  1
  Nd  Nd9  1  0.647323  0.650458  0.052376  1
  Nd  Nd10  1  0.650536  0.650747  0.650260  1
  Nd  Nd11  1  0.063265  0.438461  0.436369  1
  Nd  Nd12  1  0.053480  0.650365  0.645121  1
  Nd  Nd13  1  0.809129  0.192413  0.808009  1
  Nd  Nd14  1  0.437639  0.438404  0.059090  1
  Er  Er15  1  0.190151  0.808859  0.191787  1
  In  In16  1  0.738970  0.422113  0.421782  1
  In  In17  1  0.417048  0.423439  0.421736  1
  Ag  Ag18  1  0.417451  0.746602  0.416280  1
  Ag  Ag19  1  0.418215  0.417237  0.746458  1
  Rh  Rh20  1  0.856131  0.426890  0.856370  1
  Rh  Rh21  1  0.861584  0.856461  0.422819  1
  Rh  Rh22  1  0.423151  0.856369  0.861384  1
  Rh  Rh23  1  0.858429  0.858321  0.857048  1
