# generated using pymatgen
data_NdSmPPt8
_symmetry_space_group_name_H-M   'P 1'
_cell_length_a   9.16431804
_cell_length_b   9.16437882
_cell_length_c   4.31026200
_cell_angle_alpha   90.00000000
_cell_angle_beta   90.00000000
_cell_angle_gamma   145.53306063
_symmetry_Int_Tables_number   1
_chemical_formula_structural   NdSmPPt8
_chemical_formula_sum   'Nd1 Sm1 P1 Pt8'
_cell_volume   204.86607095
_cell_formula_units_Z   1
loop_
 _symmetry_equiv_pos_site_id
 _symmetry_equiv_pos_as_xyz
  1  'x, y, z'
loop_
 _atom_site_type_symbol
 _atom_site_label
 _atom_site_symmetry_multiplicity
 _atom_site_fract_x
 _atom_site_fract_y
 _atom_site_fract_z
 _atom_site_occupancy
  Nd  Nd0  1  0.619420  0.373006  0.500000  1
  Sm  Sm1  1  0.372040  0.620506  0.500000  1
  P  P2  1  0.224929  0.224732  0.000000  1
  Pt  Pt3  1  0.109944  0.889959  0.000000  1
  Pt  Pt4  1  0.891304  0.110785  0.000000  1
  Pt  Pt5  1  0.489301  0.982866  0.000000  1
  Pt  Pt6  1  0.984463  0.488886  0.000000  1
  Pt  Pt7  1  0.195122  0.791874  0.500000  1
  Pt  Pt8  1  0.792426  0.193903  0.500000  1
  Pt  Pt9  1  0.002757  0.003287  0.500000  1
  Pt  Pt10  1  0.631892  0.633795  0.000000  1
