# generated using pymatgen
data_Dy5As6P6Ru5Rh14
_symmetry_space_group_name_H-M   'P 1'
_cell_length_a   12.89836900
_cell_length_b   12.90433013
_cell_length_c   3.96909700
_cell_angle_alpha   90.00000000
_cell_angle_beta   90.00000000
_cell_angle_gamma   120.15048278
_symmetry_Int_Tables_number   1
_chemical_formula_structural   Dy5As6P6Ru5Rh14
_chemical_formula_sum   'Dy5 As6 P6 Ru5 Rh14'
_cell_volume   571.25768930
_cell_formula_units_Z   1
loop_
 _symmetry_equiv_pos_site_id
 _symmetry_equiv_pos_as_xyz
  1  'x, y, z'
loop_
 _atom_site_type_symbol
 _atom_site_label
 _atom_site_symmetry_multiplicity
 _atom_site_fract_x
 _atom_site_fract_y
 _atom_site_fract_z
 _atom_site_occupancy
  Dy  Dy0  1  0.661811  0.326696  0.000000  1
  Dy  Dy1  1  0.335937  0.664415  0.000000  1
  Dy  Dy2  1  0.819065  0.999891  0.500000  1
  Dy  Dy3  1  0.180448  0.182272  0.500000  1
  Dy  Dy4  1  0.999422  0.818417  0.500000  1
  As  As5  1  0.637049  0.998136  0.000000  1
  As  As6  1  0.363539  0.363630  0.000000  1
  As  As7  1  0.000411  0.635155  0.000000  1
  As  As8  1  0.682615  0.517703  0.500000  1
  As  As9  1  0.832085  0.312736  0.500000  1
  As  As10  1  0.319506  0.835792  0.500000  1
  P  P11  1  0.521455  0.690594  0.500000  1
  P  P12  1  0.179400  0.000367  0.000000  1
  P  P13  1  0.819505  0.820521  0.000000  1
  P  P14  1  0.998246  0.181310  0.000000  1
  P  P15  1  0.475176  0.164058  0.500000  1
  P  P16  1  0.167733  0.479020  0.500000  1
  Ru  Ru17  1  0.518916  0.870724  0.500000  1
  Ru  Ru18  1  0.718121  0.722169  0.500000  1
  Ru  Ru19  1  0.004983  0.282147  0.500000  1
  Ru  Ru20  1  0.821775  0.193460  0.000000  1
  Ru  Ru21  1  0.278161  0.002640  0.500000  1
  Rh  Rh22  1  0.623690  0.799151  0.000000  1
  Rh  Rh23  1  0.179818  0.378058  0.000000  1
  Rh  Rh24  1  0.375188  0.175815  0.000000  1
  Rh  Rh25  1  0.191795  0.822888  0.000000  1
  Rh  Rh26  1  0.806746  0.631396  0.000000  1
  Rh  Rh27  1  0.872047  0.515388  0.500000  1
  Rh  Rh28  1  0.483352  0.350221  0.500000  1
  Rh  Rh29  1  0.631699  0.128261  0.500000  1
  Rh  Rh30  1  0.134854  0.637781  0.500000  1
  Rh  Rh31  1  0.360220  0.497249  0.500000  1
  Rh  Rh32  1  0.000042  0.001177  0.000000  1
  Rh  Rh33  1  0.448309  0.000019  0.000000  1
  Rh  Rh34  1  0.552004  0.553045  0.000000  1
  Rh  Rh35  1  0.004882  0.447698  0.000000  1
