# generated using pymatgen
data_TbCeEr6AlPd24
_symmetry_space_group_name_H-M   'P 1'
_cell_length_a   8.33939382
_cell_length_b   8.33939362
_cell_length_c   8.33939400
_cell_angle_alpha   89.96117413
_cell_angle_beta   90.03882520
_cell_angle_gamma   90.03881574
_symmetry_Int_Tables_number   1
_chemical_formula_structural   TbCeEr6AlPd24
_chemical_formula_sum   'Tb1 Ce1 Er6 Al1 Pd24'
_cell_volume   579.96682307
_cell_formula_units_Z   1
loop_
 _symmetry_equiv_pos_site_id
 _symmetry_equiv_pos_as_xyz
  1  'x, y, z'
loop_
 _atom_site_type_symbol
 _atom_site_label
 _atom_site_symmetry_multiplicity
 _atom_site_fract_x
 _atom_site_fract_y
 _atom_site_fract_z
 _atom_site_occupancy
  Tb  Tb0  1  0.252077  0.747923  0.747923  1
  Ce  Ce1  1  0.745868  0.254132  0.254132  1
  Er  Er2  1  0.251411  0.251805  0.251805  1
  Er  Er3  1  0.748023  0.747896  0.747896  1
  Er  Er4  1  0.748195  0.748589  0.251805  1
  Er  Er5  1  0.748195  0.251805  0.748589  1
  Er  Er6  1  0.252104  0.251977  0.747896  1
  Er  Er7  1  0.252104  0.747896  0.251977  1
  Al  Al8  1  0.000385  0.999615  0.999615  1
  Pd  Pd9  1  0.259840  0.499681  0.000096  1
  Pd  Pd10  1  0.740251  0.499655  0.000495  1
  Pd  Pd11  1  0.999505  0.259749  0.499655  1
  Pd  Pd12  1  0.500345  0.259749  0.000495  1
  Pd  Pd13  1  0.999904  0.740160  0.499681  1
  Pd  Pd14  1  0.500319  0.740160  0.000096  1
  Pd  Pd15  1  0.500345  0.000495  0.259749  1
  Pd  Pd16  1  0.259840  0.000096  0.499681  1
  Pd  Pd17  1  0.500319  0.000096  0.740160  1
  Pd  Pd18  1  0.740251  0.000495  0.499655  1
  Pd  Pd19  1  0.999505  0.499655  0.259749  1
  Pd  Pd20  1  0.999904  0.499681  0.740160  1
  Pd  Pd21  1  0.253051  0.499686  0.499686  1
  Pd  Pd22  1  0.746836  0.499846  0.499846  1
  Pd  Pd23  1  0.500154  0.253164  0.499846  1
  Pd  Pd24  1  0.500314  0.746949  0.499686  1
  Pd  Pd25  1  0.500154  0.499846  0.253164  1
  Pd  Pd26  1  0.500314  0.499686  0.746949  1
  Pd  Pd27  1  0.288951  0.000178  0.000178  1
  Pd  Pd28  1  0.711009  0.999558  0.999558  1
  Pd  Pd29  1  0.000442  0.288991  0.999558  1
  Pd  Pd30  1  0.999822  0.711049  0.000178  1
  Pd  Pd31  1  0.000442  0.999558  0.288991  1
  Pd  Pd32  1  0.999822  0.000178  0.711049  1
