# generated using pymatgen
data_Dy3Fe8NiP6
_symmetry_space_group_name_H-M   'P 1'
_cell_length_a   3.72575300
_cell_length_b   10.47438500
_cell_length_c   12.28261400
_cell_angle_alpha   90.00000000
_cell_angle_beta   90.00000000
_cell_angle_gamma   90.00000000
_symmetry_Int_Tables_number   1
_chemical_formula_structural   Dy3Fe8NiP6
_chemical_formula_sum   'Dy6 Fe16 Ni2 P12'
_cell_volume   479.32865929
_cell_formula_units_Z   2
loop_
 _symmetry_equiv_pos_site_id
 _symmetry_equiv_pos_as_xyz
  1  'x, y, z'
loop_
 _atom_site_type_symbol
 _atom_site_label
 _atom_site_symmetry_multiplicity
 _atom_site_fract_x
 _atom_site_fract_y
 _atom_site_fract_z
 _atom_site_occupancy
  Dy  Dy0  1  0.750000  0.250000  0.477447  1
  Dy  Dy1  1  0.250000  0.750000  0.522553  1
  Dy  Dy2  1  0.250000  0.932900  0.793747  1
  Dy  Dy3  1  0.250000  0.567100  0.793747  1
  Dy  Dy4  1  0.750000  0.067100  0.206253  1
  Dy  Dy5  1  0.750000  0.432900  0.206253  1
  Fe  Fe6  1  0.250000  0.250000  0.846863  1
  Fe  Fe7  1  0.750000  0.750000  0.153137  1
  Fe  Fe8  1  0.750000  0.250000  0.011011  1
  Fe  Fe9  1  0.250000  0.750000  0.988989  1
  Fe  Fe10  1  0.250000  0.422485  0.003338  1
  Fe  Fe11  1  0.250000  0.077515  0.003338  1
  Fe  Fe12  1  0.750000  0.577515  0.996662  1
  Fe  Fe13  1  0.750000  0.922485  0.996662  1
  Fe  Fe14  1  0.250000  0.450473  0.570046  1
  Fe  Fe15  1  0.250000  0.049527  0.570046  1
  Fe  Fe16  1  0.750000  0.549527  0.429954  1
  Fe  Fe17  1  0.750000  0.950473  0.429954  1
  Fe  Fe18  1  0.250000  0.867553  0.289835  1
  Fe  Fe19  1  0.250000  0.632447  0.289835  1
  Fe  Fe20  1  0.750000  0.132447  0.710165  1
  Fe  Fe21  1  0.750000  0.367553  0.710165  1
  Ni  Ni22  1  0.250000  0.250000  0.298742  1
  Ni  Ni23  1  0.750000  0.750000  0.701258  1
  P  P24  1  0.250000  0.250000  0.113790  1
  P  P25  1  0.750000  0.750000  0.886210  1
  P  P26  1  0.250000  0.250000  0.658368  1
  P  P27  1  0.750000  0.750000  0.341632  1
  P  P28  1  0.250000  0.445657  0.386805  1
  P  P29  1  0.250000  0.054343  0.386805  1
  P  P30  1  0.750000  0.554343  0.613195  1
  P  P31  1  0.750000  0.945657  0.613195  1
  P  P32  1  0.250000  0.898713  0.111169  1
  P  P33  1  0.250000  0.601287  0.111169  1
  P  P34  1  0.750000  0.101287  0.888831  1
  P  P35  1  0.750000  0.398713  0.888831  1
