# generated using pymatgen
data_HoTh3(HgPd2)2
_symmetry_space_group_name_H-M   'P 1'
_cell_length_a   7.88782923
_cell_length_b   7.88782881
_cell_length_c   3.80125500
_cell_angle_alpha   90.00000000
_cell_angle_beta   90.00000000
_cell_angle_gamma   90.54990307
_symmetry_Int_Tables_number   1
_chemical_formula_structural   HoTh3(HgPd2)2
_chemical_formula_sum   'Ho1 Th3 Hg2 Pd4'
_cell_volume   236.49500783
_cell_formula_units_Z   1
loop_
 _symmetry_equiv_pos_site_id
 _symmetry_equiv_pos_as_xyz
  1  'x, y, z'
loop_
 _atom_site_type_symbol
 _atom_site_label
 _atom_site_symmetry_multiplicity
 _atom_site_fract_x
 _atom_site_fract_y
 _atom_site_fract_z
 _atom_site_occupancy
  Ho  Ho0  1  0.825306  0.674694  0.500000  1
  Th  Th1  1  0.676768  0.172150  0.500000  1
  Th  Th2  1  0.327850  0.823232  0.500000  1
  Th  Th3  1  0.171246  0.328754  0.500000  1
  Hg  Hg4  1  0.997824  0.994696  0.000000  1
  Hg  Hg5  1  0.505304  0.502176  0.000000  1
  Pd  Pd6  1  0.127353  0.627377  0.000000  1
  Pd  Pd7  1  0.872623  0.372647  0.000000  1
  Pd  Pd8  1  0.624808  0.875192  0.000000  1
  Pd  Pd9  1  0.370918  0.129082  0.000000  1
