# generated using pymatgen
data_Nd16Cd2TcNi3Hg2
_symmetry_space_group_name_H-M   'P 1'
_cell_length_a   9.94354610
_cell_length_b   9.94354614
_cell_length_c   9.95851272
_cell_angle_alpha   59.43876218
_cell_angle_beta   59.43875956
_cell_angle_gamma   59.51419023
_symmetry_Int_Tables_number   1
_chemical_formula_structural   Nd16Cd2TcNi3Hg2
_chemical_formula_sum   'Nd16 Cd2 Tc1 Ni3 Hg2'
_cell_volume   687.75350217
_cell_formula_units_Z   1
loop_
 _symmetry_equiv_pos_site_id
 _symmetry_equiv_pos_as_xyz
  1  'x, y, z'
loop_
 _atom_site_type_symbol
 _atom_site_label
 _atom_site_symmetry_multiplicity
 _atom_site_fract_x
 _atom_site_fract_y
 _atom_site_fract_z
 _atom_site_occupancy
  Nd  Nd0  1  0.598564  0.598564  0.598524  1
  Nd  Nd1  1  0.599163  0.599163  0.207913  1
  Nd  Nd2  1  0.599939  0.205788  0.599563  1
  Nd  Nd3  1  0.205788  0.599939  0.599563  1
  Nd  Nd4  1  0.060700  0.437515  0.438759  1
  Nd  Nd5  1  0.437989  0.057753  0.058032  1
  Nd  Nd6  1  0.437515  0.060700  0.438759  1
  Nd  Nd7  1  0.057753  0.437989  0.058032  1
  Nd  Nd8  1  0.437550  0.437550  0.061199  1
  Nd  Nd9  1  0.056172  0.056172  0.440229  1
  Nd  Nd10  1  0.186322  0.814246  0.815159  1
  Nd  Nd11  1  0.802505  0.190260  0.190494  1
  Nd  Nd12  1  0.814246  0.186322  0.815159  1
  Nd  Nd13  1  0.190260  0.802505  0.190494  1
  Nd  Nd14  1  0.814072  0.814072  0.187883  1
  Nd  Nd15  1  0.190037  0.190037  0.803085  1
  Cd  Cd16  1  0.828447  0.510595  0.829095  1
  Cd  Cd17  1  0.510595  0.828447  0.829095  1
  Tc  Tc18  1  0.391594  0.391594  0.392073  1
  Ni  Ni19  1  0.394141  0.394141  0.825911  1
  Ni  Ni20  1  0.394162  0.825996  0.394345  1
  Ni  Ni21  1  0.825996  0.394162  0.394345  1
  Hg  Hg22  1  0.833433  0.833433  0.836012  1
  Hg  Hg23  1  0.833055  0.833055  0.496274  1
