# generated using pymatgen
data_Dy2Lu6Cd2IrRu
_symmetry_space_group_name_H-M   'P 1'
_cell_length_a   9.48729475
_cell_length_b   9.47966994
_cell_length_c   9.51357608
_cell_angle_alpha   59.93471144
_cell_angle_beta   59.85525258
_cell_angle_gamma   59.74290851
_symmetry_Int_Tables_number   1
_chemical_formula_structural   Dy2Lu6Cd2IrRu
_chemical_formula_sum   'Dy4 Lu12 Cd4 Ir2 Ru2'
_cell_volume   602.87118860
_cell_formula_units_Z   2
loop_
 _symmetry_equiv_pos_site_id
 _symmetry_equiv_pos_as_xyz
  1  'x, y, z'
loop_
 _atom_site_type_symbol
 _atom_site_label
 _atom_site_symmetry_multiplicity
 _atom_site_fract_x
 _atom_site_fract_y
 _atom_site_fract_z
 _atom_site_occupancy
  Dy  Dy0  1  0.809415  0.188810  0.812708  1
  Dy  Dy1  1  0.188810  0.809415  0.189066  1
  Dy  Dy2  1  0.810892  0.810892  0.189108  1
  Dy  Dy3  1  0.189478  0.189478  0.810522  1
  Lu  Lu4  1  0.597586  0.598045  0.598378  1
  Lu  Lu5  1  0.598045  0.597586  0.205991  1
  Lu  Lu6  1  0.597471  0.208560  0.596608  1
  Lu  Lu7  1  0.208560  0.597471  0.597362  1
  Lu  Lu8  1  0.062608  0.437696  0.438819  1
  Lu  Lu9  1  0.437696  0.062608  0.060877  1
  Lu  Lu10  1  0.438075  0.062447  0.439147  1
  Lu  Lu11  1  0.062447  0.438075  0.060332  1
  Lu  Lu12  1  0.437856  0.437856  0.062144  1
  Lu  Lu13  1  0.060079  0.060079  0.439921  1
  Lu  Lu14  1  0.189670  0.808779  0.811295  1
  Lu  Lu15  1  0.808779  0.189670  0.190255  1
  Cd  Cd16  1  0.830754  0.830256  0.830392  1
  Cd  Cd17  1  0.830256  0.830754  0.508598  1
  Cd  Cd18  1  0.830178  0.508088  0.831080  1
  Cd  Cd19  1  0.508088  0.830178  0.830655  1
  Ir  Ir20  1  0.392760  0.826761  0.390763  1
  Ir  Ir21  1  0.826761  0.392760  0.389716  1
  Ru  Ru22  1  0.392253  0.391484  0.388552  1
  Ru  Ru23  1  0.391484  0.392253  0.827712  1
