# generated using pymatgen
data_Cs8Lu2S7
_symmetry_space_group_name_H-M   'P 1'
_cell_length_a   8.95755473
_cell_length_b   22.21129800
_cell_length_c   8.74907200
_cell_angle_alpha   90.00000000
_cell_angle_beta   120.86556035
_cell_angle_gamma   90.00000000
_symmetry_Int_Tables_number   1
_chemical_formula_structural   Cs8Lu2S7
_chemical_formula_sum   'Cs16 Lu4 S14'
_cell_volume   1494.17569304
_cell_formula_units_Z   2
loop_
 _symmetry_equiv_pos_site_id
 _symmetry_equiv_pos_as_xyz
  1  'x, y, z'
loop_
 _atom_site_type_symbol
 _atom_site_label
 _atom_site_symmetry_multiplicity
 _atom_site_fract_x
 _atom_site_fract_y
 _atom_site_fract_z
 _atom_site_occupancy
  Cs  Cs0  1  0.636267  0.420151  0.142467  1
  Cs  Cs1  1  0.766645  0.786850  0.213071  1
  Cs  Cs2  1  0.772960  0.995322  0.227486  1
  Cs  Cs3  1  0.783025  0.188250  0.228290  1
  Cs  Cs4  1  0.216978  0.688250  0.271713  1
  Cs  Cs5  1  0.227041  0.495324  0.272530  1
  Cs  Cs6  1  0.233350  0.286849  0.286937  1
  Cs  Cs7  1  0.363734  0.920148  0.357542  1
  Cs  Cs8  1  0.636272  0.079851  0.642470  1
  Cs  Cs9  1  0.766634  0.713145  0.713060  1
  Cs  Cs10  1  0.772963  0.504674  0.727479  1
  Cs  Cs11  1  0.783023  0.311748  0.728292  1
  Cs  Cs12  1  0.216977  0.811747  0.771713  1
  Cs  Cs13  1  0.227039  0.004674  0.772527  1
  Cs  Cs14  1  0.233356  0.213145  0.786943  1
  Cs  Cs15  1  0.363740  0.579849  0.857536  1
  Lu  Lu16  1  0.147922  0.099610  0.146082  1
  Lu  Lu17  1  0.852040  0.599679  0.353816  1
  Lu  Lu18  1  0.147936  0.400375  0.646100  1
  Lu  Lu19  1  0.852069  0.900382  0.853917  1
  S  S20  1  0.999999  0.999997  0.999996  1
  S  S21  1  0.052260  0.818464  0.058651  1
  S  S22  1  0.826408  0.607035  0.051276  1
  S  S23  1  0.440640  0.100192  0.166221  1
  S  S24  1  0.559355  0.600194  0.333790  1
  S  S25  1  0.173590  0.107033  0.448721  1
  S  S26  1  0.947752  0.318469  0.441361  1
  S  S27  1  0.000000  0.499999  0.500000  1
  S  S28  1  0.052251  0.681530  0.558647  1
  S  S29  1  0.826407  0.892961  0.551273  1
  S  S30  1  0.440660  0.399806  0.666222  1
  S  S31  1  0.559362  0.899803  0.833789  1
  S  S32  1  0.173598  0.392963  0.948726  1
  S  S33  1  0.947744  0.181529  0.941358  1
