# generated using pymatgen
data_Cs12ScAl(FeSe6)2
_symmetry_space_group_name_H-M   'P 1'
_cell_length_a   11.10559007
_cell_length_b   11.10559039
_cell_length_c   14.24343205
_cell_angle_alpha   89.94961999
_cell_angle_beta   89.94962293
_cell_angle_gamma   139.22870155
_symmetry_Int_Tables_number   1
_chemical_formula_structural   Cs12ScAl(FeSe6)2
_chemical_formula_sum   'Cs12 Sc1 Al1 Fe2 Se12'
_cell_volume   1147.19491381
_cell_formula_units_Z   1
loop_
 _symmetry_equiv_pos_site_id
 _symmetry_equiv_pos_as_xyz
  1  'x, y, z'
loop_
 _atom_site_type_symbol
 _atom_site_label
 _atom_site_symmetry_multiplicity
 _atom_site_fract_x
 _atom_site_fract_y
 _atom_site_fract_z
 _atom_site_occupancy
  Cs  Cs0  1  0.866123  0.865890  0.678590  1
  Cs  Cs1  1  0.134110  0.133877  0.321410  1
  Cs  Cs2  1  0.633608  0.631212  0.180917  1
  Cs  Cs3  1  0.368788  0.366392  0.819083  1
  Cs  Cs4  1  0.175660  0.533719  0.131805  1
  Cs  Cs5  1  0.466281  0.824340  0.868195  1
  Cs  Cs6  1  0.979403  0.335672  0.624233  1
  Cs  Cs7  1  0.664328  0.020597  0.375767  1
  Cs  Cs8  1  0.832835  0.480035  0.873509  1
  Cs  Cs9  1  0.519965  0.167165  0.126491  1
  Cs  Cs10  1  0.016266  0.661366  0.375834  1
  Cs  Cs11  1  0.338634  0.983734  0.624166  1
  Sc  Sc12  1  0.920556  0.079444  0.000000  1
  Al  Al13  1  0.421114  0.578886  0.500000  1
  Fe  Fe14  1  0.081114  0.918886  0.000000  1
  Fe  Fe15  1  0.578181  0.421819  0.500000  1
  Se  Se16  1  0.291007  0.292674  0.565669  1
  Se  Se17  1  0.707326  0.708993  0.434331  1
  Se  Se18  1  0.219842  0.208677  0.067421  1
  Se  Se19  1  0.791323  0.780158  0.932579  1
  Se  Se20  1  0.703103  0.000770  0.123814  1
  Se  Se21  1  0.999230  0.296897  0.876186  1
  Se  Se22  1  0.492336  0.780428  0.617831  1
  Se  Se23  1  0.219572  0.507664  0.382169  1
  Se  Se24  1  0.279941  0.988992  0.881580  1
  Se  Se25  1  0.011008  0.720059  0.118420  1
  Se  Se26  1  0.509541  0.221195  0.383239  1
  Se  Se27  1  0.778805  0.490459  0.616761  1
