# generated using pymatgen
data_TbDyHo4(SbO7)2
_symmetry_space_group_name_H-M   'P 1'
_cell_length_a   6.45649428
_cell_length_b   6.45649587
_cell_length_c   7.51129001
_cell_angle_alpha   90.00548742
_cell_angle_beta   89.99451126
_cell_angle_gamma   109.37236135
_symmetry_Int_Tables_number   1
_chemical_formula_structural   TbDyHo4(SbO7)2
_chemical_formula_sum   'Tb1 Dy1 Ho4 Sb2 O14'
_cell_volume   295.39022496
_cell_formula_units_Z   1
loop_
 _symmetry_equiv_pos_site_id
 _symmetry_equiv_pos_as_xyz
  1  'x, y, z'
loop_
 _atom_site_type_symbol
 _atom_site_label
 _atom_site_symmetry_multiplicity
 _atom_site_fract_x
 _atom_site_fract_y
 _atom_site_fract_z
 _atom_site_occupancy
  Tb  Tb0  1  0.500000  0.500000  0.000000  1
  Dy  Dy1  1  0.500000  0.500000  0.500000  1
  Ho  Ho2  1  0.531692  0.000591  0.749763  1
  Ho  Ho3  1  0.000591  0.531692  0.250237  1
  Ho  Ho4  1  0.468308  0.999409  0.250237  1
  Ho  Ho5  1  0.999409  0.468308  0.749763  1
  Sb  Sb6  1  0.000000  0.000000  0.500000  1
  Sb  Sb7  1  0.000000  0.000000  0.000000  1
  O  O8  1  0.676812  0.927345  0.469891  1
  O  O9  1  0.927345  0.676812  0.530109  1
  O  O10  1  0.676788  0.927684  0.030140  1
  O  O11  1  0.927684  0.676788  0.969860  1
  O  O12  1  0.323188  0.072655  0.530109  1
  O  O13  1  0.072655  0.323188  0.469891  1
  O  O14  1  0.323212  0.072316  0.969860  1
  O  O15  1  0.072316  0.323212  0.030140  1
  O  O16  1  0.929021  0.070979  0.750034  1
  O  O17  1  0.070979  0.929021  0.249966  1
  O  O18  1  0.368495  0.631505  0.749041  1
  O  O19  1  0.631505  0.368495  0.250959  1
  O  O20  1  0.638108  0.361892  0.749209  1
  O  O21  1  0.361892  0.638108  0.250791  1
