# generated using pymatgen
data_Tb6Y14Cd6TcRu
_symmetry_space_group_name_H-M   'P 1'
_cell_length_a   9.62911022
_cell_length_b   9.62910996
_cell_length_c   9.94150824
_cell_angle_alpha   90.04939403
_cell_angle_beta   89.95060603
_cell_angle_gamma   119.90480412
_symmetry_Int_Tables_number   1
_chemical_formula_structural   Tb6Y14Cd6TcRu
_chemical_formula_sum   'Tb6 Y14 Cd6 Tc1 Ru1'
_cell_volume   799.04419005
_cell_formula_units_Z   1
loop_
 _symmetry_equiv_pos_site_id
 _symmetry_equiv_pos_as_xyz
  1  'x, y, z'
loop_
 _atom_site_type_symbol
 _atom_site_label
 _atom_site_symmetry_multiplicity
 _atom_site_fract_x
 _atom_site_fract_y
 _atom_site_fract_z
 _atom_site_occupancy
  Tb  Tb0  1  0.999954  0.000046  0.500067  1
  Tb  Tb1  1  0.999984  0.000016  0.999924  1
  Tb  Tb2  1  0.209905  0.790095  0.440878  1
  Tb  Tb3  1  0.209939  0.419900  0.440805  1
  Tb  Tb4  1  0.580100  0.790061  0.440805  1
  Tb  Tb5  1  0.789675  0.210325  0.559756  1
  Y  Y6  1  0.790022  0.580003  0.559196  1
  Y  Y7  1  0.419997  0.209978  0.559196  1
  Y  Y8  1  0.790012  0.209988  0.940855  1
  Y  Y9  1  0.789944  0.579984  0.940779  1
  Y  Y10  1  0.420016  0.210056  0.940779  1
  Y  Y11  1  0.209761  0.790239  0.058588  1
  Y  Y12  1  0.209705  0.419428  0.058670  1
  Y  Y13  1  0.580572  0.790295  0.058670  1
  Y  Y14  1  0.540207  0.459793  0.249952  1
  Y  Y15  1  0.540115  0.080320  0.249986  1
  Y  Y16  1  0.919680  0.459885  0.249986  1
  Y  Y17  1  0.458690  0.541310  0.750024  1
  Y  Y18  1  0.458641  0.917396  0.749965  1
  Y  Y19  1  0.082604  0.541359  0.749965  1
  Cd  Cd20  1  0.885398  0.114602  0.249769  1
  Cd  Cd21  1  0.885282  0.770651  0.249908  1
  Cd  Cd22  1  0.229349  0.114718  0.249908  1
  Cd  Cd23  1  0.114463  0.885537  0.750138  1
  Cd  Cd24  1  0.114603  0.228966  0.750191  1
  Cd  Cd25  1  0.771034  0.885397  0.750191  1
  Tc  Tc26  1  0.333254  0.666746  0.251703  1
  Ru  Ru27  1  0.667094  0.332906  0.749345  1
