# generated using pymatgen
data_Ca10Cd3Ag
_symmetry_space_group_name_H-M   'P 1'
_cell_length_a   10.34670800
_cell_length_b   10.34670889
_cell_length_c   10.28366500
_cell_angle_alpha   90.00000000
_cell_angle_beta   90.00000000
_cell_angle_gamma   119.99999716
_symmetry_Int_Tables_number   1
_chemical_formula_structural   Ca10Cd3Ag
_chemical_formula_sum   'Ca20 Cd6 Ag2'
_cell_volume   953.41721143
_cell_formula_units_Z   2
loop_
 _symmetry_equiv_pos_site_id
 _symmetry_equiv_pos_as_xyz
  1  'x, y, z'
loop_
 _atom_site_type_symbol
 _atom_site_label
 _atom_site_symmetry_multiplicity
 _atom_site_fract_x
 _atom_site_fract_y
 _atom_site_fract_z
 _atom_site_occupancy
  Ca  Ca0  1  0.202327  0.797673  0.941620  1
  Ca  Ca1  1  0.202327  0.404654  0.941620  1
  Ca  Ca2  1  0.595346  0.797673  0.941620  1
  Ca  Ca3  1  0.797673  0.202327  0.058380  1
  Ca  Ca4  1  0.797673  0.595346  0.058380  1
  Ca  Ca5  1  0.404654  0.202327  0.058380  1
  Ca  Ca6  1  0.797673  0.202327  0.441620  1
  Ca  Ca7  1  0.797673  0.595346  0.441620  1
  Ca  Ca8  1  0.404654  0.202327  0.441620  1
  Ca  Ca9  1  0.202327  0.797673  0.558380  1
  Ca  Ca10  1  0.202327  0.404654  0.558380  1
  Ca  Ca11  1  0.595346  0.797673  0.558380  1
  Ca  Ca12  1  0.540806  0.459194  0.750000  1
  Ca  Ca13  1  0.540806  0.081612  0.750000  1
  Ca  Ca14  1  0.918388  0.459194  0.750000  1
  Ca  Ca15  1  0.459194  0.540806  0.250000  1
  Ca  Ca16  1  0.459194  0.918388  0.250000  1
  Ca  Ca17  1  0.081612  0.540806  0.250000  1
  Ca  Ca18  1  0.000000  0.000000  0.000000  1
  Ca  Ca19  1  0.000000  0.000000  0.500000  1
  Cd  Cd20  1  0.881755  0.118245  0.750000  1
  Cd  Cd21  1  0.881755  0.763509  0.750000  1
  Cd  Cd22  1  0.236491  0.118245  0.750000  1
  Cd  Cd23  1  0.118245  0.881755  0.250000  1
  Cd  Cd24  1  0.118245  0.236491  0.250000  1
  Cd  Cd25  1  0.763509  0.881755  0.250000  1
  Ag  Ag26  1  0.333333  0.666667  0.750000  1
  Ag  Ag27  1  0.666667  0.333333  0.250000  1
