# generated using pymatgen
data_Nd3CBrCl4
_symmetry_space_group_name_H-M   'P 1'
_cell_length_a   7.46566858
_cell_length_b   8.83846219
_cell_length_c   8.92408630
_cell_angle_alpha   108.12122450
_cell_angle_beta   97.29391556
_cell_angle_gamma   105.91732880
_symmetry_Int_Tables_number   1
_chemical_formula_structural   Nd3CBrCl4
_chemical_formula_sum   'Nd6 C2 Br2 Cl8'
_cell_volume   523.47629564
_cell_formula_units_Z   2
loop_
 _symmetry_equiv_pos_site_id
 _symmetry_equiv_pos_as_xyz
  1  'x, y, z'
loop_
 _atom_site_type_symbol
 _atom_site_label
 _atom_site_symmetry_multiplicity
 _atom_site_fract_x
 _atom_site_fract_y
 _atom_site_fract_z
 _atom_site_occupancy
  Nd  Nd0  1  0.879760  0.949819  0.233512  1
  Nd  Nd1  1  0.120240  0.050181  0.766488  1
  Nd  Nd2  1  0.032785  0.713420  0.914193  1
  Nd  Nd3  1  0.967215  0.286580  0.085807  1
  Nd  Nd4  1  0.603414  0.843853  0.787848  1
  Nd  Nd5  1  0.396586  0.156147  0.212152  1
  C  C6  1  0.906258  0.964426  0.950787  1
  C  C7  1  0.093742  0.035574  0.049213  1
  Br  Br8  1  0.642879  0.515105  0.712604  1
  Br  Br9  1  0.357121  0.484895  0.287396  1
  Cl  Cl10  1  0.759190  0.919881  0.539023  1
  Cl  Cl11  1  0.240810  0.080119  0.460977  1
  Cl  Cl12  1  0.458687  0.826572  0.078438  1
  Cl  Cl13  1  0.541313  0.173428  0.921562  1
  Cl  Cl14  1  0.816789  0.259908  0.352403  1
  Cl  Cl15  1  0.183211  0.740092  0.647597  1
  Cl  Cl16  1  0.911494  0.627318  0.170599  1
  Cl  Cl17  1  0.088506  0.372682  0.829401  1
