# generated using pymatgen
data_Hf6Ti3NbGa5Si
_symmetry_space_group_name_H-M   'P 1'
_cell_length_a   7.87470707
_cell_length_b   7.86435999
_cell_length_c   5.43211595
_cell_angle_alpha   90.05600454
_cell_angle_beta   90.00478873
_cell_angle_gamma   120.05864040
_symmetry_Int_Tables_number   1
_chemical_formula_structural   Hf6Ti3NbGa5Si
_chemical_formula_sum   'Hf6 Ti3 Nb1 Ga5 Si1'
_cell_volume   291.16570812
_cell_formula_units_Z   1
loop_
 _symmetry_equiv_pos_site_id
 _symmetry_equiv_pos_as_xyz
  1  'x, y, z'
loop_
 _atom_site_type_symbol
 _atom_site_label
 _atom_site_symmetry_multiplicity
 _atom_site_fract_x
 _atom_site_fract_y
 _atom_site_fract_z
 _atom_site_occupancy
  Hf  Hf0  1  0.248290  0.998273  0.248587  1
  Hf  Hf1  1  0.751880  0.998572  0.751511  1
  Hf  Hf2  1  0.998704  0.242226  0.247914  1
  Hf  Hf3  1  0.000188  0.758087  0.752012  1
  Hf  Hf4  1  0.755125  0.759614  0.248325  1
  Hf  Hf5  1  0.240211  0.243852  0.751969  1
  Ti  Ti6  1  0.666458  0.329663  0.002258  1
  Ti  Ti7  1  0.666055  0.329225  0.497615  1
  Ti  Ti8  1  0.336620  0.670430  0.498473  1
  Nb  Nb9  1  0.336620  0.670697  0.002441  1
  Ga  Ga10  1  0.398098  0.003490  0.747178  1
  Ga  Ga11  1  0.996386  0.600592  0.252950  1
  Ga  Ga12  1  0.998563  0.399557  0.747302  1
  Ga  Ga13  1  0.399099  0.396472  0.252752  1
  Ga  Ga14  1  0.602155  0.597470  0.747313  1
  Si  Si15  1  0.605548  0.001777  0.251401  1
