# generated using pymatgen
data_CaDyTi3O8
_symmetry_space_group_name_H-M   'P 1'
_cell_length_a   6.35037757
_cell_length_b   6.35037791
_cell_length_c   5.10538474
_cell_angle_alpha   71.98097193
_cell_angle_beta   71.98097430
_cell_angle_gamma   57.52517668
_symmetry_Int_Tables_number   1
_chemical_formula_structural   CaDyTi3O8
_chemical_formula_sum   'Ca1 Dy1 Ti3 O8'
_cell_volume   162.51827229
_cell_formula_units_Z   1
loop_
 _symmetry_equiv_pos_site_id
 _symmetry_equiv_pos_as_xyz
  1  'x, y, z'
loop_
 _atom_site_type_symbol
 _atom_site_label
 _atom_site_symmetry_multiplicity
 _atom_site_fract_x
 _atom_site_fract_y
 _atom_site_fract_z
 _atom_site_occupancy
  Ca  Ca0  1  0.274674  0.274674  0.667269  1
  Dy  Dy1  1  0.727446  0.727446  0.336505  1
  Ti  Ti2  1  0.001078  0.001078  0.495388  1
  Ti  Ti3  1  0.734334  0.265798  0.000839  1
  Ti  Ti4  1  0.265798  0.734334  0.000839  1
  O  O5  1  0.395655  0.395655  0.950782  1
  O  O6  1  0.608815  0.608815  0.057000  1
  O  O7  1  0.897958  0.897958  0.912252  1
  O  O8  1  0.099951  0.099951  0.092780  1
  O  O9  1  0.334500  0.883412  0.596331  1
  O  O10  1  0.883412  0.334500  0.596331  1
  O  O11  1  0.103678  0.672701  0.396842  1
  O  O12  1  0.672701  0.103678  0.396842  1
