# generated using pymatgen
data_SrNp3(GePt)4
_symmetry_space_group_name_H-M   'P 1'
_cell_length_a   4.47745300
_cell_length_b   7.36678316
_cell_length_c   7.57630619
_cell_angle_alpha   90.02486720
_cell_angle_beta   90.00000000
_cell_angle_gamma   90.00000000
_symmetry_Int_Tables_number   1
_chemical_formula_structural   SrNp3(GePt)4
_chemical_formula_sum   'Sr1 Np3 Ge4 Pt4'
_cell_volume   249.90008258
_cell_formula_units_Z   1
loop_
 _symmetry_equiv_pos_site_id
 _symmetry_equiv_pos_as_xyz
  1  'x, y, z'
loop_
 _atom_site_type_symbol
 _atom_site_label
 _atom_site_symmetry_multiplicity
 _atom_site_fract_x
 _atom_site_fract_y
 _atom_site_fract_z
 _atom_site_occupancy
  Sr  Sr0  1  0.750000  0.508051  0.786737  1
  Np  Np1  1  0.250000  0.986672  0.285172  1
  Np  Np2  1  0.250000  0.481613  0.225988  1
  Np  Np3  1  0.750000  0.006716  0.711170  1
  Ge  Ge4  1  0.250000  0.267207  0.586097  1
  Ge  Ge5  1  0.250000  0.809434  0.915764  1
  Ge  Ge6  1  0.750000  0.691876  0.405492  1
  Ge  Ge7  1  0.750000  0.194338  0.086995  1
  Pt  Pt8  1  0.250000  0.208546  0.922577  1
  Pt  Pt9  1  0.250000  0.748814  0.572382  1
  Pt  Pt10  1  0.750000  0.815005  0.085776  1
  Pt  Pt11  1  0.750000  0.281729  0.415850  1
