# generated using pymatgen
data_SmDy3Co18(P6Ru)2
_symmetry_space_group_name_H-M   'P 1'
_cell_length_a   3.67414900
_cell_length_b   10.36260406
_cell_length_c   11.76078906
_cell_angle_alpha   89.98819523
_cell_angle_beta   90.00000000
_cell_angle_gamma   90.00000000
_symmetry_Int_Tables_number   1
_chemical_formula_structural   SmDy3Co18(P6Ru)2
_chemical_formula_sum   'Sm1 Dy3 Co18 P12 Ru2'
_cell_volume   447.77734866
_cell_formula_units_Z   1
loop_
 _symmetry_equiv_pos_site_id
 _symmetry_equiv_pos_as_xyz
  1  'x, y, z'
loop_
 _atom_site_type_symbol
 _atom_site_label
 _atom_site_symmetry_multiplicity
 _atom_site_fract_x
 _atom_site_fract_y
 _atom_site_fract_z
 _atom_site_occupancy
  Sm  Sm0  1  0.250000  0.582651  0.702304  1
  Dy  Dy1  1  0.250000  0.917786  0.201976  1
  Dy  Dy2  1  0.750000  0.413548  0.295754  1
  Dy  Dy3  1  0.750000  0.086121  0.795683  1
  Co  Co4  1  0.750000  0.283872  0.009074  1
  Co  Co5  1  0.750000  0.215205  0.507734  1
  Co  Co6  1  0.250000  0.404896  0.487109  1
  Co  Co7  1  0.250000  0.094020  0.987755  1
  Co  Co8  1  0.750000  0.590661  0.507797  1
  Co  Co9  1  0.750000  0.909177  0.010447  1
  Co  Co10  1  0.250000  0.220442  0.176490  1
  Co  Co11  1  0.250000  0.278679  0.676341  1
  Co  Co12  1  0.750000  0.779829  0.823761  1
  Co  Co13  1  0.750000  0.722268  0.322744  1
  Co  Co14  1  0.250000  0.887836  0.701498  1
  Co  Co15  1  0.250000  0.613390  0.202178  1
  Co  Co16  1  0.750000  0.116164  0.300648  1
  Co  Co17  1  0.750000  0.382136  0.802049  1
  Co  Co18  1  0.250000  0.463801  0.934008  1
  Co  Co19  1  0.250000  0.035549  0.432076  1
  Co  Co20  1  0.750000  0.532659  0.070304  1
  Co  Co21  1  0.750000  0.968435  0.568455  1
  P  P22  1  0.250000  0.416941  0.113027  1
  P  P23  1  0.250000  0.083086  0.611785  1
  P  P24  1  0.750000  0.578703  0.889235  1
  P  P25  1  0.750000  0.921517  0.386723  1
  P  P26  1  0.250000  0.270663  0.869172  1
  P  P27  1  0.250000  0.228910  0.368632  1
  P  P28  1  0.750000  0.728674  0.132972  1
  P  P29  1  0.750000  0.774123  0.632204  1
  P  P30  1  0.250000  0.594820  0.390565  1
  P  P31  1  0.250000  0.905055  0.890602  1
  P  P32  1  0.750000  0.394659  0.607593  1
  P  P33  1  0.750000  0.103092  0.108359  1
  Ru  Ru34  1  0.250000  0.715268  0.991988  1
  Ru  Ru35  1  0.250000  0.785364  0.490956  1
