# generated using pymatgen
data_HoLu9(In2Co)4
_symmetry_space_group_name_H-M   'P 1'
_cell_length_a   3.49767900
_cell_length_b   7.86311645
_cell_length_c   17.81565501
_cell_angle_alpha   90.03862277
_cell_angle_beta   90.00000000
_cell_angle_gamma   90.00000000
_symmetry_Int_Tables_number   1
_chemical_formula_structural   HoLu9(In2Co)4
_chemical_formula_sum   'Ho1 Lu9 In8 Co4'
_cell_volume   489.97774251
_cell_formula_units_Z   1
loop_
 _symmetry_equiv_pos_site_id
 _symmetry_equiv_pos_as_xyz
  1  'x, y, z'
loop_
 _atom_site_type_symbol
 _atom_site_label
 _atom_site_symmetry_multiplicity
 _atom_site_fract_x
 _atom_site_fract_y
 _atom_site_fract_z
 _atom_site_occupancy
  Ho  Ho0  1  0.000000  0.500000  0.000000  1
  Lu  Lu1  1  0.000000  0.884321  0.090521  1
  Lu  Lu2  1  0.000000  0.753168  0.278377  1
  Lu  Lu3  1  0.000000  0.746851  0.778392  1
  Lu  Lu4  1  0.000000  0.384182  0.409605  1
  Lu  Lu5  1  0.000000  0.115679  0.909479  1
  Lu  Lu6  1  0.000000  0.246832  0.721623  1
  Lu  Lu7  1  0.000000  0.253149  0.221608  1
  Lu  Lu8  1  0.000000  0.615818  0.590395  1
  Lu  Lu9  1  0.000000  0.000000  0.500000  1
  In  In10  1  0.500000  0.204370  0.068400  1
  In  In11  1  0.500000  0.428299  0.847719  1
  In  In12  1  0.500000  0.571701  0.152281  1
  In  In13  1  0.500000  0.071574  0.348081  1
  In  In14  1  0.500000  0.928426  0.651919  1
  In  In15  1  0.500000  0.795630  0.931600  1
  In  In16  1  0.500000  0.705171  0.431902  1
  In  In17  1  0.500000  0.294829  0.568098  1
  Co  Co18  1  0.500000  0.976173  0.196371  1
  Co  Co19  1  0.500000  0.023827  0.803629  1
  Co  Co20  1  0.500000  0.523891  0.696338  1
  Co  Co21  1  0.500000  0.476109  0.303662  1
