# generated using pymatgen
data_HoTa5NbCl18
_symmetry_space_group_name_H-M   'P 1'
_cell_length_a   10.13511255
_cell_length_b   10.13132285
_cell_length_c   10.13297205
_cell_angle_alpha   55.99551246
_cell_angle_beta   56.01476919
_cell_angle_gamma   56.00553789
_symmetry_Int_Tables_number   1
_chemical_formula_structural   HoTa5NbCl18
_chemical_formula_sum   'Ho1 Ta5 Nb1 Cl18'
_cell_volume   667.63973986
_cell_formula_units_Z   1
loop_
 _symmetry_equiv_pos_site_id
 _symmetry_equiv_pos_as_xyz
  1  'x, y, z'
loop_
 _atom_site_type_symbol
 _atom_site_label
 _atom_site_symmetry_multiplicity
 _atom_site_fract_x
 _atom_site_fract_y
 _atom_site_fract_z
 _atom_site_occupancy
  Ho  Ho0  1  0.999783  0.999771  0.000143  1
  Ta  Ta1  1  0.408867  0.301984  0.648674  1
  Ta  Ta2  1  0.350999  0.591765  0.698393  1
  Ta  Ta3  1  0.698657  0.351023  0.591429  1
  Ta  Ta4  1  0.301613  0.649369  0.408246  1
  Ta  Ta5  1  0.649261  0.408638  0.301291  1
  Nb  Nb6  1  0.591832  0.699527  0.350175  1
  Cl  Cl7  1  0.568394  0.160857  0.442083  1
  Cl  Cl8  1  0.223194  0.371181  0.908537  1
  Cl  Cl9  1  0.908378  0.223019  0.371347  1
  Cl  Cl10  1  0.368271  0.909475  0.222919  1
  Cl  Cl11  1  0.777981  0.626883  0.089806  1
  Cl  Cl12  1  0.091534  0.776758  0.628828  1
  Cl  Cl13  1  0.705516  0.958829  0.158686  1
  Cl  Cl14  1  0.955338  0.160609  0.704388  1
  Cl  Cl15  1  0.160935  0.703614  0.955816  1
  Cl  Cl16  1  0.295611  0.045422  0.838598  1
  Cl  Cl17  1  0.044598  0.838244  0.296020  1
  Cl  Cl18  1  0.839060  0.295465  0.044893  1
  Cl  Cl19  1  0.557862  0.431574  0.839070  1
  Cl  Cl20  1  0.161027  0.442106  0.568321  1
  Cl  Cl21  1  0.442071  0.568256  0.161027  1
  Cl  Cl22  1  0.429532  0.839162  0.560827  1
  Cl  Cl23  1  0.840827  0.555168  0.433421  1
  Cl  Cl24  1  0.628859  0.091304  0.777062  1
