# generated using pymatgen
data_EuPuGeRh3
_symmetry_space_group_name_H-M   'P 1'
_cell_length_a   5.24706972
_cell_length_b   5.24707034
_cell_length_c   5.24707000
_cell_angle_alpha   66.02367395
_cell_angle_beta   66.02367094
_cell_angle_gamma   66.02368376
_symmetry_Int_Tables_number   1
_chemical_formula_structural   EuPuGeRh3
_chemical_formula_sum   'Eu1 Pu1 Ge1 Rh3'
_cell_volume   115.46212287
_cell_formula_units_Z   1
loop_
 _symmetry_equiv_pos_site_id
 _symmetry_equiv_pos_as_xyz
  1  'x, y, z'
loop_
 _atom_site_type_symbol
 _atom_site_label
 _atom_site_symmetry_multiplicity
 _atom_site_fract_x
 _atom_site_fract_y
 _atom_site_fract_z
 _atom_site_occupancy
  Eu  Eu0  1  0.375038  0.375038  0.375038  1
  Pu  Pu1  1  0.630890  0.630890  0.630890  1
  Ge  Ge2  1  0.999581  0.999581  0.999581  1
  Rh  Rh3  1  0.996893  0.996893  0.500705  1
  Rh  Rh4  1  0.500705  0.996893  0.996893  1
  Rh  Rh5  1  0.996893  0.500705  0.996893  1
