# generated using pymatgen
data_Tb4Er4Ti11Si16Mo
_symmetry_space_group_name_H-M   'P 1'
_cell_length_a   7.03225765
_cell_length_b   7.03260298
_cell_length_c   12.92438816
_cell_angle_alpha   90.00971869
_cell_angle_beta   90.01739262
_cell_angle_gamma   90.05639390
_symmetry_Int_Tables_number   1
_chemical_formula_structural   Tb4Er4Ti11Si16Mo
_chemical_formula_sum   'Tb4 Er4 Ti11 Si16 Mo1'
_cell_volume   639.17625210
_cell_formula_units_Z   1
loop_
 _symmetry_equiv_pos_site_id
 _symmetry_equiv_pos_as_xyz
  1  'x, y, z'
loop_
 _atom_site_type_symbol
 _atom_site_label
 _atom_site_symmetry_multiplicity
 _atom_site_fract_x
 _atom_site_fract_y
 _atom_site_fract_z
 _atom_site_occupancy
  Tb  Tb0  1  0.340075  0.003443  0.467272  1
  Tb  Tb1  1  0.497009  0.839728  0.717628  1
  Tb  Tb2  1  0.501283  0.159595  0.215217  1
  Tb  Tb3  1  0.840112  0.497131  0.282431  1
  Er  Er4  1  0.158938  0.500161  0.784874  1
  Er  Er5  1  0.657644  0.999312  0.967052  1
  Er  Er6  1  0.002447  0.341037  0.533174  1
  Er  Er7  1  0.999508  0.657649  0.032584  1
  Ti  Ti8  1  0.173796  0.827357  0.249374  1
  Ti  Ti9  1  0.827604  0.174310  0.750668  1
  Ti  Ti10  1  0.673297  0.672683  0.500149  1
  Ti  Ti11  1  0.152983  0.009052  0.876397  1
  Ti  Ti12  1  0.492133  0.651648  0.123825  1
  Ti  Ti13  1  0.507473  0.348859  0.626402  1
  Ti  Ti14  1  0.651408  0.492382  0.875806  1
  Ti  Ti15  1  0.348299  0.507052  0.373938  1
  Ti  Ti16  1  0.848422  0.991992  0.375555  1
  Ti  Ti17  1  0.008979  0.153128  0.123335  1
  Ti  Ti18  1  0.992551  0.848286  0.624758  1
  Si  Si19  1  0.201328  0.132025  0.684568  1
  Si  Si20  1  0.369316  0.701391  0.934090  1
  Si  Si21  1  0.631224  0.297445  0.434956  1
  Si  Si22  1  0.702310  0.370473  0.065008  1
  Si  Si23  1  0.295861  0.628963  0.565919  1
  Si  Si24  1  0.798008  0.869461  0.183243  1
  Si  Si25  1  0.129778  0.202812  0.315473  1
  Si  Si26  1  0.870430  0.796950  0.816751  1
  Si  Si27  1  0.290046  0.952516  0.064090  1
  Si  Si28  1  0.546521  0.790822  0.314519  1
  Si  Si29  1  0.452398  0.209479  0.815759  1
  Si  Si30  1  0.792921  0.545596  0.685403  1
  Si  Si31  1  0.208716  0.453449  0.184167  1
  Si  Si32  1  0.710547  0.048115  0.564993  1
  Si  Si33  1  0.953364  0.290805  0.935306  1
  Si  Si34  1  0.046903  0.708298  0.435492  1
  Mo  Mo35  1  0.326371  0.326594  0.999828  1
