# generated using pymatgen
data_TbYb3TaOs7
_symmetry_space_group_name_H-M   'P 1'
_cell_length_a   5.42235100
_cell_length_b   5.42235013
_cell_length_c   8.57334100
_cell_angle_alpha   90.00000000
_cell_angle_beta   90.00000000
_cell_angle_gamma   119.99999920
_symmetry_Int_Tables_number   1
_chemical_formula_structural   TbYb3TaOs7
_chemical_formula_sum   'Tb1 Yb3 Ta1 Os7'
_cell_volume   218.30109664
_cell_formula_units_Z   1
loop_
 _symmetry_equiv_pos_site_id
 _symmetry_equiv_pos_as_xyz
  1  'x, y, z'
loop_
 _atom_site_type_symbol
 _atom_site_label
 _atom_site_symmetry_multiplicity
 _atom_site_fract_x
 _atom_site_fract_y
 _atom_site_fract_z
 _atom_site_occupancy
  Tb  Tb0  1  0.333333  0.666667  0.425360  1
  Yb  Yb1  1  0.666667  0.333333  0.576173  1
  Yb  Yb2  1  0.666667  0.333333  0.934532  1
  Yb  Yb3  1  0.333333  0.666667  0.059891  1
  Ta  Ta4  1  0.000000  0.000000  0.499997  1
  Os  Os5  1  0.000000  0.000000  0.002070  1
  Os  Os6  1  0.826911  0.173089  0.249344  1
  Os  Os7  1  0.826911  0.653821  0.249344  1
  Os  Os8  1  0.346179  0.173089  0.249344  1
  Os  Os9  1  0.172653  0.827347  0.751316  1
  Os  Os10  1  0.172653  0.345306  0.751316  1
  Os  Os11  1  0.654694  0.827347  0.751316  1
