# generated using pymatgen
data_Sm2Er(LuSi2)2
_symmetry_space_group_name_H-M   'P 1'
_cell_length_a   7.37055214
_cell_length_b   7.68560867
_cell_length_c   14.58124520
_cell_angle_alpha   90.00145365
_cell_angle_beta   90.04650023
_cell_angle_gamma   90.11214128
_symmetry_Int_Tables_number   1
_chemical_formula_structural   Sm2Er(LuSi2)2
_chemical_formula_sum   'Sm8 Er4 Lu8 Si16'
_cell_volume   825.98455960
_cell_formula_units_Z   4
loop_
 _symmetry_equiv_pos_site_id
 _symmetry_equiv_pos_as_xyz
  1  'x, y, z'
loop_
 _atom_site_type_symbol
 _atom_site_label
 _atom_site_symmetry_multiplicity
 _atom_site_fract_x
 _atom_site_fract_y
 _atom_site_fract_z
 _atom_site_occupancy
  Sm  Sm0  1  0.015143  0.177014  0.097335  1
  Sm  Sm1  1  0.985289  0.822970  0.902035  1
  Sm  Sm2  1  0.485310  0.676879  0.901976  1
  Sm  Sm3  1  0.984751  0.822998  0.598420  1
  Sm  Sm4  1  0.514649  0.322934  0.097258  1
  Sm  Sm5  1  0.015204  0.177178  0.402355  1
  Sm  Sm6  1  0.515218  0.322947  0.402298  1
  Sm  Sm7  1  0.485243  0.677042  0.598350  1
  Er  Er8  1  0.328293  0.177956  0.624059  1
  Er  Er9  1  0.671728  0.822038  0.376469  1
  Er  Er10  1  0.171791  0.677573  0.376539  1
  Er  Er11  1  0.671457  0.822147  0.122926  1
  Lu  Lu12  1  0.161026  0.508705  0.750437  1
  Lu  Lu13  1  0.838960  0.490667  0.249758  1
  Lu  Lu14  1  0.338723  0.009181  0.249518  1
  Lu  Lu15  1  0.661289  0.991514  0.750268  1
  Lu  Lu16  1  0.828224  0.322642  0.624387  1
  Lu  Lu17  1  0.328528  0.177569  0.876115  1
  Lu  Lu18  1  0.828406  0.322776  0.876197  1
  Lu  Lu19  1  0.171574  0.677284  0.123275  1
  Si  Si20  1  0.032480  0.113818  0.750743  1
  Si  Si21  1  0.967674  0.887263  0.249410  1
  Si  Si22  1  0.466020  0.611778  0.249256  1
  Si  Si23  1  0.534156  0.387164  0.750607  1
  Si  Si24  1  0.281690  0.874102  0.750534  1
  Si  Si25  1  0.718728  0.126296  0.249875  1
  Si  Si26  1  0.218608  0.374429  0.249462  1
  Si  Si27  1  0.781774  0.625096  0.750126  1
  Si  Si28  1  0.153046  0.466981  0.539766  1
  Si  Si29  1  0.844645  0.531801  0.461749  1
  Si  Si30  1  0.345466  0.967544  0.461130  1
  Si  Si31  1  0.846188  0.532206  0.038630  1
  Si  Si32  1  0.655862  0.033743  0.539436  1
  Si  Si33  1  0.155163  0.466495  0.960822  1
  Si  Si34  1  0.654328  0.034191  0.960177  1
  Si  Si35  1  0.343366  0.967081  0.038303  1
