# generated using pymatgen
data_Lu2Ta2Mn10P7
_symmetry_space_group_name_H-M   'P 1'
_cell_length_a   9.45952758
_cell_length_b   9.46094922
_cell_length_c   3.55777200
_cell_angle_alpha   90.00000000
_cell_angle_beta   90.00000000
_cell_angle_gamma   120.12013302
_symmetry_Int_Tables_number   1
_chemical_formula_structural   Lu2Ta2Mn10P7
_chemical_formula_sum   'Lu2 Ta2 Mn10 P7'
_cell_volume   275.41392813
_cell_formula_units_Z   1
loop_
 _symmetry_equiv_pos_site_id
 _symmetry_equiv_pos_as_xyz
  1  'x, y, z'
loop_
 _atom_site_type_symbol
 _atom_site_label
 _atom_site_symmetry_multiplicity
 _atom_site_fract_x
 _atom_site_fract_y
 _atom_site_fract_z
 _atom_site_occupancy
  Lu  Lu0  1  0.336551  0.667759  0.000000  1
  Lu  Lu1  1  0.666431  0.332197  0.500000  1
  Ta  Ta2  1  0.221940  0.097923  0.500000  1
  Ta  Ta3  1  0.901730  0.122661  0.500000  1
  Mn  Mn4  1  0.426828  0.049638  0.000000  1
  Mn  Mn5  1  0.166518  0.285525  0.000000  1
  Mn  Mn6  1  0.947817  0.379378  0.000000  1
  Mn  Mn7  1  0.627140  0.578513  0.000000  1
  Mn  Mn8  1  0.116823  0.834238  0.000000  1
  Mn  Mn9  1  0.718426  0.875700  0.000000  1
  Mn  Mn10  1  0.393089  0.441103  0.500000  1
  Mn  Mn11  1  0.044477  0.613023  0.500000  1
  Mn  Mn12  1  0.870991  0.773326  0.500000  1
  Mn  Mn13  1  0.563160  0.950250  0.500000  1
  P  P14  1  0.992140  0.988236  0.000000  1
  P  P15  1  0.701370  0.120412  0.000000  1
  P  P16  1  0.423874  0.300106  0.000000  1
  P  P17  1  0.873909  0.584535  0.000000  1
  P  P18  1  0.132173  0.425063  0.500000  1
  P  P19  1  0.585921  0.715807  0.500000  1
  P  P20  1  0.288692  0.864607  0.500000  1
