# generated using pymatgen
data_Er4Sn6Ir2Rh5
_symmetry_space_group_name_H-M   'P 1'
_cell_length_a   7.57839957
_cell_length_b   7.57732098
_cell_length_c   7.57732013
_cell_angle_alpha   109.49244481
_cell_angle_beta   109.45773390
_cell_angle_gamma   109.45772705
_symmetry_Int_Tables_number   1
_chemical_formula_structural   Er4Sn6Ir2Rh5
_chemical_formula_sum   'Er4 Sn6 Ir2 Rh5'
_cell_volume   334.97912024
_cell_formula_units_Z   1
loop_
 _symmetry_equiv_pos_site_id
 _symmetry_equiv_pos_as_xyz
  1  'x, y, z'
loop_
 _atom_site_type_symbol
 _atom_site_label
 _atom_site_symmetry_multiplicity
 _atom_site_fract_x
 _atom_site_fract_y
 _atom_site_fract_z
 _atom_site_occupancy
  Er  Er0  1  0.999116  0.999558  0.499558  1
  Er  Er1  1  0.999116  0.499558  0.999558  1
  Er  Er2  1  0.500802  0.001193  0.001193  1
  Er  Er3  1  0.500802  0.499609  0.499609  1
  Sn  Sn4  1  0.685145  0.685540  0.999605  1
  Sn  Sn5  1  0.314148  0.999680  0.314467  1
  Sn  Sn6  1  0.000778  0.314088  0.314088  1
  Sn  Sn7  1  0.314148  0.314467  0.999680  1
  Sn  Sn8  1  0.685145  0.999605  0.685540  1
  Sn  Sn9  1  0.000778  0.686691  0.686691  1
  Ir  Ir10  1  0.749955  0.249980  0.499975  1
  Ir  Ir11  1  0.749955  0.499975  0.249980  1
  Rh  Rh12  1  0.500159  0.250080  0.750080  1
  Rh  Rh13  1  0.249923  0.499928  0.749995  1
  Rh  Rh14  1  0.249923  0.749995  0.499928  1
  Rh  Rh15  1  0.500159  0.750080  0.250080  1
  Rh  Rh16  1  0.999946  0.999973  0.999973  1
