# generated using pymatgen
data_HoTm4Lu11(Ga3Co)2
_symmetry_space_group_name_H-M   'P 1'
_cell_length_a   9.80632900
_cell_length_b   9.80632959
_cell_length_c   6.82142700
_cell_angle_alpha   90.00000000
_cell_angle_beta   90.00000000
_cell_angle_gamma   119.99999464
_symmetry_Int_Tables_number   1
_chemical_formula_structural   HoTm4Lu11(Ga3Co)2
_chemical_formula_sum   'Ho1 Tm4 Lu11 Ga6 Co2'
_cell_volume   568.09221300
_cell_formula_units_Z   1
loop_
 _symmetry_equiv_pos_site_id
 _symmetry_equiv_pos_as_xyz
  1  'x, y, z'
loop_
 _atom_site_type_symbol
 _atom_site_label
 _atom_site_symmetry_multiplicity
 _atom_site_fract_x
 _atom_site_fract_y
 _atom_site_fract_z
 _atom_site_occupancy
  Ho  Ho0  1  0.000000  0.000000  0.730793  1
  Tm  Tm1  1  0.535430  0.464570  0.708136  1
  Tm  Tm2  1  0.929140  0.464570  0.708136  1
  Tm  Tm3  1  0.535430  0.070860  0.708136  1
  Tm  Tm4  1  0.000000  0.000000  0.231296  1
  Lu  Lu5  1  0.174160  0.825840  0.509260  1
  Lu  Lu6  1  0.651677  0.825840  0.509260  1
  Lu  Lu7  1  0.174160  0.348323  0.509260  1
  Lu  Lu8  1  0.825855  0.174145  0.012731  1
  Lu  Lu9  1  0.348292  0.174145  0.012731  1
  Lu  Lu10  1  0.825855  0.651708  0.012731  1
  Lu  Lu11  1  0.333333  0.666667  0.828482  1
  Lu  Lu12  1  0.666667  0.333333  0.327843  1
  Lu  Lu13  1  0.463639  0.536361  0.207123  1
  Lu  Lu14  1  0.072719  0.536361  0.207123  1
  Lu  Lu15  1  0.463639  0.927281  0.207123  1
  Ga  Ga16  1  0.163806  0.836194  0.960015  1
  Ga  Ga17  1  0.672387  0.836194  0.960015  1
  Ga  Ga18  1  0.163806  0.327613  0.960015  1
  Ga  Ga19  1  0.836486  0.163514  0.458594  1
  Ga  Ga20  1  0.327027  0.163514  0.458594  1
  Ga  Ga21  1  0.836486  0.672973  0.458594  1
  Co  Co22  1  0.333333  0.666667  0.443723  1
  Co  Co23  1  0.666667  0.333333  0.944328  1
