# generated using pymatgen
data_Li2Ga(SnRh2)3
_symmetry_space_group_name_H-M   'P 1'
_cell_length_a   4.41911000
_cell_length_b   6.23197100
_cell_length_c   13.25995100
_cell_angle_alpha   90.00000000
_cell_angle_beta   89.99867752
_cell_angle_gamma   90.00000000
_symmetry_Int_Tables_number   1
_chemical_formula_structural   Li2Ga(SnRh2)3
_chemical_formula_sum   'Li4 Ga2 Sn6 Rh12'
_cell_volume   365.17593930
_cell_formula_units_Z   2
loop_
 _symmetry_equiv_pos_site_id
 _symmetry_equiv_pos_as_xyz
  1  'x, y, z'
loop_
 _atom_site_type_symbol
 _atom_site_label
 _atom_site_symmetry_multiplicity
 _atom_site_fract_x
 _atom_site_fract_y
 _atom_site_fract_z
 _atom_site_occupancy
  Li  Li0  1  0.999827  0.499989  0.334320  1
  Li  Li1  1  0.500002  0.000000  0.500560  1
  Li  Li2  1  0.000163  0.500000  0.666029  1
  Li  Li3  1  0.500173  0.999992  0.832402  1
  Ga  Ga4  1  0.999980  0.500007  0.998809  1
  Ga  Ga5  1  0.499893  0.000002  0.167834  1
  Sn  Sn6  1  0.999983  0.999996  0.992156  1
  Sn  Sn7  1  0.499869  0.500004  0.174522  1
  Sn  Sn8  1  0.999875  0.000000  0.342761  1
  Sn  Sn9  1  0.500004  0.499998  0.499758  1
  Sn  Sn10  1  0.000138  0.999994  0.666884  1
  Sn  Sn11  1  0.500127  0.500001  0.823871  1
  Rh  Rh12  1  0.499980  0.257656  0.004531  1
  Rh  Rh13  1  0.499981  0.742350  0.004527  1
  Rh  Rh14  1  0.999896  0.242366  0.162133  1
  Rh  Rh15  1  0.999891  0.757623  0.162131  1
  Rh  Rh16  1  0.499897  0.242966  0.330348  1
  Rh  Rh17  1  0.499894  0.757041  0.330351  1
  Rh  Rh18  1  0.000007  0.253805  0.501591  1
  Rh  Rh19  1  0.000005  0.746198  0.501591  1
  Rh  Rh20  1  0.500100  0.246190  0.665111  1
  Rh  Rh21  1  0.500105  0.753807  0.665108  1
  Rh  Rh22  1  0.000105  0.257031  0.836340  1
  Rh  Rh23  1  0.000105  0.742976  0.836331  1
