# generated using pymatgen
data_Dy7Er3(SnBi2)2
_symmetry_space_group_name_H-M   'P 1'
_cell_length_a   9.08596350
_cell_length_b   9.05500848
_cell_length_c   6.44123910
_cell_angle_alpha   89.97945341
_cell_angle_beta   90.01024001
_cell_angle_gamma   119.88736525
_symmetry_Int_Tables_number   1
_chemical_formula_structural   Dy7Er3(SnBi2)2
_chemical_formula_sum   'Dy7 Er3 Sn2 Bi4'
_cell_volume   459.46419400
_cell_formula_units_Z   1
loop_
 _symmetry_equiv_pos_site_id
 _symmetry_equiv_pos_as_xyz
  1  'x, y, z'
loop_
 _atom_site_type_symbol
 _atom_site_label
 _atom_site_symmetry_multiplicity
 _atom_site_fract_x
 _atom_site_fract_y
 _atom_site_fract_z
 _atom_site_occupancy
  Dy  Dy0  1  0.994847  0.758666  0.749850  1
  Dy  Dy1  1  0.994847  0.236179  0.250150  1
  Dy  Dy2  1  0.757050  0.762107  0.250120  1
  Dy  Dy3  1  0.757050  0.994943  0.749880  1
  Dy  Dy4  1  0.244691  0.244718  0.749980  1
  Dy  Dy5  1  0.244691  0.999973  0.250020  1
  Dy  Dy6  1  0.339960  0.669980  0.000000  1
  Er  Er7  1  0.340438  0.670220  0.500000  1
  Er  Er8  1  0.664740  0.332369  0.000000  1
  Er  Er9  1  0.664889  0.332444  0.500000  1
  Sn  Sn10  1  0.607645  0.605077  0.749439  1
  Sn  Sn11  1  0.607645  0.002569  0.250561  1
  Bi  Bi12  1  0.390385  0.999545  0.749473  1
  Bi  Bi13  1  0.390385  0.390841  0.250527  1
  Bi  Bi14  1  0.000369  0.608247  0.250558  1
  Bi  Bi15  1  0.000369  0.392121  0.749442  1
