# generated using pymatgen
data_Tm12GaCo4Bi
_symmetry_space_group_name_H-M   'P 1'
_cell_length_a   8.23360118
_cell_length_b   8.23366862
_cell_length_c   8.23360103
_cell_angle_alpha   111.70214987
_cell_angle_beta   109.43372403
_cell_angle_gamma   107.30731297
_symmetry_Int_Tables_number   1
_chemical_formula_structural   Tm12GaCo4Bi
_chemical_formula_sum   'Tm12 Ga1 Co4 Bi1'
_cell_volume   429.05504036
_cell_formula_units_Z   1
loop_
 _symmetry_equiv_pos_site_id
 _symmetry_equiv_pos_as_xyz
  1  'x, y, z'
loop_
 _atom_site_type_symbol
 _atom_site_label
 _atom_site_symmetry_multiplicity
 _atom_site_fract_x
 _atom_site_fract_y
 _atom_site_fract_z
 _atom_site_occupancy
  Tm  Tm0  1  0.026653  0.730334  0.296321  1
  Tm  Tm1  1  0.973347  0.269666  0.703679  1
  Tm  Tm2  1  0.565986  0.269666  0.296319  1
  Tm  Tm3  1  0.434014  0.730334  0.703681  1
  Tm  Tm4  1  0.676398  0.860340  0.183943  1
  Tm  Tm5  1  0.323600  0.507544  0.183944  1
  Tm  Tm6  1  0.323602  0.139660  0.816057  1
  Tm  Tm7  1  0.676400  0.492456  0.816056  1
  Tm  Tm8  1  0.178848  0.220446  0.399294  1
  Tm  Tm9  1  0.821152  0.220446  0.041598  1
  Tm  Tm10  1  0.178848  0.779554  0.958402  1
  Tm  Tm11  1  0.821152  0.779554  0.600706  1
  Ga  Ga12  1  0.000000  0.500000  0.500000  1
  Co  Co13  1  0.659079  0.500000  0.159079  1
  Co  Co14  1  0.340921  0.500000  0.840921  1
  Co  Co15  1  0.884912  0.884912  0.000000  1
  Co  Co16  1  0.115088  0.115088  0.000000  1
  Bi  Bi17  1  0.500000  0.000000  0.500000  1
