# generated using pymatgen
data_AcNd4Pb3Se
_symmetry_space_group_name_H-M   'P 1'
_cell_length_a   9.60922400
_cell_length_b   9.60922477
_cell_length_c   7.02680500
_cell_angle_alpha   90.00000000
_cell_angle_beta   90.00000000
_cell_angle_gamma   119.91829230
_symmetry_Int_Tables_number   1
_chemical_formula_structural   AcNd4Pb3Se
_chemical_formula_sum   'Ac2 Nd8 Pb6 Se2'
_cell_volume   562.37005395
_cell_formula_units_Z   2
loop_
 _symmetry_equiv_pos_site_id
 _symmetry_equiv_pos_as_xyz
  1  'x, y, z'
loop_
 _atom_site_type_symbol
 _atom_site_label
 _atom_site_symmetry_multiplicity
 _atom_site_fract_x
 _atom_site_fract_y
 _atom_site_fract_z
 _atom_site_occupancy
  Ac  Ac0  1  0.745252  0.999450  0.250000  1
  Ac  Ac1  1  0.999450  0.745252  0.250000  1
  Nd  Nd2  1  0.750604  0.750604  0.750000  1
  Nd  Nd3  1  0.253069  0.000953  0.750000  1
  Nd  Nd4  1  0.000953  0.253069  0.750000  1
  Nd  Nd5  1  0.248884  0.248884  0.250000  1
  Nd  Nd6  1  0.664800  0.333399  0.996852  1
  Nd  Nd7  1  0.333399  0.664800  0.996852  1
  Nd  Nd8  1  0.333399  0.664800  0.503148  1
  Nd  Nd9  1  0.664800  0.333399  0.503148  1
  Pb  Pb10  1  0.396211  0.396211  0.750000  1
  Pb  Pb11  1  0.603861  0.000120  0.750000  1
  Pb  Pb12  1  0.000120  0.603861  0.750000  1
  Pb  Pb13  1  0.594550  0.594550  0.250000  1
  Pb  Pb14  1  0.395654  0.005738  0.250000  1
  Pb  Pb15  1  0.005738  0.395654  0.250000  1
  Se  Se16  1  0.004628  0.004628  0.992341  1
  Se  Se17  1  0.004628  0.004628  0.507659  1
