# generated using pymatgen
data_Tb2Ti3Mn9P7
_symmetry_space_group_name_H-M   'P 1'
_cell_length_a   9.58184100
_cell_length_b   9.58184149
_cell_length_c   3.56498900
_cell_angle_alpha   90.00000000
_cell_angle_beta   90.00000000
_cell_angle_gamma   120.00000176
_symmetry_Int_Tables_number   1
_chemical_formula_structural   Tb2Ti3Mn9P7
_chemical_formula_sum   'Tb2 Ti3 Mn9 P7'
_cell_volume   283.45672191
_cell_formula_units_Z   1
loop_
 _symmetry_equiv_pos_site_id
 _symmetry_equiv_pos_as_xyz
  1  'x, y, z'
loop_
 _atom_site_type_symbol
 _atom_site_label
 _atom_site_symmetry_multiplicity
 _atom_site_fract_x
 _atom_site_fract_y
 _atom_site_fract_z
 _atom_site_occupancy
  Tb  Tb0  1  0.666667  0.333333  0.000000  1
  Tb  Tb1  1  0.333333  0.666667  0.500000  1
  Ti  Ti2  1  0.097637  0.875745  0.500000  1
  Ti  Ti3  1  0.778107  0.902363  0.500000  1
  Ti  Ti4  1  0.124255  0.221893  0.500000  1
  Mn  Mn5  1  0.050005  0.622222  0.000000  1
  Mn  Mn6  1  0.572217  0.949995  0.000000  1
  Mn  Mn7  1  0.377778  0.427783  0.000000  1
  Mn  Mn8  1  0.282489  0.118914  0.000000  1
  Mn  Mn9  1  0.836424  0.717511  0.000000  1
  Mn  Mn10  1  0.881086  0.163576  0.000000  1
  Mn  Mn11  1  0.436059  0.048649  0.500000  1
  Mn  Mn12  1  0.612589  0.563941  0.500000  1
  Mn  Mn13  1  0.951351  0.387411  0.500000  1
  P  P14  1  0.295426  0.879477  0.000000  1
  P  P15  1  0.584052  0.704574  0.000000  1
  P  P16  1  0.120523  0.415948  0.000000  1
  P  P17  1  0.418539  0.290020  0.500000  1
  P  P18  1  0.871481  0.581461  0.500000  1
  P  P19  1  0.709980  0.128519  0.500000  1
  P  P20  1  0.000000  0.000000  0.000000  1
