# generated using pymatgen
data_YbY6IrI12
_symmetry_space_group_name_H-M   'P 1'
_cell_length_a   9.81035493
_cell_length_b   9.81035480
_cell_length_c   9.81035393
_cell_angle_alpha   107.15638673
_cell_angle_beta   107.15639144
_cell_angle_gamma   107.15638518
_symmetry_Int_Tables_number   1
_chemical_formula_structural   YbY6IrI12
_chemical_formula_sum   'Yb1 Y6 Ir1 I12'
_cell_volume   782.94216792
_cell_formula_units_Z   1
loop_
 _symmetry_equiv_pos_site_id
 _symmetry_equiv_pos_as_xyz
  1  'x, y, z'
loop_
 _atom_site_type_symbol
 _atom_site_label
 _atom_site_symmetry_multiplicity
 _atom_site_fract_x
 _atom_site_fract_y
 _atom_site_fract_z
 _atom_site_occupancy
  Yb  Yb0  1  0.500000  0.500000  0.500000  1
  Y  Y1  1  0.095687  0.023471  0.299585  1
  Y  Y2  1  0.299585  0.095687  0.023471  1
  Y  Y3  1  0.023471  0.299585  0.095687  1
  Y  Y4  1  0.904313  0.976529  0.700415  1
  Y  Y5  1  0.700415  0.904313  0.976529  1
  Y  Y6  1  0.976529  0.700415  0.904313  1
  Ir  Ir7  1  0.000000  0.000000  0.000000  1
  I  I8  1  0.070966  0.676956  0.223632  1
  I  I9  1  0.223632  0.070966  0.676956  1
  I  I10  1  0.676956  0.223632  0.070966  1
  I  I11  1  0.929034  0.323044  0.776368  1
  I  I12  1  0.776368  0.929034  0.323044  1
  I  I13  1  0.323044  0.776368  0.929034  1
  I  I14  1  0.457336  0.150991  0.379642  1
  I  I15  1  0.379642  0.457336  0.150991  1
  I  I16  1  0.150991  0.379642  0.457336  1
  I  I17  1  0.542664  0.849009  0.620358  1
  I  I18  1  0.620358  0.542664  0.849009  1
  I  I19  1  0.849009  0.620358  0.542664  1
