# generated using pymatgen
data_Dy2FeSi5Ir2
_symmetry_space_group_name_H-M   'P 1'
_cell_length_a   8.02755896
_cell_length_b   8.02755865
_cell_length_c   8.20563027
_cell_angle_alpha   139.20650095
_cell_angle_beta   106.80397496
_cell_angle_gamma   86.02195229
_symmetry_Int_Tables_number   1
_chemical_formula_structural   Dy2FeSi5Ir2
_chemical_formula_sum   'Dy4 Fe2 Si10 Ir4'
_cell_volume   321.13530359
_cell_formula_units_Z   2
loop_
 _symmetry_equiv_pos_site_id
 _symmetry_equiv_pos_as_xyz
  1  'x, y, z'
loop_
 _atom_site_type_symbol
 _atom_site_label
 _atom_site_symmetry_multiplicity
 _atom_site_fract_x
 _atom_site_fract_y
 _atom_site_fract_z
 _atom_site_occupancy
  Dy  Dy0  1  0.868355  0.644647  0.244621  1
  Dy  Dy1  1  0.131645  0.355353  0.755379  1
  Dy  Dy2  1  0.400026  0.123734  0.255379  1
  Dy  Dy3  1  0.599974  0.876266  0.744621  1
  Fe  Fe4  1  0.995750  0.745750  0.750000  1
  Fe  Fe5  1  0.004250  0.254250  0.250000  1
  Si  Si6  1  0.514298  0.764298  0.250000  1
  Si  Si7  1  0.485702  0.235702  0.750000  1
  Si  Si8  1  0.220517  0.970517  0.750000  1
  Si  Si9  1  0.796973  0.546973  0.750000  1
  Si  Si10  1  0.779483  0.029483  0.250000  1
  Si  Si11  1  0.203027  0.453027  0.250000  1
  Si  Si12  1  0.060955  0.906084  0.156942  1
  Si  Si13  1  0.939045  0.093916  0.843058  1
  Si  Si14  1  0.749142  0.404013  0.343058  1
  Si  Si15  1  0.250858  0.595987  0.656942  1
  Ir  Ir16  1  0.255462  0.827866  0.367431  1
  Ir  Ir17  1  0.744538  0.172134  0.632569  1
  Ir  Ir18  1  0.460435  0.388032  0.132569  1
  Ir  Ir19  1  0.539565  0.611968  0.867431  1
