# generated using pymatgen
data_Ca11Dy9(SnSb)8
_symmetry_space_group_name_H-M   'P 1'
_cell_length_a   8.30515000
_cell_length_b   8.35682700
_cell_length_c   15.83566900
_cell_angle_alpha   90.00000000
_cell_angle_beta   90.00000000
_cell_angle_gamma   89.99909499
_symmetry_Int_Tables_number   1
_chemical_formula_structural   Ca11Dy9(SnSb)8
_chemical_formula_sum   'Ca11 Dy9 Sn8 Sb8'
_cell_volume   1099.06988410
_cell_formula_units_Z   1
loop_
 _symmetry_equiv_pos_site_id
 _symmetry_equiv_pos_as_xyz
  1  'x, y, z'
loop_
 _atom_site_type_symbol
 _atom_site_label
 _atom_site_symmetry_multiplicity
 _atom_site_fract_x
 _atom_site_fract_y
 _atom_site_fract_z
 _atom_site_occupancy
  Ca  Ca0  1  0.550666  0.326898  0.894838  1
  Ca  Ca1  1  0.048288  0.172203  0.604115  1
  Ca  Ca2  1  0.453218  0.675027  0.398226  1
  Ca  Ca3  1  0.951877  0.826297  0.102652  1
  Ca  Ca4  1  0.453218  0.675027  0.101774  1
  Ca  Ca5  1  0.951877  0.826297  0.397348  1
  Ca  Ca6  1  0.550666  0.326898  0.605162  1
  Ca  Ca7  1  0.048288  0.172203  0.895885  1
  Ca  Ca8  1  0.729008  0.004051  0.750000  1
  Ca  Ca9  1  0.769373  0.504375  0.250000  1
  Ca  Ca10  1  0.269426  0.995572  0.250000  1
  Dy  Dy11  1  0.391923  0.843105  0.883388  1
  Dy  Dy12  1  0.891167  0.659374  0.616229  1
  Dy  Dy13  1  0.607132  0.159405  0.385855  1
  Dy  Dy14  1  0.107323  0.340693  0.114292  1
  Dy  Dy15  1  0.607132  0.159405  0.114145  1
  Dy  Dy16  1  0.107323  0.340693  0.385708  1
  Dy  Dy17  1  0.391923  0.843105  0.616612  1
  Dy  Dy18  1  0.891167  0.659374  0.883771  1
  Dy  Dy19  1  0.229608  0.496744  0.750000  1
  Sn  Sn20  1  0.593870  0.626728  0.750000  1
  Sn  Sn21  1  0.099676  0.862677  0.750000  1
  Sn  Sn22  1  0.400055  0.368994  0.250000  1
  Sn  Sn23  1  0.899796  0.131414  0.250000  1
  Sn  Sn24  1  0.346292  0.131029  0.750000  1
  Sn  Sn25  1  0.859824  0.376131  0.750000  1
  Sn  Sn26  1  0.649778  0.878100  0.250000  1
  Sn  Sn27  1  0.149491  0.622004  0.250000  1
  Sb  Sb28  1  0.273272  0.029726  0.044375  1
  Sb  Sb29  1  0.774131  0.470202  0.455826  1
  Sb  Sb30  1  0.725739  0.969599  0.544984  1
  Sb  Sb31  1  0.227164  0.528560  0.952279  1
  Sb  Sb32  1  0.725739  0.969599  0.955016  1
  Sb  Sb33  1  0.227164  0.528560  0.547721  1
  Sb  Sb34  1  0.273272  0.029726  0.455625  1
  Sb  Sb35  1  0.774131  0.470202  0.044174  1
