# generated using pymatgen
data_Th10Sn6PS
_symmetry_space_group_name_H-M   'P 1'
_cell_length_a   6.55517300
_cell_length_b   9.49839134
_cell_length_c   9.49839200
_cell_angle_alpha   120.00000231
_cell_angle_beta   90.00000000
_cell_angle_gamma   90.00000000
_symmetry_Int_Tables_number   1
_chemical_formula_structural   Th10Sn6PS
_chemical_formula_sum   'Th10 Sn6 P1 S1'
_cell_volume   512.17093242
_cell_formula_units_Z   1
loop_
 _symmetry_equiv_pos_site_id
 _symmetry_equiv_pos_as_xyz
  1  'x, y, z'
loop_
 _atom_site_type_symbol
 _atom_site_label
 _atom_site_symmetry_multiplicity
 _atom_site_fract_x
 _atom_site_fract_y
 _atom_site_fract_z
 _atom_site_occupancy
  Th  Th0  1  0.750870  0.746616  0.746616  1
  Th  Th1  1  0.249130  0.253384  0.253384  1
  Th  Th2  1  0.750870  0.000000  0.253384  1
  Th  Th3  1  0.249130  0.000000  0.746616  1
  Th  Th4  1  0.750870  0.253384  0.000000  1
  Th  Th5  1  0.249130  0.746616  0.000000  1
  Th  Th6  1  0.000000  0.666667  0.333333  1
  Th  Th7  1  0.000000  0.333333  0.666667  1
  Th  Th8  1  0.500000  0.333333  0.666667  1
  Th  Th9  1  0.500000  0.666667  0.333333  1
  Sn  Sn10  1  0.749963  0.391522  0.391522  1
  Sn  Sn11  1  0.250037  0.608478  0.608478  1
  Sn  Sn12  1  0.749963  0.000000  0.608478  1
  Sn  Sn13  1  0.250037  0.000000  0.391522  1
  Sn  Sn14  1  0.749963  0.608478  0.000000  1
  Sn  Sn15  1  0.250037  0.391522  0.000000  1
  P  P16  1  0.000000  0.000000  0.000000  1
  S  S17  1  0.500000  0.000000  0.000000  1
