# generated using pymatgen
data_LaThSc2(Al3Ir)6
_symmetry_space_group_name_H-M   'P 1'
_cell_length_a   7.57406146
_cell_length_b   7.57441861
_cell_length_c   9.45943800
_cell_angle_alpha   90.00000000
_cell_angle_beta   90.00000000
_cell_angle_gamma   119.50900058
_symmetry_Int_Tables_number   1
_chemical_formula_structural   LaThSc2(Al3Ir)6
_chemical_formula_sum   'La1 Th1 Sc2 Al18 Ir6'
_cell_volume   472.28226060
_cell_formula_units_Z   1
loop_
 _symmetry_equiv_pos_site_id
 _symmetry_equiv_pos_as_xyz
  1  'x, y, z'
loop_
 _atom_site_type_symbol
 _atom_site_label
 _atom_site_symmetry_multiplicity
 _atom_site_fract_x
 _atom_site_fract_y
 _atom_site_fract_z
 _atom_site_occupancy
  La  La0  1  0.671378  0.993972  0.250000  1
  Th  Th1  1  0.994296  0.671363  0.250000  1
  Sc  Sc2  1  0.002209  0.327693  0.750000  1
  Sc  Sc3  1  0.326811  0.003006  0.750000  1
  Al  Al4  1  0.136214  0.134835  0.250000  1
  Al  Al5  1  0.879188  0.879646  0.750000  1
  Al  Al6  1  0.004853  0.333380  0.064475  1
  Al  Al7  1  0.003756  0.664333  0.912977  1
  Al  Al8  1  0.003756  0.664333  0.587023  1
  Al  Al9  1  0.337593  0.006395  0.435655  1
  Al  Al10  1  0.004853  0.333380  0.435525  1
  Al  Al11  1  0.664300  0.004093  0.585945  1
  Al  Al12  1  0.664300  0.004093  0.914055  1
  Al  Al13  1  0.337593  0.006395  0.064345  1
  Al  Al14  1  0.328634  0.328680  0.567225  1
  Al  Al15  1  0.662264  0.663851  0.464765  1
  Al  Al16  1  0.662264  0.663851  0.035235  1
  Al  Al17  1  0.328634  0.328680  0.932775  1
  Al  Al18  1  0.337912  0.542604  0.250000  1
  Al  Al19  1  0.659247  0.444045  0.750000  1
  Al  Al20  1  0.543451  0.340748  0.250000  1
  Al  Al21  1  0.443462  0.659797  0.750000  1
  Ir  Ir22  1  0.673505  0.329785  0.998015  1
  Ir  Ir23  1  0.326240  0.671235  0.997986  1
  Ir  Ir24  1  0.326240  0.671235  0.502014  1
  Ir  Ir25  1  0.673505  0.329785  0.501985  1
  Ir  Ir26  1  0.001767  0.999391  0.998177  1
  Ir  Ir27  1  0.001767  0.999391  0.501823  1
