# generated using pymatgen
data_Tm3ScZn2(B2Ir5)2
_symmetry_space_group_name_H-M   'P 1'
_cell_length_a   9.55878109
_cell_length_b   9.55878109
_cell_length_c   3.09766700
_cell_angle_alpha   90.00000000
_cell_angle_beta   90.00000000
_cell_angle_gamma   90.62701637
_symmetry_Int_Tables_number   1
_chemical_formula_structural   Tm3ScZn2(B2Ir5)2
_chemical_formula_sum   'Tm3 Sc1 Zn2 B4 Ir10'
_cell_volume   283.01780278
_cell_formula_units_Z   1
loop_
 _symmetry_equiv_pos_site_id
 _symmetry_equiv_pos_as_xyz
  1  'x, y, z'
loop_
 _atom_site_type_symbol
 _atom_site_label
 _atom_site_symmetry_multiplicity
 _atom_site_fract_x
 _atom_site_fract_y
 _atom_site_fract_z
 _atom_site_occupancy
  Tm  Tm0  1  0.676510  0.176510  0.000000  1
  Tm  Tm1  1  0.178845  0.322523  0.000000  1
  Tm  Tm2  1  0.822523  0.678845  0.000000  1
  Sc  Sc3  1  0.322380  0.822380  0.000000  1
  Zn  Zn4  1  0.500115  0.498770  0.000000  1
  Zn  Zn5  1  0.998770  0.000115  0.000000  1
  B  B6  1  0.127846  0.627846  0.000000  1
  B  B7  1  0.876041  0.376041  0.000000  1
  B  B8  1  0.373905  0.122651  0.000000  1
  B  B9  1  0.622651  0.873905  0.000000  1
  Ir  Ir10  1  0.562543  0.719648  0.500000  1
  Ir  Ir11  1  0.432665  0.278577  0.500000  1
  Ir  Ir12  1  0.932106  0.219817  0.500000  1
  Ir  Ir13  1  0.073919  0.783537  0.500000  1
  Ir  Ir14  1  0.778577  0.932665  0.500000  1
  Ir  Ir15  1  0.219648  0.062543  0.500000  1
  Ir  Ir16  1  0.283537  0.573919  0.500000  1
  Ir  Ir17  1  0.719817  0.432106  0.500000  1
  Ir  Ir18  1  0.001637  0.501637  0.500000  1
  Ir  Ir19  1  0.495968  0.995968  0.500000  1
