# generated using pymatgen
data_Yb2PrB18
_symmetry_space_group_name_H-M   'P 1'
_cell_length_a   4.13013200
_cell_length_b   4.13013200
_cell_length_c   12.40541900
_cell_angle_alpha   90.00000000
_cell_angle_beta   90.00000000
_cell_angle_gamma   90.00000000
_symmetry_Int_Tables_number   1
_chemical_formula_structural   Yb2PrB18
_chemical_formula_sum   'Yb2 Pr1 B18'
_cell_volume   211.61151743
_cell_formula_units_Z   1
loop_
 _symmetry_equiv_pos_site_id
 _symmetry_equiv_pos_as_xyz
  1  'x, y, z'
loop_
 _atom_site_type_symbol
 _atom_site_label
 _atom_site_symmetry_multiplicity
 _atom_site_fract_x
 _atom_site_fract_y
 _atom_site_fract_z
 _atom_site_occupancy
  Yb  Yb0  1  0.000000  0.000000  0.335282  1
  Yb  Yb1  1  0.000000  0.000000  0.664718  1
  Pr  Pr2  1  0.000000  0.000000  0.000000  1
  B  B3  1  0.200526  0.500000  0.167511  1
  B  B4  1  0.200970  0.500000  0.500000  1
  B  B5  1  0.200526  0.500000  0.832489  1
  B  B6  1  0.500000  0.500000  0.266869  1
  B  B7  1  0.500000  0.500000  0.599559  1
  B  B8  1  0.500000  0.500000  0.932915  1
  B  B9  1  0.500000  0.200526  0.167511  1
  B  B10  1  0.500000  0.200970  0.500000  1
  B  B11  1  0.500000  0.200526  0.832489  1
  B  B12  1  0.500000  0.500000  0.067085  1
  B  B13  1  0.500000  0.500000  0.400441  1
  B  B14  1  0.500000  0.500000  0.733131  1
  B  B15  1  0.500000  0.799474  0.167511  1
  B  B16  1  0.500000  0.799030  0.500000  1
  B  B17  1  0.500000  0.799474  0.832489  1
  B  B18  1  0.799474  0.500000  0.167511  1
  B  B19  1  0.799030  0.500000  0.500000  1
  B  B20  1  0.799474  0.500000  0.832489  1
