# generated using pymatgen
data_Tm8Sc2Zn3Bi2Pt
_symmetry_space_group_name_H-M   'P 1'
_cell_length_a   8.45096248
_cell_length_b   8.45096208
_cell_length_c   8.49700411
_cell_angle_alpha   124.30998033
_cell_angle_beta   124.30998402
_cell_angle_gamma   82.32917698
_symmetry_Int_Tables_number   1
_chemical_formula_structural   Tm8Sc2Zn3Bi2Pt
_chemical_formula_sum   'Tm8 Sc2 Zn3 Bi2 Pt1'
_cell_volume   398.65434909
_cell_formula_units_Z   1
loop_
 _symmetry_equiv_pos_site_id
 _symmetry_equiv_pos_as_xyz
  1  'x, y, z'
loop_
 _atom_site_type_symbol
 _atom_site_label
 _atom_site_symmetry_multiplicity
 _atom_site_fract_x
 _atom_site_fract_y
 _atom_site_fract_z
 _atom_site_occupancy
  Tm  Tm0  1  0.787503  0.295390  0.802839  1
  Tm  Tm1  1  0.204610  0.712497  0.197161  1
  Tm  Tm2  1  0.484664  0.992551  0.197161  1
  Tm  Tm3  1  0.299998  0.475469  0.500000  1
  Tm  Tm4  1  0.024531  0.200002  0.500000  1
  Tm  Tm5  1  0.507449  0.015336  0.802839  1
  Tm  Tm6  1  0.706421  0.515432  0.500000  1
  Tm  Tm7  1  0.984568  0.793579  0.500000  1
  Sc  Sc8  1  0.003979  0.001211  0.005190  1
  Sc  Sc9  1  0.498789  0.496021  0.994810  1
  Zn  Zn10  1  0.139169  0.640910  0.780079  1
  Zn  Zn11  1  0.859090  0.360831  0.219921  1
  Zn  Zn12  1  0.638737  0.861263  0.500000  1
  Bi  Bi13  1  0.246750  0.253250  0.000000  1
  Bi  Bi14  1  0.746750  0.753250  0.000000  1
  Pt  Pt15  1  0.366992  0.133008  0.500000  1
