# generated using pymatgen
data_PrEu3Sb6Rh7
_symmetry_space_group_name_H-M   'P 1'
_cell_length_a   7.76023161
_cell_length_b   7.76023247
_cell_length_c   7.76023100
_cell_angle_alpha   109.41351428
_cell_angle_beta   109.41351651
_cell_angle_gamma   109.41350816
_symmetry_Int_Tables_number   1
_chemical_formula_structural   PrEu3Sb6Rh7
_chemical_formula_sum   'Pr1 Eu3 Sb6 Rh7'
_cell_volume   360.51772024
_cell_formula_units_Z   1
loop_
 _symmetry_equiv_pos_site_id
 _symmetry_equiv_pos_as_xyz
  1  'x, y, z'
loop_
 _atom_site_type_symbol
 _atom_site_label
 _atom_site_symmetry_multiplicity
 _atom_site_fract_x
 _atom_site_fract_y
 _atom_site_fract_z
 _atom_site_occupancy
  Pr  Pr0  1  0.500000  0.500000  0.500000  1
  Eu  Eu1  1  0.500000  0.000000  0.000000  1
  Eu  Eu2  1  0.000000  0.500000  0.000000  1
  Eu  Eu3  1  0.000000  0.000000  0.500000  1
  Sb  Sb4  1  0.320201  0.995750  0.320201  1
  Sb  Sb5  1  0.004250  0.679799  0.679799  1
  Sb  Sb6  1  0.679799  0.679799  0.004250  1
  Sb  Sb7  1  0.679799  0.004250  0.679799  1
  Sb  Sb8  1  0.995750  0.320201  0.320201  1
  Sb  Sb9  1  0.320201  0.320201  0.995750  1
  Rh  Rh10  1  0.252102  0.500000  0.747898  1
  Rh  Rh11  1  0.500000  0.252102  0.747898  1
  Rh  Rh12  1  0.747898  0.252102  0.500000  1
  Rh  Rh13  1  0.500000  0.747898  0.252102  1
  Rh  Rh14  1  0.000000  0.000000  0.000000  1
  Rh  Rh15  1  0.252102  0.747898  0.500000  1
  Rh  Rh16  1  0.747898  0.500000  0.252102  1
