# generated using pymatgen
data_La3Yb5GaPd24
_symmetry_space_group_name_H-M   'P 1'
_cell_length_a   8.40994983
_cell_length_b   8.40994983
_cell_length_c   8.40994983
_cell_angle_alpha   89.87603446
_cell_angle_beta   89.87603446
_cell_angle_gamma   89.87603446
_symmetry_Int_Tables_number   1
_chemical_formula_structural   La3Yb5GaPd24
_chemical_formula_sum   'La3 Yb5 Ga1 Pd24'
_cell_volume   594.80850547
_cell_formula_units_Z   1
loop_
 _symmetry_equiv_pos_site_id
 _symmetry_equiv_pos_as_xyz
  1  'x, y, z'
loop_
 _atom_site_type_symbol
 _atom_site_label
 _atom_site_symmetry_multiplicity
 _atom_site_fract_x
 _atom_site_fract_y
 _atom_site_fract_z
 _atom_site_occupancy
  La  La0  1  0.251999  0.251999  0.748444  1
  La  La1  1  0.251999  0.748444  0.251999  1
  La  La2  1  0.748444  0.251999  0.251999  1
  Yb  Yb3  1  0.749845  0.749845  0.749845  1
  Yb  Yb4  1  0.748580  0.748580  0.251092  1
  Yb  Yb5  1  0.748580  0.251092  0.748580  1
  Yb  Yb6  1  0.251092  0.748580  0.748580  1
  Yb  Yb7  1  0.251360  0.251360  0.251360  1
  Ga  Ga8  1  0.999213  0.999213  0.999213  1
  Pd  Pd9  1  0.502872  0.502872  0.746419  1
  Pd  Pd10  1  0.500220  0.253617  0.500220  1
  Pd  Pd11  1  0.253617  0.500220  0.500220  1
  Pd  Pd12  1  0.500220  0.500220  0.253617  1
  Pd  Pd13  1  0.502872  0.746419  0.502872  1
  Pd  Pd14  1  0.746419  0.502872  0.502872  1
  Pd  Pd15  1  0.996905  0.996905  0.705022  1
  Pd  Pd16  1  0.999873  0.295582  0.999873  1
  Pd  Pd17  1  0.295582  0.999873  0.999873  1
  Pd  Pd18  1  0.999873  0.999873  0.295582  1
  Pd  Pd19  1  0.996905  0.705022  0.996905  1
  Pd  Pd20  1  0.705022  0.996905  0.996905  1
  Pd  Pd21  1  0.996925  0.501962  0.738241  1
  Pd  Pd22  1  0.500632  0.261419  0.000075  1
  Pd  Pd23  1  0.261419  0.000075  0.500632  1
  Pd  Pd24  1  0.000075  0.261419  0.500632  1
  Pd  Pd25  1  0.501962  0.996925  0.738241  1
  Pd  Pd26  1  0.261419  0.500632  0.000075  1
  Pd  Pd27  1  0.000075  0.500632  0.261419  1
  Pd  Pd28  1  0.501962  0.738241  0.996925  1
  Pd  Pd29  1  0.996925  0.738241  0.501962  1
  Pd  Pd30  1  0.500632  0.000075  0.261419  1
  Pd  Pd31  1  0.738241  0.996925  0.501962  1
  Pd  Pd32  1  0.738241  0.501962  0.996925  1
