# generated using pymatgen
data_Er8Si12AgPt3
_symmetry_space_group_name_H-M   'P 1'
_cell_length_a   8.19406600
_cell_length_b   8.19406573
_cell_length_c   7.84177000
_cell_angle_alpha   90.00000000
_cell_angle_beta   90.00000000
_cell_angle_gamma   120.00000111
_symmetry_Int_Tables_number   1
_chemical_formula_structural   Er8Si12AgPt3
_chemical_formula_sum   'Er8 Si12 Ag1 Pt3'
_cell_volume   455.97772559
_cell_formula_units_Z   1
loop_
 _symmetry_equiv_pos_site_id
 _symmetry_equiv_pos_as_xyz
  1  'x, y, z'
loop_
 _atom_site_type_symbol
 _atom_site_label
 _atom_site_symmetry_multiplicity
 _atom_site_fract_x
 _atom_site_fract_y
 _atom_site_fract_z
 _atom_site_occupancy
  Er  Er0  1  0.974556  0.487279  0.252831  1
  Er  Er1  1  0.512721  0.487279  0.252831  1
  Er  Er2  1  0.491328  0.982655  0.748725  1
  Er  Er3  1  0.017345  0.508672  0.748725  1
  Er  Er4  1  0.491328  0.508672  0.748725  1
  Er  Er5  1  0.512721  0.025444  0.252831  1
  Er  Er6  1  0.000000  0.000000  0.748934  1
  Er  Er7  1  0.000000  0.000000  0.248400  1
  Si  Si8  1  0.165250  0.834750  0.493768  1
  Si  Si9  1  0.165250  0.330501  0.493768  1
  Si  Si10  1  0.669499  0.834750  0.493768  1
  Si  Si11  1  0.332034  0.166018  0.000866  1
  Si  Si12  1  0.835285  0.670571  0.504829  1
  Si  Si13  1  0.833982  0.166018  0.000866  1
  Si  Si14  1  0.833982  0.667966  0.000866  1
  Si  Si15  1  0.162253  0.324506  0.995915  1
  Si  Si16  1  0.675494  0.837747  0.995915  1
  Si  Si17  1  0.329429  0.164715  0.504829  1
  Si  Si18  1  0.835285  0.164715  0.504829  1
  Si  Si19  1  0.162253  0.837747  0.995915  1
  Ag  Ag20  1  0.333333  0.666667  0.042888  1
  Pt  Pt21  1  0.666667  0.333333  0.964279  1
  Pt  Pt22  1  0.666667  0.333333  0.534488  1
  Pt  Pt23  1  0.333333  0.666667  0.470209  1
