# generated using pymatgen
data_HoPa(MnAl5)4
_symmetry_space_group_name_H-M   'P 1'
_cell_length_a   6.79273256
_cell_length_b   6.79273183
_cell_length_c   9.00849800
_cell_angle_alpha   90.00000000
_cell_angle_beta   90.00000000
_cell_angle_gamma   97.58319333
_symmetry_Int_Tables_number   1
_chemical_formula_structural   HoPa(MnAl5)4
_chemical_formula_sum   'Ho1 Pa1 Mn4 Al20'
_cell_volume   412.02773716
_cell_formula_units_Z   1
loop_
 _symmetry_equiv_pos_site_id
 _symmetry_equiv_pos_as_xyz
  1  'x, y, z'
loop_
 _atom_site_type_symbol
 _atom_site_label
 _atom_site_symmetry_multiplicity
 _atom_site_fract_x
 _atom_site_fract_y
 _atom_site_fract_z
 _atom_site_occupancy
  Ho  Ho0  1  0.127362  0.872638  0.250000  1
  Pa  Pa1  1  0.871235  0.128765  0.750000  1
  Mn  Mn2  1  0.999438  0.495457  0.502308  1
  Mn  Mn3  1  0.999438  0.495457  0.997692  1
  Mn  Mn4  1  0.504543  0.000562  0.997692  1
  Mn  Mn5  1  0.504543  0.000562  0.502308  1
  Al  Al6  1  0.624476  0.375524  0.547844  1
  Al  Al7  1  0.373980  0.626020  0.457524  1
  Al  Al8  1  0.373980  0.626020  0.042476  1
  Al  Al9  1  0.624476  0.375524  0.952156  1
  Al  Al10  1  0.228721  0.227194  0.499210  1
  Al  Al11  1  0.772806  0.771279  0.499210  1
  Al  Al12  1  0.772806  0.771279  0.000790  1
  Al  Al13  1  0.228721  0.227194  0.000790  1
  Al  Al14  1  0.842691  0.157309  0.097147  1
  Al  Al15  1  0.155420  0.844580  0.903225  1
  Al  Al16  1  0.155420  0.844580  0.596775  1
  Al  Al17  1  0.842691  0.157309  0.402853  1
  Al  Al18  1  0.866855  0.591306  0.750000  1
  Al  Al19  1  0.133311  0.411483  0.250000  1
  Al  Al20  1  0.408694  0.133145  0.750000  1
  Al  Al21  1  0.588517  0.866689  0.250000  1
  Al  Al22  1  0.217772  0.476542  0.750000  1
  Al  Al23  1  0.782760  0.524113  0.250000  1
  Al  Al24  1  0.523458  0.782228  0.750000  1
  Al  Al25  1  0.475887  0.217240  0.250000  1
