# generated using pymatgen
data_Ce7Ho(Nb3Si4)4
_symmetry_space_group_name_H-M   'P 1'
_cell_length_a   6.94739889
_cell_length_b   7.13822577
_cell_length_c   13.47272100
_cell_angle_alpha   89.87045035
_cell_angle_beta   89.92540511
_cell_angle_gamma   89.94293874
_symmetry_Int_Tables_number   1
_chemical_formula_structural   Ce7Ho(Nb3Si4)4
_chemical_formula_sum   'Ce7 Ho1 Nb12 Si16'
_cell_volume   668.13794711
_cell_formula_units_Z   1
loop_
 _symmetry_equiv_pos_site_id
 _symmetry_equiv_pos_as_xyz
  1  'x, y, z'
loop_
 _atom_site_type_symbol
 _atom_site_label
 _atom_site_symmetry_multiplicity
 _atom_site_fract_x
 _atom_site_fract_y
 _atom_site_fract_z
 _atom_site_occupancy
  Ce  Ce0  1  0.003924  0.831017  0.904243  1
  Ce  Ce1  1  0.497652  0.331230  0.094474  1
  Ce  Ce2  1  0.996650  0.169231  0.406829  1
  Ce  Ce3  1  0.496461  0.328336  0.404981  1
  Ce  Ce4  1  0.996837  0.168668  0.094481  1
  Ce  Ce5  1  0.503475  0.668626  0.905309  1
  Ce  Ce6  1  0.004371  0.831888  0.593927  1
  Ho  Ho7  1  0.501947  0.670568  0.596017  1
  Nb  Nb8  1  0.663327  0.174311  0.624892  1
  Nb  Nb9  1  0.164273  0.328243  0.874271  1
  Nb  Nb10  1  0.336629  0.826686  0.125497  1
  Nb  Nb11  1  0.837035  0.673193  0.374800  1
  Nb  Nb12  1  0.336824  0.826356  0.374842  1
  Nb  Nb13  1  0.837651  0.673138  0.125540  1
  Nb  Nb14  1  0.662821  0.173499  0.874201  1
  Nb  Nb15  1  0.161850  0.326423  0.624970  1
  Nb  Nb16  1  0.836184  0.495600  0.749474  1
  Nb  Nb17  1  0.335368  0.006082  0.750499  1
  Nb  Nb18  1  0.163725  0.504196  0.250649  1
  Nb  Nb19  1  0.663762  0.994651  0.250235  1
  Si  Si20  1  0.659279  0.957416  0.458688  1
  Si  Si21  1  0.159840  0.540509  0.042654  1
  Si  Si22  1  0.339850  0.041143  0.957420  1
  Si  Si23  1  0.836136  0.462469  0.543070  1
  Si  Si24  1  0.342306  0.037892  0.543442  1
  Si  Si25  1  0.840644  0.459177  0.957051  1
  Si  Si26  1  0.659747  0.959489  0.042513  1
  Si  Si27  1  0.161433  0.540242  0.458134  1
  Si  Si28  1  0.459197  0.373931  0.748905  1
  Si  Si29  1  0.958623  0.127158  0.749708  1
  Si  Si30  1  0.541094  0.626012  0.250205  1
  Si  Si31  1  0.041017  0.873217  0.250401  1
  Si  Si32  1  0.701523  0.877450  0.748795  1
  Si  Si33  1  0.203737  0.622541  0.748536  1
  Si  Si34  1  0.297297  0.121411  0.250087  1
  Si  Si35  1  0.797514  0.378004  0.250260  1
