# generated using pymatgen
data_Yb4Ga5GePt7
_symmetry_space_group_name_H-M   'P 1'
_cell_length_a   7.34677845
_cell_length_b   7.34677923
_cell_length_c   7.34685245
_cell_angle_alpha   109.35032152
_cell_angle_beta   109.35032208
_cell_angle_gamma   109.71288734
_symmetry_Int_Tables_number   1
_chemical_formula_structural   Yb4Ga5GePt7
_chemical_formula_sum   'Yb4 Ga5 Ge1 Pt7'
_cell_volume   305.25986643
_cell_formula_units_Z   1
loop_
 _symmetry_equiv_pos_site_id
 _symmetry_equiv_pos_as_xyz
  1  'x, y, z'
loop_
 _atom_site_type_symbol
 _atom_site_label
 _atom_site_symmetry_multiplicity
 _atom_site_fract_x
 _atom_site_fract_y
 _atom_site_fract_z
 _atom_site_occupancy
  Yb  Yb0  1  0.499338  0.499338  0.499396  1
  Yb  Yb1  1  0.999942  0.499339  0.000000  1
  Yb  Yb2  1  0.999942  0.999942  0.500604  1
  Yb  Yb3  1  0.499339  0.999942  0.000000  1
  Ga  Ga4  1  0.681824  0.998567  0.683257  1
  Ga  Ga5  1  0.315310  0.998567  0.316743  1
  Ga  Ga6  1  0.998567  0.315310  0.316743  1
  Ga  Ga7  1  0.998567  0.681824  0.683257  1
  Ga  Ga8  1  0.686927  0.686927  0.000000  1
  Ge  Ge9  1  0.321298  0.321298  0.000000  1
  Pt  Pt10  1  0.250331  0.500235  0.750098  1
  Pt  Pt11  1  0.247964  0.747964  0.500000  1
  Pt  Pt12  1  0.500235  0.250331  0.750098  1
  Pt  Pt13  1  0.500234  0.750138  0.249902  1
  Pt  Pt14  1  0.750138  0.500234  0.249902  1
  Pt  Pt15  1  0.002081  0.002081  0.000000  1
  Pt  Pt16  1  0.747964  0.247964  0.500000  1
