# generated using pymatgen
data_YCo3B4Os
_symmetry_space_group_name_H-M   'P 1'
_cell_length_a   7.23154742
_cell_length_b   7.00166732
_cell_length_c   3.86677800
_cell_angle_alpha   90.00000000
_cell_angle_beta   90.00000000
_cell_angle_gamma   91.13059494
_symmetry_Int_Tables_number   1
_chemical_formula_structural   YCo3B4Os
_chemical_formula_sum   'Y2 Co6 B8 Os2'
_cell_volume   195.74802634
_cell_formula_units_Z   2
loop_
 _symmetry_equiv_pos_site_id
 _symmetry_equiv_pos_as_xyz
  1  'x, y, z'
loop_
 _atom_site_type_symbol
 _atom_site_label
 _atom_site_symmetry_multiplicity
 _atom_site_fract_x
 _atom_site_fract_y
 _atom_site_fract_z
 _atom_site_occupancy
  Y  Y0  1  0.000000  0.000000  0.933974  1
  Y  Y1  1  0.500000  0.500000  0.406907  1
  Co  Co2  1  0.337500  0.885484  0.400219  1
  Co  Co3  1  0.662500  0.114516  0.400219  1
  Co  Co4  1  0.116466  0.372878  0.621867  1
  Co  Co5  1  0.883534  0.627122  0.621867  1
  Co  Co6  1  0.125199  0.623974  0.122487  1
  Co  Co7  1  0.874801  0.376026  0.122487  1
  B  B8  1  0.817391  0.658284  0.118995  1
  B  B9  1  0.182609  0.341716  0.118995  1
  B  B10  1  0.837596  0.314127  0.617599  1
  B  B11  1  0.162404  0.685873  0.617599  1
  B  B12  1  0.727887  0.829588  0.401037  1
  B  B13  1  0.272113  0.170412  0.401037  1
  B  B14  1  0.669494  0.214056  0.901737  1
  B  B15  1  0.330506  0.785944  0.901737  1
  Os  Os16  1  0.386076  0.148905  0.895619  1
  Os  Os17  1  0.613924  0.851095  0.895619  1
