# generated using pymatgen
data_Tb16MgIn3Rh4
_symmetry_space_group_name_H-M   'P 1'
_cell_length_a   9.72870900
_cell_length_b   9.72870874
_cell_length_c   9.72870833
_cell_angle_alpha   59.91170597
_cell_angle_beta   59.91170424
_cell_angle_gamma   59.91170554
_symmetry_Int_Tables_number   1
_chemical_formula_structural   Tb16MgIn3Rh4
_chemical_formula_sum   'Tb16 Mg1 In3 Rh4'
_cell_volume   649.80021109
_cell_formula_units_Z   1
loop_
 _symmetry_equiv_pos_site_id
 _symmetry_equiv_pos_as_xyz
  1  'x, y, z'
loop_
 _atom_site_type_symbol
 _atom_site_label
 _atom_site_symmetry_multiplicity
 _atom_site_fract_x
 _atom_site_fract_y
 _atom_site_fract_z
 _atom_site_occupancy
  Tb  Tb0  1  0.809635  0.809635  0.191430  1
  Tb  Tb1  1  0.809635  0.191430  0.809635  1
  Tb  Tb2  1  0.187394  0.187394  0.814561  1
  Tb  Tb3  1  0.649760  0.047327  0.649760  1
  Tb  Tb4  1  0.061463  0.061463  0.437787  1
  Tb  Tb5  1  0.435988  0.435988  0.063168  1
  Tb  Tb6  1  0.651741  0.651741  0.651741  1
  Tb  Tb7  1  0.814561  0.187394  0.187394  1
  Tb  Tb8  1  0.191430  0.809635  0.809635  1
  Tb  Tb9  1  0.047327  0.649760  0.649760  1
  Tb  Tb10  1  0.437787  0.061463  0.061463  1
  Tb  Tb11  1  0.435988  0.063168  0.435988  1
  Tb  Tb12  1  0.061463  0.437787  0.061463  1
  Tb  Tb13  1  0.649760  0.649760  0.047327  1
  Tb  Tb14  1  0.187394  0.814561  0.187394  1
  Tb  Tb15  1  0.063168  0.435988  0.435988  1
  Mg  Mg16  1  0.423431  0.423431  0.423431  1
  In  In17  1  0.418156  0.418156  0.746285  1
  In  In18  1  0.418156  0.746285  0.418156  1
  In  In19  1  0.746285  0.418156  0.418156  1
  Rh  Rh20  1  0.857985  0.426253  0.857985  1
  Rh  Rh21  1  0.857254  0.857254  0.857254  1
  Rh  Rh22  1  0.857985  0.857985  0.426253  1
  Rh  Rh23  1  0.426253  0.857985  0.857985  1
