# generated using pymatgen
data_TmSc9(GaSb2)2
_symmetry_space_group_name_H-M   'P 1'
_cell_length_a   8.37276801
_cell_length_b   8.34920937
_cell_length_c   6.02387100
_cell_angle_alpha   90.00000000
_cell_angle_beta   90.00000000
_cell_angle_gamma   119.75200981
_symmetry_Int_Tables_number   1
_chemical_formula_structural   TmSc9(GaSb2)2
_chemical_formula_sum   'Tm1 Sc9 Ga2 Sb4'
_cell_volume   365.59525820
_cell_formula_units_Z   1
loop_
 _symmetry_equiv_pos_site_id
 _symmetry_equiv_pos_as_xyz
  1  'x, y, z'
loop_
 _atom_site_type_symbol
 _atom_site_label
 _atom_site_symmetry_multiplicity
 _atom_site_fract_x
 _atom_site_fract_y
 _atom_site_fract_z
 _atom_site_occupancy
  Tm  Tm0  1  0.013642  0.772185  0.750000  1
  Sc  Sc1  1  0.342946  0.685346  0.000508  1
  Sc  Sc2  1  0.657404  0.314298  0.499842  1
  Sc  Sc3  1  0.657404  0.314298  0.000158  1
  Sc  Sc4  1  0.342946  0.685346  0.499492  1
  Sc  Sc5  1  0.246682  0.000665  0.250000  1
  Sc  Sc6  1  0.753773  0.999788  0.750000  1
  Sc  Sc7  1  0.985451  0.228952  0.250000  1
  Sc  Sc8  1  0.753775  0.769231  0.250000  1
  Sc  Sc9  1  0.246661  0.232527  0.750000  1
  Ga  Ga10  1  0.603853  0.000246  0.250000  1
  Ga  Ga11  1  0.402790  0.003662  0.750000  1
  Sb  Sb12  1  0.994155  0.607054  0.250000  1
  Sb  Sb13  1  0.386197  0.392117  0.250000  1
  Sb  Sb14  1  0.606770  0.604923  0.750000  1
  Sb  Sb15  1  0.005551  0.389362  0.750000  1
