# generated using pymatgen
data_LaTb3Ho3MnBr12
_symmetry_space_group_name_H-M   'P 1'
_cell_length_a   9.35431020
_cell_length_b   9.40129032
_cell_length_c   9.12904349
_cell_angle_alpha   106.42222676
_cell_angle_beta   107.46756964
_cell_angle_gamma   106.79277611
_symmetry_Int_Tables_number   1
_chemical_formula_structural   LaTb3Ho3MnBr12
_chemical_formula_sum   'La1 Tb3 Ho3 Mn1 Br12'
_cell_volume   670.48187865
_cell_formula_units_Z   1
loop_
 _symmetry_equiv_pos_site_id
 _symmetry_equiv_pos_as_xyz
  1  'x, y, z'
loop_
 _atom_site_type_symbol
 _atom_site_label
 _atom_site_symmetry_multiplicity
 _atom_site_fract_x
 _atom_site_fract_y
 _atom_site_fract_z
 _atom_site_occupancy
  La  La0  1  0.595480  0.521237  0.791110  1
  Tb  Tb1  1  0.404455  0.477739  0.212086  1
  Tb  Tb2  1  0.479024  0.191466  0.399365  1
  Tb  Tb3  1  0.190258  0.399099  0.481458  1
  Ho  Ho4  1  0.000583  0.004249  0.994926  1
  Ho  Ho5  1  0.520015  0.802386  0.599001  1
  Ho  Ho6  1  0.806719  0.600280  0.525349  1
  Mn  Mn7  1  0.508578  0.499732  0.527530  1
  Br  Br8  1  0.566880  0.161745  0.712380  1
  Br  Br9  1  0.177184  0.716778  0.563170  1
  Br  Br10  1  0.715873  0.567708  0.184286  1
  Br  Br11  1  0.426105  0.809481  0.275366  1
  Br  Br12  1  0.818647  0.283341  0.425005  1
  Br  Br13  1  0.262013  0.423758  0.818371  1
  Br  Br14  1  0.677084  0.902559  0.964791  1
  Br  Br15  1  0.881324  0.958555  0.658178  1
  Br  Br16  1  0.979889  0.685630  0.887456  1
  Br  Br17  1  0.331004  0.122647  0.036649  1
  Br  Br18  1  0.116062  0.038975  0.329216  1
  Br  Br19  1  0.042824  0.332634  0.114305  1
