# generated using pymatgen
data_LuNb(PRh)2
_symmetry_space_group_name_H-M   'P 1'
_cell_length_a   3.82053400
_cell_length_b   6.48183900
_cell_length_c   7.44330700
_cell_angle_alpha   90.00000000
_cell_angle_beta   90.00000000
_cell_angle_gamma   90.00000000
_symmetry_Int_Tables_number   1
_chemical_formula_structural   LuNb(PRh)2
_chemical_formula_sum   'Lu2 Nb2 P4 Rh4'
_cell_volume   184.32669677
_cell_formula_units_Z   2
loop_
 _symmetry_equiv_pos_site_id
 _symmetry_equiv_pos_as_xyz
  1  'x, y, z'
loop_
 _atom_site_type_symbol
 _atom_site_label
 _atom_site_symmetry_multiplicity
 _atom_site_fract_x
 _atom_site_fract_y
 _atom_site_fract_z
 _atom_site_occupancy
  Lu  Lu0  1  0.250000  0.029602  0.823666  1
  Lu  Lu1  1  0.250000  0.529602  0.676334  1
  Nb  Nb2  1  0.750000  0.971065  0.182386  1
  Nb  Nb3  1  0.750000  0.471065  0.317614  1
  P  P4  1  0.250000  0.763911  0.366914  1
  P  P5  1  0.250000  0.263911  0.133086  1
  P  P6  1  0.750000  0.239221  0.610788  1
  P  P7  1  0.750000  0.739221  0.889212  1
  Rh  Rh8  1  0.250000  0.143250  0.435613  1
  Rh  Rh9  1  0.250000  0.643250  0.064387  1
  Rh  Rh10  1  0.750000  0.852950  0.558571  1
  Rh  Rh11  1  0.750000  0.352950  0.941429  1
