# generated using pymatgen
data_Ho2ErBe2(PPd5)4
_symmetry_space_group_name_H-M   'P 1'
_cell_length_a   8.66026875
_cell_length_b   8.58633711
_cell_length_c   8.58633605
_cell_angle_alpha   60.57047690
_cell_angle_beta   59.71475864
_cell_angle_gamma   59.71476591
_symmetry_Int_Tables_number   1
_chemical_formula_structural   Ho2ErBe2(PPd5)4
_chemical_formula_sum   'Ho2 Er1 Be2 P4 Pd20'
_cell_volume   451.40590250
_cell_formula_units_Z   1
loop_
 _symmetry_equiv_pos_site_id
 _symmetry_equiv_pos_as_xyz
  1  'x, y, z'
loop_
 _atom_site_type_symbol
 _atom_site_label
 _atom_site_symmetry_multiplicity
 _atom_site_fract_x
 _atom_site_fract_y
 _atom_site_fract_z
 _atom_site_occupancy
  Ho  Ho0  1  0.250000  0.250000  0.250000  1
  Ho  Ho1  1  0.750000  0.750000  0.750000  1
  Er  Er2  1  0.000000  0.000000  0.000000  1
  Be  Be3  1  0.733582  0.266418  0.266418  1
  Be  Be4  1  0.266418  0.733582  0.733582  1
  P  P5  1  0.266362  0.733638  0.266362  1
  P  P6  1  0.733638  0.266362  0.733638  1
  P  P7  1  0.266362  0.266362  0.733638  1
  P  P8  1  0.733638  0.733638  0.266362  1
  Pd  Pd9  1  0.387558  0.382280  0.382280  1
  Pd  Pd10  1  0.612442  0.617720  0.617720  1
  Pd  Pd11  1  0.382280  0.387558  0.847883  1
  Pd  Pd12  1  0.382280  0.847883  0.387558  1
  Pd  Pd13  1  0.617720  0.612442  0.152117  1
  Pd  Pd14  1  0.617720  0.152117  0.612442  1
  Pd  Pd15  1  0.847883  0.382280  0.382280  1
  Pd  Pd16  1  0.152117  0.617720  0.617720  1
  Pd  Pd17  1  0.344269  0.000000  0.000000  1
  Pd  Pd18  1  0.655731  0.000000  0.000000  1
  Pd  Pd19  1  0.000000  0.344269  0.655731  1
  Pd  Pd20  1  0.000000  0.655731  0.344269  1
  Pd  Pd21  1  0.997099  0.343486  0.002901  1
  Pd  Pd22  1  0.656514  0.002901  0.343486  1
  Pd  Pd23  1  0.002901  0.656514  0.997099  1
  Pd  Pd24  1  0.343486  0.997099  0.656514  1
  Pd  Pd25  1  0.997099  0.002901  0.343486  1
  Pd  Pd26  1  0.002901  0.997099  0.656514  1
  Pd  Pd27  1  0.656514  0.343486  0.002901  1
  Pd  Pd28  1  0.343486  0.656514  0.997099  1
