# generated using pymatgen
data_Sc8Cr2FeCoB24
_symmetry_space_group_name_H-M   'P 1'
_cell_length_a   3.34480000
_cell_length_b   8.83953127
_cell_length_c   11.14820648
_cell_angle_alpha   89.75717489
_cell_angle_beta   90.00000000
_cell_angle_gamma   90.00000000
_symmetry_Int_Tables_number   1
_chemical_formula_structural   Sc8Cr2FeCoB24
_chemical_formula_sum   'Sc8 Cr2 Fe1 Co1 B24'
_cell_volume   329.61008759
_cell_formula_units_Z   1
loop_
 _symmetry_equiv_pos_site_id
 _symmetry_equiv_pos_as_xyz
  1  'x, y, z'
loop_
 _atom_site_type_symbol
 _atom_site_label
 _atom_site_symmetry_multiplicity
 _atom_site_fract_x
 _atom_site_fract_y
 _atom_site_fract_z
 _atom_site_occupancy
  Sc  Sc0  1  0.000000  0.818697  0.084954  1
  Sc  Sc1  1  0.000000  0.179366  0.912284  1
  Sc  Sc2  1  0.000000  0.323541  0.416837  1
  Sc  Sc3  1  0.000000  0.678035  0.585614  1
  Sc  Sc4  1  0.000000  0.443472  0.129331  1
  Sc  Sc5  1  0.000000  0.557540  0.870507  1
  Sc  Sc6  1  0.000000  0.942559  0.371069  1
  Sc  Sc7  1  0.000000  0.056317  0.629821  1
  Cr  Cr8  1  0.000000  0.639823  0.318309  1
  Cr  Cr9  1  0.000000  0.360072  0.681357  1
  Fe  Fe10  1  0.000000  0.860428  0.820622  1
  Co  Co11  1  0.000000  0.139424  0.179467  1
  B  B12  1  0.500000  0.054168  0.065258  1
  B  B13  1  0.500000  0.945720  0.934130  1
  B  B14  1  0.500000  0.552521  0.434221  1
  B  B15  1  0.500000  0.447652  0.566061  1
  B  B16  1  0.500000  0.249946  0.079565  1
  B  B17  1  0.500000  0.750076  0.919480  1
  B  B18  1  0.500000  0.751052  0.420410  1
  B  B19  1  0.500000  0.249081  0.579618  1
  B  B20  1  0.500000  0.292160  0.235698  1
  B  B21  1  0.500000  0.707999  0.764740  1
  B  B22  1  0.500000  0.795424  0.262638  1
  B  B23  1  0.500000  0.204707  0.736844  1
  B  B24  1  0.500000  0.130629  0.316791  1
  B  B25  1  0.500000  0.869839  0.684507  1
  B  B26  1  0.500000  0.630751  0.182143  1
  B  B27  1  0.500000  0.369325  0.817543  1
  B  B28  1  0.500000  0.478668  0.287841  1
  B  B29  1  0.500000  0.521398  0.712445  1
  B  B30  1  0.500000  0.982712  0.211395  1
  B  B31  1  0.500000  0.017483  0.788705  1
  B  B32  1  0.500000  0.101514  0.471901  1
  B  B33  1  0.500000  0.898738  0.528062  1
  B  B34  1  0.500000  0.600835  0.026953  1
  B  B35  1  0.500000  0.398330  0.972874  1
