# generated using pymatgen
data_Ce7NdSi15Rh
_symmetry_space_group_name_H-M   'P 1'
_cell_length_a   8.15975700
_cell_length_b   8.17278924
_cell_length_c   8.30835101
_cell_angle_alpha   89.91524608
_cell_angle_beta   90.00000000
_cell_angle_gamma   119.94726946
_symmetry_Int_Tables_number   1
_chemical_formula_structural   Ce7NdSi15Rh
_chemical_formula_sum   'Ce7 Nd1 Si15 Rh1'
_cell_volume   480.09023945
_cell_formula_units_Z   1
loop_
 _symmetry_equiv_pos_site_id
 _symmetry_equiv_pos_as_xyz
  1  'x, y, z'
loop_
 _atom_site_type_symbol
 _atom_site_label
 _atom_site_symmetry_multiplicity
 _atom_site_fract_x
 _atom_site_fract_y
 _atom_site_fract_z
 _atom_site_occupancy
  Ce  Ce0  1  0.999692  0.999383  0.749164  1
  Ce  Ce1  1  0.000079  0.000158  0.251616  1
  Ce  Ce2  1  0.499729  0.499993  0.747559  1
  Ce  Ce3  1  0.499678  0.999356  0.748368  1
  Ce  Ce4  1  0.000262  0.499993  0.747559  1
  Ce  Ce5  1  0.500410  0.499715  0.252472  1
  Ce  Ce6  1  0.999306  0.499715  0.252472  1
  Nd  Nd7  1  0.501406  0.002810  0.252823  1
  Si  Si8  1  0.667394  0.334788  0.997829  1
  Si  Si9  1  0.667185  0.334369  0.503024  1
  Si  Si10  1  0.332893  0.665786  0.498989  1
  Si  Si11  1  0.835347  0.165584  0.997971  1
  Si  Si12  1  0.834737  0.669473  0.000143  1
  Si  Si13  1  0.330236  0.165584  0.997971  1
  Si  Si14  1  0.833802  0.167836  0.501542  1
  Si  Si15  1  0.832397  0.664796  0.499564  1
  Si  Si16  1  0.334033  0.167836  0.501542  1
  Si  Si17  1  0.164928  0.833358  0.501048  1
  Si  Si18  1  0.668429  0.833358  0.501048  1
  Si  Si19  1  0.166341  0.332682  0.499365  1
  Si  Si20  1  0.167242  0.832297  0.999346  1
  Si  Si21  1  0.665055  0.832297  0.999346  1
  Si  Si22  1  0.167024  0.334046  0.000900  1
  Rh  Rh23  1  0.332395  0.664790  0.998337  1
