# generated using pymatgen
data_Th3InPt12
_symmetry_space_group_name_H-M   'P 1'
_cell_length_a   5.91166400
_cell_length_b   5.91166382
_cell_length_c   9.76259800
_cell_angle_alpha   90.00000000
_cell_angle_beta   90.00000000
_cell_angle_gamma   120.00000098
_symmetry_Int_Tables_number   1
_chemical_formula_structural   Th3InPt12
_chemical_formula_sum   'Th3 In1 Pt12'
_cell_volume   295.47143771
_cell_formula_units_Z   1
loop_
 _symmetry_equiv_pos_site_id
 _symmetry_equiv_pos_as_xyz
  1  'x, y, z'
loop_
 _atom_site_type_symbol
 _atom_site_label
 _atom_site_symmetry_multiplicity
 _atom_site_fract_x
 _atom_site_fract_y
 _atom_site_fract_z
 _atom_site_occupancy
  Th  Th0  1  0.000000  0.000000  0.497224  1
  Th  Th1  1  0.000000  0.000000  0.002776  1
  Th  Th2  1  0.666667  0.333333  0.750000  1
  In  In3  1  0.333333  0.666667  0.250000  1
  Pt  Pt4  1  0.499208  0.500792  0.497113  1
  Pt  Pt5  1  0.499208  0.998416  0.497113  1
  Pt  Pt6  1  0.001584  0.500792  0.497113  1
  Pt  Pt7  1  0.499208  0.500792  0.002887  1
  Pt  Pt8  1  0.499208  0.998416  0.002887  1
  Pt  Pt9  1  0.001584  0.500792  0.002887  1
  Pt  Pt10  1  0.824841  0.649683  0.250000  1
  Pt  Pt11  1  0.350317  0.175159  0.250000  1
  Pt  Pt12  1  0.824841  0.175159  0.250000  1
  Pt  Pt13  1  0.174571  0.349141  0.750000  1
  Pt  Pt14  1  0.650859  0.825429  0.750000  1
  Pt  Pt15  1  0.174571  0.825429  0.750000  1
