# generated using pymatgen
data_Er7LuNb9Si16Mo3
_symmetry_space_group_name_H-M   'P 1'
_cell_length_a   6.78237602
_cell_length_b   7.02733464
_cell_length_c   13.31199825
_cell_angle_alpha   89.97892228
_cell_angle_beta   89.99284963
_cell_angle_gamma   89.94991638
_symmetry_Int_Tables_number   1
_chemical_formula_structural   Er7LuNb9Si16Mo3
_chemical_formula_sum   'Er7 Lu1 Nb9 Si16 Mo3'
_cell_volume   634.47651527
_cell_formula_units_Z   1
loop_
 _symmetry_equiv_pos_site_id
 _symmetry_equiv_pos_as_xyz
  1  'x, y, z'
loop_
 _atom_site_type_symbol
 _atom_site_label
 _atom_site_symmetry_multiplicity
 _atom_site_fract_x
 _atom_site_fract_y
 _atom_site_fract_z
 _atom_site_occupancy
  Er  Er0  1  0.501642  0.327833  0.094861  1
  Er  Er1  1  0.001530  0.172168  0.405053  1
  Er  Er2  1  0.498021  0.672327  0.594930  1
  Er  Er3  1  0.997730  0.827863  0.905583  1
  Er  Er4  1  0.497867  0.672493  0.905207  1
  Er  Er5  1  0.997804  0.827790  0.594592  1
  Er  Er6  1  0.501666  0.327978  0.405006  1
  Lu  Lu7  1  0.001036  0.172599  0.095115  1
  Nb  Nb8  1  0.834807  0.329347  0.625822  1
  Nb  Nb9  1  0.334263  0.171460  0.874599  1
  Nb  Nb10  1  0.165567  0.670339  0.126452  1
  Nb  Nb11  1  0.666336  0.829698  0.372753  1
  Nb  Nb12  1  0.165578  0.670198  0.373387  1
  Nb  Nb13  1  0.666510  0.829966  0.126967  1
  Nb  Nb14  1  0.835196  0.329040  0.874458  1
  Nb  Nb15  1  0.334410  0.171411  0.625570  1
  Nb  Nb16  1  0.660639  0.007763  0.750085  1
  Si  Si17  1  0.664146  0.037676  0.541053  1
  Si  Si18  1  0.163868  0.461143  0.957993  1
  Si  Si19  1  0.335205  0.962537  0.043320  1
  Si  Si20  1  0.836094  0.538365  0.457298  1
  Si  Si21  1  0.336476  0.961712  0.456929  1
  Si  Si22  1  0.836546  0.537240  0.042900  1
  Si  Si23  1  0.664584  0.037796  0.959183  1
  Si  Si24  1  0.164004  0.461655  0.542361  1
  Si  Si25  1  0.533499  0.381367  0.750072  1
  Si  Si26  1  0.038281  0.121412  0.749997  1
  Si  Si27  1  0.465263  0.620483  0.249923  1
  Si  Si28  1  0.966559  0.880531  0.249708  1
  Si  Si29  1  0.798348  0.629779  0.750060  1
  Si  Si30  1  0.293372  0.865520  0.750018  1
  Si  Si31  1  0.201096  0.366404  0.249495  1
  Si  Si32  1  0.702664  0.133624  0.249579  1
  Mo  Mo33  1  0.160874  0.492230  0.750029  1
  Mo  Mo34  1  0.339447  0.993359  0.249751  1
  Mo  Mo35  1  0.839076  0.506898  0.249889  1
