# generated using pymatgen
data_Sm4Lu4Tc3B24Ru
_symmetry_space_group_name_H-M   'P 1'
_cell_length_a   3.67301400
_cell_length_b   9.13612401
_cell_length_c   11.56369907
_cell_angle_alpha   89.93527913
_cell_angle_beta   90.00000000
_cell_angle_gamma   90.00000000
_symmetry_Int_Tables_number   1
_chemical_formula_structural   Sm4Lu4Tc3B24Ru
_chemical_formula_sum   'Sm4 Lu4 Tc3 B24 Ru1'
_cell_volume   388.04409001
_cell_formula_units_Z   1
loop_
 _symmetry_equiv_pos_site_id
 _symmetry_equiv_pos_as_xyz
  1  'x, y, z'
loop_
 _atom_site_type_symbol
 _atom_site_label
 _atom_site_symmetry_multiplicity
 _atom_site_fract_x
 _atom_site_fract_y
 _atom_site_fract_z
 _atom_site_occupancy
  Sm  Sm0  1  0.000000  0.322659  0.413960  1
  Sm  Sm1  1  0.000000  0.676188  0.584410  1
  Sm  Sm2  1  0.000000  0.822357  0.087039  1
  Sm  Sm3  1  0.000000  0.178488  0.914612  1
  Lu  Lu4  1  0.000000  0.942921  0.370045  1
  Lu  Lu5  1  0.000000  0.057548  0.630553  1
  Lu  Lu6  1  0.000000  0.443435  0.130224  1
  Lu  Lu7  1  0.000000  0.557294  0.869211  1
  Tc  Tc8  1  0.000000  0.639398  0.319044  1
  Tc  Tc9  1  0.000000  0.360560  0.681471  1
  Tc  Tc10  1  0.000000  0.139076  0.180120  1
  B  B11  1  0.500000  0.554325  0.431295  1
  B  B12  1  0.500000  0.445460  0.568431  1
  B  B13  1  0.500000  0.054378  0.068452  1
  B  B14  1  0.500000  0.944843  0.931187  1
  B  B15  1  0.500000  0.750654  0.417233  1
  B  B16  1  0.500000  0.248802  0.582975  1
  B  B17  1  0.500000  0.251286  0.082742  1
  B  B18  1  0.500000  0.749479  0.916833  1
  B  B19  1  0.500000  0.792298  0.266078  1
  B  B20  1  0.500000  0.207917  0.734627  1
  B  B21  1  0.500000  0.292260  0.234068  1
  B  B22  1  0.500000  0.708664  0.765685  1
  B  B23  1  0.500000  0.629558  0.185311  1
  B  B24  1  0.500000  0.370563  0.815216  1
  B  B25  1  0.500000  0.129037  0.314359  1
  B  B26  1  0.500000  0.870353  0.685437  1
  B  B27  1  0.500000  0.982258  0.213218  1
  B  B28  1  0.500000  0.016236  0.786946  1
  B  B29  1  0.500000  0.482607  0.286488  1
  B  B30  1  0.500000  0.517282  0.713187  1
  B  B31  1  0.500000  0.598167  0.026678  1
  B  B32  1  0.500000  0.403404  0.972968  1
  B  B33  1  0.500000  0.097396  0.473476  1
  B  B34  1  0.500000  0.902404  0.527331  1
  Ru  Ru35  1  0.000000  0.860442  0.819094  1
