# generated using pymatgen
data_K3GeB4Pt9
_symmetry_space_group_name_H-M   'P 1'
_cell_length_a   6.60225065
_cell_length_b   6.60225192
_cell_length_c   15.23523900
_cell_angle_alpha   90.00000000
_cell_angle_beta   90.00000000
_cell_angle_gamma   123.11757269
_symmetry_Int_Tables_number   1
_chemical_formula_structural   K3GeB4Pt9
_chemical_formula_sum   'K6 Ge2 B8 Pt18'
_cell_volume   556.21760373
_cell_formula_units_Z   2
loop_
 _symmetry_equiv_pos_site_id
 _symmetry_equiv_pos_as_xyz
  1  'x, y, z'
loop_
 _atom_site_type_symbol
 _atom_site_label
 _atom_site_symmetry_multiplicity
 _atom_site_fract_x
 _atom_site_fract_y
 _atom_site_fract_z
 _atom_site_occupancy
  K  K0  1  0.307498  0.692502  0.750000  1
  K  K1  1  0.692502  0.307498  0.250000  1
  K  K2  1  0.559054  0.440946  0.085594  1
  K  K3  1  0.440946  0.559054  0.914406  1
  K  K4  1  0.440946  0.559054  0.585594  1
  K  K5  1  0.559054  0.440946  0.414406  1
  Ge  Ge6  1  0.699914  0.300086  0.750000  1
  Ge  Ge7  1  0.300086  0.699914  0.250000  1
  B  B8  1  0.943204  0.056796  0.140549  1
  B  B9  1  0.056796  0.943204  0.859451  1
  B  B10  1  0.056796  0.943204  0.640549  1
  B  B11  1  0.943204  0.056796  0.359451  1
  B  B12  1  0.201016  0.798984  0.024802  1
  B  B13  1  0.798984  0.201016  0.975198  1
  B  B14  1  0.798984  0.201016  0.524802  1
  B  B15  1  0.201016  0.798984  0.475198  1
  Pt  Pt16  1  0.000000  0.000000  0.000000  1
  Pt  Pt17  1  0.000000  0.000000  0.500000  1
  Pt  Pt18  1  0.721987  0.843473  0.250000  1
  Pt  Pt19  1  0.843473  0.721987  0.750000  1
  Pt  Pt20  1  0.278013  0.156527  0.750000  1
  Pt  Pt21  1  0.156527  0.278013  0.250000  1
  Pt  Pt22  1  0.128667  0.871333  0.151244  1
  Pt  Pt23  1  0.871333  0.128667  0.848756  1
  Pt  Pt24  1  0.871333  0.128667  0.651244  1
  Pt  Pt25  1  0.128667  0.871333  0.348756  1
  Pt  Pt26  1  0.576503  0.949589  0.077545  1
  Pt  Pt27  1  0.949589  0.576503  0.922455  1
  Pt  Pt28  1  0.423497  0.050411  0.577545  1
  Pt  Pt29  1  0.050411  0.423497  0.422455  1
  Pt  Pt30  1  0.423497  0.050411  0.922455  1
  Pt  Pt31  1  0.050411  0.423497  0.077545  1
  Pt  Pt32  1  0.576503  0.949589  0.422455  1
  Pt  Pt33  1  0.949589  0.576503  0.577545  1
