# generated using pymatgen
data_Tb2Nd7HoPb6
_symmetry_space_group_name_H-M   'P 1'
_cell_length_a   9.31283100
_cell_length_b   9.31283192
_cell_length_c   6.82905500
_cell_angle_alpha   90.00000000
_cell_angle_beta   90.00000000
_cell_angle_gamma   120.00000029
_symmetry_Int_Tables_number   1
_chemical_formula_structural   Tb2Nd7HoPb6
_chemical_formula_sum   'Tb2 Nd7 Ho1 Pb6'
_cell_volume   512.92601620
_cell_formula_units_Z   1
loop_
 _symmetry_equiv_pos_site_id
 _symmetry_equiv_pos_as_xyz
  1  'x, y, z'
loop_
 _atom_site_type_symbol
 _atom_site_label
 _atom_site_symmetry_multiplicity
 _atom_site_fract_x
 _atom_site_fract_y
 _atom_site_fract_z
 _atom_site_occupancy
  Tb  Tb0  1  0.333333  0.666667  0.000000  1
  Tb  Tb1  1  0.666667  0.333333  0.500000  1
  Nd  Nd2  1  0.666667  0.333333  0.000000  1
  Nd  Nd3  1  0.239229  0.999961  0.250699  1
  Nd  Nd4  1  0.239229  0.239266  0.749301  1
  Nd  Nd5  1  0.000039  0.760771  0.749301  1
  Nd  Nd6  1  0.000039  0.239266  0.250699  1
  Nd  Nd7  1  0.760734  0.760771  0.250699  1
  Nd  Nd8  1  0.760734  0.999961  0.749301  1
  Ho  Ho9  1  0.333333  0.666667  0.500000  1
  Pb  Pb10  1  0.601324  0.997018  0.253137  1
  Pb  Pb11  1  0.601324  0.604305  0.746863  1
  Pb  Pb12  1  0.002982  0.398676  0.746863  1
  Pb  Pb13  1  0.002982  0.604305  0.253137  1
  Pb  Pb14  1  0.395695  0.398676  0.253137  1
  Pb  Pb15  1  0.395695  0.997018  0.746863  1
