# generated using pymatgen
data_SmHo3(CrB4)4
_symmetry_space_group_name_H-M   'P 1'
_cell_length_a   3.45647500
_cell_length_b   5.94979478
_cell_length_c   11.49927994
_cell_angle_alpha   89.93249086
_cell_angle_beta   90.00000000
_cell_angle_gamma   90.00000000
_symmetry_Int_Tables_number   1
_chemical_formula_structural   SmHo3(CrB4)4
_chemical_formula_sum   'Sm1 Ho3 Cr4 B16'
_cell_volume   236.48617216
_cell_formula_units_Z   1
loop_
 _symmetry_equiv_pos_site_id
 _symmetry_equiv_pos_as_xyz
  1  'x, y, z'
loop_
 _atom_site_type_symbol
 _atom_site_label
 _atom_site_symmetry_multiplicity
 _atom_site_fract_x
 _atom_site_fract_y
 _atom_site_fract_z
 _atom_site_occupancy
  Sm  Sm0  1  0.000000  0.624331  0.348933  1
  Ho  Ho1  1  0.000000  0.375386  0.651195  1
  Ho  Ho2  1  0.000000  0.124584  0.150252  1
  Ho  Ho3  1  0.000000  0.875516  0.849100  1
  Cr  Cr4  1  0.000000  0.623885  0.079656  1
  Cr  Cr5  1  0.000000  0.375887  0.918774  1
  Cr  Cr6  1  0.000000  0.123942  0.420004  1
  Cr  Cr7  1  0.000000  0.876529  0.581740  1
  B  B8  1  0.500000  0.782064  0.182536  1
  B  B9  1  0.500000  0.218483  0.815742  1
  B  B10  1  0.500000  0.278808  0.315674  1
  B  B11  1  0.500000  0.718589  0.684745  1
  B  B12  1  0.500000  0.863097  0.031709  1
  B  B13  1  0.500000  0.137051  0.967207  1
  B  B14  1  0.500000  0.361545  0.468773  1
  B  B15  1  0.500000  0.637871  0.534014  1
  B  B16  1  0.500000  0.888834  0.454472  1
  B  B17  1  0.500000  0.113805  0.547897  1
  B  B18  1  0.500000  0.386106  0.046179  1
  B  B19  1  0.500000  0.613340  0.952690  1
  B  B20  1  0.500000  0.977037  0.308514  1
  B  B21  1  0.500000  0.024703  0.692168  1
  B  B22  1  0.500000  0.473865  0.189829  1
  B  B23  1  0.500000  0.524744  0.808197  1
