# generated using pymatgen
data_Cs12Mo3WS16
_symmetry_space_group_name_H-M   'P 1'
_cell_length_a   10.01065533
_cell_length_b   10.10757608
_cell_length_c   11.77120600
_cell_angle_alpha   90.00000000
_cell_angle_beta   90.00000000
_cell_angle_gamma   90.11047138
_symmetry_Int_Tables_number   1
_chemical_formula_structural   Cs12Mo3WS16
_chemical_formula_sum   'Cs12 Mo3 W1 S16'
_cell_volume   1191.04914172
_cell_formula_units_Z   1
loop_
 _symmetry_equiv_pos_site_id
 _symmetry_equiv_pos_as_xyz
  1  'x, y, z'
loop_
 _atom_site_type_symbol
 _atom_site_label
 _atom_site_symmetry_multiplicity
 _atom_site_fract_x
 _atom_site_fract_y
 _atom_site_fract_z
 _atom_site_occupancy
  Cs  Cs0  1  0.549544  0.706262  0.042932  1
  Cs  Cs1  1  0.045805  0.788739  0.454346  1
  Cs  Cs2  1  0.456389  0.295861  0.539515  1
  Cs  Cs3  1  0.948241  0.210274  0.961786  1
  Cs  Cs4  1  0.456389  0.295861  0.960485  1
  Cs  Cs5  1  0.948241  0.210274  0.538214  1
  Cs  Cs6  1  0.549544  0.706262  0.457068  1
  Cs  Cs7  1  0.045805  0.788739  0.045654  1
  Cs  Cs8  1  0.351461  0.084408  0.250000  1
  Cs  Cs9  1  0.851550  0.417385  0.250000  1
  Cs  Cs10  1  0.649643  0.916886  0.750000  1
  Cs  Cs11  1  0.147066  0.581344  0.750000  1
  Mo  Mo12  1  0.275591  0.517530  0.250000  1
  Mo  Mo13  1  0.773724  0.982357  0.250000  1
  Mo  Mo14  1  0.725048  0.482528  0.750000  1
  W  W15  1  0.224511  0.018179  0.750000  1
  S  S16  1  0.292939  0.740662  0.250000  1
  S  S17  1  0.790924  0.759347  0.250000  1
  S  S18  1  0.708338  0.258978  0.750000  1
  S  S19  1  0.208284  0.238418  0.750000  1
  S  S20  1  0.483585  0.430196  0.250000  1
  S  S21  1  0.982077  0.070053  0.250000  1
  S  S22  1  0.516673  0.570473  0.750000  1
  S  S23  1  0.019480  0.929736  0.750000  1
  S  S24  1  0.167757  0.454082  0.090803  1
  S  S25  1  0.665806  0.044467  0.409663  1
  S  S26  1  0.833500  0.545575  0.590893  1
  S  S27  1  0.332512  0.955496  0.906544  1
  S  S28  1  0.833500  0.545575  0.909107  1
  S  S29  1  0.332512  0.955496  0.593456  1
  S  S30  1  0.167757  0.454082  0.409197  1
  S  S31  1  0.665806  0.044467  0.090337  1
