# generated using pymatgen
data_Yb2GaPd3
_symmetry_space_group_name_H-M   'P 1'
_cell_length_a   5.21267483
_cell_length_b   5.21267505
_cell_length_c   5.21267483
_cell_angle_alpha   65.23571331
_cell_angle_beta   65.23571944
_cell_angle_gamma   65.23571581
_symmetry_Int_Tables_number   1
_chemical_formula_structural   Yb2GaPd3
_chemical_formula_sum   'Yb2 Ga1 Pd3'
_cell_volume   111.58068190
_cell_formula_units_Z   1
loop_
 _symmetry_equiv_pos_site_id
 _symmetry_equiv_pos_as_xyz
  1  'x, y, z'
loop_
 _atom_site_type_symbol
 _atom_site_label
 _atom_site_symmetry_multiplicity
 _atom_site_fract_x
 _atom_site_fract_y
 _atom_site_fract_z
 _atom_site_occupancy
  Yb  Yb0  1  0.127800  0.127800  0.127800  1
  Yb  Yb1  1  0.872200  0.872200  0.872200  1
  Ga  Ga2  1  0.500000  0.500000  0.500000  1
  Pd  Pd3  1  0.500000  0.000000  0.500000  1
  Pd  Pd4  1  0.000000  0.500000  0.500000  1
  Pd  Pd5  1  0.500000  0.500000  0.000000  1
