# generated using pymatgen
data_Ce3Nd(PRu)8
_symmetry_space_group_name_H-M   'P 1'
_cell_length_a   4.14387100
_cell_length_b   7.50952748
_cell_length_c   10.44712910
_cell_angle_alpha   89.86887980
_cell_angle_beta   90.00000000
_cell_angle_gamma   90.00000000
_symmetry_Int_Tables_number   1
_chemical_formula_structural   Ce3Nd(PRu)8
_chemical_formula_sum   'Ce3 Nd1 P8 Ru8'
_cell_volume   325.09827286
_cell_formula_units_Z   1
loop_
 _symmetry_equiv_pos_site_id
 _symmetry_equiv_pos_as_xyz
  1  'x, y, z'
loop_
 _atom_site_type_symbol
 _atom_site_label
 _atom_site_symmetry_multiplicity
 _atom_site_fract_x
 _atom_site_fract_y
 _atom_site_fract_z
 _atom_site_occupancy
  Ce  Ce0  1  0.250000  0.268406  0.670333  1
  Ce  Ce1  1  0.750000  0.731693  0.329543  1
  Ce  Ce2  1  0.250000  0.769038  0.828741  1
  Nd  Nd3  1  0.750000  0.229619  0.169699  1
  P  P4  1  0.250000  0.094084  0.967871  1
  P  P5  1  0.750000  0.904996  0.030615  1
  P  P6  1  0.250000  0.594601  0.531438  1
  P  P7  1  0.750000  0.406147  0.469718  1
  P  P8  1  0.250000  0.528814  0.161270  1
  P  P9  1  0.750000  0.469514  0.838592  1
  P  P10  1  0.250000  0.031472  0.340311  1
  P  P11  1  0.750000  0.969803  0.660837  1
  Ru  Ru12  1  0.750000  0.109265  0.454574  1
  Ru  Ru13  1  0.250000  0.890454  0.549181  1
  Ru  Ru14  1  0.750000  0.609710  0.045553  1
  Ru  Ru15  1  0.250000  0.391927  0.950417  1
  Ru  Ru16  1  0.250000  0.866482  0.132344  1
  Ru  Ru17  1  0.750000  0.131908  0.865617  1
  Ru  Ru18  1  0.250000  0.369861  0.369943  1
  Ru  Ru19  1  0.750000  0.632207  0.633405  1
