# generated using pymatgen
data_K2Si3MoO9
_symmetry_space_group_name_H-M   'P 1'
_cell_length_a   6.94919200
_cell_length_b   6.94919124
_cell_length_c   10.28584400
_cell_angle_alpha   90.00000000
_cell_angle_beta   90.00000000
_cell_angle_gamma   119.99999420
_symmetry_Int_Tables_number   1
_chemical_formula_structural   K2Si3MoO9
_chemical_formula_sum   'K4 Si6 Mo2 O18'
_cell_volume   430.16905444
_cell_formula_units_Z   2
loop_
 _symmetry_equiv_pos_site_id
 _symmetry_equiv_pos_as_xyz
  1  'x, y, z'
loop_
 _atom_site_type_symbol
 _atom_site_label
 _atom_site_symmetry_multiplicity
 _atom_site_fract_x
 _atom_site_fract_y
 _atom_site_fract_z
 _atom_site_occupancy
  K  K0  1  0.333333  0.666667  0.057093  1
  K  K1  1  0.666667  0.333333  0.557093  1
  K  K2  1  0.333333  0.666667  0.442907  1
  K  K3  1  0.666667  0.333333  0.942907  1
  Si  Si4  1  0.618217  0.746497  0.750000  1
  Si  Si5  1  0.871720  0.618217  0.250000  1
  Si  Si6  1  0.746497  0.128280  0.250000  1
  Si  Si7  1  0.253503  0.871720  0.750000  1
  Si  Si8  1  0.128280  0.381783  0.750000  1
  Si  Si9  1  0.381783  0.253503  0.250000  1
  Mo  Mo10  1  0.000000  0.000000  0.000000  1
  Mo  Mo11  1  0.000000  0.000000  0.500000  1
  O  O12  1  0.250769  0.232923  0.383881  1
  O  O13  1  0.017845  0.250769  0.883881  1
  O  O14  1  0.232923  0.982155  0.883881  1
  O  O15  1  0.767077  0.017845  0.383881  1
  O  O16  1  0.982155  0.749231  0.383881  1
  O  O17  1  0.749231  0.767077  0.883881  1
  O  O18  1  0.749231  0.767077  0.616119  1
  O  O19  1  0.982155  0.749231  0.116119  1
  O  O20  1  0.767077  0.017845  0.116119  1
  O  O21  1  0.232923  0.982155  0.616119  1
  O  O22  1  0.017845  0.250769  0.616119  1
  O  O23  1  0.250769  0.232923  0.116119  1
  O  O24  1  0.487297  0.085336  0.250000  1
  O  O25  1  0.401961  0.487297  0.750000  1
  O  O26  1  0.085336  0.598039  0.750000  1
  O  O27  1  0.914664  0.401961  0.250000  1
  O  O28  1  0.598039  0.512703  0.250000  1
  O  O29  1  0.512703  0.914664  0.750000  1
