# generated using pymatgen
data_Li(VPt4)3
_symmetry_space_group_name_H-M   'P 1'
_cell_length_a   5.53260200
_cell_length_b   5.53260124
_cell_length_c   9.00193400
_cell_angle_alpha   90.00000000
_cell_angle_beta   90.00000000
_cell_angle_gamma   120.00000456
_symmetry_Int_Tables_number   1
_chemical_formula_structural   Li(VPt4)3
_chemical_formula_sum   'Li1 V3 Pt12'
_cell_volume   238.63010652
_cell_formula_units_Z   1
loop_
 _symmetry_equiv_pos_site_id
 _symmetry_equiv_pos_as_xyz
  1  'x, y, z'
loop_
 _atom_site_type_symbol
 _atom_site_label
 _atom_site_symmetry_multiplicity
 _atom_site_fract_x
 _atom_site_fract_y
 _atom_site_fract_z
 _atom_site_occupancy
  Li  Li0  1  0.333333  0.666667  0.250000  1
  V  V1  1  0.000000  0.000000  0.493636  1
  V  V2  1  0.000000  0.000000  0.006364  1
  V  V3  1  0.666667  0.333333  0.750000  1
  Pt  Pt4  1  0.501756  0.498244  0.502295  1
  Pt  Pt5  1  0.501756  0.003511  0.502295  1
  Pt  Pt6  1  0.996489  0.498244  0.502295  1
  Pt  Pt7  1  0.501756  0.498244  0.997705  1
  Pt  Pt8  1  0.501756  0.003511  0.997705  1
  Pt  Pt9  1  0.996489  0.498244  0.997705  1
  Pt  Pt10  1  0.834811  0.669623  0.250000  1
  Pt  Pt11  1  0.330377  0.165189  0.250000  1
  Pt  Pt12  1  0.834811  0.165189  0.250000  1
  Pt  Pt13  1  0.165070  0.330140  0.750000  1
  Pt  Pt14  1  0.669860  0.834930  0.750000  1
  Pt  Pt15  1  0.165070  0.834930  0.750000  1
