# generated using pymatgen
data_Mo(WN2)3
_symmetry_space_group_name_H-M   'P 1'
_cell_length_a   5.01050724
_cell_length_b   5.01465847
_cell_length_c   5.38355619
_cell_angle_alpha   80.68352525
_cell_angle_beta   81.04471420
_cell_angle_gamma   119.69172868
_symmetry_Int_Tables_number   1
_chemical_formula_structural   Mo(WN2)3
_chemical_formula_sum   'Mo1 W3 N6'
_cell_volume   111.48190475
_cell_formula_units_Z   1
loop_
 _symmetry_equiv_pos_site_id
 _symmetry_equiv_pos_as_xyz
  1  'x, y, z'
loop_
 _atom_site_type_symbol
 _atom_site_label
 _atom_site_symmetry_multiplicity
 _atom_site_fract_x
 _atom_site_fract_y
 _atom_site_fract_z
 _atom_site_occupancy
  Mo  Mo0  1  0.330995  0.994888  0.007242  1
  W  W1  1  0.676858  0.677742  0.984275  1
  W  W2  1  0.993454  0.330833  0.009571  1
  W  W3  1  0.492366  0.489286  0.523455  1
  N  N4  1  0.090107  0.093906  0.750223  1
  N  N5  1  0.410592  0.741936  0.747843  1
  N  N6  1  0.748823  0.414699  0.747868  1
  N  N7  1  0.264607  0.576962  0.249243  1
  N  N8  1  0.899711  0.904349  0.251817  1
  N  N9  1  0.585150  0.268062  0.250463  1
