# generated using pymatgen
data_Sm2P7Ru11Pt
_symmetry_space_group_name_H-M   'P 1'
_cell_length_a   9.39602992
_cell_length_b   9.50839028
_cell_length_c   3.97030800
_cell_angle_alpha   90.00000000
_cell_angle_beta   90.00000000
_cell_angle_gamma   119.38405850
_symmetry_Int_Tables_number   1
_chemical_formula_structural   Sm2P7Ru11Pt
_chemical_formula_sum   'Sm2 P7 Ru11 Pt1'
_cell_volume   309.07822222
_cell_formula_units_Z   1
loop_
 _symmetry_equiv_pos_site_id
 _symmetry_equiv_pos_as_xyz
  1  'x, y, z'
loop_
 _atom_site_type_symbol
 _atom_site_label
 _atom_site_symmetry_multiplicity
 _atom_site_fract_x
 _atom_site_fract_y
 _atom_site_fract_z
 _atom_site_occupancy
  Sm  Sm0  1  0.670345  0.336336  0.500000  1
  Sm  Sm1  1  0.329470  0.659779  0.000000  1
  P  P2  1  0.599578  0.702861  0.500000  1
  P  P3  1  0.997830  0.000325  0.000000  1
  P  P4  1  0.272684  0.880455  0.500000  1
  P  P5  1  0.114485  0.399531  0.500000  1
  P  P6  1  0.890006  0.581866  0.000000  1
  P  P7  1  0.424806  0.309084  0.000000  1
  P  P8  1  0.705587  0.125083  0.000000  1
  Ru  Ru9  1  0.388284  0.435599  0.500000  1
  Ru  Ru10  1  0.909312  0.127478  0.500000  1
  Ru  Ru11  1  0.210777  0.086641  0.500000  1
  Ru  Ru12  1  0.876653  0.794777  0.500000  1
  Ru  Ru13  1  0.725647  0.893531  0.000000  1
  Ru  Ru14  1  0.111907  0.841144  0.000000  1
  Ru  Ru15  1  0.161485  0.267625  0.000000  1
  Ru  Ru16  1  0.432768  0.067387  0.000000  1
  Ru  Ru17  1  0.940547  0.366434  0.000000  1
  Ru  Ru18  1  0.640762  0.576019  0.000000  1
  Ru  Ru19  1  0.050324  0.610586  0.500000  1
  Pt  Pt20  1  0.546742  0.937460  0.500000  1
