# generated using pymatgen
data_KNdVN3
_symmetry_space_group_name_H-M   'P 1'
_cell_length_a   6.20044200
_cell_length_b   6.20044144
_cell_length_c   12.12417300
_cell_angle_alpha   90.00000000
_cell_angle_beta   90.00000000
_cell_angle_gamma   54.64398436
_symmetry_Int_Tables_number   1
_chemical_formula_structural   KNdVN3
_chemical_formula_sum   'K4 Nd4 V4 N12'
_cell_volume   380.15422950
_cell_formula_units_Z   4
loop_
 _symmetry_equiv_pos_site_id
 _symmetry_equiv_pos_as_xyz
  1  'x, y, z'
loop_
 _atom_site_type_symbol
 _atom_site_label
 _atom_site_symmetry_multiplicity
 _atom_site_fract_x
 _atom_site_fract_y
 _atom_site_fract_z
 _atom_site_occupancy
  K  K0  1  0.039057  0.039057  0.147383  1
  K  K1  1  0.460944  0.460944  0.647384  1
  K  K2  1  0.960943  0.960943  0.852617  1
  K  K3  1  0.539056  0.539056  0.352617  1
  Nd  Nd4  1  0.856211  0.856211  0.416545  1
  Nd  Nd5  1  0.643789  0.643789  0.916545  1
  Nd  Nd6  1  0.143789  0.143789  0.583455  1
  Nd  Nd7  1  0.356211  0.356211  0.083455  1
  V  V8  1  0.229071  0.229071  0.338530  1
  V  V9  1  0.270929  0.270929  0.838531  1
  V  V10  1  0.770930  0.770930  0.661469  1
  V  V11  1  0.729071  0.729071  0.161470  1
  N  N12  1  0.317920  0.317920  0.457586  1
  N  N13  1  0.182081  0.182081  0.957586  1
  N  N14  1  0.682080  0.682080  0.542414  1
  N  N15  1  0.817919  0.817919  0.042414  1
  N  N16  1  0.075140  0.075140  0.385562  1
  N  N17  1  0.424859  0.424859  0.885563  1
  N  N18  1  0.924859  0.924859  0.614437  1
  N  N19  1  0.575141  0.575141  0.114438  1
  N  N20  1  0.526082  0.026081  0.250000  1
  N  N21  1  0.973918  0.473918  0.750000  1
  N  N22  1  0.473918  0.973918  0.750000  1
  N  N23  1  0.026081  0.526082  0.250000  1
