# generated using pymatgen
data_Tm2USn3IrRh2
_symmetry_space_group_name_H-M   'P 1'
_cell_length_a   7.48063710
_cell_length_b   7.58128803
_cell_length_c   3.85885100
_cell_angle_alpha   90.00000000
_cell_angle_beta   90.00000000
_cell_angle_gamma   120.57613425
_symmetry_Int_Tables_number   1
_chemical_formula_structural   Tm2USn3IrRh2
_chemical_formula_sum   'Tm2 U1 Sn3 Ir1 Rh2'
_cell_volume   188.41676131
_cell_formula_units_Z   1
loop_
 _symmetry_equiv_pos_site_id
 _symmetry_equiv_pos_as_xyz
  1  'x, y, z'
loop_
 _atom_site_type_symbol
 _atom_site_label
 _atom_site_symmetry_multiplicity
 _atom_site_fract_x
 _atom_site_fract_y
 _atom_site_fract_z
 _atom_site_occupancy
  Tm  Tm0  1  0.596064  0.591970  0.000000  1
  Tm  Tm1  1  0.407181  0.003400  0.000000  1
  U  U2  1  0.998914  0.414591  0.000000  1
  Sn  Sn3  1  0.271469  0.260057  0.500000  1
  Sn  Sn4  1  0.002770  0.756419  0.500000  1
  Sn  Sn5  1  0.725222  0.983474  0.500000  1
  Ir  Ir6  1  0.695172  0.336191  0.500000  1
  Rh  Rh7  1  0.304362  0.640588  0.500000  1
  Rh  Rh8  1  0.998845  0.013311  0.000000  1
