# generated using pymatgen
data_Ho6Er(TmSn2)3
_symmetry_space_group_name_H-M   'P 1'
_cell_length_a   8.90176800
_cell_length_b   8.90176867
_cell_length_c   6.48259000
_cell_angle_alpha   90.00000000
_cell_angle_beta   90.00000000
_cell_angle_gamma   119.99999751
_symmetry_Int_Tables_number   1
_chemical_formula_structural   Ho6Er(TmSn2)3
_chemical_formula_sum   'Ho6 Er1 Tm3 Sn6'
_cell_volume   444.86862033
_cell_formula_units_Z   1
loop_
 _symmetry_equiv_pos_site_id
 _symmetry_equiv_pos_as_xyz
  1  'x, y, z'
loop_
 _atom_site_type_symbol
 _atom_site_label
 _atom_site_symmetry_multiplicity
 _atom_site_fract_x
 _atom_site_fract_y
 _atom_site_fract_z
 _atom_site_occupancy
  Ho  Ho0  1  0.999982  0.761582  0.749987  1
  Ho  Ho1  1  0.999982  0.238400  0.250013  1
  Ho  Ho2  1  0.761600  0.761582  0.250013  1
  Ho  Ho3  1  0.761600  0.000018  0.749987  1
  Ho  Ho4  1  0.238418  0.238400  0.749987  1
  Ho  Ho5  1  0.238418  0.000018  0.250013  1
  Er  Er6  1  0.333333  0.666667  0.000000  1
  Tm  Tm7  1  0.333333  0.666667  0.500000  1
  Tm  Tm8  1  0.666667  0.333333  0.000000  1
  Tm  Tm9  1  0.666667  0.333333  0.500000  1
  Sn  Sn10  1  0.395400  0.000059  0.749958  1
  Sn  Sn11  1  0.395400  0.395341  0.250042  1
  Sn  Sn12  1  0.999941  0.604600  0.250042  1
  Sn  Sn13  1  0.999941  0.395341  0.749958  1
  Sn  Sn14  1  0.604659  0.604600  0.749958  1
  Sn  Sn15  1  0.604659  0.000059  0.250042  1
