# generated using pymatgen
data_Sm2Mn8CoMoP6
_symmetry_space_group_name_H-M   'P 1'
_cell_length_a   3.69257500
_cell_length_b   10.63848800
_cell_length_c   12.25425900
_cell_angle_alpha   90.00000000
_cell_angle_beta   90.00000000
_cell_angle_gamma   90.00000000
_symmetry_Int_Tables_number   1
_chemical_formula_structural   Sm2Mn8CoMoP6
_chemical_formula_sum   'Sm4 Mn16 Co2 Mo2 P12'
_cell_volume   481.38913969
_cell_formula_units_Z   2
loop_
 _symmetry_equiv_pos_site_id
 _symmetry_equiv_pos_as_xyz
  1  'x, y, z'
loop_
 _atom_site_type_symbol
 _atom_site_label
 _atom_site_symmetry_multiplicity
 _atom_site_fract_x
 _atom_site_fract_y
 _atom_site_fract_z
 _atom_site_occupancy
  Sm  Sm0  1  0.250000  0.585933  0.707651  1
  Sm  Sm1  1  0.250000  0.914067  0.207651  1
  Sm  Sm2  1  0.750000  0.416132  0.292231  1
  Sm  Sm3  1  0.750000  0.083868  0.792231  1
  Mn  Mn4  1  0.750000  0.291913  0.011955  1
  Mn  Mn5  1  0.750000  0.208087  0.511955  1
  Mn  Mn6  1  0.250000  0.406135  0.495065  1
  Mn  Mn7  1  0.250000  0.093865  0.995065  1
  Mn  Mn8  1  0.750000  0.588951  0.507303  1
  Mn  Mn9  1  0.750000  0.911049  0.007303  1
  Mn  Mn10  1  0.250000  0.216158  0.174917  1
  Mn  Mn11  1  0.250000  0.283842  0.674917  1
  Mn  Mn12  1  0.750000  0.785717  0.822387  1
  Mn  Mn13  1  0.750000  0.714283  0.322387  1
  Mn  Mn14  1  0.250000  0.880045  0.697956  1
  Mn  Mn15  1  0.250000  0.619955  0.197956  1
  Mn  Mn16  1  0.750000  0.123001  0.302407  1
  Mn  Mn17  1  0.750000  0.376999  0.802407  1
  Mn  Mn18  1  0.250000  0.461599  0.935935  1
  Mn  Mn19  1  0.250000  0.038401  0.435935  1
  Co  Co20  1  0.750000  0.532969  0.066137  1
  Co  Co21  1  0.750000  0.967031  0.566137  1
  Mo  Mo22  1  0.250000  0.705322  0.984956  1
  Mo  Mo23  1  0.250000  0.794678  0.484956  1
  P  P24  1  0.250000  0.419942  0.112192  1
  P  P25  1  0.250000  0.080058  0.612192  1
  P  P26  1  0.750000  0.576754  0.888077  1
  P  P27  1  0.750000  0.923246  0.388077  1
  P  P28  1  0.250000  0.265593  0.869999  1
  P  P29  1  0.250000  0.234407  0.369999  1
  P  P30  1  0.750000  0.729636  0.130009  1
  P  P31  1  0.750000  0.770364  0.630009  1
  P  P32  1  0.250000  0.592808  0.387541  1
  P  P33  1  0.250000  0.907192  0.887541  1
  P  P34  1  0.750000  0.403216  0.613284  1
  P  P35  1  0.750000  0.096784  0.113284  1
