# generated using pymatgen
data_NdHo5Al24(Os3Pt)2
_symmetry_space_group_name_H-M   'P 1'
_cell_length_a   8.82061400
_cell_length_b   8.85542025
_cell_length_c   9.58411895
_cell_angle_alpha   89.84064397
_cell_angle_beta   90.00000000
_cell_angle_gamma   119.87006498
_symmetry_Int_Tables_number   1
_chemical_formula_structural   NdHo5Al24(Os3Pt)2
_chemical_formula_sum   'Nd1 Ho5 Al24 Os6 Pt2'
_cell_volume   649.16594007
_cell_formula_units_Z   1
loop_
 _symmetry_equiv_pos_site_id
 _symmetry_equiv_pos_as_xyz
  1  'x, y, z'
loop_
 _atom_site_type_symbol
 _atom_site_label
 _atom_site_symmetry_multiplicity
 _atom_site_fract_x
 _atom_site_fract_y
 _atom_site_fract_z
 _atom_site_occupancy
  Nd  Nd0  1  0.190131  0.380263  0.251027  1
  Ho  Ho1  1  0.807472  0.614945  0.746811  1
  Ho  Ho2  1  0.612523  0.809728  0.253105  1
  Ho  Ho3  1  0.387679  0.190961  0.747112  1
  Ho  Ho4  1  0.197205  0.809728  0.253105  1
  Ho  Ho5  1  0.803282  0.190961  0.747112  1
  Al  Al6  1  0.336305  0.672610  0.024530  1
  Al  Al7  1  0.664592  0.329183  0.972547  1
  Al  Al8  1  0.666826  0.333650  0.524151  1
  Al  Al9  1  0.333743  0.667488  0.478228  1
  Al  Al10  1  0.163631  0.327263  0.576788  1
  Al  Al11  1  0.836567  0.673134  0.425826  1
  Al  Al12  1  0.672370  0.835599  0.576209  1
  Al  Al13  1  0.838262  0.676524  0.078125  1
  Al  Al14  1  0.328922  0.163884  0.425739  1
  Al  Al15  1  0.161691  0.323380  0.919024  1
  Al  Al16  1  0.163229  0.835599  0.576209  1
  Al  Al17  1  0.326528  0.157720  0.076550  1
  Al  Al18  1  0.834962  0.163884  0.425739  1
  Al  Al19  1  0.674527  0.841712  0.921754  1
  Al  Al20  1  0.831192  0.157720  0.076550  1
  Al  Al21  1  0.167185  0.841712  0.921754  1
  Al  Al22  1  0.561787  0.123575  0.249104  1
  Al  Al23  1  0.438427  0.876853  0.751135  1
  Al  Al24  1  0.873784  0.438622  0.252128  1
  Al  Al25  1  0.124656  0.562494  0.748339  1
  Al  Al26  1  0.564837  0.438622  0.252128  1
  Al  Al27  1  0.437839  0.562494  0.748339  1
  Al  Al28  1  0.998600  0.997202  0.250351  1
  Al  Al29  1  0.998876  0.997751  0.749694  1
  Os  Os30  1  0.500377  0.000754  0.999662  1
  Os  Os31  1  0.500266  0.000532  0.500610  1
  Os  Os32  1  0.999260  0.500742  0.501273  1
  Os  Os33  1  0.501482  0.500742  0.501273  1
  Os  Os34  1  0.999960  0.999920  0.999839  1
  Os  Os35  1  0.000022  0.000044  0.500190  1
  Pt  Pt36  1  0.999257  0.501003  0.998971  1
  Pt  Pt37  1  0.501746  0.501003  0.998971  1
