# generated using pymatgen
data_LiTb8HgIr2
_symmetry_space_group_name_H-M   'P 1'
_cell_length_a   9.72219753
_cell_length_b   9.68565212
_cell_length_c   9.68565260
_cell_angle_alpha   59.83196525
_cell_angle_beta   59.87510875
_cell_angle_gamma   59.87510292
_symmetry_Int_Tables_number   1
_chemical_formula_structural   LiTb8HgIr2
_chemical_formula_sum   'Li2 Tb16 Hg2 Ir4'
_cell_volume   642.88351709
_cell_formula_units_Z   2
loop_
 _symmetry_equiv_pos_site_id
 _symmetry_equiv_pos_as_xyz
  1  'x, y, z'
loop_
 _atom_site_type_symbol
 _atom_site_label
 _atom_site_symmetry_multiplicity
 _atom_site_fract_x
 _atom_site_fract_y
 _atom_site_fract_z
 _atom_site_occupancy
  Li  Li0  1  0.325985  0.318628  0.318628  1
  Li  Li1  1  0.036757  0.318628  0.318628  1
  Tb  Tb2  1  0.096570  0.710016  0.096846  1
  Tb  Tb3  1  0.939298  0.936939  0.563327  1
  Tb  Tb4  1  0.939298  0.563327  0.936939  1
  Tb  Tb5  1  0.313114  0.689611  0.311892  1
  Tb  Tb6  1  0.934636  0.565364  0.565364  1
  Tb  Tb7  1  0.313114  0.311892  0.689611  1
  Tb  Tb8  1  0.099900  0.099526  0.099526  1
  Tb  Tb9  1  0.560436  0.563327  0.936939  1
  Tb  Tb10  1  0.096570  0.096846  0.710016  1
  Tb  Tb11  1  0.685383  0.311892  0.689611  1
  Tb  Tb12  1  0.685383  0.689611  0.311892  1
  Tb  Tb13  1  0.689617  0.310383  0.310383  1
  Tb  Tb14  1  0.314128  0.685872  0.685872  1
  Tb  Tb15  1  0.560436  0.936939  0.563327  1
  Tb  Tb16  1  0.701048  0.099526  0.099526  1
  Tb  Tb17  1  0.557846  0.942154  0.942154  1
  Hg  Hg18  1  0.331409  0.996405  0.340777  1
  Hg  Hg19  1  0.331409  0.340777  0.996405  1
  Ir  Ir20  1  0.887048  0.894709  0.894709  1
  Ir  Ir21  1  0.888539  0.896831  0.326092  1
  Ir  Ir22  1  0.323534  0.894709  0.894709  1
  Ir  Ir23  1  0.888539  0.326092  0.896831  1
