# generated using pymatgen
data_KSb(CO3)2
_symmetry_space_group_name_H-M   'P 1'
_cell_length_a   6.79352728
_cell_length_b   6.79353678
_cell_length_c   7.43451245
_cell_angle_alpha   105.25955183
_cell_angle_beta   105.25962857
_cell_angle_gamma   99.23443273
_symmetry_Int_Tables_number   1
_chemical_formula_structural   KSb(CO3)2
_chemical_formula_sum   'K2 Sb2 C4 O12'
_cell_volume   309.46806139
_cell_formula_units_Z   2
loop_
 _symmetry_equiv_pos_site_id
 _symmetry_equiv_pos_as_xyz
  1  'x, y, z'
loop_
 _atom_site_type_symbol
 _atom_site_label
 _atom_site_symmetry_multiplicity
 _atom_site_fract_x
 _atom_site_fract_y
 _atom_site_fract_z
 _atom_site_occupancy
  K  K0  1  0.869774  0.130228  0.249996  1
  K  K1  1  0.130208  0.869796  0.750003  1
  Sb  Sb2  1  0.433377  0.566624  0.250001  1
  Sb  Sb3  1  0.566625  0.433374  0.749997  1
  C  C4  1  0.395618  0.162091  0.226455  1
  C  C5  1  0.837911  0.604374  0.273541  1
  C  C6  1  0.162091  0.395623  0.726459  1
  C  C7  1  0.604379  0.837912  0.773544  1
  O  O8  1  0.669554  0.473243  0.120900  1
  O  O9  1  0.257757  0.219852  0.102019  1
  O  O10  1  0.414591  0.979643  0.206633  1
  O  O11  1  0.020356  0.585405  0.293367  1
  O  O12  1  0.780146  0.742237  0.397979  1
  O  O13  1  0.526752  0.330446  0.379099  1
  O  O14  1  0.473246  0.669552  0.620900  1
  O  O15  1  0.219855  0.257759  0.602021  1
  O  O16  1  0.979648  0.414590  0.706638  1
  O  O17  1  0.585411  0.020353  0.793368  1
  O  O18  1  0.742244  0.780142  0.897977  1
  O  O19  1  0.330451  0.526754  0.879100  1
