# generated using pymatgen
data_TiNb6CdS12
_symmetry_space_group_name_H-M   'P 1'
_cell_length_a   5.82787900
_cell_length_b   5.82788039
_cell_length_c   13.02560900
_cell_angle_alpha   90.00000000
_cell_angle_beta   90.00000000
_cell_angle_gamma   120.00000915
_symmetry_Int_Tables_number   1
_chemical_formula_structural   TiNb6CdS12
_chemical_formula_sum   'Ti1 Nb6 Cd1 S12'
_cell_volume   383.13319828
_cell_formula_units_Z   1
loop_
 _symmetry_equiv_pos_site_id
 _symmetry_equiv_pos_as_xyz
  1  'x, y, z'
loop_
 _atom_site_type_symbol
 _atom_site_label
 _atom_site_symmetry_multiplicity
 _atom_site_fract_x
 _atom_site_fract_y
 _atom_site_fract_z
 _atom_site_occupancy
  Ti  Ti0  1  0.666667  0.333333  0.750000  1
  Nb  Nb1  1  0.000000  0.000000  0.513404  1
  Nb  Nb2  1  0.000000  0.000000  0.986596  1
  Nb  Nb3  1  0.333333  0.666667  0.985489  1
  Nb  Nb4  1  0.666667  0.333333  0.988373  1
  Nb  Nb5  1  0.666667  0.333333  0.511627  1
  Nb  Nb6  1  0.333333  0.666667  0.514511  1
  Cd  Cd7  1  0.333333  0.666667  0.250000  1
  S  S8  1  0.331655  0.328458  0.391762  1
  S  S9  1  0.671542  0.003198  0.391762  1
  S  S10  1  0.996802  0.668345  0.391762  1
  S  S11  1  0.333434  0.333423  0.634626  1
  S  S12  1  0.999989  0.666566  0.634626  1
  S  S13  1  0.666577  0.000011  0.634626  1
  S  S14  1  0.666577  0.666566  0.865374  1
  S  S15  1  0.333434  0.000011  0.865374  1
  S  S16  1  0.999989  0.333423  0.865374  1
  S  S17  1  0.671542  0.668345  0.108238  1
  S  S18  1  0.996802  0.328458  0.108238  1
  S  S19  1  0.331655  0.003198  0.108238  1
