# generated using pymatgen
data_Ho4Si3Ir4
_symmetry_space_group_name_H-M   'P 1'
_cell_length_a   10.68156842
_cell_length_b   10.68156899
_cell_length_c   7.70436762
_cell_angle_alpha   71.75884924
_cell_angle_beta   71.75884753
_cell_angle_gamma   29.96369187
_symmetry_Int_Tables_number   1
_chemical_formula_structural   Ho4Si3Ir4
_chemical_formula_sum   'Ho8 Si6 Ir8'
_cell_volume   415.34827128
_cell_formula_units_Z   2
loop_
 _symmetry_equiv_pos_site_id
 _symmetry_equiv_pos_as_xyz
  1  'x, y, z'
loop_
 _atom_site_type_symbol
 _atom_site_label
 _atom_site_symmetry_multiplicity
 _atom_site_fract_x
 _atom_site_fract_y
 _atom_site_fract_z
 _atom_site_occupancy
  Ho  Ho0  1  0.791482  0.549781  0.598404  1
  Ho  Ho1  1  0.450219  0.208518  0.901596  1
  Ho  Ho2  1  0.208518  0.450219  0.401596  1
  Ho  Ho3  1  0.549781  0.791482  0.098404  1
  Ho  Ho4  1  0.788518  0.072501  0.170092  1
  Ho  Ho5  1  0.927499  0.211482  0.329908  1
  Ho  Ho6  1  0.211482  0.927499  0.829908  1
  Ho  Ho7  1  0.072501  0.788518  0.670092  1
  Si  Si8  1  0.959213  0.696894  0.057385  1
  Si  Si9  1  0.303106  0.040787  0.442615  1
  Si  Si10  1  0.040787  0.303106  0.942615  1
  Si  Si11  1  0.696894  0.959213  0.557385  1
  Si  Si12  1  0.605138  0.394862  0.750000  1
  Si  Si13  1  0.394862  0.605138  0.250000  1
  Ir  Ir14  1  0.589566  0.286889  0.525131  1
  Ir  Ir15  1  0.713111  0.410434  0.974869  1
  Ir  Ir16  1  0.410434  0.713111  0.474869  1
  Ir  Ir17  1  0.286889  0.589566  0.025131  1
  Ir  Ir18  1  0.632937  0.928257  0.307707  1
  Ir  Ir19  1  0.071743  0.367063  0.192293  1
  Ir  Ir20  1  0.367063  0.071743  0.692293  1
  Ir  Ir21  1  0.928257  0.632937  0.807707  1
