# generated using pymatgen
data_LaTa3FeCuH12
_symmetry_space_group_name_H-M   'P 1'
_cell_length_a   6.01488500
_cell_length_b   6.01488320
_cell_length_c   4.63030900
_cell_angle_alpha   90.00000000
_cell_angle_beta   90.00000000
_cell_angle_gamma   119.99999339
_symmetry_Int_Tables_number   1
_chemical_formula_structural   LaTa3FeCuH12
_chemical_formula_sum   'La1 Ta3 Fe1 Cu1 H12'
_cell_volume   145.07586270
_cell_formula_units_Z   1
loop_
 _symmetry_equiv_pos_site_id
 _symmetry_equiv_pos_as_xyz
  1  'x, y, z'
loop_
 _atom_site_type_symbol
 _atom_site_label
 _atom_site_symmetry_multiplicity
 _atom_site_fract_x
 _atom_site_fract_y
 _atom_site_fract_z
 _atom_site_occupancy
  La  La0  1  0.000000  0.000000  0.000000  1
  Ta  Ta1  1  0.500360  0.000720  0.500000  1
  Ta  Ta2  1  0.999280  0.499640  0.500000  1
  Ta  Ta3  1  0.500360  0.499640  0.500000  1
  Fe  Fe4  1  0.333333  0.666667  0.000000  1
  Cu  Cu5  1  0.666667  0.333333  0.000000  1
  H  H6  1  0.801356  0.602712  0.738567  1
  H  H7  1  0.208799  0.417598  0.235409  1
  H  H8  1  0.208799  0.791201  0.235409  1
  H  H9  1  0.801356  0.198644  0.261433  1
  H  H10  1  0.582402  0.791201  0.235409  1
  H  H11  1  0.397288  0.198644  0.261433  1
  H  H12  1  0.397288  0.198644  0.738567  1
  H  H13  1  0.208799  0.417598  0.764591  1
  H  H14  1  0.801356  0.198644  0.738567  1
  H  H15  1  0.582402  0.791201  0.764591  1
  H  H16  1  0.801356  0.602712  0.261433  1
  H  H17  1  0.208799  0.791201  0.764591  1
