# generated using pymatgen
data_Dy10Er6In4OsRh3
_symmetry_space_group_name_H-M   'P 1'
_cell_length_a   9.63913700
_cell_length_b   9.65831841
_cell_length_c   9.62665849
_cell_angle_alpha   60.00596389
_cell_angle_beta   59.69150256
_cell_angle_gamma   60.02820745
_symmetry_Int_Tables_number   1
_chemical_formula_structural   Dy10Er6In4OsRh3
_chemical_formula_sum   'Dy10 Er6 In4 Os1 Rh3'
_cell_volume   632.39585105
_cell_formula_units_Z   1
loop_
 _symmetry_equiv_pos_site_id
 _symmetry_equiv_pos_as_xyz
  1  'x, y, z'
loop_
 _atom_site_type_symbol
 _atom_site_label
 _atom_site_symmetry_multiplicity
 _atom_site_fract_x
 _atom_site_fract_y
 _atom_site_fract_z
 _atom_site_occupancy
  Dy  Dy0  1  0.188800  0.192469  0.810283  1
  Dy  Dy1  1  0.439272  0.060535  0.060919  1
  Dy  Dy2  1  0.435658  0.063513  0.435878  1
  Dy  Dy3  1  0.060636  0.436381  0.060699  1
  Dy  Dy4  1  0.648534  0.048989  0.648342  1
  Dy  Dy5  1  0.192325  0.807761  0.810697  1
  Dy  Dy6  1  0.060481  0.060215  0.439753  1
  Dy  Dy7  1  0.810720  0.192117  0.188218  1
  Dy  Dy8  1  0.811054  0.808128  0.192158  1
  Dy  Dy9  1  0.652279  0.648979  0.046031  1
  Er  Er10  1  0.650571  0.652594  0.651538  1
  Er  Er11  1  0.056764  0.438940  0.446998  1
  Er  Er12  1  0.046358  0.649387  0.651984  1
  Er  Er13  1  0.807542  0.194867  0.807771  1
  Er  Er14  1  0.444958  0.438361  0.058280  1
  Er  Er15  1  0.193581  0.806268  0.193450  1
  In  In16  1  0.417831  0.746831  0.418979  1
  In  In17  1  0.416695  0.417649  0.748923  1
  In  In18  1  0.748784  0.417541  0.416857  1
  In  In19  1  0.416790  0.415996  0.417204  1
  Os  Os20  1  0.857044  0.425046  0.854202  1
  Rh  Rh21  1  0.861304  0.856716  0.423903  1
  Rh  Rh22  1  0.423130  0.857522  0.860478  1
  Rh  Rh23  1  0.858887  0.863194  0.856453  1
