# generated using pymatgen
data_Er2Zr(InPd2)3
_symmetry_space_group_name_H-M   'P 1'
_cell_length_a   4.75363500
_cell_length_b   6.68608800
_cell_length_c   14.36983400
_cell_angle_alpha   90.00042556
_cell_angle_beta   89.99956375
_cell_angle_gamma   89.99931974
_symmetry_Int_Tables_number   1
_chemical_formula_structural   Er2Zr(InPd2)3
_chemical_formula_sum   'Er4 Zr2 In6 Pd12'
_cell_volume   456.71962309
_cell_formula_units_Z   2
loop_
 _symmetry_equiv_pos_site_id
 _symmetry_equiv_pos_as_xyz
  1  'x, y, z'
loop_
 _atom_site_type_symbol
 _atom_site_label
 _atom_site_symmetry_multiplicity
 _atom_site_fract_x
 _atom_site_fract_y
 _atom_site_fract_z
 _atom_site_occupancy
  Er  Er0  1  0.999991  0.500000  0.999278  1
  Er  Er1  1  0.500023  0.000000  0.166156  1
  Er  Er2  1  0.000048  0.500010  0.333817  1
  Er  Er3  1  0.500042  0.000001  0.500728  1
  Zr  Zr4  1  0.999962  0.499998  0.667159  1
  Zr  Zr5  1  0.499960  0.999995  0.832838  1
  In  In6  1  0.999999  0.999999  0.997977  1
  In  In7  1  0.500039  0.500003  0.166129  1
  In  In8  1  0.000054  0.000000  0.333876  1
  In  In9  1  0.500003  0.499998  0.502020  1
  In  In10  1  0.999878  0.999997  0.667935  1
  In  In11  1  0.499938  0.499999  0.832064  1
  Pd  Pd12  1  0.500004  0.245347  0.997565  1
  Pd  Pd13  1  0.499998  0.754647  0.997567  1
  Pd  Pd14  1  0.000041  0.250700  0.166614  1
  Pd  Pd15  1  0.000043  0.749303  0.166618  1
  Pd  Pd16  1  0.500088  0.249298  0.333393  1
  Pd  Pd17  1  0.500086  0.750703  0.333391  1
  Pd  Pd18  1  0.000014  0.254659  0.502441  1
  Pd  Pd19  1  0.000009  0.745346  0.502441  1
  Pd  Pd20  1  0.499921  0.255796  0.668716  1
  Pd  Pd21  1  0.499934  0.744207  0.668711  1
  Pd  Pd22  1  0.999962  0.244209  0.831279  1
  Pd  Pd23  1  0.999967  0.755783  0.831288  1
