# generated using pymatgen
data_Tb2PrBiO7
_symmetry_space_group_name_H-M   'P 1'
_cell_length_a   6.65445814
_cell_length_b   6.66367195
_cell_length_c   7.82398157
_cell_angle_alpha   106.98330814
_cell_angle_beta   89.89605427
_cell_angle_gamma   98.96447241
_symmetry_Int_Tables_number   1
_chemical_formula_structural   Tb2PrBiO7
_chemical_formula_sum   'Tb4 Pr2 Bi2 O14'
_cell_volume   327.40585697
_cell_formula_units_Z   2
loop_
 _symmetry_equiv_pos_site_id
 _symmetry_equiv_pos_as_xyz
  1  'x, y, z'
loop_
 _atom_site_type_symbol
 _atom_site_label
 _atom_site_symmetry_multiplicity
 _atom_site_fract_x
 _atom_site_fract_y
 _atom_site_fract_z
 _atom_site_occupancy
  Tb  Tb0  1  0.463894  0.004930  0.250833  1
  Tb  Tb1  1  0.536106  0.995070  0.749167  1
  Tb  Tb2  1  0.273214  0.538037  0.885115  1
  Tb  Tb3  1  0.726786  0.461963  0.114885  1
  Pr  Pr4  1  0.740628  0.481988  0.619317  1
  Pr  Pr5  1  0.259372  0.518012  0.380683  1
  Bi  Bi6  1  0.000000  0.000000  0.500000  1
  Bi  Bi7  1  0.000000  0.000000  0.000000  1
  O  O8  1  0.451177  0.651443  0.160463  1
  O  O9  1  0.548823  0.348557  0.839537  1
  O  O10  1  0.299827  0.924753  0.953513  1
  O  O11  1  0.700173  0.075247  0.046487  1
  O  O12  1  0.298296  0.930317  0.512625  1
  O  O13  1  0.701704  0.069683  0.487375  1
  O  O14  1  0.549247  0.358737  0.337119  1
  O  O15  1  0.450753  0.641263  0.662881  1
  O  O16  1  0.926431  0.667141  0.957885  1
  O  O17  1  0.073569  0.332859  0.042115  1
  O  O18  1  0.077524  0.341099  0.622850  1
  O  O19  1  0.922476  0.658901  0.377150  1
  O  O20  1  0.877268  0.909054  0.726507  1
  O  O21  1  0.122732  0.090946  0.273493  1
