# generated using pymatgen
data_Dy4Er2C2I7
_symmetry_space_group_name_H-M   'P 1'
_cell_length_a   11.00907839
_cell_length_b   11.00907824
_cell_length_c   12.83353735
_cell_angle_alpha   58.25425013
_cell_angle_beta   58.25425674
_cell_angle_gamma   20.68835742
_symmetry_Int_Tables_number   1
_chemical_formula_structural   Dy4Er2C2I7
_chemical_formula_sum   'Dy4 Er2 C2 I7'
_cell_volume   464.30647007
_cell_formula_units_Z   1
loop_
 _symmetry_equiv_pos_site_id
 _symmetry_equiv_pos_as_xyz
  1  'x, y, z'
loop_
 _atom_site_type_symbol
 _atom_site_label
 _atom_site_symmetry_multiplicity
 _atom_site_fract_x
 _atom_site_fract_y
 _atom_site_fract_z
 _atom_site_occupancy
  Dy  Dy0  1  0.237231  0.237231  0.806860  1
  Dy  Dy1  1  0.307864  0.307864  0.376513  1
  Dy  Dy2  1  0.135878  0.135878  0.446770  1
  Dy  Dy3  1  0.863328  0.863328  0.553585  1
  Er  Er4  1  0.693482  0.693482  0.622134  1
  Er  Er5  1  0.762092  0.762092  0.195642  1
  C  C6  1  0.280017  0.280017  0.595368  1
  C  C7  1  0.719034  0.719034  0.404741  1
  I  I8  1  0.160653  0.160653  0.178282  1
  I  I9  1  0.840696  0.840696  0.821122  1
  I  I10  1  0.059454  0.059454  0.720665  1
  I  I11  1  0.941835  0.941835  0.278511  1
  I  I12  1  0.500123  0.500123  0.499845  1
  I  I13  1  0.385253  0.385253  0.074435  1
  I  I14  1  0.613059  0.613059  0.925527  1
