# generated using pymatgen
data_DyHf(NbS2)8
_symmetry_space_group_name_H-M   'P 1'
_cell_length_a   6.72096200
_cell_length_b   6.72096165
_cell_length_c   13.36186600
_cell_angle_alpha   90.00000000
_cell_angle_beta   90.00000000
_cell_angle_gamma   119.99999189
_symmetry_Int_Tables_number   1
_chemical_formula_structural   DyHf(NbS2)8
_chemical_formula_sum   'Dy1 Hf1 Nb8 S16'
_cell_volume   522.70979256
_cell_formula_units_Z   1
loop_
 _symmetry_equiv_pos_site_id
 _symmetry_equiv_pos_as_xyz
  1  'x, y, z'
loop_
 _atom_site_type_symbol
 _atom_site_label
 _atom_site_symmetry_multiplicity
 _atom_site_fract_x
 _atom_site_fract_y
 _atom_site_fract_z
 _atom_site_occupancy
  Dy  Dy0  1  0.000000  0.000000  0.000000  1
  Hf  Hf1  1  0.000000  0.000000  0.500000  1
  Nb  Nb2  1  0.990159  0.495079  0.259097  1
  Nb  Nb3  1  0.009841  0.504921  0.740903  1
  Nb  Nb4  1  0.495079  0.504921  0.740903  1
  Nb  Nb5  1  0.504921  0.009841  0.259097  1
  Nb  Nb6  1  0.000000  0.000000  0.741440  1
  Nb  Nb7  1  0.000000  0.000000  0.258560  1
  Nb  Nb8  1  0.504921  0.495079  0.259097  1
  Nb  Nb9  1  0.495079  0.990159  0.740903  1
  S  S10  1  0.333333  0.666667  0.621621  1
  S  S11  1  0.666667  0.333333  0.138799  1
  S  S12  1  0.666667  0.333333  0.378379  1
  S  S13  1  0.333333  0.666667  0.861201  1
  S  S14  1  0.167791  0.335582  0.377699  1
  S  S15  1  0.831221  0.168779  0.858845  1
  S  S16  1  0.337558  0.168779  0.858845  1
  S  S17  1  0.664418  0.832209  0.377699  1
  S  S18  1  0.167791  0.832209  0.377699  1
  S  S19  1  0.831221  0.662442  0.858845  1
  S  S20  1  0.168779  0.337558  0.141155  1
  S  S21  1  0.832209  0.167791  0.622301  1
  S  S22  1  0.335582  0.167791  0.622301  1
  S  S23  1  0.662442  0.831221  0.141155  1
  S  S24  1  0.168779  0.831221  0.141155  1
  S  S25  1  0.832209  0.664418  0.622301  1
