# generated using pymatgen
data_Tm2Lu2ZrSc3Pt4
_symmetry_space_group_name_H-M   'P 1'
_cell_length_a   4.60336500
_cell_length_b   6.92628246
_cell_length_c   8.36017214
_cell_angle_alpha   90.72495426
_cell_angle_beta   90.00000000
_cell_angle_gamma   90.00000000
_symmetry_Int_Tables_number   1
_chemical_formula_structural   Tm2Lu2ZrSc3Pt4
_chemical_formula_sum   'Tm2 Lu2 Zr1 Sc3 Pt4'
_cell_volume   266.53611593
_cell_formula_units_Z   1
loop_
 _symmetry_equiv_pos_site_id
 _symmetry_equiv_pos_as_xyz
  1  'x, y, z'
loop_
 _atom_site_type_symbol
 _atom_site_label
 _atom_site_symmetry_multiplicity
 _atom_site_fract_x
 _atom_site_fract_y
 _atom_site_fract_z
 _atom_site_occupancy
  Tm  Tm0  1  0.750000  0.981948  0.323312  1
  Tm  Tm1  1  0.750000  0.483129  0.173093  1
  Lu  Lu2  1  0.250000  0.016194  0.676242  1
  Lu  Lu3  1  0.250000  0.516799  0.825646  1
  Zr  Zr4  1  0.750000  0.357319  0.573862  1
  Sc  Sc5  1  0.250000  0.143876  0.073585  1
  Sc  Sc6  1  0.250000  0.643866  0.425420  1
  Sc  Sc7  1  0.750000  0.857627  0.926532  1
  Pt  Pt8  1  0.250000  0.254940  0.405023  1
  Pt  Pt9  1  0.250000  0.753484  0.100753  1
  Pt  Pt10  1  0.750000  0.745565  0.599339  1
  Pt  Pt11  1  0.750000  0.245253  0.897192  1
