# generated using pymatgen
data_NdDy(ZrIr)2
_symmetry_space_group_name_H-M   'P 1'
_cell_length_a   4.60666100
_cell_length_b   7.16717800
_cell_length_c   8.42843900
_cell_angle_alpha   90.00000000
_cell_angle_beta   90.00000000
_cell_angle_gamma   90.00000000
_symmetry_Int_Tables_number   1
_chemical_formula_structural   NdDy(ZrIr)2
_chemical_formula_sum   'Nd2 Dy2 Zr4 Ir4'
_cell_volume   278.27974235
_cell_formula_units_Z   2
loop_
 _symmetry_equiv_pos_site_id
 _symmetry_equiv_pos_as_xyz
  1  'x, y, z'
loop_
 _atom_site_type_symbol
 _atom_site_label
 _atom_site_symmetry_multiplicity
 _atom_site_fract_x
 _atom_site_fract_y
 _atom_site_fract_z
 _atom_site_occupancy
  Nd  Nd0  1  0.750000  0.014292  0.677452  1
  Nd  Nd1  1  0.750000  0.514292  0.822548  1
  Dy  Dy2  1  0.250000  0.982709  0.321978  1
  Dy  Dy3  1  0.250000  0.482709  0.178022  1
  Zr  Zr4  1  0.250000  0.359694  0.568433  1
  Zr  Zr5  1  0.250000  0.859694  0.931567  1
  Zr  Zr6  1  0.750000  0.642882  0.418998  1
  Zr  Zr7  1  0.750000  0.142882  0.081002  1
  Ir  Ir8  1  0.250000  0.227820  0.916920  1
  Ir  Ir9  1  0.250000  0.727820  0.583080  1
  Ir  Ir10  1  0.750000  0.772601  0.094003  1
  Ir  Ir11  1  0.750000  0.272601  0.405997  1
