# generated using pymatgen
data_VFe7
_symmetry_space_group_name_H-M   'P 1'
_cell_length_a   4.04526480
_cell_length_b   4.04526449
_cell_length_c   6.97836995
_cell_angle_alpha   73.30719889
_cell_angle_beta   106.69279891
_cell_angle_gamma   119.92963412
_symmetry_Int_Tables_number   1
_chemical_formula_structural   VFe7
_chemical_formula_sum   'V1 Fe7'
_cell_volume   93.35975510
_cell_formula_units_Z   1
loop_
 _symmetry_equiv_pos_site_id
 _symmetry_equiv_pos_as_xyz
  1  'x, y, z'
loop_
 _atom_site_type_symbol
 _atom_site_label
 _atom_site_symmetry_multiplicity
 _atom_site_fract_x
 _atom_site_fract_y
 _atom_site_fract_z
 _atom_site_occupancy
  V  V0  1  0.875000  0.125000  0.625000  1
  Fe  Fe1  1  0.749717  0.250283  0.248856  1
  Fe  Fe2  1  0.250306  0.749694  0.751353  1
  Fe  Fe3  1  0.000283  0.999717  0.001144  1
  Fe  Fe4  1  0.499694  0.500306  0.498647  1
  Fe  Fe5  1  0.375000  0.625000  0.125000  1
  Fe  Fe6  1  0.124624  0.875376  0.373379  1
  Fe  Fe7  1  0.625376  0.374624  0.876621  1
