# generated using pymatgen
data_V5ReSiGe
_symmetry_space_group_name_H-M   'P 1'
_cell_length_a   4.72626600
_cell_length_b   4.69656100
_cell_length_c   4.81958100
_cell_angle_alpha   90.00000000
_cell_angle_beta   90.00000000
_cell_angle_gamma   90.00000000
_symmetry_Int_Tables_number   1
_chemical_formula_structural   V5ReSiGe
_chemical_formula_sum   'V5 Re1 Si1 Ge1'
_cell_volume   106.98118685
_cell_formula_units_Z   1
loop_
 _symmetry_equiv_pos_site_id
 _symmetry_equiv_pos_as_xyz
  1  'x, y, z'
loop_
 _atom_site_type_symbol
 _atom_site_label
 _atom_site_symmetry_multiplicity
 _atom_site_fract_x
 _atom_site_fract_y
 _atom_site_fract_z
 _atom_site_occupancy
  V  V0  1  0.500000  0.245068  0.996438  1
  V  V1  1  0.753727  0.000000  0.502238  1
  V  V2  1  0.000000  0.500000  0.249476  1
  V  V3  1  0.500000  0.754932  0.996438  1
  V  V4  1  0.246273  0.000000  0.502238  1
  Re  Re5  1  0.000000  0.500000  0.754602  1
  Si  Si6  1  0.000000  0.000000  0.008792  1
  Ge  Ge7  1  0.500000  0.500000  0.489780  1
