# generated using pymatgen
data_LiTm15LuIn3Rh4
_symmetry_space_group_name_H-M   'P 1'
_cell_length_a   9.52820621
_cell_length_b   9.52820720
_cell_length_c   9.52800219
_cell_angle_alpha   59.72367323
_cell_angle_beta   59.72367033
_cell_angle_gamma   59.75479049
_symmetry_Int_Tables_number   1
_chemical_formula_structural   LiTm15LuIn3Rh4
_chemical_formula_sum   'Li1 Tm15 Lu1 In3 Rh4'
_cell_volume   607.96428197
_cell_formula_units_Z   1
loop_
 _symmetry_equiv_pos_site_id
 _symmetry_equiv_pos_as_xyz
  1  'x, y, z'
loop_
 _atom_site_type_symbol
 _atom_site_label
 _atom_site_symmetry_multiplicity
 _atom_site_fract_x
 _atom_site_fract_y
 _atom_site_fract_z
 _atom_site_occupancy
  Li  Li0  1  0.822553  0.822553  0.822576  1
  Tm  Tm1  1  0.599413  0.599413  0.599488  1
  Tm  Tm2  1  0.600079  0.600079  0.201611  1
  Tm  Tm3  1  0.599918  0.201653  0.600221  1
  Tm  Tm4  1  0.201653  0.599918  0.600221  1
  Tm  Tm5  1  0.059396  0.440690  0.440906  1
  Tm  Tm6  1  0.437380  0.062860  0.062711  1
  Tm  Tm7  1  0.440690  0.059396  0.440906  1
  Tm  Tm8  1  0.062860  0.437380  0.062711  1
  Tm  Tm9  1  0.440774  0.440774  0.059407  1
  Tm  Tm10  1  0.062817  0.062817  0.437448  1
  Tm  Tm11  1  0.185472  0.813558  0.813361  1
  Tm  Tm12  1  0.812791  0.187871  0.187537  1
  Tm  Tm13  1  0.813558  0.185472  0.813361  1
  Tm  Tm14  1  0.187871  0.812791  0.187537  1
  Tm  Tm15  1  0.813355  0.813355  0.185394  1
  Lu  Lu16  1  0.187806  0.187806  0.812620  1
  In  In17  1  0.833388  0.833388  0.503079  1
  In  In18  1  0.833670  0.502757  0.833440  1
  In  In19  1  0.502757  0.833670  0.833440  1
  Rh  Rh20  1  0.393172  0.393172  0.393373  1
  Rh  Rh21  1  0.392513  0.392513  0.823468  1
  Rh  Rh22  1  0.392540  0.823578  0.392593  1
  Rh  Rh23  1  0.823578  0.392540  0.392593  1
