# generated using pymatgen
data_Tb3Ho2IrPb3
_symmetry_space_group_name_H-M   'P 1'
_cell_length_a   9.24979700
_cell_length_b   9.26120362
_cell_length_c   6.85477500
_cell_angle_alpha   90.00000000
_cell_angle_beta   90.00000000
_cell_angle_gamma   119.95926192
_symmetry_Int_Tables_number   1
_chemical_formula_structural   Tb3Ho2IrPb3
_chemical_formula_sum   'Tb6 Ho4 Ir2 Pb6'
_cell_volume   508.74669826
_cell_formula_units_Z   2
loop_
 _symmetry_equiv_pos_site_id
 _symmetry_equiv_pos_as_xyz
  1  'x, y, z'
loop_
 _atom_site_type_symbol
 _atom_site_label
 _atom_site_symmetry_multiplicity
 _atom_site_fract_x
 _atom_site_fract_y
 _atom_site_fract_z
 _atom_site_occupancy
  Tb  Tb0  1  0.999745  0.764808  0.750000  1
  Tb  Tb1  1  0.333151  0.666302  0.500000  1
  Tb  Tb2  1  0.765063  0.764808  0.250000  1
  Tb  Tb3  1  0.666447  0.332893  0.500000  1
  Tb  Tb4  1  0.333151  0.666302  0.000000  1
  Tb  Tb5  1  0.666447  0.332893  0.000000  1
  Ho  Ho6  1  0.764612  0.999303  0.750000  1
  Ho  Ho7  1  0.234691  0.999303  0.250000  1
  Ho  Ho8  1  0.235971  0.235523  0.750000  1
  Ho  Ho9  1  0.999552  0.235523  0.250000  1
  Ir  Ir10  1  0.001641  0.003282  0.000000  1
  Ir  Ir11  1  0.001641  0.003282  0.500000  1
  Pb  Pb12  1  0.403058  0.403851  0.250000  1
  Pb  Pb13  1  0.593795  0.593552  0.750000  1
  Pb  Pb14  1  0.595113  0.000487  0.250000  1
  Pb  Pb15  1  0.405374  0.000487  0.750000  1
  Pb  Pb16  1  0.999757  0.593552  0.250000  1
  Pb  Pb17  1  0.000793  0.403851  0.750000  1
