# generated using pymatgen
data_PrYHgIrO7
_symmetry_space_group_name_H-M   'P 1'
_cell_length_a   6.46484864
_cell_length_b   6.74564628
_cell_length_c   7.70638700
_cell_angle_alpha   90.00000000
_cell_angle_beta   90.00000000
_cell_angle_gamma   113.08485138
_symmetry_Int_Tables_number   1
_chemical_formula_structural   PrYHgIrO7
_chemical_formula_sum   'Pr2 Y2 Hg2 Ir2 O14'
_cell_volume   309.16139238
_cell_formula_units_Z   2
loop_
 _symmetry_equiv_pos_site_id
 _symmetry_equiv_pos_as_xyz
  1  'x, y, z'
loop_
 _atom_site_type_symbol
 _atom_site_label
 _atom_site_symmetry_multiplicity
 _atom_site_fract_x
 _atom_site_fract_y
 _atom_site_fract_z
 _atom_site_occupancy
  Pr  Pr0  1  0.000000  0.000000  0.000000  1
  Pr  Pr1  1  0.000000  0.000000  0.500000  1
  Y  Y2  1  0.955466  0.489146  0.750000  1
  Y  Y3  1  0.044534  0.510854  0.250000  1
  Hg  Hg4  1  0.484382  0.986535  0.750000  1
  Hg  Hg5  1  0.515618  0.013465  0.250000  1
  Ir  Ir6  1  0.500000  0.500000  0.000000  1
  Ir  Ir7  1  0.500000  0.500000  0.500000  1
  O  O8  1  0.597049  0.503542  0.750000  1
  O  O9  1  0.402951  0.496458  0.250000  1
  O  O10  1  0.838521  0.122227  0.750000  1
  O  O11  1  0.161479  0.877773  0.250000  1
  O  O12  1  0.129750  0.859270  0.750000  1
  O  O13  1  0.870250  0.140730  0.250000  1
  O  O14  1  0.424107  0.202185  0.004566  1
  O  O15  1  0.575893  0.797815  0.504566  1
  O  O16  1  0.168880  0.426974  0.968248  1
  O  O17  1  0.831120  0.573026  0.468248  1
  O  O18  1  0.424107  0.202185  0.495434  1
  O  O19  1  0.575893  0.797815  0.995434  1
  O  O20  1  0.831120  0.573026  0.031752  1
  O  O21  1  0.168880  0.426974  0.531752  1
