# generated using pymatgen
data_Ac7Tb12SmSn16
_symmetry_space_group_name_H-M   'P 1'
_cell_length_a   8.36042849
_cell_length_b   8.43168207
_cell_length_c   16.02063141
_cell_angle_alpha   90.01031695
_cell_angle_beta   90.13531425
_cell_angle_gamma   90.35763400
_symmetry_Int_Tables_number   1
_chemical_formula_structural   Ac7Tb12SmSn16
_chemical_formula_sum   'Ac7 Tb12 Sm1 Sn16'
_cell_volume   1129.30878832
_cell_formula_units_Z   1
loop_
 _symmetry_equiv_pos_site_id
 _symmetry_equiv_pos_as_xyz
  1  'x, y, z'
loop_
 _atom_site_type_symbol
 _atom_site_label
 _atom_site_symmetry_multiplicity
 _atom_site_fract_x
 _atom_site_fract_y
 _atom_site_fract_z
 _atom_site_occupancy
  Ac  Ac0  1  0.515517  0.320810  0.903783  1
  Ac  Ac1  1  0.014740  0.177222  0.596242  1
  Ac  Ac2  1  0.484791  0.677428  0.404064  1
  Ac  Ac3  1  0.983810  0.823760  0.094836  1
  Ac  Ac4  1  0.485384  0.678494  0.094692  1
  Ac  Ac5  1  0.984547  0.822374  0.404238  1
  Ac  Ac6  1  0.515862  0.321729  0.598090  1
  Tb  Tb7  1  0.361706  0.838820  0.878064  1
  Tb  Tb8  1  0.861333  0.661729  0.625400  1
  Tb  Tb9  1  0.638397  0.162268  0.377048  1
  Tb  Tb10  1  0.137012  0.336693  0.122413  1
  Tb  Tb11  1  0.636380  0.161345  0.121482  1
  Tb  Tb12  1  0.138753  0.337717  0.376402  1
  Tb  Tb13  1  0.360955  0.838243  0.624069  1
  Tb  Tb14  1  0.861978  0.662939  0.876507  1
  Tb  Tb15  1  0.196659  0.503523  0.751578  1
  Tb  Tb16  1  0.698297  0.996771  0.751721  1
  Tb  Tb17  1  0.802610  0.495189  0.249515  1
  Tb  Tb18  1  0.301904  0.004294  0.249377  1
  Sm  Sm19  1  0.019074  0.178381  0.900776  1
  Sn  Sn20  1  0.299232  0.047958  0.040390  1
  Sn  Sn21  1  0.807897  0.456327  0.456462  1
  Sn  Sn22  1  0.692220  0.954327  0.544636  1
  Sn  Sn23  1  0.189097  0.537396  0.955026  1
  Sn  Sn24  1  0.702694  0.962806  0.953585  1
  Sn  Sn25  1  0.192120  0.543985  0.544776  1
  Sn  Sn26  1  0.307622  0.044972  0.455990  1
  Sn  Sn27  1  0.809641  0.454020  0.042298  1
  Sn  Sn28  1  0.560170  0.631372  0.750942  1
  Sn  Sn29  1  0.060973  0.871972  0.751680  1
  Sn  Sn30  1  0.439487  0.367732  0.249085  1
  Sn  Sn31  1  0.938390  0.131562  0.249746  1
  Sn  Sn32  1  0.318083  0.135159  0.751979  1
  Sn  Sn33  1  0.829775  0.359352  0.754121  1
  Sn  Sn34  1  0.676801  0.865663  0.249500  1
  Sn  Sn35  1  0.176090  0.635669  0.249488  1
