# generated using pymatgen
data_HfTaGaFe3
_symmetry_space_group_name_H-M   'P 1'
_cell_length_a   4.93009800
_cell_length_b   4.93009790
_cell_length_c   8.09082200
_cell_angle_alpha   90.00000000
_cell_angle_beta   90.00000000
_cell_angle_gamma   120.00000065
_symmetry_Int_Tables_number   1
_chemical_formula_structural   HfTaGaFe3
_chemical_formula_sum   'Hf2 Ta2 Ga2 Fe6'
_cell_volume   170.30773439
_cell_formula_units_Z   2
loop_
 _symmetry_equiv_pos_site_id
 _symmetry_equiv_pos_as_xyz
  1  'x, y, z'
loop_
 _atom_site_type_symbol
 _atom_site_label
 _atom_site_symmetry_multiplicity
 _atom_site_fract_x
 _atom_site_fract_y
 _atom_site_fract_z
 _atom_site_occupancy
  Hf  Hf0  1  0.666667  0.333333  0.430500  1
  Hf  Hf1  1  0.333333  0.666667  0.569500  1
  Ta  Ta2  1  0.333333  0.666667  0.939100  1
  Ta  Ta3  1  0.666667  0.333333  0.060900  1
  Ga  Ga4  1  0.000000  0.000000  0.500000  1
  Ga  Ga5  1  0.000000  0.000000  0.000000  1
  Fe  Fe6  1  0.654121  0.827060  0.246452  1
  Fe  Fe7  1  0.172940  0.827060  0.246452  1
  Fe  Fe8  1  0.172940  0.345879  0.246452  1
  Fe  Fe9  1  0.345879  0.172940  0.753548  1
  Fe  Fe10  1  0.827060  0.172940  0.753548  1
  Fe  Fe11  1  0.827060  0.654121  0.753548  1
