# generated using pymatgen
data_Hf2Zr4Zn23As
_symmetry_space_group_name_H-M   'P 1'
_cell_length_a   8.77854254
_cell_length_b   8.78619685
_cell_length_c   8.78619733
_cell_angle_alpha   59.94237316
_cell_angle_beta   60.02881414
_cell_angle_gamma   60.02881340
_symmetry_Int_Tables_number   1
_chemical_formula_structural   Hf2Zr4Zn23As
_chemical_formula_sum   'Hf2 Zr4 Zn23 As1'
_cell_volume   479.19099251
_cell_formula_units_Z   1
loop_
 _symmetry_equiv_pos_site_id
 _symmetry_equiv_pos_as_xyz
  1  'x, y, z'
loop_
 _atom_site_type_symbol
 _atom_site_label
 _atom_site_symmetry_multiplicity
 _atom_site_fract_x
 _atom_site_fract_y
 _atom_site_fract_z
 _atom_site_occupancy
  Hf  Hf0  1  0.711167  0.288833  0.288833  1
  Hf  Hf1  1  0.288833  0.711167  0.711167  1
  Zr  Zr2  1  0.288112  0.711888  0.288112  1
  Zr  Zr3  1  0.711888  0.288112  0.711888  1
  Zr  Zr4  1  0.288112  0.288112  0.711888  1
  Zr  Zr5  1  0.711888  0.711888  0.288112  1
  Zn  Zn6  1  0.120966  0.123548  0.123548  1
  Zn  Zn7  1  0.879034  0.876452  0.876452  1
  Zn  Zn8  1  0.123548  0.120966  0.631938  1
  Zn  Zn9  1  0.123548  0.631938  0.120966  1
  Zn  Zn10  1  0.876452  0.879034  0.368062  1
  Zn  Zn11  1  0.876452  0.368062  0.879034  1
  Zn  Zn12  1  0.631938  0.123548  0.123548  1
  Zn  Zn13  1  0.368062  0.876452  0.876452  1
  Zn  Zn14  1  0.500000  0.000000  0.000000  1
  Zn  Zn15  1  0.000000  0.500000  0.500000  1
  Zn  Zn16  1  0.000000  0.500000  0.000000  1
  Zn  Zn17  1  0.500000  0.000000  0.500000  1
  Zn  Zn18  1  0.000000  0.000000  0.500000  1
  Zn  Zn19  1  0.500000  0.500000  0.000000  1
  Zn  Zn20  1  0.335006  0.334389  0.334389  1
  Zn  Zn21  1  0.664994  0.665611  0.665611  1
  Zn  Zn22  1  0.334389  0.335006  0.996219  1
  Zn  Zn23  1  0.334389  0.996219  0.335006  1
  Zn  Zn24  1  0.665611  0.664994  0.003781  1
  Zn  Zn25  1  0.665611  0.003781  0.664994  1
  Zn  Zn26  1  0.996219  0.334389  0.334389  1
  Zn  Zn27  1  0.003781  0.665611  0.665611  1
  Zn  Zn28  1  0.000000  0.000000  0.000000  1
  As  As29  1  0.500000  0.500000  0.500000  1
