# generated using pymatgen
data_Na2SrCdSb2
_symmetry_space_group_name_H-M   'P 1'
_cell_length_a   4.84649400
_cell_length_b   8.12539400
_cell_length_c   9.22740300
_cell_angle_alpha   90.00000000
_cell_angle_beta   90.00000000
_cell_angle_gamma   90.00000000
_symmetry_Int_Tables_number   1
_chemical_formula_structural   Na2SrCdSb2
_chemical_formula_sum   'Na4 Sr2 Cd2 Sb4'
_cell_volume   363.37211526
_cell_formula_units_Z   2
loop_
 _symmetry_equiv_pos_site_id
 _symmetry_equiv_pos_as_xyz
  1  'x, y, z'
loop_
 _atom_site_type_symbol
 _atom_site_label
 _atom_site_symmetry_multiplicity
 _atom_site_fract_x
 _atom_site_fract_y
 _atom_site_fract_z
 _atom_site_occupancy
  Na  Na0  1  0.500000  0.025527  0.417995  1
  Na  Na1  1  0.000000  0.355854  0.336197  1
  Na  Na2  1  0.500000  0.525527  0.582005  1
  Na  Na3  1  0.000000  0.855854  0.663803  1
  Sr  Sr4  1  0.000000  0.991363  0.055141  1
  Sr  Sr5  1  0.000000  0.491363  0.944859  1
  Cd  Cd6  1  0.500000  0.151709  0.814709  1
  Cd  Cd7  1  0.500000  0.651709  0.185291  1
  Sb  Sb8  1  0.000000  0.244346  0.657134  1
  Sb  Sb9  1  0.500000  0.276801  0.127563  1
  Sb  Sb10  1  0.000000  0.744346  0.342866  1
  Sb  Sb11  1  0.500000  0.776801  0.872437  1
