# generated using pymatgen
data_HfTa2Nb2(NiP)4
_symmetry_space_group_name_H-M   'P 1'
_cell_length_a   7.29658378
_cell_length_b   7.29658383
_cell_length_c   7.29699692
_cell_angle_alpha   93.62892986
_cell_angle_beta   93.15680446
_cell_angle_gamma   151.83965573
_symmetry_Int_Tables_number   1
_chemical_formula_structural   HfTa2Nb2(NiP)4
_chemical_formula_sum   'Hf1 Ta2 Nb2 Ni4 P4'
_cell_volume   177.83622451
_cell_formula_units_Z   1
loop_
 _symmetry_equiv_pos_site_id
 _symmetry_equiv_pos_as_xyz
  1  'x, y, z'
loop_
 _atom_site_type_symbol
 _atom_site_label
 _atom_site_symmetry_multiplicity
 _atom_site_fract_x
 _atom_site_fract_y
 _atom_site_fract_z
 _atom_site_occupancy
  Hf  Hf0  1  0.869333  0.197730  0.067063  1
  Ta  Ta1  1  0.805085  0.867863  0.672946  1
  Ta  Ta2  1  0.499764  0.498980  0.998743  1
  Nb  Nb3  1  0.128188  0.806447  0.934635  1
  Nb  Nb4  1  0.195060  0.130834  0.325894  1
  Ni  Ni5  1  0.610398  0.084008  0.694405  1
  Ni  Ni6  1  0.389741  0.916188  0.305929  1
  Ni  Ni7  1  0.086834  0.389974  0.476808  1
  Ni  Ni8  1  0.914070  0.610808  0.524879  1
  P  P9  1  0.758257  0.445903  0.204160  1
  P  P10  1  0.241495  0.553008  0.794502  1
  P  P11  1  0.444645  0.239594  0.684240  1
  P  P12  1  0.557132  0.758664  0.315796  1
