# generated using pymatgen
data_LiCaTb8(SiB4)4
_symmetry_space_group_name_H-M   'P 1'
_cell_length_a   7.21117400
_cell_length_b   7.21117400
_cell_length_c   8.03786300
_cell_angle_alpha   90.00000000
_cell_angle_beta   90.00000000
_cell_angle_gamma   90.00000000
_symmetry_Int_Tables_number   1
_chemical_formula_structural   LiCaTb8(SiB4)4
_chemical_formula_sum   'Li1 Ca1 Tb8 Si4 B16'
_cell_volume   417.97715868
_cell_formula_units_Z   1
loop_
 _symmetry_equiv_pos_site_id
 _symmetry_equiv_pos_as_xyz
  1  'x, y, z'
loop_
 _atom_site_type_symbol
 _atom_site_label
 _atom_site_symmetry_multiplicity
 _atom_site_fract_x
 _atom_site_fract_y
 _atom_site_fract_z
 _atom_site_occupancy
  Li  Li0  1  0.000000  0.000000  0.500000  1
  Ca  Ca1  1  0.500000  0.500000  0.500000  1
  Tb  Tb2  1  0.684251  0.181532  0.231304  1
  Tb  Tb3  1  0.315749  0.818468  0.768696  1
  Tb  Tb4  1  0.315749  0.818468  0.231304  1
  Tb  Tb5  1  0.818468  0.684251  0.231304  1
  Tb  Tb6  1  0.818468  0.684251  0.768696  1
  Tb  Tb7  1  0.684251  0.181532  0.768696  1
  Tb  Tb8  1  0.181532  0.315749  0.768696  1
  Tb  Tb9  1  0.181532  0.315749  0.231304  1
  Si  Si10  1  0.107566  0.620606  0.500000  1
  Si  Si11  1  0.892434  0.379394  0.500000  1
  Si  Si12  1  0.379394  0.107566  0.500000  1
  Si  Si13  1  0.620606  0.892434  0.500000  1
  B  B14  1  0.174614  0.039143  0.000000  1
  B  B15  1  0.825386  0.960857  0.000000  1
  B  B16  1  0.960857  0.174614  0.000000  1
  B  B17  1  0.327229  0.539701  0.000000  1
  B  B18  1  0.039143  0.825386  0.000000  1
  B  B19  1  0.672771  0.460299  0.000000  1
  B  B20  1  0.539701  0.672771  0.000000  1
  B  B21  1  0.460299  0.327229  0.000000  1
  B  B22  1  0.089465  0.588932  0.000000  1
  B  B23  1  0.910535  0.411068  0.000000  1
  B  B24  1  0.411068  0.089465  0.000000  1
  B  B25  1  0.588932  0.910535  0.000000  1
  B  B26  1  0.000000  0.000000  0.155525  1
  B  B27  1  0.000000  0.000000  0.844475  1
  B  B28  1  0.500000  0.500000  0.840703  1
  B  B29  1  0.500000  0.500000  0.159297  1
