# generated using pymatgen
data_GdEr3AlIr
_symmetry_space_group_name_H-M   'P 1'
_cell_length_a   9.48279141
_cell_length_b   9.47630133
_cell_length_c   9.47630100
_cell_angle_alpha   60.04531169
_cell_angle_beta   59.97733473
_cell_angle_gamma   59.97734463
_symmetry_Int_Tables_number   1
_chemical_formula_structural   GdEr3AlIr
_chemical_formula_sum   'Gd4 Er12 Al4 Ir4'
_cell_volume   602.14137789
_cell_formula_units_Z   4
loop_
 _symmetry_equiv_pos_site_id
 _symmetry_equiv_pos_as_xyz
  1  'x, y, z'
loop_
 _atom_site_type_symbol
 _atom_site_label
 _atom_site_symmetry_multiplicity
 _atom_site_fract_x
 _atom_site_fract_y
 _atom_site_fract_z
 _atom_site_occupancy
  Gd  Gd0  1  0.812693  0.186774  0.812992  1
  Gd  Gd1  1  0.187350  0.813102  0.186642  1
  Gd  Gd2  1  0.812702  0.812986  0.186763  1
  Gd  Gd3  1  0.187366  0.186694  0.813055  1
  Er  Er4  1  0.603027  0.600809  0.600856  1
  Er  Er5  1  0.600986  0.602867  0.195336  1
  Er  Er6  1  0.601004  0.195314  0.602896  1
  Er  Er7  1  0.195242  0.600895  0.600923  1
  Er  Er8  1  0.056451  0.443509  0.443513  1
  Er  Er9  1  0.443556  0.056532  0.056502  1
  Er  Er10  1  0.444393  0.055612  0.444452  1
  Er  Er11  1  0.055548  0.444588  0.055696  1
  Er  Er12  1  0.444391  0.444465  0.055588  1
  Er  Er13  1  0.055495  0.055679  0.444627  1
  Er  Er14  1  0.191834  0.808175  0.808165  1
  Er  Er15  1  0.808066  0.191953  0.191929  1
  Al  Al16  1  0.827801  0.826508  0.826507  1
  Al  Al17  1  0.826354  0.827628  0.519602  1
  Al  Al18  1  0.826347  0.519613  0.827623  1
  Al  Al19  1  0.519192  0.826437  0.826443  1
  Ir  Ir20  1  0.393629  0.390216  0.390217  1
  Ir  Ir21  1  0.390288  0.393572  0.825876  1
  Ir  Ir22  1  0.390272  0.825878  0.393581  1
  Ir  Ir23  1  0.826013  0.390192  0.390217  1
