# generated using pymatgen
data_Na2LiInSb2
_symmetry_space_group_name_H-M   'P 1'
_cell_length_a   10.25187664
_cell_length_b   10.25187746
_cell_length_c   6.41412000
_cell_angle_alpha   90.00000000
_cell_angle_beta   90.00000000
_cell_angle_gamma   97.56910546
_symmetry_Int_Tables_number   1
_chemical_formula_structural   Na2LiInSb2
_chemical_formula_sum   'Na8 Li4 In4 Sb8'
_cell_volume   668.25642492
_cell_formula_units_Z   4
loop_
 _symmetry_equiv_pos_site_id
 _symmetry_equiv_pos_as_xyz
  1  'x, y, z'
loop_
 _atom_site_type_symbol
 _atom_site_label
 _atom_site_symmetry_multiplicity
 _atom_site_fract_x
 _atom_site_fract_y
 _atom_site_fract_z
 _atom_site_occupancy
  Na  Na0  1  0.074931  0.425069  0.250000  1
  Na  Na1  1  0.425069  0.074931  0.750000  1
  Na  Na2  1  0.925069  0.574931  0.750000  1
  Na  Na3  1  0.574931  0.925069  0.250000  1
  Na  Na4  1  0.673350  0.326650  0.223053  1
  Na  Na5  1  0.826650  0.173350  0.723053  1
  Na  Na6  1  0.326650  0.673350  0.776947  1
  Na  Na7  1  0.173350  0.826650  0.276947  1
  Li  Li8  1  0.381518  0.381518  0.000000  1
  Li  Li9  1  0.118482  0.118482  0.500000  1
  Li  Li10  1  0.618482  0.618482  0.000000  1
  Li  Li11  1  0.881518  0.881518  0.500000  1
  In  In12  1  0.131620  0.131620  0.000000  1
  In  In13  1  0.368380  0.368380  0.500000  1
  In  In14  1  0.868380  0.868380  0.000000  1
  In  In15  1  0.631620  0.631620  0.500000  1
  Sb  Sb16  1  0.866989  0.633010  0.250000  1
  Sb  Sb17  1  0.633010  0.866989  0.750000  1
  Sb  Sb18  1  0.133010  0.366989  0.750000  1
  Sb  Sb19  1  0.366989  0.133010  0.250000  1
  Sb  Sb20  1  0.886089  0.113911  0.236178  1
  Sb  Sb21  1  0.613911  0.386089  0.736178  1
  Sb  Sb22  1  0.113911  0.886089  0.763822  1
  Sb  Sb23  1  0.386089  0.613911  0.263822  1
