# generated using pymatgen
data_Yb8InAg3Pb4
_symmetry_space_group_name_H-M   'P 1'
_cell_length_a   7.40559301
_cell_length_b   5.32211005
_cell_length_c   10.65106200
_cell_angle_alpha   90.00094737
_cell_angle_beta   90.00216631
_cell_angle_gamma   89.99202264
_symmetry_Int_Tables_number   1
_chemical_formula_structural   Yb8InAg3Pb4
_chemical_formula_sum   'Yb8 In1 Ag3 Pb4'
_cell_volume   419.79435999
_cell_formula_units_Z   1
loop_
 _symmetry_equiv_pos_site_id
 _symmetry_equiv_pos_as_xyz
  1  'x, y, z'
loop_
 _atom_site_type_symbol
 _atom_site_label
 _atom_site_symmetry_multiplicity
 _atom_site_fract_x
 _atom_site_fract_y
 _atom_site_fract_z
 _atom_site_occupancy
  Yb  Yb0  1  0.008920  0.750027  0.125011  1
  Yb  Yb1  1  0.491272  0.749957  0.125137  1
  Yb  Yb2  1  0.004519  0.250033  0.381126  1
  Yb  Yb3  1  0.495659  0.249986  0.381166  1
  Yb  Yb4  1  0.500029  0.749959  0.625032  1
  Yb  Yb5  1  0.999743  0.750061  0.625082  1
  Yb  Yb6  1  0.495464  0.249993  0.868707  1
  Yb  Yb7  1  0.004374  0.250010  0.868723  1
  In  In8  1  0.750160  0.249995  0.124913  1
  Ag  Ag9  1  0.250002  0.750017  0.378797  1
  Ag  Ag10  1  0.749910  0.249936  0.624960  1
  Ag  Ag11  1  0.249905  0.749997  0.871476  1
  Pb  Pb12  1  0.250133  0.249912  0.124817  1
  Pb  Pb13  1  0.750072  0.750064  0.372020  1
  Pb  Pb14  1  0.249915  0.250043  0.624959  1
  Pb  Pb15  1  0.749925  0.750004  0.878077  1
