# generated using pymatgen
data_Ho2LuZn2Co9B4
_symmetry_space_group_name_H-M   'P 1'
_cell_length_a   5.08955732
_cell_length_b   5.08776969
_cell_length_c   9.66383300
_cell_angle_alpha   90.00006416
_cell_angle_beta   90.00011069
_cell_angle_gamma   120.05314432
_symmetry_Int_Tables_number   1
_chemical_formula_structural   Ho2LuZn2Co9B4
_chemical_formula_sum   'Ho2 Lu1 Zn2 Co9 B4'
_cell_volume   216.59811858
_cell_formula_units_Z   1
loop_
 _symmetry_equiv_pos_site_id
 _symmetry_equiv_pos_as_xyz
  1  'x, y, z'
loop_
 _atom_site_type_symbol
 _atom_site_label
 _atom_site_symmetry_multiplicity
 _atom_site_fract_x
 _atom_site_fract_y
 _atom_site_fract_z
 _atom_site_occupancy
  Ho  Ho0  1  0.999986  0.000000  0.000650  1
  Ho  Ho1  1  0.000000  0.999998  0.657572  1
  Lu  Lu2  1  0.999997  0.000002  0.341692  1
  Zn  Zn3  1  0.333302  0.666583  0.000259  1
  Zn  Zn4  1  0.666670  0.333412  0.000260  1
  Co  Co5  1  0.500023  0.000058  0.499152  1
  Co  Co6  1  0.500038  0.499971  0.499140  1
  Co  Co7  1  0.999930  0.499973  0.499143  1
  Co  Co8  1  0.499982  0.999982  0.211203  1
  Co  Co9  1  0.499970  0.500005  0.211216  1
  Co  Co10  1  0.000019  0.500008  0.211204  1
  Co  Co11  1  0.499972  0.999967  0.789688  1
  Co  Co12  1  0.499986  0.500008  0.789699  1
  Co  Co13  1  0.000038  0.500030  0.789774  1
  B  B14  1  0.333443  0.666710  0.350523  1
  B  B15  1  0.666549  0.333296  0.350542  1
  B  B16  1  0.666605  0.333338  0.649134  1
  B  B17  1  0.333391  0.666662  0.649152  1
