# generated using pymatgen
data_K2Pu(Cl2F)2
_symmetry_space_group_name_H-M   'P 1'
_cell_length_a   5.60307415
_cell_length_b   6.86051514
_cell_length_c   6.86040530
_cell_angle_alpha   66.74888752
_cell_angle_beta   99.07750036
_cell_angle_gamma   99.07746141
_symmetry_Int_Tables_number   1
_chemical_formula_structural   K2Pu(Cl2F)2
_chemical_formula_sum   'K2 Pu1 Cl4 F2'
_cell_volume   237.93252878
_cell_formula_units_Z   1
loop_
 _symmetry_equiv_pos_site_id
 _symmetry_equiv_pos_as_xyz
  1  'x, y, z'
loop_
 _atom_site_type_symbol
 _atom_site_label
 _atom_site_symmetry_multiplicity
 _atom_site_fract_x
 _atom_site_fract_y
 _atom_site_fract_z
 _atom_site_occupancy
  K  K0  1  0.681201  0.329300  0.329319  1
  K  K1  1  0.318799  0.670700  0.670681  1
  Pu  Pu2  1  0.000000  0.000000  0.000000  1
  Cl  Cl3  1  0.203654  0.639476  0.153803  1
  Cl  Cl4  1  0.796357  0.846191  0.360527  1
  Cl  Cl5  1  0.203643  0.153809  0.639473  1
  Cl  Cl6  1  0.796346  0.360524  0.846197  1
  F  F7  1  0.290500  0.144780  0.144782  1
  F  F8  1  0.709498  0.855219  0.855217  1
