# generated using pymatgen
data_Nd16Cd4Tc2PdPt
_symmetry_space_group_name_H-M   'P 1'
_cell_length_a   9.96117083
_cell_length_b   9.97081326
_cell_length_c   10.08541000
_cell_angle_alpha   59.61908013
_cell_angle_beta   59.58655995
_cell_angle_gamma   59.44012996
_symmetry_Int_Tables_number   1
_chemical_formula_structural   Nd16Cd4Tc2PdPt
_chemical_formula_sum   'Nd16 Cd4 Tc2 Pd1 Pt1'
_cell_volume   701.03030946
_cell_formula_units_Z   1
loop_
 _symmetry_equiv_pos_site_id
 _symmetry_equiv_pos_as_xyz
  1  'x, y, z'
loop_
 _atom_site_type_symbol
 _atom_site_label
 _atom_site_symmetry_multiplicity
 _atom_site_fract_x
 _atom_site_fract_y
 _atom_site_fract_z
 _atom_site_occupancy
  Nd  Nd0  1  0.347365  0.348704  0.354566  1
  Nd  Nd1  1  0.347365  0.348704  0.949364  1
  Nd  Nd2  1  0.342721  0.957837  0.349721  1
  Nd  Nd3  1  0.959284  0.343612  0.348553  1
  Nd  Nd4  1  0.815339  0.190361  0.190748  1
  Nd  Nd5  1  0.189815  0.814174  0.805062  1
  Nd  Nd6  1  0.189815  0.814174  0.190949  1
  Nd  Nd7  1  0.815339  0.190361  0.803552  1
  Nd  Nd8  1  0.190392  0.190706  0.809451  1
  Nd  Nd9  1  0.807363  0.805805  0.193416  1
  Nd  Nd10  1  0.937320  0.556596  0.566026  1
  Nd  Nd11  1  0.556618  0.937152  0.939693  1
  Nd  Nd12  1  0.556618  0.937152  0.566536  1
  Nd  Nd13  1  0.937320  0.556596  0.940057  1
  Nd  Nd14  1  0.562236  0.563138  0.937313  1
  Nd  Nd15  1  0.939861  0.940147  0.559996  1
  Cd  Cd16  1  0.579990  0.579992  0.579740  1
  Cd  Cd17  1  0.579990  0.579992  0.260281  1
  Cd  Cd18  1  0.580248  0.258839  0.580457  1
  Cd  Cd19  1  0.258897  0.580212  0.580445  1
  Tc  Tc20  1  0.141973  0.142138  0.132474  1
  Tc  Tc21  1  0.141973  0.142138  0.583412  1
  Pd  Pd22  1  0.574883  0.146393  0.139361  1
  Pt  Pt23  1  0.147275  0.575075  0.138825  1
