# generated using pymatgen
data_Fe2Bi3Sb3O14
_symmetry_space_group_name_H-M   'P 1'
_cell_length_a   7.34872980
_cell_length_b   7.33113477
_cell_length_c   7.35723329
_cell_angle_alpha   61.91887793
_cell_angle_beta   62.04941376
_cell_angle_gamma   61.85792883
_symmetry_Int_Tables_number   1
_chemical_formula_structural   Fe2Bi3Sb3O14
_chemical_formula_sum   'Fe2 Bi3 Sb3 O14'
_cell_volume   292.45257996
_cell_formula_units_Z   1
loop_
 _symmetry_equiv_pos_site_id
 _symmetry_equiv_pos_as_xyz
  1  'x, y, z'
loop_
 _atom_site_type_symbol
 _atom_site_label
 _atom_site_symmetry_multiplicity
 _atom_site_fract_x
 _atom_site_fract_y
 _atom_site_fract_z
 _atom_site_occupancy
  Fe  Fe0  1  0.000077  0.500142  0.999724  1
  Fe  Fe1  1  0.500075  0.999973  0.500219  1
  Bi  Bi2  1  0.000007  0.999978  0.500016  1
  Bi  Bi3  1  0.500018  0.000004  0.000018  1
  Bi  Bi4  1  0.499972  0.499989  0.499996  1
  Sb  Sb5  1  0.500001  0.499999  0.999988  1
  Sb  Sb6  1  0.999978  0.500002  0.499994  1
  Sb  Sb7  1  0.999990  0.999995  0.000007  1
  O  O8  1  0.612282  0.110223  0.613491  1
  O  O9  1  0.387714  0.889724  0.386541  1
  O  O10  1  0.077379  0.179951  0.681128  1
  O  O11  1  0.681345  0.180545  0.075736  1
  O  O12  1  0.679095  0.583562  0.679455  1
  O  O13  1  0.922578  0.820053  0.318880  1
  O  O14  1  0.318647  0.819458  0.924233  1
  O  O15  1  0.320879  0.416486  0.320528  1
  O  O16  1  0.651466  0.588982  0.090814  1
  O  O17  1  0.090779  0.589224  0.651227  1
  O  O18  1  0.089230  0.152693  0.089497  1
  O  O19  1  0.348520  0.410992  0.909198  1
  O  O20  1  0.909215  0.410756  0.348795  1
  O  O21  1  0.910754  0.847268  0.910517  1
