# generated using pymatgen
data_Ce3Er(Al3Rh)6
_symmetry_space_group_name_H-M   'P 1'
_cell_length_a   7.60783223
_cell_length_b   7.61141040
_cell_length_c   9.45722200
_cell_angle_alpha   90.00000000
_cell_angle_beta   90.00000000
_cell_angle_gamma   119.52075769
_symmetry_Int_Tables_number   1
_chemical_formula_structural   Ce3Er(Al3Rh)6
_chemical_formula_sum   'Ce3 Er1 Al18 Rh6'
_cell_volume   476.53781484
_cell_formula_units_Z   1
loop_
 _symmetry_equiv_pos_site_id
 _symmetry_equiv_pos_as_xyz
  1  'x, y, z'
loop_
 _atom_site_type_symbol
 _atom_site_label
 _atom_site_symmetry_multiplicity
 _atom_site_fract_x
 _atom_site_fract_y
 _atom_site_fract_z
 _atom_site_occupancy
  Ce  Ce0  1  0.995601  0.670584  0.750000  1
  Ce  Ce1  1  0.003268  0.328928  0.250000  1
  Ce  Ce2  1  0.671219  0.995908  0.750000  1
  Er  Er3  1  0.328583  0.005047  0.250000  1
  Al  Al4  1  0.131537  0.129928  0.750000  1
  Al  Al5  1  0.872699  0.872528  0.250000  1
  Al  Al6  1  0.003033  0.335436  0.575240  1
  Al  Al7  1  0.000296  0.667139  0.422142  1
  Al  Al8  1  0.000296  0.667139  0.077858  1
  Al  Al9  1  0.335364  0.002056  0.927057  1
  Al  Al10  1  0.003033  0.335436  0.924760  1
  Al  Al11  1  0.661980  0.997514  0.077755  1
  Al  Al12  1  0.661980  0.997514  0.422245  1
  Al  Al13  1  0.335364  0.002056  0.572943  1
  Al  Al14  1  0.334107  0.332523  0.054027  1
  Al  Al15  1  0.665293  0.665202  0.952131  1
  Al  Al16  1  0.665293  0.665202  0.547869  1
  Al  Al17  1  0.334107  0.332523  0.445973  1
  Al  Al18  1  0.342028  0.548011  0.750000  1
  Al  Al19  1  0.657571  0.449307  0.250000  1
  Al  Al20  1  0.547062  0.340471  0.750000  1
  Al  Al21  1  0.449803  0.659684  0.250000  1
  Rh  Rh22  1  0.672222  0.327838  0.499746  1
  Rh  Rh23  1  0.327781  0.671800  0.500025  1
  Rh  Rh24  1  0.327781  0.671800  0.999975  1
  Rh  Rh25  1  0.672222  0.327838  0.000254  1
  Rh  Rh26  1  0.000238  0.000294  0.499793  1
  Rh  Rh27  1  0.000238  0.000294  0.000207  1
