# generated using pymatgen
data_Gd2Pd2O7
_symmetry_space_group_name_H-M   'P 1'
_cell_length_a   7.31576668
_cell_length_b   7.32344001
_cell_length_c   7.32344000
_cell_angle_alpha   60.00000004
_cell_angle_beta   59.96529742
_cell_angle_gamma   59.96529866
_symmetry_Int_Tables_number   1
_chemical_formula_structural   Gd2Pd2O7
_chemical_formula_sum   'Gd4 Pd4 O14'
_cell_volume   277.29823736
_cell_formula_units_Z   2
loop_
 _symmetry_equiv_pos_site_id
 _symmetry_equiv_pos_as_xyz
  1  'x, y, z'
loop_
 _atom_site_type_symbol
 _atom_site_label
 _atom_site_symmetry_multiplicity
 _atom_site_fract_x
 _atom_site_fract_y
 _atom_site_fract_z
 _atom_site_occupancy
  Gd  Gd0  1  0.625000  0.125000  0.125000  1
  Gd  Gd1  1  0.125000  0.625000  0.125000  1
  Gd  Gd2  1  0.125000  0.125000  0.625000  1
  Gd  Gd3  1  0.125000  0.125000  0.125000  1
  Pd  Pd4  1  0.625000  0.125000  0.625000  1
  Pd  Pd5  1  0.625000  0.625000  0.125000  1
  Pd  Pd6  1  0.625000  0.625000  0.625000  1
  Pd  Pd7  1  0.125000  0.625000  0.625000  1
  O  O8  1  0.713285  0.712640  0.287038  1
  O  O9  1  0.287204  0.287207  0.712795  1
  O  O10  1  0.713285  0.287038  0.712640  1
  O  O11  1  0.287204  0.712795  0.287207  1
  O  O12  1  0.287204  0.712795  0.712795  1
  O  O13  1  0.713285  0.287038  0.287038  1
  O  O14  1  0.536715  0.537360  0.962962  1
  O  O15  1  0.962796  0.962793  0.537205  1
  O  O16  1  0.536715  0.962962  0.537360  1
  O  O17  1  0.962796  0.537205  0.962793  1
  O  O18  1  0.962796  0.537205  0.537205  1
  O  O19  1  0.536715  0.962962  0.962962  1
  O  O20  1  0.249963  0.250013  0.250013  1
  O  O21  1  0.000037  0.999987  0.999987  1
