# generated using pymatgen
data_Y2ThAl2GaNi3
_symmetry_space_group_name_H-M   'P 1'
_cell_length_a   7.07210953
_cell_length_b   7.14481060
_cell_length_c   3.82668000
_cell_angle_alpha   90.00000000
_cell_angle_beta   90.00000000
_cell_angle_gamma   120.48202443
_symmetry_Int_Tables_number   1
_chemical_formula_structural   Y2ThAl2GaNi3
_chemical_formula_sum   'Y2 Th1 Al2 Ga1 Ni3'
_cell_volume   166.63355660
_cell_formula_units_Z   1
loop_
 _symmetry_equiv_pos_site_id
 _symmetry_equiv_pos_as_xyz
  1  'x, y, z'
loop_
 _atom_site_type_symbol
 _atom_site_label
 _atom_site_symmetry_multiplicity
 _atom_site_fract_x
 _atom_site_fract_y
 _atom_site_fract_z
 _atom_site_occupancy
  Y  Y0  1  0.581817  0.002075  0.000000  1
  Y  Y1  1  0.414258  0.414420  0.000000  1
  Th  Th2  1  0.001492  0.579581  0.000000  1
  Al  Al3  1  0.754708  0.764922  0.500000  1
  Al  Al4  1  0.998613  0.223279  0.500000  1
  Ga  Ga5  1  0.248849  0.009950  0.500000  1
  Ni  Ni6  1  0.683623  0.350237  0.500000  1
  Ni  Ni7  1  0.995614  0.992471  0.000000  1
  Ni  Ni8  1  0.321027  0.663067  0.500000  1
