# generated using pymatgen
data_Dy10AgPPb6
_symmetry_space_group_name_H-M   'P 1'
_cell_length_a   9.20389600
_cell_length_b   9.20389535
_cell_length_c   6.78599200
_cell_angle_alpha   90.00000000
_cell_angle_beta   90.00000000
_cell_angle_gamma   120.00000233
_symmetry_Int_Tables_number   1
_chemical_formula_structural   Dy10AgPPb6
_chemical_formula_sum   'Dy10 Ag1 P1 Pb6'
_cell_volume   497.83719331
_cell_formula_units_Z   1
loop_
 _symmetry_equiv_pos_site_id
 _symmetry_equiv_pos_as_xyz
  1  'x, y, z'
loop_
 _atom_site_type_symbol
 _atom_site_label
 _atom_site_symmetry_multiplicity
 _atom_site_fract_x
 _atom_site_fract_y
 _atom_site_fract_z
 _atom_site_occupancy
  Dy  Dy0  1  0.251161  0.000000  0.729154  1
  Dy  Dy1  1  0.748839  0.000000  0.270846  1
  Dy  Dy2  1  0.000000  0.251161  0.729154  1
  Dy  Dy3  1  0.000000  0.748839  0.270846  1
  Dy  Dy4  1  0.748839  0.748839  0.729154  1
  Dy  Dy5  1  0.251161  0.251161  0.270846  1
  Dy  Dy6  1  0.333333  0.666667  0.500000  1
  Dy  Dy7  1  0.666667  0.333333  0.500000  1
  Dy  Dy8  1  0.666667  0.333333  0.000000  1
  Dy  Dy9  1  0.333333  0.666667  0.000000  1
  Ag  Ag10  1  0.000000  0.000000  0.000000  1
  P  P11  1  0.000000  0.000000  0.500000  1
  Pb  Pb12  1  0.606030  0.000000  0.750119  1
  Pb  Pb13  1  0.393970  0.000000  0.249881  1
  Pb  Pb14  1  0.000000  0.606030  0.750119  1
  Pb  Pb15  1  0.000000  0.393970  0.249881  1
  Pb  Pb16  1  0.393970  0.393970  0.750119  1
  Pb  Pb17  1  0.606030  0.606030  0.249881  1
