# generated using pymatgen
data_Ho4Ga3Si
_symmetry_space_group_name_H-M   'P 1'
_cell_length_a   3.96203600
_cell_length_b   4.32371500
_cell_length_c   10.77628200
_cell_angle_alpha   90.00000000
_cell_angle_beta   90.00000000
_cell_angle_gamma   90.00000000
_symmetry_Int_Tables_number   1
_chemical_formula_structural   Ho4Ga3Si
_chemical_formula_sum   'Ho4 Ga3 Si1'
_cell_volume   184.60541014
_cell_formula_units_Z   1
loop_
 _symmetry_equiv_pos_site_id
 _symmetry_equiv_pos_as_xyz
  1  'x, y, z'
loop_
 _atom_site_type_symbol
 _atom_site_label
 _atom_site_symmetry_multiplicity
 _atom_site_fract_x
 _atom_site_fract_y
 _atom_site_fract_z
 _atom_site_occupancy
  Ho  Ho0  1  0.000000  0.000000  0.143156  1
  Ho  Ho1  1  0.000000  0.500000  0.637424  1
  Ho  Ho2  1  0.500000  0.500000  0.360884  1
  Ho  Ho3  1  0.500000  0.000000  0.858949  1
  Ga  Ga4  1  0.000000  0.500000  0.921066  1
  Ga  Ga5  1  0.500000  0.500000  0.080286  1
  Ga  Ga6  1  0.500000  0.000000  0.574600  1
  Si  Si7  1  0.000000  0.000000  0.423633  1
