# generated using pymatgen
data_LiHo16Tl2CdRh4
_symmetry_space_group_name_H-M   'P 1'
_cell_length_a   9.62159484
_cell_length_b   9.61292076
_cell_length_c   9.62159543
_cell_angle_alpha   59.68688296
_cell_angle_beta   59.74951602
_cell_angle_gamma   59.68688801
_symmetry_Int_Tables_number   1
_chemical_formula_structural   LiHo16Tl2CdRh4
_chemical_formula_sum   'Li1 Ho16 Tl2 Cd1 Rh4'
_cell_volume   625.08890244
_cell_formula_units_Z   1
loop_
 _symmetry_equiv_pos_site_id
 _symmetry_equiv_pos_as_xyz
  1  'x, y, z'
loop_
 _atom_site_type_symbol
 _atom_site_label
 _atom_site_symmetry_multiplicity
 _atom_site_fract_x
 _atom_site_fract_y
 _atom_site_fract_z
 _atom_site_occupancy
  Li  Li0  1  0.929186  0.930887  0.929186  1
  Ho  Ho1  1  0.937011  0.935928  0.563659  1
  Ho  Ho2  1  0.565730  0.558880  0.937386  1
  Ho  Ho3  1  0.686986  0.687599  0.312782  1
  Ho  Ho4  1  0.150363  0.548149  0.150363  1
  Ho  Ho5  1  0.686098  0.314592  0.686098  1
  Ho  Ho6  1  0.149424  0.149482  0.149424  1
  Ho  Ho7  1  0.546573  0.150456  0.150118  1
  Ho  Ho8  1  0.689898  0.310100  0.309119  1
  Ho  Ho9  1  0.150118  0.150456  0.546573  1
  Ho  Ho10  1  0.308572  0.691390  0.308572  1
  Ho  Ho11  1  0.312782  0.687599  0.686986  1
  Ho  Ho12  1  0.937386  0.558880  0.565730  1
  Ho  Ho13  1  0.937625  0.561884  0.937625  1
  Ho  Ho14  1  0.562188  0.936299  0.562188  1
  Ho  Ho15  1  0.563659  0.935928  0.937011  1
  Ho  Ho16  1  0.309119  0.310100  0.689898  1
  Tl  Tl17  1  0.912950  0.917219  0.252050  1
  Tl  Tl18  1  0.252050  0.917219  0.912950  1
  Cd  Cd19  1  0.916291  0.248611  0.916291  1
  Rh  Rh20  1  0.355547  0.357447  0.926983  1
  Rh  Rh21  1  0.356708  0.926763  0.356708  1
  Rh  Rh22  1  0.926983  0.357447  0.355547  1
  Rh  Rh23  1  0.356755  0.356685  0.356755  1
