# generated using pymatgen
data_LiTb3Tl2InPd2
_symmetry_space_group_name_H-M   'P 1'
_cell_length_a   7.95054313
_cell_length_b   7.92193802
_cell_length_c   3.72490100
_cell_angle_alpha   90.00000000
_cell_angle_beta   90.00000000
_cell_angle_gamma   119.88106451
_symmetry_Int_Tables_number   1
_chemical_formula_structural   LiTb3Tl2InPd2
_chemical_formula_sum   'Li1 Tb3 Tl2 In1 Pd2'
_cell_volume   203.41962438
_cell_formula_units_Z   1
loop_
 _symmetry_equiv_pos_site_id
 _symmetry_equiv_pos_as_xyz
  1  'x, y, z'
loop_
 _atom_site_type_symbol
 _atom_site_label
 _atom_site_symmetry_multiplicity
 _atom_site_fract_x
 _atom_site_fract_y
 _atom_site_fract_z
 _atom_site_occupancy
  Li  Li0  1  0.000000  0.999914  0.500000  1
  Tb  Tb1  1  0.585898  0.000706  0.500000  1
  Tb  Tb2  1  0.414102  0.414808  0.500000  1
  Tb  Tb3  1  0.000000  0.584816  0.500000  1
  Tl  Tl4  1  0.742362  0.743967  0.000000  1
  Tl  Tl5  1  0.257638  0.001605  0.000000  1
  In  In6  1  0.000000  0.258942  0.000000  1
  Pd  Pd7  1  0.669704  0.332472  0.000000  1
  Pd  Pd8  1  0.330296  0.662770  0.000000  1
