# generated using pymatgen
data_K3Tl3(PO4)4
_symmetry_space_group_name_H-M   'P 1'
_cell_length_a   9.98510400
_cell_length_b   9.84603768
_cell_length_c   18.79062800
_cell_angle_alpha   58.76547761
_cell_angle_beta   90.00000000
_cell_angle_gamma   90.00000000
_symmetry_Int_Tables_number   1
_chemical_formula_structural   K3Tl3(PO4)4
_chemical_formula_sum   'K12 Tl12 P16 O64'
_cell_volume   1579.60280856
_cell_formula_units_Z   4
loop_
 _symmetry_equiv_pos_site_id
 _symmetry_equiv_pos_as_xyz
  1  'x, y, z'
loop_
 _atom_site_type_symbol
 _atom_site_label
 _atom_site_symmetry_multiplicity
 _atom_site_fract_x
 _atom_site_fract_y
 _atom_site_fract_z
 _atom_site_occupancy
  K  K0  1  0.278121  0.760828  0.213868  1
  K  K1  1  0.221879  0.760828  0.713868  1
  K  K2  1  0.110496  0.954654  0.370555  1
  K  K3  1  0.610496  0.045346  0.129445  1
  K  K4  1  0.533061  0.423852  0.903357  1
  K  K5  1  0.966939  0.423852  0.403357  1
  K  K6  1  0.466939  0.576148  0.096643  1
  K  K7  1  0.721879  0.239172  0.786132  1
  K  K8  1  0.889504  0.045346  0.629445  1
  K  K9  1  0.033061  0.576148  0.596643  1
  K  K10  1  0.389504  0.954654  0.870555  1
  K  K11  1  0.778121  0.239172  0.286132  1
  Tl  Tl12  1  0.426082  0.767235  0.489063  1
  Tl  Tl13  1  0.731962  0.802044  0.365933  1
  Tl  Tl14  1  0.073918  0.767235  0.989063  1
  Tl  Tl15  1  0.926082  0.232765  0.010937  1
  Tl  Tl16  1  0.850910  0.654365  0.162655  1
  Tl  Tl17  1  0.268038  0.197956  0.634067  1
  Tl  Tl18  1  0.149090  0.345635  0.837345  1
  Tl  Tl19  1  0.649090  0.654365  0.662655  1
  Tl  Tl20  1  0.768038  0.802044  0.865933  1
  Tl  Tl21  1  0.573918  0.232765  0.510937  1
  Tl  Tl22  1  0.231962  0.197956  0.134067  1
  Tl  Tl23  1  0.350910  0.345635  0.337345  1
  P  P24  1  0.743094  0.943495  0.501327  1
  P  P25  1  0.902455  0.571382  0.793344  1
  P  P26  1  0.973219  0.915945  0.215245  1
  P  P27  1  0.473219  0.084055  0.284755  1
  P  P28  1  0.097545  0.428618  0.206656  1
  P  P29  1  0.243094  0.056505  0.998673  1
  P  P30  1  0.233575  0.485255  0.967819  1
  P  P31  1  0.526781  0.915945  0.715245  1
  P  P32  1  0.597545  0.571382  0.293344  1
  P  P33  1  0.756906  0.943495  0.001327  1
  P  P34  1  0.733575  0.514745  0.532181  1
  P  P35  1  0.026781  0.084055  0.784755  1
  P  P36  1  0.766425  0.514745  0.032181  1
  P  P37  1  0.402455  0.428618  0.706656  1
  P  P38  1  0.256906  0.056505  0.498673  1
  P  P39  1  0.266425  0.485255  0.467819  1
  O  O40  1  0.225184  0.657565  0.950261  1
  O  O41  1  0.109491  0.379869  0.020047  1
  O  O42  1  0.913478  0.903181  0.294962  1
  O  O43  1  0.388399  0.967141  0.360642  1
  O  O44  1  0.178971  0.161212  0.415921  1
  O  O45  1  0.119526  0.970418  0.212217  1
  O  O46  1  0.237969  0.482443  0.219052  1
  O  O47  1  0.109992  0.270113  0.207829  1
  O  O48  1  0.856495  0.596521  0.473948  1
  O  O49  1  0.143505  0.403479  0.526052  1
  O  O50  1  0.044030  0.571588  0.121218  1
  O  O51  1  0.678971  0.838788  0.084079  1
  O  O52  1  0.096274  0.128788  0.975804  1
  O  O53  1  0.903726  0.871212  0.024196  1
  O  O54  1  0.521448  0.749170  0.724799  1
  O  O55  1  0.619526  0.029582  0.287783  1
  O  O56  1  0.725184  0.342435  0.549739  1
  O  O57  1  0.694504  0.937249  0.927925  1
  O  O58  1  0.111601  0.967141  0.860642  1
  O  O59  1  0.262031  0.482443  0.719052  1
  O  O60  1  0.611601  0.032859  0.639358  1
  O  O61  1  0.478552  0.250830  0.275201  1
  O  O62  1  0.305496  0.062751  0.072075  1
  O  O63  1  0.258276  0.877976  0.524502  1
  O  O64  1  0.805496  0.937249  0.427925  1
  O  O65  1  0.890008  0.729887  0.792171  1
  O  O66  1  0.737969  0.517557  0.280948  1
  O  O67  1  0.643505  0.596521  0.973948  1
  O  O68  1  0.888399  0.032859  0.139358  1
  O  O69  1  0.890509  0.620131  0.979953  1
  O  O70  1  0.991364  0.408674  0.269743  1
  O  O71  1  0.321029  0.161212  0.915921  1
  O  O72  1  0.390008  0.270113  0.707829  1
  O  O73  1  0.609491  0.620131  0.479953  1
  O  O74  1  0.250052  0.496509  0.382869  1
  O  O75  1  0.586522  0.903181  0.794962  1
  O  O76  1  0.249948  0.496509  0.882869  1
  O  O77  1  0.241724  0.877976  0.024502  1
  O  O78  1  0.491364  0.591326  0.230257  1
  O  O79  1  0.413478  0.096819  0.205038  1
  O  O80  1  0.380474  0.970418  0.712217  1
  O  O81  1  0.194504  0.062751  0.572075  1
  O  O82  1  0.455970  0.571588  0.621218  1
  O  O83  1  0.021448  0.250830  0.775201  1
  O  O84  1  0.762031  0.517557  0.780948  1
  O  O85  1  0.390509  0.379869  0.520047  1
  O  O86  1  0.955970  0.428412  0.878782  1
  O  O87  1  0.086522  0.096819  0.705038  1
  O  O88  1  0.274816  0.657565  0.450261  1
  O  O89  1  0.750052  0.503491  0.117131  1
  O  O90  1  0.880474  0.029582  0.787783  1
  O  O91  1  0.609992  0.729887  0.292171  1
  O  O92  1  0.758276  0.122024  0.975498  1
  O  O93  1  0.403726  0.128788  0.475804  1
  O  O94  1  0.774816  0.342435  0.049739  1
  O  O95  1  0.508636  0.408674  0.769743  1
  O  O96  1  0.749948  0.503491  0.617131  1
  O  O97  1  0.741724  0.122024  0.475498  1
  O  O98  1  0.978552  0.749170  0.224799  1
  O  O99  1  0.544030  0.428412  0.378782  1
  O  O100  1  0.596274  0.871212  0.524196  1
  O  O101  1  0.008636  0.591326  0.730257  1
  O  O102  1  0.356495  0.403479  0.026052  1
  O  O103  1  0.821029  0.838788  0.584079  1
