# generated using pymatgen
data_Ca(AcPb)4
_symmetry_space_group_name_H-M   'P 1'
_cell_length_a   8.83429900
_cell_length_b   8.90109100
_cell_length_c   17.14026300
_cell_angle_alpha   90.00000000
_cell_angle_beta   90.00000000
_cell_angle_gamma   90.00000000
_symmetry_Int_Tables_number   1
_chemical_formula_structural   Ca(AcPb)4
_chemical_formula_sum   'Ca4 Ac16 Pb16'
_cell_volume   1347.82285533
_cell_formula_units_Z   4
loop_
 _symmetry_equiv_pos_site_id
 _symmetry_equiv_pos_as_xyz
  1  'x, y, z'
loop_
 _atom_site_type_symbol
 _atom_site_label
 _atom_site_symmetry_multiplicity
 _atom_site_fract_x
 _atom_site_fract_y
 _atom_site_fract_z
 _atom_site_occupancy
  Ca  Ca0  1  0.211672  0.501889  0.750000  1
  Ca  Ca1  1  0.711672  0.998111  0.750000  1
  Ca  Ca2  1  0.788328  0.498111  0.250000  1
  Ca  Ca3  1  0.288328  0.001889  0.250000  1
  Ac  Ac4  1  0.380597  0.840421  0.881787  1
  Ac  Ac5  1  0.880597  0.659579  0.618213  1
  Ac  Ac6  1  0.619403  0.159579  0.381787  1
  Ac  Ac7  1  0.119403  0.340421  0.118213  1
  Ac  Ac8  1  0.619403  0.159579  0.118213  1
  Ac  Ac9  1  0.119403  0.340421  0.381787  1
  Ac  Ac10  1  0.380597  0.840421  0.618213  1
  Ac  Ac11  1  0.880597  0.659579  0.881787  1
  Ac  Ac12  1  0.530025  0.319070  0.900413  1
  Ac  Ac13  1  0.030025  0.180930  0.599587  1
  Ac  Ac14  1  0.469975  0.680930  0.400413  1
  Ac  Ac15  1  0.969975  0.819070  0.099587  1
  Ac  Ac16  1  0.469975  0.680930  0.099587  1
  Ac  Ac17  1  0.969975  0.819070  0.400413  1
  Ac  Ac18  1  0.530025  0.319070  0.599587  1
  Ac  Ac19  1  0.030025  0.180930  0.900413  1
  Pb  Pb20  1  0.281811  0.029831  0.044844  1
  Pb  Pb21  1  0.781811  0.470169  0.455156  1
  Pb  Pb22  1  0.718189  0.970169  0.544844  1
  Pb  Pb23  1  0.218189  0.529831  0.955156  1
  Pb  Pb24  1  0.718189  0.970169  0.955156  1
  Pb  Pb25  1  0.218189  0.529831  0.544844  1
  Pb  Pb26  1  0.281811  0.029831  0.455156  1
  Pb  Pb27  1  0.781811  0.470169  0.044844  1
  Pb  Pb28  1  0.576238  0.610116  0.750000  1
  Pb  Pb29  1  0.076238  0.889884  0.750000  1
  Pb  Pb30  1  0.423762  0.389884  0.250000  1
  Pb  Pb31  1  0.923762  0.110116  0.250000  1
  Pb  Pb32  1  0.333255  0.144447  0.750000  1
  Pb  Pb33  1  0.833255  0.355553  0.750000  1
  Pb  Pb34  1  0.666745  0.855553  0.250000  1
  Pb  Pb35  1  0.166745  0.644447  0.250000  1
