# generated using pymatgen
data_LiDy2MgPt2
_symmetry_space_group_name_H-M   'P 1'
_cell_length_a   4.05428600
_cell_length_b   7.07574500
_cell_length_c   8.63868900
_cell_angle_alpha   90.00000000
_cell_angle_beta   90.00000000
_cell_angle_gamma   90.00000000
_symmetry_Int_Tables_number   1
_chemical_formula_structural   LiDy2MgPt2
_chemical_formula_sum   'Li2 Dy4 Mg2 Pt4'
_cell_volume   247.81888246
_cell_formula_units_Z   2
loop_
 _symmetry_equiv_pos_site_id
 _symmetry_equiv_pos_as_xyz
  1  'x, y, z'
loop_
 _atom_site_type_symbol
 _atom_site_label
 _atom_site_symmetry_multiplicity
 _atom_site_fract_x
 _atom_site_fract_y
 _atom_site_fract_z
 _atom_site_occupancy
  Li  Li0  1  0.250000  0.365929  0.562092  1
  Li  Li1  1  0.250000  0.865929  0.937908  1
  Dy  Dy2  1  0.250000  0.958559  0.324040  1
  Dy  Dy3  1  0.250000  0.458559  0.175960  1
  Dy  Dy4  1  0.750000  0.046714  0.679000  1
  Dy  Dy5  1  0.750000  0.546714  0.821000  1
  Mg  Mg6  1  0.750000  0.625926  0.441869  1
  Mg  Mg7  1  0.750000  0.125926  0.058131  1
  Pt  Pt8  1  0.250000  0.255695  0.876316  1
  Pt  Pt9  1  0.250000  0.755695  0.623684  1
  Pt  Pt10  1  0.750000  0.747177  0.126752  1
  Pt  Pt11  1  0.750000  0.247177  0.373248  1
