# generated using pymatgen
data_Dy2ErThC5
_symmetry_space_group_name_H-M   'P 1'
_cell_length_a   3.67101600
_cell_length_b   6.66927801
_cell_length_c   12.01399076
_cell_angle_alpha   91.33495040
_cell_angle_beta   90.00000000
_cell_angle_gamma   90.00000000
_symmetry_Int_Tables_number   1
_chemical_formula_structural   Dy2ErThC5
_chemical_formula_sum   'Dy4 Er2 Th2 C10'
_cell_volume   294.05901756
_cell_formula_units_Z   2
loop_
 _symmetry_equiv_pos_site_id
 _symmetry_equiv_pos_as_xyz
  1  'x, y, z'
loop_
 _atom_site_type_symbol
 _atom_site_label
 _atom_site_symmetry_multiplicity
 _atom_site_fract_x
 _atom_site_fract_y
 _atom_site_fract_z
 _atom_site_occupancy
  Dy  Dy0  1  0.500000  0.404690  0.303632  1
  Dy  Dy1  1  0.500000  0.595310  0.696368  1
  Dy  Dy2  1  0.500000  0.107085  0.795300  1
  Dy  Dy3  1  0.500000  0.892915  0.204700  1
  Er  Er4  1  0.000000  0.256938  0.539630  1
  Er  Er5  1  0.000000  0.743062  0.460370  1
  Th  Th6  1  0.000000  0.257415  0.044110  1
  Th  Th7  1  0.000000  0.742585  0.955890  1
  C  C8  1  0.500000  0.000000  0.000000  1
  C  C9  1  0.500000  0.500000  0.500000  1
  C  C10  1  0.000000  0.149143  0.248187  1
  C  C11  1  0.000000  0.850858  0.751813  1
  C  C12  1  0.000000  0.356733  0.728595  1
  C  C13  1  0.000000  0.643267  0.271405  1
  C  C14  1  0.000000  0.067168  0.349021  1
  C  C15  1  0.000000  0.932832  0.650979  1
  C  C16  1  0.000000  0.372738  0.841012  1
  C  C17  1  0.000000  0.627262  0.158988  1
