# generated using pymatgen
data_Zr6Zn17HgPt6
_symmetry_space_group_name_H-M   'P 1'
_cell_length_a   8.90795397
_cell_length_b   8.90795357
_cell_length_c   8.90795500
_cell_angle_alpha   60.00000581
_cell_angle_beta   60.00000731
_cell_angle_gamma   60.00000338
_symmetry_Int_Tables_number   1
_chemical_formula_structural   Zr6Zn17HgPt6
_chemical_formula_sum   'Zr6 Zn17 Hg1 Pt6'
_cell_volume   499.82615634
_cell_formula_units_Z   1
loop_
 _symmetry_equiv_pos_site_id
 _symmetry_equiv_pos_as_xyz
  1  'x, y, z'
loop_
 _atom_site_type_symbol
 _atom_site_label
 _atom_site_symmetry_multiplicity
 _atom_site_fract_x
 _atom_site_fract_y
 _atom_site_fract_z
 _atom_site_occupancy
  Zr  Zr0  1  0.754235  0.245765  0.245765  1
  Zr  Zr1  1  0.245765  0.754235  0.754235  1
  Zr  Zr2  1  0.245765  0.754235  0.245765  1
  Zr  Zr3  1  0.754235  0.245765  0.754235  1
  Zr  Zr4  1  0.245765  0.245765  0.754235  1
  Zr  Zr5  1  0.754235  0.754235  0.245765  1
  Zn  Zn6  1  0.140321  0.140321  0.140321  1
  Zn  Zn7  1  0.859679  0.859679  0.859679  1
  Zn  Zn8  1  0.140321  0.140321  0.579037  1
  Zn  Zn9  1  0.140321  0.579037  0.140321  1
  Zn  Zn10  1  0.859679  0.859679  0.420963  1
  Zn  Zn11  1  0.859679  0.420963  0.859679  1
  Zn  Zn12  1  0.579037  0.140321  0.140321  1
  Zn  Zn13  1  0.420963  0.859679  0.859679  1
  Zn  Zn14  1  0.360151  0.360151  0.360151  1
  Zn  Zn15  1  0.639849  0.639849  0.639849  1
  Zn  Zn16  1  0.360151  0.360151  0.919550  1
  Zn  Zn17  1  0.360151  0.919550  0.360151  1
  Zn  Zn18  1  0.639849  0.639849  0.080450  1
  Zn  Zn19  1  0.639849  0.080450  0.639849  1
  Zn  Zn20  1  0.919550  0.360151  0.360151  1
  Zn  Zn21  1  0.080450  0.639849  0.639849  1
  Zn  Zn22  1  0.000000  0.000000  0.000000  1
  Hg  Hg23  1  0.500000  0.500000  0.500000  1
  Pt  Pt24  1  0.500000  0.000000  0.000000  1
  Pt  Pt25  1  0.000000  0.500000  0.500000  1
  Pt  Pt26  1  0.000000  0.500000  0.000000  1
  Pt  Pt27  1  0.500000  0.000000  0.500000  1
  Pt  Pt28  1  0.000000  0.000000  0.500000  1
  Pt  Pt29  1  0.500000  0.500000  0.000000  1
