# generated using pymatgen
data_Zr10Ge3As3C2
_symmetry_space_group_name_H-M   'P 1'
_cell_length_a   8.03857917
_cell_length_b   8.03239575
_cell_length_c   5.70198500
_cell_angle_alpha   90.00000000
_cell_angle_beta   90.00000000
_cell_angle_gamma   119.98349862
_symmetry_Int_Tables_number   1
_chemical_formula_structural   Zr10Ge3As3C2
_chemical_formula_sum   'Zr10 Ge3 As3 C2'
_cell_volume   318.89909250
_cell_formula_units_Z   1
loop_
 _symmetry_equiv_pos_site_id
 _symmetry_equiv_pos_as_xyz
  1  'x, y, z'
loop_
 _atom_site_type_symbol
 _atom_site_label
 _atom_site_symmetry_multiplicity
 _atom_site_fract_x
 _atom_site_fract_y
 _atom_site_fract_z
 _atom_site_occupancy
  Zr  Zr0  1  0.333233  0.669124  0.999638  1
  Zr  Zr1  1  0.666701  0.331900  0.999635  1
  Zr  Zr2  1  0.666701  0.331900  0.500365  1
  Zr  Zr3  1  0.333233  0.669124  0.500362  1
  Zr  Zr4  1  0.232415  0.000690  0.250000  1
  Zr  Zr5  1  0.767941  0.999795  0.750000  1
  Zr  Zr6  1  0.001187  0.232855  0.250000  1
  Zr  Zr7  1  0.998827  0.766842  0.750000  1
  Zr  Zr8  1  0.767571  0.766989  0.250000  1
  Zr  Zr9  1  0.232175  0.232992  0.750000  1
  Ge  Ge10  1  0.000590  0.402461  0.750000  1
  Ge  Ge11  1  0.405114  0.406031  0.250000  1
  Ge  Ge12  1  0.594398  0.594653  0.750000  1
  As  As13  1  0.599902  0.000195  0.250000  1
  As  As14  1  0.400817  0.001020  0.750000  1
  As  As15  1  0.999184  0.595015  0.250000  1
  C  C16  1  0.000005  0.999206  0.000177  1
  C  C17  1  0.000005  0.999206  0.499823  1
