# generated using pymatgen
data_Na2Mn3Co5Ni4As7
_symmetry_space_group_name_H-M   'P 1'
_cell_length_a   9.51143382
_cell_length_b   9.53100114
_cell_length_c   3.68906900
_cell_angle_alpha   90.00000000
_cell_angle_beta   90.00000000
_cell_angle_gamma   119.97997271
_symmetry_Int_Tables_number   1
_chemical_formula_structural   Na2Mn3Co5Ni4As7
_chemical_formula_sum   'Na2 Mn3 Co5 Ni4 As7'
_cell_volume   289.68067959
_cell_formula_units_Z   1
loop_
 _symmetry_equiv_pos_site_id
 _symmetry_equiv_pos_as_xyz
  1  'x, y, z'
loop_
 _atom_site_type_symbol
 _atom_site_label
 _atom_site_symmetry_multiplicity
 _atom_site_fract_x
 _atom_site_fract_y
 _atom_site_fract_z
 _atom_site_occupancy
  Na  Na0  1  0.333057  0.666890  0.000000  1
  Na  Na1  1  0.666958  0.334029  0.500000  1
  Mn  Mn2  1  0.222688  0.124411  0.500000  1
  Mn  Mn3  1  0.879589  0.098711  0.500000  1
  Mn  Mn4  1  0.901057  0.779290  0.500000  1
  Co  Co5  1  0.115735  0.274148  0.000000  1
  Co  Co6  1  0.726115  0.842469  0.000000  1
  Co  Co7  1  0.160459  0.882935  0.000000  1
  Co  Co8  1  0.046680  0.432431  0.500000  1
  Co  Co9  1  0.566445  0.614400  0.500000  1
  Ni  Ni10  1  0.425746  0.372025  0.000000  1
  Ni  Ni11  1  0.627809  0.055451  0.000000  1
  Ni  Ni12  1  0.943087  0.573303  0.000000  1
  Ni  Ni13  1  0.385863  0.950519  0.500000  1
  As  As14  1  0.287424  0.416746  0.500000  1
  As  As15  1  0.586520  0.870709  0.500000  1
  As  As16  1  0.124218  0.708035  0.500000  1
  As  As17  1  0.416289  0.119961  0.000000  1
  As  As18  1  0.883176  0.300066  0.000000  1
  As  As19  1  0.699132  0.583687  0.000000  1
  As  As20  1  0.001953  0.999785  0.000000  1
