# generated using pymatgen
data_Pr4Hg2RhAu3
_symmetry_space_group_name_H-M   'P 1'
_cell_length_a   8.10012119
_cell_length_b   8.10012085
_cell_length_c   3.90055300
_cell_angle_alpha   90.00000000
_cell_angle_beta   90.00000000
_cell_angle_gamma   89.90764179
_symmetry_Int_Tables_number   1
_chemical_formula_structural   Pr4Hg2RhAu3
_chemical_formula_sum   'Pr4 Hg2 Rh1 Au3'
_cell_volume   255.92259695
_cell_formula_units_Z   1
loop_
 _symmetry_equiv_pos_site_id
 _symmetry_equiv_pos_as_xyz
  1  'x, y, z'
loop_
 _atom_site_type_symbol
 _atom_site_label
 _atom_site_symmetry_multiplicity
 _atom_site_fract_x
 _atom_site_fract_y
 _atom_site_fract_z
 _atom_site_occupancy
  Pr  Pr0  1  0.654490  0.181273  0.500000  1
  Pr  Pr1  1  0.318727  0.845510  0.500000  1
  Pr  Pr2  1  0.188708  0.311292  0.500000  1
  Pr  Pr3  1  0.827254  0.672746  0.500000  1
  Hg  Hg4  1  0.004683  0.001882  0.000000  1
  Hg  Hg5  1  0.498118  0.495317  0.000000  1
  Rh  Rh6  1  0.375482  0.124518  0.000000  1
  Au  Au7  1  0.129664  0.621066  0.000000  1
  Au  Au8  1  0.878934  0.370336  0.000000  1
  Au  Au9  1  0.623940  0.876060  0.000000  1
