# generated using pymatgen
data_Nd3Dy2P12Ru19
_symmetry_space_group_name_H-M   'P 1'
_cell_length_a   12.60544100
_cell_length_b   12.60544114
_cell_length_c   4.00653600
_cell_angle_alpha   90.00000000
_cell_angle_beta   90.00000000
_cell_angle_gamma   120.00000227
_symmetry_Int_Tables_number   1
_chemical_formula_structural   Nd3Dy2P12Ru19
_chemical_formula_sum   'Nd3 Dy2 P12 Ru19'
_cell_volume   551.33525455
_cell_formula_units_Z   1
loop_
 _symmetry_equiv_pos_site_id
 _symmetry_equiv_pos_as_xyz
  1  'x, y, z'
loop_
 _atom_site_type_symbol
 _atom_site_label
 _atom_site_symmetry_multiplicity
 _atom_site_fract_x
 _atom_site_fract_y
 _atom_site_fract_z
 _atom_site_occupancy
  Nd  Nd0  1  0.815901  0.000000  0.500000  1
  Nd  Nd1  1  0.184099  0.184099  0.500000  1
  Nd  Nd2  1  0.000000  0.815901  0.500000  1
  Dy  Dy3  1  0.666667  0.333333  0.000000  1
  Dy  Dy4  1  0.333333  0.666667  0.000000  1
  P  P5  1  0.625357  0.000000  0.000000  1
  P  P6  1  0.374643  0.374643  0.000000  1
  P  P7  1  0.000000  0.625357  0.000000  1
  P  P8  1  0.694889  0.521669  0.500000  1
  P  P9  1  0.826781  0.305111  0.500000  1
  P  P10  1  0.305111  0.826781  0.500000  1
  P  P11  1  0.521669  0.694889  0.500000  1
  P  P12  1  0.187686  0.000000  0.000000  1
  P  P13  1  0.812314  0.812314  0.000000  1
  P  P14  1  0.000000  0.187686  0.000000  1
  P  P15  1  0.478331  0.173219  0.500000  1
  P  P16  1  0.173219  0.478331  0.500000  1
  Ru  Ru17  1  0.619460  0.804875  0.000000  1
  Ru  Ru18  1  0.185414  0.380540  0.000000  1
  Ru  Ru19  1  0.380540  0.185414  0.000000  1
  Ru  Ru20  1  0.195125  0.814586  0.000000  1
  Ru  Ru21  1  0.804875  0.619460  0.000000  1
  Ru  Ru22  1  0.874260  0.506648  0.500000  1
  Ru  Ru23  1  0.493352  0.367613  0.500000  1
  Ru  Ru24  1  0.632387  0.125740  0.500000  1
  Ru  Ru25  1  0.125740  0.632387  0.500000  1
  Ru  Ru26  1  0.367613  0.493352  0.500000  1
  Ru  Ru27  1  0.506648  0.874260  0.500000  1
  Ru  Ru28  1  0.000000  0.000000  0.000000  1
  Ru  Ru29  1  0.713841  0.713841  0.500000  1
  Ru  Ru30  1  0.000000  0.286159  0.500000  1
  Ru  Ru31  1  0.445447  0.000000  0.000000  1
  Ru  Ru32  1  0.554553  0.554553  0.000000  1
  Ru  Ru33  1  0.000000  0.445447  0.000000  1
  Ru  Ru34  1  0.814586  0.195125  0.000000  1
  Ru  Ru35  1  0.286159  0.000000  0.500000  1
