# generated using pymatgen
data_TbTm7GaPd24
_symmetry_space_group_name_H-M   'P 1'
_cell_length_a   8.33157904
_cell_length_b   8.33157908
_cell_length_c   8.33157900
_cell_angle_alpha   89.99431965
_cell_angle_beta   89.99431965
_cell_angle_gamma   90.00567979
_symmetry_Int_Tables_number   1
_chemical_formula_structural   TbTm7GaPd24
_chemical_formula_sum   'Tb1 Tm7 Ga1 Pd24'
_cell_volume   578.33829453
_cell_formula_units_Z   1
loop_
 _symmetry_equiv_pos_site_id
 _symmetry_equiv_pos_as_xyz
  1  'x, y, z'
loop_
 _atom_site_type_symbol
 _atom_site_label
 _atom_site_symmetry_multiplicity
 _atom_site_fract_x
 _atom_site_fract_y
 _atom_site_fract_z
 _atom_site_occupancy
  Tb  Tb0  1  0.251772  0.251772  0.748228  1
  Tm  Tm1  1  0.251703  0.748360  0.251640  1
  Tm  Tm2  1  0.748360  0.251703  0.251640  1
  Tm  Tm3  1  0.748360  0.748360  0.748297  1
  Tm  Tm4  1  0.748197  0.748197  0.251803  1
  Tm  Tm5  1  0.748201  0.251739  0.748261  1
  Tm  Tm6  1  0.251739  0.748201  0.748261  1
  Tm  Tm7  1  0.251739  0.251739  0.251799  1
  Ga  Ga8  1  0.999923  0.999923  0.000077  1
  Pd  Pd9  1  0.501033  0.501033  0.747245  1
  Pd  Pd10  1  0.501033  0.252755  0.498967  1
  Pd  Pd11  1  0.252755  0.501033  0.498967  1
  Pd  Pd12  1  0.500050  0.500050  0.252743  1
  Pd  Pd13  1  0.500050  0.747257  0.499950  1
  Pd  Pd14  1  0.747257  0.500050  0.499950  1
  Pd  Pd15  1  0.999110  0.999110  0.708495  1
  Pd  Pd16  1  0.999110  0.291505  0.000890  1
  Pd  Pd17  1  0.291505  0.999110  0.000890  1
  Pd  Pd18  1  0.999982  0.999982  0.291330  1
  Pd  Pd19  1  0.999982  0.708670  0.000018  1
  Pd  Pd20  1  0.708670  0.999982  0.000018  1
  Pd  Pd21  1  0.998910  0.500898  0.739931  1
  Pd  Pd22  1  0.500898  0.260069  0.001090  1
  Pd  Pd23  1  0.260069  0.998910  0.499102  1
  Pd  Pd24  1  0.998910  0.260069  0.499102  1
  Pd  Pd25  1  0.500898  0.998910  0.739931  1
  Pd  Pd26  1  0.260069  0.500898  0.001090  1
  Pd  Pd27  1  0.999974  0.500064  0.260181  1
  Pd  Pd28  1  0.500064  0.739819  0.000026  1
  Pd  Pd29  1  0.999974  0.739819  0.499936  1
  Pd  Pd30  1  0.500064  0.999974  0.260181  1
  Pd  Pd31  1  0.739819  0.999974  0.499936  1
  Pd  Pd32  1  0.739819  0.500064  0.000026  1
