# generated using pymatgen
data_YHo(SiAu2)4
_symmetry_space_group_name_H-M   'P 1'
_cell_length_a   4.41439600
_cell_length_b   4.41439600
_cell_length_c   26.98543400
_cell_angle_alpha   90.00000000
_cell_angle_beta   90.00000000
_cell_angle_gamma   90.00000000
_symmetry_Int_Tables_number   1
_chemical_formula_structural   YHo(SiAu2)4
_chemical_formula_sum   'Y2 Ho2 Si8 Au16'
_cell_volume   525.86223914
_cell_formula_units_Z   2
loop_
 _symmetry_equiv_pos_site_id
 _symmetry_equiv_pos_as_xyz
  1  'x, y, z'
loop_
 _atom_site_type_symbol
 _atom_site_label
 _atom_site_symmetry_multiplicity
 _atom_site_fract_x
 _atom_site_fract_y
 _atom_site_fract_z
 _atom_site_occupancy
  Y  Y0  1  0.000000  0.500000  0.749434  1
  Y  Y1  1  0.500000  0.000000  0.250566  1
  Ho  Ho2  1  0.500000  0.500000  0.000000  1
  Ho  Ho3  1  0.500000  0.500000  0.500000  1
  Si  Si4  1  0.000000  0.000000  0.956861  1
  Si  Si5  1  0.000000  0.000000  0.456992  1
  Si  Si6  1  0.500000  0.000000  0.792739  1
  Si  Si7  1  0.500000  0.000000  0.706139  1
  Si  Si8  1  0.000000  0.500000  0.207261  1
  Si  Si9  1  0.000000  0.500000  0.293861  1
  Si  Si10  1  0.000000  0.000000  0.043139  1
  Si  Si11  1  0.000000  0.000000  0.543008  1
  Au  Au12  1  0.500000  0.000000  0.085922  1
  Au  Au13  1  0.500000  0.500000  0.662978  1
  Au  Au14  1  0.500000  0.500000  0.836006  1
  Au  Au15  1  0.000000  0.500000  0.085190  1
  Au  Au16  1  0.500000  0.000000  0.914810  1
  Au  Au17  1  0.000000  0.000000  0.664179  1
  Au  Au18  1  0.000000  0.500000  0.415318  1
  Au  Au19  1  0.500000  0.500000  0.337022  1
  Au  Au20  1  0.500000  0.000000  0.414587  1
  Au  Au21  1  0.000000  0.000000  0.335821  1
  Au  Au22  1  0.000000  0.000000  0.165167  1
  Au  Au23  1  0.500000  0.000000  0.584682  1
  Au  Au24  1  0.000000  0.000000  0.834833  1
  Au  Au25  1  0.500000  0.500000  0.163994  1
  Au  Au26  1  0.000000  0.500000  0.585413  1
  Au  Au27  1  0.000000  0.500000  0.914078  1
