# generated using pymatgen
data_Nd6Y10CdHg3Pt4
_symmetry_space_group_name_H-M   'P 1'
_cell_length_a   9.81154074
_cell_length_b   9.81664509
_cell_length_c   9.81664500
_cell_angle_alpha   59.99999695
_cell_angle_beta   59.98278605
_cell_angle_gamma   59.98278921
_symmetry_Int_Tables_number   1
_chemical_formula_structural   Nd6Y10CdHg3Pt4
_chemical_formula_sum   'Nd6 Y10 Cd1 Hg3 Pt4'
_cell_volume   668.39830863
_cell_formula_units_Z   1
loop_
 _symmetry_equiv_pos_site_id
 _symmetry_equiv_pos_as_xyz
  1  'x, y, z'
loop_
 _atom_site_type_symbol
 _atom_site_label
 _atom_site_symmetry_multiplicity
 _atom_site_fract_x
 _atom_site_fract_y
 _atom_site_fract_z
 _atom_site_occupancy
  Nd  Nd0  1  0.936096  0.562822  0.562822  1
  Nd  Nd1  1  0.562473  0.937485  0.937485  1
  Nd  Nd2  1  0.562473  0.937485  0.562556  1
  Nd  Nd3  1  0.936096  0.562822  0.938260  1
  Nd  Nd4  1  0.562473  0.562556  0.937485  1
  Nd  Nd5  1  0.936096  0.938260  0.562822  1
  Y  Y6  1  0.352150  0.351433  0.351433  1
  Y  Y7  1  0.352150  0.351433  0.944983  1
  Y  Y8  1  0.352150  0.944983  0.351433  1
  Y  Y9  1  0.943380  0.352206  0.352206  1
  Y  Y10  1  0.811369  0.188521  0.188521  1
  Y  Y11  1  0.187904  0.811833  0.811833  1
  Y  Y12  1  0.187904  0.811833  0.188431  1
  Y  Y13  1  0.811369  0.188521  0.811589  1
  Y  Y14  1  0.187904  0.188431  0.811833  1
  Y  Y15  1  0.811369  0.811589  0.188521  1
  Cd  Cd16  1  0.259531  0.580156  0.580156  1
  Hg  Hg17  1  0.582296  0.583898  0.583898  1
  Hg  Hg18  1  0.582296  0.583898  0.249908  1
  Hg  Hg19  1  0.582296  0.249908  0.583898  1
  Pt  Pt20  1  0.142744  0.142777  0.142777  1
  Pt  Pt21  1  0.142744  0.142777  0.571703  1
  Pt  Pt22  1  0.142744  0.571703  0.142777  1
  Pt  Pt23  1  0.571995  0.142669  0.142669  1
