# generated using pymatgen
data_Nd2Zn2PtRh
_symmetry_space_group_name_H-M   'P 1'
_cell_length_a   4.05015300
_cell_length_b   7.39168426
_cell_length_c   16.73069639
_cell_angle_alpha   90.16050054
_cell_angle_beta   90.00000000
_cell_angle_gamma   90.00000000
_symmetry_Int_Tables_number   1
_chemical_formula_structural   Nd2Zn2PtRh
_chemical_formula_sum   'Nd8 Zn8 Pt4 Rh4'
_cell_volume   500.87245790
_cell_formula_units_Z   4
loop_
 _symmetry_equiv_pos_site_id
 _symmetry_equiv_pos_as_xyz
  1  'x, y, z'
loop_
 _atom_site_type_symbol
 _atom_site_label
 _atom_site_symmetry_multiplicity
 _atom_site_fract_x
 _atom_site_fract_y
 _atom_site_fract_z
 _atom_site_occupancy
  Nd  Nd0  1  0.250000  0.168317  0.943203  1
  Nd  Nd1  1  0.250000  0.667466  0.560110  1
  Nd  Nd2  1  0.750000  0.328316  0.442573  1
  Nd  Nd3  1  0.750000  0.948455  0.281300  1
  Nd  Nd4  1  0.750000  0.829156  0.060106  1
  Nd  Nd5  1  0.750000  0.452927  0.212837  1
  Nd  Nd6  1  0.250000  0.051737  0.714167  1
  Nd  Nd7  1  0.250000  0.551658  0.786972  1
  Zn  Zn8  1  0.750000  0.003616  0.561151  1
  Zn  Zn9  1  0.250000  0.621928  0.346572  1
  Zn  Zn10  1  0.750000  0.376891  0.650140  1
  Zn  Zn11  1  0.250000  0.498927  0.060248  1
  Zn  Zn12  1  0.750000  0.502967  0.940851  1
  Zn  Zn13  1  0.250000  0.000504  0.439858  1
  Zn  Zn14  1  0.250000  0.122081  0.149727  1
  Zn  Zn15  1  0.750000  0.875704  0.850231  1
  Pt  Pt16  1  0.750000  0.754007  0.434498  1
  Pt  Pt17  1  0.250000  0.246955  0.313739  1
  Pt  Pt18  1  0.750000  0.252414  0.814368  1
  Pt  Pt19  1  0.750000  0.753019  0.686052  1
  Rh  Rh20  1  0.250000  0.243483  0.565342  1
  Rh  Rh21  1  0.250000  0.748950  0.185637  1
  Rh  Rh22  1  0.750000  0.255150  0.065152  1
  Rh  Rh23  1  0.250000  0.745372  0.935165  1
