# generated using pymatgen
data_DyHo3(B4Mo)4
_symmetry_space_group_name_H-M   'P 1'
_cell_length_a   3.61740700
_cell_length_b   6.02775705
_cell_length_c   11.64698309
_cell_angle_alpha   89.98543334
_cell_angle_beta   90.00000000
_cell_angle_gamma   90.00000000
_symmetry_Int_Tables_number   1
_chemical_formula_structural   DyHo3(B4Mo)4
_chemical_formula_sum   'Dy1 Ho3 B16 Mo4'
_cell_volume   253.96071743
_cell_formula_units_Z   1
loop_
 _symmetry_equiv_pos_site_id
 _symmetry_equiv_pos_as_xyz
  1  'x, y, z'
loop_
 _atom_site_type_symbol
 _atom_site_label
 _atom_site_symmetry_multiplicity
 _atom_site_fract_x
 _atom_site_fract_y
 _atom_site_fract_z
 _atom_site_occupancy
  Dy  Dy0  1  0.000000  0.626884  0.350166  1
  Ho  Ho1  1  0.000000  0.373134  0.649828  1
  Ho  Ho2  1  0.000000  0.126950  0.149747  1
  Ho  Ho3  1  0.000000  0.873069  0.850177  1
  B  B4  1  0.500000  0.786926  0.186295  1
  B  B5  1  0.500000  0.213063  0.813548  1
  B  B6  1  0.500000  0.286658  0.313547  1
  B  B7  1  0.500000  0.713173  0.686388  1
  B  B8  1  0.500000  0.867006  0.032025  1
  B  B9  1  0.500000  0.132939  0.967985  1
  B  B10  1  0.500000  0.366828  0.468060  1
  B  B11  1  0.500000  0.633090  0.532152  1
  B  B12  1  0.500000  0.885817  0.452619  1
  B  B13  1  0.500000  0.114343  0.547602  1
  B  B14  1  0.500000  0.385588  0.047577  1
  B  B15  1  0.500000  0.614463  0.952467  1
  B  B16  1  0.500000  0.976115  0.306351  1
  B  B17  1  0.500000  0.023978  0.693594  1
  B  B18  1  0.500000  0.475857  0.193455  1
  B  B19  1  0.500000  0.524077  0.806342  1
  Mo  Mo20  1  0.000000  0.630008  0.083707  1
  Mo  Mo21  1  0.000000  0.370016  0.916192  1
  Mo  Mo22  1  0.000000  0.129969  0.416266  1
  Mo  Mo23  1  0.000000  0.870049  0.583910  1
