# generated using pymatgen
data_Sc5(Si3Tc2)4
_symmetry_space_group_name_H-M   'P 1'
_cell_length_a   10.23479200
_cell_length_b   10.23479180
_cell_length_c   14.50626300
_cell_angle_alpha   90.00000000
_cell_angle_beta   90.00000000
_cell_angle_gamma   150.17311433
_symmetry_Int_Tables_number   1
_chemical_formula_structural   Sc5(Si3Tc2)4
_chemical_formula_sum   'Sc10 Si24 Tc16'
_cell_volume   755.79298852
_cell_formula_units_Z   2
loop_
 _symmetry_equiv_pos_site_id
 _symmetry_equiv_pos_as_xyz
  1  'x, y, z'
loop_
 _atom_site_type_symbol
 _atom_site_label
 _atom_site_symmetry_multiplicity
 _atom_site_fract_x
 _atom_site_fract_y
 _atom_site_fract_z
 _atom_site_occupancy
  Sc  Sc0  1  0.589958  0.860211  0.327900  1
  Sc  Sc1  1  0.960053  0.960053  0.000000  1
  Sc  Sc2  1  0.589958  0.860211  0.672100  1
  Sc  Sc3  1  0.361551  0.094454  0.174906  1
  Sc  Sc4  1  0.094454  0.361551  0.825094  1
  Sc  Sc5  1  0.361551  0.094454  0.825094  1
  Sc  Sc6  1  0.094454  0.361551  0.174906  1
  Sc  Sc7  1  0.435768  0.435768  0.500000  1
  Sc  Sc8  1  0.860211  0.589958  0.327900  1
  Sc  Sc9  1  0.860211  0.589958  0.672100  1
  Si  Si10  1  0.802066  0.645623  0.149148  1
  Si  Si11  1  0.645623  0.802066  0.850852  1
  Si  Si12  1  0.802066  0.645623  0.850852  1
  Si  Si13  1  0.645623  0.802066  0.149148  1
  Si  Si14  1  0.676776  0.117515  0.500000  1
  Si  Si15  1  0.863803  0.863803  0.604746  1
  Si  Si16  1  0.863803  0.863803  0.395254  1
  Si  Si17  1  0.350786  0.350786  0.878477  1
  Si  Si18  1  0.117515  0.676776  0.500000  1
  Si  Si19  1  0.113903  0.849301  0.000000  1
  Si  Si20  1  0.849301  0.113903  0.000000  1
  Si  Si21  1  0.159632  0.576094  0.000000  1
  Si  Si22  1  0.226995  0.726623  0.242084  1
  Si  Si23  1  0.726623  0.226995  0.757916  1
  Si  Si24  1  0.226995  0.726623  0.757916  1
  Si  Si25  1  0.726623  0.226995  0.242084  1
  Si  Si26  1  0.320206  0.602335  0.500000  1
  Si  Si27  1  0.576094  0.159632  0.000000  1
  Si  Si28  1  0.602335  0.320206  0.500000  1
  Si  Si29  1  0.350786  0.350786  0.121523  1
  Si  Si30  1  0.138074  0.300027  0.353466  1
  Si  Si31  1  0.300027  0.138074  0.646534  1
  Si  Si32  1  0.138074  0.300027  0.646534  1
  Si  Si33  1  0.300027  0.138074  0.353466  1
  Tc  Tc34  1  0.873670  0.075393  0.500000  1
  Tc  Tc35  1  0.075393  0.873670  0.500000  1
  Tc  Tc36  1  0.435766  0.023598  0.374774  1
  Tc  Tc37  1  0.023598  0.435766  0.625226  1
  Tc  Tc38  1  0.389112  0.557142  0.000000  1
  Tc  Tc39  1  0.557142  0.389112  0.000000  1
  Tc  Tc40  1  0.023598  0.435766  0.374774  1
  Tc  Tc41  1  0.525528  0.928727  0.107769  1
  Tc  Tc42  1  0.000420  0.000420  0.230264  1
  Tc  Tc43  1  0.000420  0.000420  0.769736  1
  Tc  Tc44  1  0.507031  0.507031  0.279227  1
  Tc  Tc45  1  0.507031  0.507031  0.720773  1
  Tc  Tc46  1  0.928727  0.525528  0.892231  1
  Tc  Tc47  1  0.525528  0.928727  0.892231  1
  Tc  Tc48  1  0.928727  0.525528  0.107769  1
  Tc  Tc49  1  0.435766  0.023598  0.625226  1
