# generated using pymatgen
data_K2Cu18Si7Ge
_symmetry_space_group_name_H-M   'P 1'
_cell_length_a   8.22780037
_cell_length_b   8.22779359
_cell_length_c   8.24429838
_cell_angle_alpha   120.56957733
_cell_angle_beta   120.56948548
_cell_angle_gamma   89.00503545
_symmetry_Int_Tables_number   1
_chemical_formula_structural   K2Cu18Si7Ge
_chemical_formula_sum   'K2 Cu18 Si7 Ge1'
_cell_volume   391.22242511
_cell_formula_units_Z   1
loop_
 _symmetry_equiv_pos_site_id
 _symmetry_equiv_pos_as_xyz
  1  'x, y, z'
loop_
 _atom_site_type_symbol
 _atom_site_label
 _atom_site_symmetry_multiplicity
 _atom_site_fract_x
 _atom_site_fract_y
 _atom_site_fract_z
 _atom_site_occupancy
  K  K0  1  0.249770  0.250019  0.999801  1
  K  K1  1  0.750018  0.749775  0.999803  1
  Cu  Cu2  1  0.934200  0.201414  0.140692  1
  Cu  Cu3  1  0.204650  0.064583  0.269677  1
  Cu  Cu4  1  0.794314  0.931482  0.729343  1
  Cu  Cu5  1  0.431483  0.294311  0.729342  1
  Cu  Cu6  1  0.066620  0.796806  0.861967  1
  Cu  Cu7  1  0.805930  0.055132  0.494096  1
  Cu  Cu8  1  0.555132  0.305928  0.494095  1
  Cu  Cu9  1  0.192920  0.942065  0.501203  1
  Cu  Cu10  1  0.442065  0.692920  0.501203  1
  Cu  Cu11  1  0.941380  0.441379  0.738982  1
  Cu  Cu12  1  0.693166  0.193165  0.252444  1
  Cu  Cu13  1  0.065663  0.565666  0.265451  1
  Cu  Cu14  1  0.701413  0.434200  0.140692  1
  Cu  Cu15  1  0.564584  0.704650  0.269677  1
  Cu  Cu16  1  0.498040  0.998042  0.498439  1
  Cu  Cu17  1  0.000498  0.500497  0.499292  1
  Cu  Cu18  1  0.306814  0.806814  0.747991  1
  Cu  Cu19  1  0.296806  0.566622  0.861968  1
  Si  Si20  1  0.558476  0.058475  0.851000  1
  Si  Si21  1  0.059806  0.208406  0.499233  1
  Si  Si22  1  0.291796  0.439909  0.501012  1
  Si  Si23  1  0.939909  0.791795  0.501012  1
  Si  Si24  1  0.440274  0.940274  0.148919  1
  Si  Si25  1  0.206766  0.706766  0.147286  1
  Si  Si26  1  0.708407  0.559806  0.499233  1
  Ge  Ge27  1  0.799097  0.299098  0.856148  1
