# generated using pymatgen
data_Nd4Al24Pt7Au2
_symmetry_space_group_name_H-M   'P 1'
_cell_length_a   7.61708786
_cell_length_b   7.63566717
_cell_length_c   13.32807998
_cell_angle_alpha   84.56997115
_cell_angle_beta   79.12450352
_cell_angle_gamma   59.90773181
_symmetry_Int_Tables_number   1
_chemical_formula_structural   Nd4Al24Pt7Au2
_chemical_formula_sum   'Nd4 Al24 Pt7 Au2'
_cell_volume   658.65590621
_cell_formula_units_Z   1
loop_
 _symmetry_equiv_pos_site_id
 _symmetry_equiv_pos_as_xyz
  1  'x, y, z'
loop_
 _atom_site_type_symbol
 _atom_site_label
 _atom_site_symmetry_multiplicity
 _atom_site_fract_x
 _atom_site_fract_y
 _atom_site_fract_z
 _atom_site_occupancy
  Nd  Nd0  1  0.392300  0.169321  0.809496  1
  Nd  Nd1  1  0.607700  0.830679  0.190504  1
  Nd  Nd2  1  0.734903  0.498109  0.810374  1
  Nd  Nd3  1  0.265097  0.501891  0.189626  1
  Al  Al4  1  0.685258  0.834431  0.946689  1
  Al  Al5  1  0.314742  0.165569  0.053311  1
  Al  Al6  1  0.145657  0.839505  0.560716  1
  Al  Al7  1  0.854343  0.160495  0.439284  1
  Al  Al8  1  0.488773  0.159389  0.558363  1
  Al  Al9  1  0.511227  0.840611  0.441637  1
  Al  Al10  1  0.221616  0.159963  0.329175  1
  Al  Al11  1  0.778384  0.840037  0.670825  1
  Al  Al12  1  0.440347  0.507246  0.670997  1
  Al  Al13  1  0.559653  0.492754  0.329003  1
  Al  Al14  1  0.109579  0.152987  0.670130  1
  Al  Al15  1  0.890421  0.847013  0.329870  1
  Al  Al16  1  0.350752  0.501398  0.946532  1
  Al  Al17  1  0.649248  0.498602  0.053468  1
  Al  Al18  1  0.015231  0.165200  0.956015  1
  Al  Al19  1  0.984769  0.834800  0.043985  1
  Al  Al20  1  0.195592  0.500149  0.438278  1
  Al  Al21  1  0.804408  0.499851  0.561722  1
  Al  Al22  1  0.733931  0.164266  0.184019  1
  Al  Al23  1  0.266069  0.835734  0.815981  1
  Al  Al24  1  0.060474  0.635639  0.817909  1
  Al  Al25  1  0.939526  0.364361  0.182091  1
  Al  Al26  1  0.856979  0.040432  0.815681  1
  Al  Al27  1  0.143021  0.959568  0.184320  1
  Pt  Pt28  1  0.658309  0.170653  0.999705  1
  Pt  Pt29  1  0.341691  0.829347  0.000295  1
  Pt  Pt30  1  0.539091  0.166941  0.363924  1
  Pt  Pt31  1  0.460909  0.833059  0.636076  1
  Pt  Pt32  1  0.781894  0.173361  0.635279  1
  Pt  Pt33  1  0.218106  0.826639  0.364721  1
  Pt  Pt34  1  0.000000  0.500000  0.000000  1
  Au  Au35  1  0.120388  0.493399  0.636369  1
  Au  Au36  1  0.879612  0.506601  0.363631  1
