# generated using pymatgen
data_Tm4Ga4Co3Rh
_symmetry_space_group_name_H-M   'P 1'
_cell_length_a   4.16814400
_cell_length_b   6.64977472
_cell_length_c   7.59383818
_cell_angle_alpha   89.93576272
_cell_angle_beta   90.00000000
_cell_angle_gamma   90.00000000
_symmetry_Int_Tables_number   1
_chemical_formula_structural   Tm4Ga4Co3Rh
_chemical_formula_sum   'Tm4 Ga4 Co3 Rh1'
_cell_volume   210.47994069
_cell_formula_units_Z   1
loop_
 _symmetry_equiv_pos_site_id
 _symmetry_equiv_pos_as_xyz
  1  'x, y, z'
loop_
 _atom_site_type_symbol
 _atom_site_label
 _atom_site_symmetry_multiplicity
 _atom_site_fract_x
 _atom_site_fract_y
 _atom_site_fract_z
 _atom_site_occupancy
  Tm  Tm0  1  0.250000  0.972603  0.310031  1
  Tm  Tm1  1  0.250000  0.477187  0.184780  1
  Tm  Tm2  1  0.750000  0.020553  0.689654  1
  Tm  Tm3  1  0.750000  0.526051  0.813604  1
  Ga  Ga4  1  0.250000  0.347527  0.578852  1
  Ga  Ga5  1  0.250000  0.839054  0.931580  1
  Ga  Ga6  1  0.750000  0.666365  0.432216  1
  Ga  Ga7  1  0.750000  0.155194  0.059683  1
  Co  Co8  1  0.250000  0.224279  0.888430  1
  Co  Co9  1  0.250000  0.729317  0.612418  1
  Co  Co10  1  0.750000  0.772448  0.110452  1
  Rh  Rh11  1  0.750000  0.269422  0.388300  1
