# generated using pymatgen
data_Zr24As3AuSe8
_symmetry_space_group_name_H-M   'P 1'
_cell_length_a   3.69396600
_cell_length_b   12.75206078
_cell_length_c   15.78579818
_cell_angle_alpha   90.07202700
_cell_angle_beta   90.00000000
_cell_angle_gamma   90.00000000
_symmetry_Int_Tables_number   1
_chemical_formula_structural   Zr24As3AuSe8
_chemical_formula_sum   'Zr24 As3 Au1 Se8'
_cell_volume   743.60015347
_cell_formula_units_Z   1
loop_
 _symmetry_equiv_pos_site_id
 _symmetry_equiv_pos_as_xyz
  1  'x, y, z'
loop_
 _atom_site_type_symbol
 _atom_site_label
 _atom_site_symmetry_multiplicity
 _atom_site_fract_x
 _atom_site_fract_y
 _atom_site_fract_z
 _atom_site_occupancy
  Zr  Zr0  1  0.000000  0.345012  0.478074  1
  Zr  Zr1  1  0.000000  0.642318  0.522942  1
  Zr  Zr2  1  0.500000  0.152084  0.978356  1
  Zr  Zr3  1  0.500000  0.850061  0.020546  1
  Zr  Zr4  1  0.000000  0.084005  0.578484  1
  Zr  Zr5  1  0.000000  0.921491  0.423362  1
  Zr  Zr6  1  0.500000  0.416460  0.076676  1
  Zr  Zr7  1  0.500000  0.583936  0.924276  1
  Zr  Zr8  1  0.000000  0.692674  0.290108  1
  Zr  Zr9  1  0.000000  0.304856  0.704733  1
  Zr  Zr10  1  0.500000  0.807741  0.796362  1
  Zr  Zr11  1  0.500000  0.195132  0.203324  1
  Zr  Zr12  1  0.000000  0.031103  0.108948  1
  Zr  Zr13  1  0.000000  0.969512  0.889896  1
  Zr  Zr14  1  0.500000  0.468447  0.609032  1
  Zr  Zr15  1  0.500000  0.524819  0.391494  1
  Zr  Zr16  1  0.000000  0.619354  0.078499  1
  Zr  Zr17  1  0.000000  0.380427  0.922205  1
  Zr  Zr18  1  0.500000  0.882219  0.581674  1
  Zr  Zr19  1  0.500000  0.120584  0.423597  1
  Zr  Zr20  1  0.000000  0.409045  0.241395  1
  Zr  Zr21  1  0.000000  0.588870  0.758259  1
  Zr  Zr22  1  0.500000  0.089138  0.743587  1
  Zr  Zr23  1  0.500000  0.917291  0.253129  1
  As  As24  1  0.000000  0.256235  0.083765  1
  As  As25  1  0.000000  0.744279  0.915130  1
  As  As26  1  0.500000  0.244201  0.584620  1
  Au  Au27  1  0.500000  0.759239  0.416116  1
  Se  Se28  1  0.000000  0.815843  0.150324  1
  Se  Se29  1  0.000000  0.185422  0.849003  1
  Se  Se30  1  0.500000  0.684839  0.652169  1
  Se  Se31  1  0.500000  0.312137  0.348981  1
  Se  Se32  1  0.000000  0.073221  0.291766  1
  Se  Se33  1  0.000000  0.930790  0.709147  1
  Se  Se34  1  0.500000  0.430654  0.792108  1
  Se  Se35  1  0.500000  0.566560  0.207914  1
