# generated using pymatgen
data_Y9Tm(In3Hg)2
_symmetry_space_group_name_H-M   'P 1'
_cell_length_a   9.28248300
_cell_length_b   9.28248441
_cell_length_c   6.73423200
_cell_angle_alpha   90.00000000
_cell_angle_beta   90.00000000
_cell_angle_gamma   119.99999143
_symmetry_Int_Tables_number   1
_chemical_formula_structural   Y9Tm(In3Hg)2
_chemical_formula_sum   'Y9 Tm1 In6 Hg2'
_cell_volume   502.51280646
_cell_formula_units_Z   1
loop_
 _symmetry_equiv_pos_site_id
 _symmetry_equiv_pos_as_xyz
  1  'x, y, z'
loop_
 _atom_site_type_symbol
 _atom_site_label
 _atom_site_symmetry_multiplicity
 _atom_site_fract_x
 _atom_site_fract_y
 _atom_site_fract_z
 _atom_site_occupancy
  Y  Y0  1  0.333333  0.666667  0.500000  1
  Y  Y1  1  0.666667  0.333333  0.500000  1
  Y  Y2  1  0.666667  0.333333  0.000000  1
  Y  Y3  1  0.286621  0.999397  0.750612  1
  Y  Y4  1  0.712776  0.999397  0.249388  1
  Y  Y5  1  0.000603  0.287224  0.750612  1
  Y  Y6  1  0.000603  0.713379  0.249388  1
  Y  Y7  1  0.712776  0.713379  0.750612  1
  Y  Y8  1  0.286621  0.287224  0.249388  1
  Tm  Tm9  1  0.333333  0.666667  0.000000  1
  In  In10  1  0.625088  0.999432  0.750374  1
  In  In11  1  0.374343  0.999432  0.249626  1
  In  In12  1  0.000568  0.625657  0.750374  1
  In  In13  1  0.000568  0.374912  0.249626  1
  In  In14  1  0.374343  0.374912  0.750374  1
  In  In15  1  0.625088  0.625657  0.249626  1
  Hg  Hg16  1  0.000000  0.000000  0.500000  1
  Hg  Hg17  1  0.000000  0.000000  0.000000  1
