# generated using pymatgen
data_Dy2Ho5Co5TcSn23
_symmetry_space_group_name_H-M   'P 1'
_cell_length_a   9.73992377
_cell_length_b   9.73998976
_cell_length_c   9.98824424
_cell_angle_alpha   89.99653041
_cell_angle_beta   89.95548447
_cell_angle_gamma   119.82170167
_symmetry_Int_Tables_number   1
_chemical_formula_structural   Dy2Ho5Co5TcSn23
_chemical_formula_sum   'Dy2 Ho5 Co5 Tc1 Sn23'
_cell_volume   822.07441131
_cell_formula_units_Z   1
loop_
 _symmetry_equiv_pos_site_id
 _symmetry_equiv_pos_as_xyz
  1  'x, y, z'
loop_
 _atom_site_type_symbol
 _atom_site_label
 _atom_site_symmetry_multiplicity
 _atom_site_fract_x
 _atom_site_fract_y
 _atom_site_fract_z
 _atom_site_occupancy
  Dy  Dy0  1  0.040638  0.518316  0.305973  1
  Dy  Dy1  1  0.959313  0.480873  0.694032  1
  Ho  Ho2  1  0.994701  0.005419  0.006548  1
  Ho  Ho3  1  0.480006  0.519627  0.307467  1
  Ho  Ho4  1  0.520741  0.479493  0.693409  1
  Ho  Ho5  1  0.481975  0.959908  0.305652  1
  Ho  Ho6  1  0.518950  0.040162  0.694185  1
  Co  Co7  1  0.167916  0.832661  0.801206  1
  Co  Co8  1  0.832077  0.662450  0.196177  1
  Co  Co9  1  0.170041  0.337604  0.801708  1
  Co  Co10  1  0.337735  0.167762  0.196402  1
  Co  Co11  1  0.662120  0.830074  0.801540  1
  Tc  Tc12  1  0.833801  0.165767  0.199336  1
  Sn  Sn13  1  0.343487  0.998999  0.999056  1
  Sn  Sn14  1  0.649300  0.996830  0.995351  1
  Sn  Sn15  1  0.003256  0.350669  0.995376  1
  Sn  Sn16  1  0.000914  0.656766  0.999234  1
  Sn  Sn17  1  0.653336  0.652843  0.999792  1
  Sn  Sn18  1  0.347161  0.346894  0.999490  1
  Sn  Sn19  1  0.333050  0.666906  0.817036  1
  Sn  Sn20  1  0.665604  0.334528  0.183097  1
  Sn  Sn21  1  0.999702  0.000414  0.500501  1
  Sn  Sn22  1  0.779141  0.219704  0.458662  1
  Sn  Sn23  1  0.217992  0.782698  0.547803  1
  Sn  Sn24  1  0.781578  0.563687  0.450932  1
  Sn  Sn25  1  0.219451  0.436877  0.548510  1
  Sn  Sn26  1  0.436461  0.218019  0.451602  1
  Sn  Sn27  1  0.563045  0.780863  0.548203  1
  Sn  Sn28  1  0.333752  0.667250  0.118097  1
  Sn  Sn29  1  0.666165  0.332744  0.880759  1
  Sn  Sn30  1  0.117857  0.881657  0.271853  1
  Sn  Sn31  1  0.883054  0.117150  0.727151  1
  Sn  Sn32  1  0.127015  0.238445  0.274106  1
  Sn  Sn33  1  0.881405  0.764329  0.727907  1
  Sn  Sn34  1  0.761297  0.872686  0.273943  1
  Sn  Sn35  1  0.235965  0.118925  0.727903  1
