# generated using pymatgen
data_NdYTh2(Zn5Sn)2
_symmetry_space_group_name_H-M   'P 1'
_cell_length_a   8.54530003
_cell_length_b   8.54530028
_cell_length_c   9.08329406
_cell_angle_alpha   90.82386623
_cell_angle_beta   89.17612765
_cell_angle_gamma   149.61631506
_symmetry_Int_Tables_number   1
_chemical_formula_structural   NdYTh2(Zn5Sn)2
_chemical_formula_sum   'Nd1 Y1 Th2 Zn10 Sn2'
_cell_volume   335.44278118
_cell_formula_units_Z   1
loop_
 _symmetry_equiv_pos_site_id
 _symmetry_equiv_pos_as_xyz
  1  'x, y, z'
loop_
 _atom_site_type_symbol
 _atom_site_label
 _atom_site_symmetry_multiplicity
 _atom_site_fract_x
 _atom_site_fract_y
 _atom_site_fract_z
 _atom_site_occupancy
  Nd  Nd0  1  0.000000  0.000000  0.000000  1
  Y  Y1  1  0.000000  0.000000  0.500000  1
  Th  Th2  1  0.204382  0.795618  0.250455  1
  Th  Th3  1  0.795618  0.204382  0.749545  1
  Zn  Zn4  1  0.816320  0.183680  0.391138  1
  Zn  Zn5  1  0.183680  0.816320  0.608862  1
  Zn  Zn6  1  0.813916  0.186084  0.107764  1
  Zn  Zn7  1  0.186084  0.813916  0.892236  1
  Zn  Zn8  1  0.656694  0.343306  0.484122  1
  Zn  Zn9  1  0.343306  0.656694  0.515878  1
  Zn  Zn10  1  0.657324  0.342676  0.018461  1
  Zn  Zn11  1  0.342676  0.657324  0.981539  1
  Zn  Zn12  1  0.394167  0.605833  0.247874  1
  Zn  Zn13  1  0.605833  0.394167  0.752126  1
  Sn  Sn14  1  0.553879  0.446121  0.254503  1
  Sn  Sn15  1  0.446121  0.553879  0.745497  1
