# generated using pymatgen
data_DyHo3(Si3Ni5)4
_symmetry_space_group_name_H-M   'P 1'
_cell_length_a   3.81313200
_cell_length_b   6.58148108
_cell_length_c   18.82076321
_cell_angle_alpha   89.98272040
_cell_angle_beta   90.00000000
_cell_angle_gamma   90.00000000
_symmetry_Int_Tables_number   1
_chemical_formula_structural   DyHo3(Si3Ni5)4
_chemical_formula_sum   'Dy1 Ho3 Si12 Ni20'
_cell_volume   472.32690787
_cell_formula_units_Z   1
loop_
 _symmetry_equiv_pos_site_id
 _symmetry_equiv_pos_as_xyz
  1  'x, y, z'
loop_
 _atom_site_type_symbol
 _atom_site_label
 _atom_site_symmetry_multiplicity
 _atom_site_fract_x
 _atom_site_fract_y
 _atom_site_fract_z
 _atom_site_occupancy
  Dy  Dy0  1  0.250000  0.623903  0.856136  1
  Ho  Ho1  1  0.250000  0.875837  0.355852  1
  Ho  Ho2  1  0.750000  0.123923  0.643959  1
  Ho  Ho3  1  0.750000  0.376621  0.144050  1
  Si  Si4  1  0.250000  0.078011  0.086806  1
  Si  Si5  1  0.750000  0.923216  0.913554  1
  Si  Si6  1  0.750000  0.577521  0.413353  1
  Si  Si7  1  0.250000  0.422193  0.586580  1
  Si  Si8  1  0.250000  0.656758  0.073869  1
  Si  Si9  1  0.750000  0.342807  0.926257  1
  Si  Si10  1  0.750000  0.156492  0.426020  1
  Si  Si11  1  0.250000  0.843557  0.573746  1
  Si  Si12  1  0.250000  0.381906  0.262505  1
  Si  Si13  1  0.750000  0.617922  0.737290  1
  Si  Si14  1  0.750000  0.881763  0.237344  1
  Si  Si15  1  0.250000  0.118177  0.762548  1
  Ni  Ni16  1  0.250000  0.072656  0.207345  1
  Ni  Ni17  1  0.750000  0.927501  0.792696  1
  Ni  Ni18  1  0.750000  0.572708  0.292735  1
  Ni  Ni19  1  0.250000  0.427053  0.707137  1
  Ni  Ni20  1  0.250000  0.613605  0.483517  1
  Ni  Ni21  1  0.750000  0.385848  0.516489  1
  Ni  Ni22  1  0.750000  0.114027  0.016863  1
  Ni  Ni23  1  0.250000  0.886545  0.983777  1
  Ni  Ni24  1  0.250000  0.687337  0.198825  1
  Ni  Ni25  1  0.750000  0.312595  0.801108  1
  Ni  Ni26  1  0.750000  0.186998  0.300988  1
  Ni  Ni27  1  0.250000  0.812925  0.698767  1
  Ni  Ni28  1  0.250000  0.352861  0.383942  1
  Ni  Ni29  1  0.750000  0.646801  0.615852  1
  Ni  Ni30  1  0.750000  0.853575  0.115937  1
  Ni  Ni31  1  0.250000  0.146341  0.884048  1
  Ni  Ni32  1  0.250000  0.364655  0.005716  1
  Ni  Ni33  1  0.750000  0.635288  0.994531  1
  Ni  Ni34  1  0.750000  0.865225  0.494334  1
  Ni  Ni35  1  0.250000  0.134849  0.505524  1
