# generated using pymatgen
data_Sm3Si4P2Rh9
_symmetry_space_group_name_H-M   'P 1'
_cell_length_a   3.98793800
_cell_length_b   11.40738600
_cell_length_c   12.90474600
_cell_angle_alpha   90.00000000
_cell_angle_beta   90.00000000
_cell_angle_gamma   90.00000000
_symmetry_Int_Tables_number   1
_chemical_formula_structural   Sm3Si4P2Rh9
_chemical_formula_sum   'Sm6 Si8 P4 Rh18'
_cell_volume   587.06203541
_cell_formula_units_Z   2
loop_
 _symmetry_equiv_pos_site_id
 _symmetry_equiv_pos_as_xyz
  1  'x, y, z'
loop_
 _atom_site_type_symbol
 _atom_site_label
 _atom_site_symmetry_multiplicity
 _atom_site_fract_x
 _atom_site_fract_y
 _atom_site_fract_z
 _atom_site_occupancy
  Sm  Sm0  1  0.000000  0.500000  0.521395  1
  Sm  Sm1  1  0.500000  0.000000  0.478605  1
  Sm  Sm2  1  0.500000  0.817743  0.205446  1
  Sm  Sm3  1  0.500000  0.182257  0.205446  1
  Sm  Sm4  1  0.000000  0.682257  0.794554  1
  Sm  Sm5  1  0.000000  0.317743  0.794554  1
  Si  Si6  1  0.500000  0.306665  0.615748  1
  Si  Si7  1  0.500000  0.693335  0.615748  1
  Si  Si8  1  0.000000  0.193335  0.384252  1
  Si  Si9  1  0.000000  0.806665  0.384252  1
  Si  Si10  1  0.500000  0.850548  0.894637  1
  Si  Si11  1  0.500000  0.149452  0.894637  1
  Si  Si12  1  0.000000  0.649452  0.105363  1
  Si  Si13  1  0.000000  0.350548  0.105363  1
  P  P14  1  0.500000  0.500000  0.882992  1
  P  P15  1  0.000000  0.000000  0.117008  1
  P  P16  1  0.500000  0.500000  0.342647  1
  P  P17  1  0.000000  0.000000  0.657353  1
  Rh  Rh18  1  0.500000  0.500000  0.160710  1
  Rh  Rh19  1  0.000000  0.000000  0.839290  1
  Rh  Rh20  1  0.500000  0.500000  0.699839  1
  Rh  Rh21  1  0.000000  0.000000  0.300161  1
  Rh  Rh22  1  0.000000  0.500000  0.978596  1
  Rh  Rh23  1  0.500000  0.000000  0.021404  1
  Rh  Rh24  1  0.500000  0.333235  0.990104  1
  Rh  Rh25  1  0.500000  0.666765  0.990104  1
  Rh  Rh26  1  0.000000  0.166765  0.009896  1
  Rh  Rh27  1  0.000000  0.833235  0.009896  1
  Rh  Rh28  1  0.500000  0.300770  0.429503  1
  Rh  Rh29  1  0.500000  0.699230  0.429503  1
  Rh  Rh30  1  0.000000  0.199230  0.570497  1
  Rh  Rh31  1  0.000000  0.800770  0.570497  1
  Rh  Rh32  1  0.500000  0.877374  0.711385  1
  Rh  Rh33  1  0.500000  0.122626  0.711385  1
  Rh  Rh34  1  0.000000  0.622626  0.288615  1
  Rh  Rh35  1  0.000000  0.377374  0.288615  1
