# generated using pymatgen
data_Sm3B6(IrRu)4
_symmetry_space_group_name_H-M   'P 1'
_cell_length_a   9.99614375
_cell_length_b   9.18885576
_cell_length_c   5.56653900
_cell_angle_alpha   81.28609617
_cell_angle_beta   65.31662527
_cell_angle_gamma   33.20699181
_symmetry_Int_Tables_number   1
_chemical_formula_structural   Sm3B6(IrRu)4
_chemical_formula_sum   'Sm3 B6 Ir4 Ru4'
_cell_volume   233.45003264
_cell_formula_units_Z   1
loop_
 _symmetry_equiv_pos_site_id
 _symmetry_equiv_pos_as_xyz
  1  'x, y, z'
loop_
 _atom_site_type_symbol
 _atom_site_label
 _atom_site_symmetry_multiplicity
 _atom_site_fract_x
 _atom_site_fract_y
 _atom_site_fract_z
 _atom_site_occupancy
  Sm  Sm0  1  0.000150  0.000150  0.999850  1
  Sm  Sm1  1  0.820929  0.820929  0.179071  1
  Sm  Sm2  1  0.179146  0.179146  0.820854  1
  B  B3  1  0.669425  0.331202  0.677541  1
  B  B4  1  0.331202  0.669425  0.321832  1
  B  B5  1  0.168815  0.486385  0.512391  1
  B  B6  1  0.486385  0.168815  0.832409  1
  B  B7  1  0.826963  0.516513  0.493037  1
  B  B8  1  0.516513  0.826963  0.163486  1
  Ir  Ir9  1  0.914743  0.914743  0.585257  1
  Ir  Ir10  1  0.413552  0.413552  0.586448  1
  Ir  Ir11  1  0.586182  0.586182  0.413818  1
  Ir  Ir12  1  0.249546  0.249546  0.250454  1
  Ru  Ru13  1  0.750762  0.750762  0.749238  1
  Ru  Ru14  1  0.086079  0.086079  0.413921  1
  Ru  Ru15  1  0.586081  0.586081  0.913919  1
  Ru  Ru16  1  0.413527  0.413527  0.086473  1
