# generated using pymatgen
data_Dy4CdPt11
_symmetry_space_group_name_H-M   'P 1'
_cell_length_a   4.20039600
_cell_length_b   5.82327590
_cell_length_c   11.67188390
_cell_angle_alpha   88.14436451
_cell_angle_beta   90.00000000
_cell_angle_gamma   90.00000000
_symmetry_Int_Tables_number   1
_chemical_formula_structural   Dy4CdPt11
_chemical_formula_sum   'Dy4 Cd1 Pt11'
_cell_volume   285.34531973
_cell_formula_units_Z   1
loop_
 _symmetry_equiv_pos_site_id
 _symmetry_equiv_pos_as_xyz
  1  'x, y, z'
loop_
 _atom_site_type_symbol
 _atom_site_label
 _atom_site_symmetry_multiplicity
 _atom_site_fract_x
 _atom_site_fract_y
 _atom_site_fract_z
 _atom_site_occupancy
  Dy  Dy0  1  0.500000  0.755741  0.375029  1
  Dy  Dy1  1  0.500000  0.723761  0.865109  1
  Dy  Dy2  1  0.500000  0.276239  0.134891  1
  Dy  Dy3  1  0.500000  0.244259  0.624971  1
  Cd  Cd4  1  0.000000  0.000000  0.000000  1
  Pt  Pt5  1  0.000000  0.013674  0.250542  1
  Pt  Pt6  1  0.000000  0.986326  0.749458  1
  Pt  Pt7  1  0.000000  0.500000  0.000000  1
  Pt  Pt8  1  0.000000  0.500000  0.500000  1
  Pt  Pt9  1  0.000000  0.515539  0.249566  1
  Pt  Pt10  1  0.000000  0.484461  0.750434  1
  Pt  Pt11  1  0.500000  0.254354  0.377380  1
  Pt  Pt12  1  0.500000  0.233578  0.878020  1
  Pt  Pt13  1  0.500000  0.766422  0.121980  1
  Pt  Pt14  1  0.500000  0.745646  0.622620  1
  Pt  Pt15  1  0.000000  0.000000  0.500000  1
