# generated using pymatgen
data_PuSb5O14
_symmetry_space_group_name_H-M   'P 1'
_cell_length_a   7.38464791
_cell_length_b   7.38770667
_cell_length_c   7.38770650
_cell_angle_alpha   120.26335323
_cell_angle_beta   120.33830269
_cell_angle_gamma   89.49152001
_symmetry_Int_Tables_number   1
_chemical_formula_structural   PuSb5O14
_chemical_formula_sum   'Pu1 Sb5 O14'
_cell_volume   283.65533257
_cell_formula_units_Z   1
loop_
 _symmetry_equiv_pos_site_id
 _symmetry_equiv_pos_as_xyz
  1  'x, y, z'
loop_
 _atom_site_type_symbol
 _atom_site_label
 _atom_site_symmetry_multiplicity
 _atom_site_fract_x
 _atom_site_fract_y
 _atom_site_fract_z
 _atom_site_occupancy
  Pu  Pu0  1  0.000000  0.500000  0.500000  1
  Sb  Sb1  1  0.500000  0.500000  0.000000  1
  Sb  Sb2  1  0.000000  0.500000  0.000000  1
  Sb  Sb3  1  0.000000  0.000000  0.500000  1
  Sb  Sb4  1  0.000000  0.000000  0.000000  1
  Sb  Sb5  1  0.500000  0.000000  0.500000  1
  O  O6  1  0.061295  0.327505  0.150334  1
  O  O7  1  0.061295  0.910962  0.733790  1
  O  O8  1  0.318897  0.068232  0.250665  1
  O  O9  1  0.673839  0.904685  0.340524  1
  O  O10  1  0.673839  0.333314  0.769154  1
  O  O11  1  0.689266  0.411176  0.278090  1
  O  O12  1  0.938705  0.672495  0.849666  1
  O  O13  1  0.938705  0.089038  0.266210  1
  O  O14  1  0.681103  0.931768  0.749335  1
  O  O15  1  0.326161  0.095315  0.659476  1
  O  O16  1  0.326161  0.666686  0.230846  1
  O  O17  1  0.310734  0.588824  0.721910  1
  O  O18  1  0.937799  0.677858  0.259942  1
  O  O19  1  0.062201  0.322142  0.740058  1
