# generated using pymatgen
data_Hf3Sc5P12(IrRh)8
_symmetry_space_group_name_H-M   'P 1'
_cell_length_a   12.79948628
_cell_length_b   12.81767646
_cell_length_c   3.86461600
_cell_angle_alpha   90.00000000
_cell_angle_beta   90.00000000
_cell_angle_gamma   119.97686961
_symmetry_Int_Tables_number   1
_chemical_formula_structural   Hf3Sc5P12(IrRh)8
_chemical_formula_sum   'Hf3 Sc5 P12 Ir8 Rh8'
_cell_volume   549.21197773
_cell_formula_units_Z   1
loop_
 _symmetry_equiv_pos_site_id
 _symmetry_equiv_pos_as_xyz
  1  'x, y, z'
loop_
 _atom_site_type_symbol
 _atom_site_label
 _atom_site_symmetry_multiplicity
 _atom_site_fract_x
 _atom_site_fract_y
 _atom_site_fract_z
 _atom_site_occupancy
  Hf  Hf0  1  0.448156  0.999737  0.000000  1
  Hf  Hf1  1  0.000531  0.448063  0.000000  1
  Hf  Hf2  1  0.551641  0.552445  0.000000  1
  Sc  Sc3  1  0.332812  0.666399  0.000000  1
  Sc  Sc4  1  0.666507  0.333218  0.000000  1
  Sc  Sc5  1  0.815851  0.000553  0.500000  1
  Sc  Sc6  1  0.999710  0.815445  0.500000  1
  Sc  Sc7  1  0.184499  0.184467  0.500000  1
  P  P8  1  0.173474  0.999841  0.000000  1
  P  P9  1  0.000245  0.173836  0.000000  1
  P  P10  1  0.826284  0.826265  0.000000  1
  P  P11  1  0.171658  0.484250  0.500000  1
  P  P12  1  0.515077  0.686777  0.500000  1
  P  P13  1  0.312585  0.827790  0.500000  1
  P  P14  1  0.687920  0.515959  0.500000  1
  P  P15  1  0.827703  0.311897  0.500000  1
  P  P16  1  0.484375  0.172511  0.500000  1
  P  P17  1  0.653826  0.999990  0.000000  1
  P  P18  1  0.000088  0.653374  0.000000  1
  P  P19  1  0.346820  0.346951  0.000000  1
  Ir  Ir20  1  0.193108  0.821685  0.000000  1
  Ir  Ir21  1  0.806992  0.628732  0.000000  1
  Ir  Ir22  1  0.821805  0.193554  0.000000  1
  Ir  Ir23  1  0.371630  0.178560  0.000000  1
  Ir  Ir24  1  0.276693  0.000141  0.500000  1
  Ir  Ir25  1  0.000877  0.277156  0.500000  1
  Ir  Ir26  1  0.722873  0.723760  0.500000  1
  Ir  Ir27  1  0.999889  0.000041  0.000000  1
  Rh  Rh28  1  0.357490  0.490081  0.500000  1
  Rh  Rh29  1  0.508876  0.867083  0.500000  1
  Rh  Rh30  1  0.133502  0.641533  0.500000  1
  Rh  Rh31  1  0.866251  0.506960  0.500000  1
  Rh  Rh32  1  0.640719  0.133278  0.500000  1
  Rh  Rh33  1  0.492534  0.359278  0.500000  1
  Rh  Rh34  1  0.178401  0.371198  0.000000  1
  Rh  Rh35  1  0.628597  0.807195  0.000000  1
