# generated using pymatgen
data_Li12NdSm11(WO6)8
_symmetry_space_group_name_H-M   'P 1'
_cell_length_a   10.84713216
_cell_length_b   10.85556929
_cell_length_c   10.84715300
_cell_angle_alpha   109.45458916
_cell_angle_beta   109.47331670
_cell_angle_gamma   109.45466977
_symmetry_Int_Tables_number   1
_chemical_formula_structural   Li12NdSm11(WO6)8
_chemical_formula_sum   'Li12 Nd1 Sm11 W8 O48'
_cell_volume   983.62125042
_cell_formula_units_Z   1
loop_
 _symmetry_equiv_pos_site_id
 _symmetry_equiv_pos_as_xyz
  1  'x, y, z'
loop_
 _atom_site_type_symbol
 _atom_site_label
 _atom_site_symmetry_multiplicity
 _atom_site_fract_x
 _atom_site_fract_y
 _atom_site_fract_z
 _atom_site_occupancy
  Li  Li0  1  0.750388  0.375084  0.125046  1
  Li  Li1  1  0.874962  0.750002  0.124962  1
  Li  Li2  1  0.124696  0.375084  0.250040  1
  Li  Li3  1  0.625076  0.875072  0.250028  1
  Li  Li4  1  0.249961  0.124916  0.375305  1
  Li  Li5  1  0.625516  0.249998  0.375516  1
  Li  Li6  1  0.375039  0.749999  0.625039  1
  Li  Li7  1  0.749994  0.875072  0.625042  1
  Li  Li8  1  0.374954  0.124916  0.749613  1
  Li  Li9  1  0.874956  0.624928  0.750005  1
  Li  Li10  1  0.124481  0.250001  0.874482  1
  Li  Li11  1  0.249971  0.624928  0.874924  1
  Nd  Nd12  1  0.374999  0.249999  0.124998  1
  Sm  Sm13  1  0.249658  0.874376  0.124826  1
  Sm  Sm14  1  0.874946  0.124911  0.249891  1
  Sm  Sm15  1  0.375175  0.625625  0.250342  1
  Sm  Sm16  1  0.124999  0.750000  0.375001  1
  Sm  Sm17  1  0.750450  0.625624  0.375282  1
  Sm  Sm18  1  0.875000  0.250000  0.625001  1
  Sm  Sm19  1  0.250110  0.375090  0.625054  1
  Sm  Sm20  1  0.624980  0.375090  0.750034  1
  Sm  Sm21  1  0.124718  0.874377  0.749550  1
  Sm  Sm22  1  0.749965  0.124910  0.875020  1
  Sm  Sm23  1  0.624999  0.749999  0.874998  1
  W  W24  1  0.999132  0.999140  0.999426  1
  W  W25  1  0.999939  0.499936  0.999953  1
  W  W26  1  0.500288  0.500862  0.999993  1
  W  W27  1  0.500007  0.999141  0.999715  1
  W  W28  1  0.500047  0.000065  0.500062  1
  W  W29  1  0.999997  0.499933  0.499983  1
  W  W30  1  0.000018  0.000067  0.500004  1
  W  W31  1  0.500573  0.500857  0.500863  1
  O  O32  1  0.327108  0.409739  0.023967  1
  O  O33  1  0.197437  0.616986  0.025043  1
  O  O34  1  0.697237  0.172224  0.080481  1
  O  O35  1  0.882548  0.907912  0.080468  1
  O  O36  1  0.617273  0.918861  0.091581  1
  O  O37  1  0.974989  0.172226  0.091744  1
  O  O38  1  0.593122  0.420934  0.116840  1
  O  O39  1  0.024965  0.697378  0.116893  1
  O  O40  1  0.195906  0.079066  0.172187  1
  O  O41  1  0.476035  0.090263  0.172896  1
  O  O42  1  0.116879  0.525077  0.197533  1
  O  O43  1  0.580736  0.672765  0.197739  1
  O  O44  1  0.327809  0.420934  0.304091  1
  O  O45  1  0.474957  0.883014  0.302562  1
  O  O46  1  0.908198  0.525074  0.327543  1
  O  O47  1  0.919515  0.802623  0.327588  1
  O  O48  1  0.582633  0.409738  0.385770  1
  O  O49  1  0.302468  0.974925  0.383123  1
  O  O50  1  0.827491  0.025067  0.408148  1
  O  O51  1  0.080589  0.383093  0.408160  1
  O  O52  1  0.827619  0.302598  0.419477  1
  O  O53  1  0.091841  0.116905  0.419411  1
  O  O54  1  0.592032  0.672768  0.475031  1
  O  O55  1  0.383106  0.802622  0.475035  1
  O  O56  1  0.616879  0.197402  0.525021  1
  O  O57  1  0.408256  0.327774  0.525010  1
  O  O58  1  0.172412  0.697377  0.580484  1
  O  O59  1  0.908057  0.883013  0.580451  1
  O  O60  1  0.919549  0.616986  0.591943  1
  O  O61  1  0.172456  0.974925  0.591802  1
  O  O62  1  0.697575  0.025068  0.616918  1
  O  O63  1  0.419532  0.592087  0.617452  1
  O  O64  1  0.080523  0.197400  0.672380  1
  O  O65  1  0.091853  0.474934  0.672509  1
  O  O66  1  0.525067  0.116907  0.697497  1
  O  O67  1  0.672718  0.581139  0.698412  1
  O  O68  1  0.419518  0.327775  0.802763  1
  O  O69  1  0.883082  0.474933  0.802425  1
  O  O70  1  0.801586  0.918860  0.827280  1
  O  O71  1  0.525363  0.907910  0.827444  1
  O  O72  1  0.974979  0.302599  0.883122  1
  O  O73  1  0.408420  0.581140  0.882728  1
  O  O74  1  0.383160  0.079066  0.906879  1
  O  O75  1  0.024971  0.827233  0.907969  1
  O  O76  1  0.114229  0.090260  0.917368  1
  O  O77  1  0.302262  0.827235  0.919265  1
  O  O78  1  0.802504  0.383094  0.974935  1
  O  O79  1  0.672559  0.592091  0.974637  1
