# generated using pymatgen
data_Gd5Ho3C10
_symmetry_space_group_name_H-M   'P 1'
_cell_length_a   6.64082440
_cell_length_b   11.92872574
_cell_length_c   3.72399700
_cell_angle_alpha   90.00000000
_cell_angle_beta   90.00000000
_cell_angle_gamma   90.04013152
_symmetry_Int_Tables_number   1
_chemical_formula_structural   Gd5Ho3C10
_chemical_formula_sum   'Gd5 Ho3 C10'
_cell_volume   295.00220779
_cell_formula_units_Z   1
loop_
 _symmetry_equiv_pos_site_id
 _symmetry_equiv_pos_as_xyz
  1  'x, y, z'
loop_
 _atom_site_type_symbol
 _atom_site_label
 _atom_site_symmetry_multiplicity
 _atom_site_fract_x
 _atom_site_fract_y
 _atom_site_fract_z
 _atom_site_occupancy
  Gd  Gd0  1  0.251231  0.044060  0.000000  1
  Gd  Gd1  1  0.390540  0.303406  0.500002  1
  Gd  Gd2  1  0.611389  0.696954  0.500002  1
  Gd  Gd3  1  0.887609  0.197252  0.500002  1
  Gd  Gd4  1  0.108935  0.802298  0.500002  1
  Ho  Ho5  1  0.763564  0.957259  0.000000  1
  Ho  Ho6  1  0.735624  0.458322  0.000000  1
  Ho  Ho7  1  0.250951  0.543958  0.000000  1
  C  C8  1  0.633044  0.264611  0.000000  1
  C  C9  1  0.867098  0.763652  0.000000  1
  C  C10  1  0.140326  0.240755  0.000000  1
  C  C11  1  0.487762  0.499463  0.500002  1
  C  C12  1  0.008766  0.998987  0.500002  1
  C  C13  1  0.358470  0.737136  0.000000  1
  C  C14  1  0.070172  0.345155  0.000000  1
  C  C15  1  0.890587  0.652324  0.000000  1
  C  C16  1  0.613807  0.153121  0.000000  1
  C  C17  1  0.430129  0.841288  0.000000  1
