# generated using pymatgen
data_Zr5Ti3(Fe4P3)4
_symmetry_space_group_name_H-M   'P 1'
_cell_length_a   12.01210900
_cell_length_b   12.01210914
_cell_length_c   3.64345500
_cell_angle_alpha   90.00000000
_cell_angle_beta   90.00000000
_cell_angle_gamma   119.99999685
_symmetry_Int_Tables_number   1
_chemical_formula_structural   Zr5Ti3(Fe4P3)4
_chemical_formula_sum   'Zr5 Ti3 Fe16 P12'
_cell_volume   455.28421090
_cell_formula_units_Z   1
loop_
 _symmetry_equiv_pos_site_id
 _symmetry_equiv_pos_as_xyz
  1  'x, y, z'
loop_
 _atom_site_type_symbol
 _atom_site_label
 _atom_site_symmetry_multiplicity
 _atom_site_fract_x
 _atom_site_fract_y
 _atom_site_fract_z
 _atom_site_occupancy
  Zr  Zr0  1  0.666667  0.333333  0.000000  1
  Zr  Zr1  1  0.333333  0.666667  0.000000  1
  Zr  Zr2  1  0.816803  0.816803  0.500000  1
  Zr  Zr3  1  0.183197  0.000000  0.500000  1
  Zr  Zr4  1  0.000000  0.183197  0.500000  1
  Ti  Ti5  1  0.439959  0.439959  0.000000  1
  Ti  Ti6  1  0.560041  0.000000  0.000000  1
  Ti  Ti7  1  0.000000  0.560041  0.000000  1
  Fe  Fe8  1  0.196842  0.377578  0.000000  1
  Fe  Fe9  1  0.180736  0.803158  0.000000  1
  Fe  Fe10  1  0.819264  0.622422  0.000000  1
  Fe  Fe11  1  0.803158  0.180736  0.000000  1
  Fe  Fe12  1  0.377578  0.196842  0.000000  1
  Fe  Fe13  1  0.122191  0.478074  0.500000  1
  Fe  Fe14  1  0.355883  0.877809  0.500000  1
  Fe  Fe15  1  0.521926  0.644117  0.500000  1
  Fe  Fe16  1  0.644117  0.521926  0.500000  1
  Fe  Fe17  1  0.877809  0.355883  0.500000  1
  Fe  Fe18  1  0.478074  0.122191  0.500000  1
  Fe  Fe19  1  0.000000  0.000000  0.000000  1
  Fe  Fe20  1  0.719782  0.000000  0.500000  1
  Fe  Fe21  1  0.000000  0.719782  0.500000  1
  Fe  Fe22  1  0.622422  0.819264  0.000000  1
  Fe  Fe23  1  0.280218  0.280218  0.500000  1
  P  P24  1  0.646552  0.646552  0.000000  1
  P  P25  1  0.353448  0.000000  0.000000  1
  P  P26  1  0.000000  0.353448  0.000000  1
  P  P27  1  0.481630  0.312460  0.500000  1
  P  P28  1  0.687540  0.169168  0.500000  1
  P  P29  1  0.830832  0.518370  0.500000  1
  P  P30  1  0.518370  0.830832  0.500000  1
  P  P31  1  0.169168  0.687540  0.500000  1
  P  P32  1  0.819200  0.000000  0.000000  1
  P  P33  1  0.000000  0.819200  0.000000  1
  P  P34  1  0.312460  0.481630  0.500000  1
  P  P35  1  0.180800  0.180800  0.000000  1
