# generated using pymatgen
data_Pr2InGaRh2
_symmetry_space_group_name_H-M   'P 1'
_cell_length_a   4.14539100
_cell_length_b   7.60475900
_cell_length_c   16.84214600
_cell_angle_alpha   90.00000000
_cell_angle_beta   90.00000000
_cell_angle_gamma   90.00000000
_symmetry_Int_Tables_number   1
_chemical_formula_structural   Pr2InGaRh2
_chemical_formula_sum   'Pr8 In4 Ga4 Rh8'
_cell_volume   530.94359185
_cell_formula_units_Z   4
loop_
 _symmetry_equiv_pos_site_id
 _symmetry_equiv_pos_as_xyz
  1  'x, y, z'
loop_
 _atom_site_type_symbol
 _atom_site_label
 _atom_site_symmetry_multiplicity
 _atom_site_fract_x
 _atom_site_fract_y
 _atom_site_fract_z
 _atom_site_occupancy
  Pr  Pr0  1  0.250000  0.176100  0.558729  1
  Pr  Pr1  1  0.750000  0.823900  0.441271  1
  Pr  Pr2  1  0.250000  0.676100  0.941271  1
  Pr  Pr3  1  0.750000  0.323900  0.058729  1
  Pr  Pr4  1  0.250000  0.044875  0.786280  1
  Pr  Pr5  1  0.750000  0.955125  0.213720  1
  Pr  Pr6  1  0.250000  0.544875  0.713720  1
  Pr  Pr7  1  0.750000  0.455125  0.286280  1
  In  In8  1  0.250000  0.122293  0.348714  1
  In  In9  1  0.750000  0.877707  0.651286  1
  In  In10  1  0.250000  0.622293  0.151286  1
  In  In11  1  0.750000  0.377707  0.848714  1
  Ga  Ga12  1  0.250000  0.003893  0.062909  1
  Ga  Ga13  1  0.750000  0.996107  0.937091  1
  Ga  Ga14  1  0.250000  0.503893  0.437091  1
  Ga  Ga15  1  0.750000  0.496107  0.562909  1
  Rh  Rh16  1  0.750000  0.281699  0.437171  1
  Rh  Rh17  1  0.250000  0.718301  0.562829  1
  Rh  Rh18  1  0.750000  0.781699  0.062829  1
  Rh  Rh19  1  0.250000  0.218301  0.937171  1
  Rh  Rh20  1  0.750000  0.754574  0.818242  1
  Rh  Rh21  1  0.250000  0.245426  0.181758  1
  Rh  Rh22  1  0.750000  0.254574  0.681758  1
  Rh  Rh23  1  0.250000  0.745426  0.318242  1
