# generated using pymatgen
data_Yb2Dy2Pt3RhO14
_symmetry_space_group_name_H-M   'P 1'
_cell_length_a   7.25773250
_cell_length_b   7.25773140
_cell_length_c   7.24406590
_cell_angle_alpha   59.89978819
_cell_angle_beta   59.89979196
_cell_angle_gamma   59.80329095
_symmetry_Int_Tables_number   1
_chemical_formula_structural   Yb2Dy2Pt3RhO14
_chemical_formula_sum   'Yb2 Dy2 Pt3 Rh1 O14'
_cell_volume   269.00597479
_cell_formula_units_Z   1
loop_
 _symmetry_equiv_pos_site_id
 _symmetry_equiv_pos_as_xyz
  1  'x, y, z'
loop_
 _atom_site_type_symbol
 _atom_site_label
 _atom_site_symmetry_multiplicity
 _atom_site_fract_x
 _atom_site_fract_y
 _atom_site_fract_z
 _atom_site_occupancy
  Yb  Yb0  1  0.125000  0.625000  0.125000  1
  Yb  Yb1  1  0.625000  0.125000  0.125000  1
  Dy  Dy2  1  0.125000  0.125000  0.625000  1
  Dy  Dy3  1  0.125000  0.125000  0.125000  1
  Pt  Pt4  1  0.125000  0.625000  0.625000  1
  Pt  Pt5  1  0.625000  0.125000  0.625000  1
  Pt  Pt6  1  0.625000  0.625000  0.125000  1
  Rh  Rh7  1  0.625000  0.625000  0.625000  1
  O  O8  1  0.292935  0.712644  0.702490  1
  O  O9  1  0.534540  0.961621  0.961204  1
  O  O10  1  0.712644  0.292935  0.702490  1
  O  O11  1  0.287008  0.287008  0.712725  1
  O  O12  1  0.705340  0.705340  0.295797  1
  O  O13  1  0.004278  0.004278  0.995263  1
  O  O14  1  0.288379  0.715460  0.288796  1
  O  O15  1  0.961621  0.534540  0.961204  1
  O  O16  1  0.962992  0.962992  0.537275  1
  O  O17  1  0.544660  0.544660  0.954203  1
  O  O18  1  0.245722  0.245722  0.254737  1
  O  O19  1  0.537356  0.957065  0.547510  1
  O  O20  1  0.715460  0.288379  0.288796  1
  O  O21  1  0.957065  0.537356  0.547510  1
