# generated using pymatgen
data_Ho4Al2Si8Ir5Rh
_symmetry_space_group_name_H-M   'P 1'
_cell_length_a   8.35667638
_cell_length_b   8.35667535
_cell_length_c   8.16208162
_cell_angle_alpha   139.63014227
_cell_angle_beta   106.17621930
_cell_angle_gamma   89.06929146
_symmetry_Int_Tables_number   1
_chemical_formula_structural   Ho4Al2Si8Ir5Rh
_chemical_formula_sum   'Ho4 Al2 Si8 Ir5 Rh1'
_cell_volume   336.51582947
_cell_formula_units_Z   1
loop_
 _symmetry_equiv_pos_site_id
 _symmetry_equiv_pos_as_xyz
  1  'x, y, z'
loop_
 _atom_site_type_symbol
 _atom_site_label
 _atom_site_symmetry_multiplicity
 _atom_site_fract_x
 _atom_site_fract_y
 _atom_site_fract_z
 _atom_site_occupancy
  Ho  Ho0  1  0.632977  0.875970  0.776689  1
  Ho  Ho1  1  0.367248  0.124387  0.223413  1
  Ho  Ho2  1  0.099281  0.356290  0.723311  1
  Ho  Ho3  1  0.900974  0.643834  0.276587  1
  Al  Al4  1  0.272903  0.022903  0.750000  1
  Al  Al5  1  0.727076  0.977076  0.250000  1
  Si  Si6  1  0.710988  0.460988  0.750000  1
  Si  Si7  1  0.288692  0.538692  0.250000  1
  Si  Si8  1  0.439568  0.601050  0.835785  1
  Si  Si9  1  0.560659  0.398556  0.164223  1
  Si  Si10  1  0.765265  0.103783  0.664215  1
  Si  Si11  1  0.234332  0.896436  0.335777  1
  Si  Si12  1  0.018592  0.768592  0.750000  1
  Si  Si13  1  0.981439  0.231439  0.250000  1
  Ir  Ir14  1  0.240371  0.599567  0.565767  1
  Ir  Ir15  1  0.759962  0.400617  0.434826  1
  Ir  Ir16  1  0.033801  0.174605  0.934233  1
  Ir  Ir17  1  0.965791  0.825136  0.065174  1
  Ir  Ir18  1  0.494503  0.744503  0.250000  1
  Rh  Rh19  1  0.505577  0.255577  0.750000  1
