# generated using pymatgen
data_SrP2Pb3(BrO4)2
_symmetry_space_group_name_H-M   'P 1'
_cell_length_a   8.70600200
_cell_length_b   8.80536127
_cell_length_c   9.09799891
_cell_angle_alpha   66.06045681
_cell_angle_beta   90.00000000
_cell_angle_gamma   90.00000000
_symmetry_Int_Tables_number   1
_chemical_formula_structural   SrP2Pb3(BrO4)2
_chemical_formula_sum   'Sr2 P4 Pb6 Br4 O16'
_cell_volume   637.44940983
_cell_formula_units_Z   2
loop_
 _symmetry_equiv_pos_site_id
 _symmetry_equiv_pos_as_xyz
  1  'x, y, z'
loop_
 _atom_site_type_symbol
 _atom_site_label
 _atom_site_symmetry_multiplicity
 _atom_site_fract_x
 _atom_site_fract_y
 _atom_site_fract_z
 _atom_site_occupancy
  Sr  Sr0  1  0.305240  0.452162  0.156782  1
  Sr  Sr1  1  0.805240  0.047838  0.843218  1
  P  P2  1  0.047229  0.736234  0.950542  1
  P  P3  1  0.547229  0.763766  0.049458  1
  P  P4  1  0.951966  0.264271  0.049533  1
  P  P5  1  0.451966  0.235729  0.950467  1
  Pb  Pb6  1  0.704287  0.544737  0.845817  1
  Pb  Pb7  1  0.204287  0.955263  0.154183  1
  Pb  Pb8  1  0.326315  0.991022  0.716703  1
  Pb  Pb9  1  0.826315  0.508978  0.283297  1
  Pb  Pb10  1  0.676557  0.002702  0.283662  1
  Pb  Pb11  1  0.176557  0.497298  0.716338  1
  Br  Br12  1  0.925270  0.730234  0.492325  1
  Br  Br13  1  0.425270  0.769766  0.507675  1
  Br  Br14  1  0.072238  0.267743  0.507589  1
  Br  Br15  1  0.572238  0.232257  0.492411  1
  O  O16  1  0.056570  0.633562  0.136671  1
  O  O17  1  0.556570  0.866438  0.863329  1
  O  O18  1  0.944590  0.359450  0.861118  1
  O  O19  1  0.444590  0.140550  0.138882  1
  O  O20  1  0.115365  0.265033  0.112436  1
  O  O21  1  0.615365  0.234967  0.887564  1
  O  O22  1  0.881810  0.741533  0.887746  1
  O  O23  1  0.381810  0.758467  0.112254  1
  O  O24  1  0.668569  0.838161  0.127402  1
  O  O25  1  0.168569  0.661839  0.872598  1
  O  O26  1  0.329297  0.151599  0.881781  1
  O  O27  1  0.829297  0.348401  0.118219  1
  O  O28  1  0.402478  0.419351  0.906891  1
  O  O29  1  0.902478  0.080649  0.093109  1
  O  O30  1  0.592221  0.578427  0.089707  1
  O  O31  1  0.092221  0.921573  0.910293  1
