# generated using pymatgen
data_Ho5ErMoO12
_symmetry_space_group_name_H-M   'P 1'
_cell_length_a   6.45147382
_cell_length_b   6.44813896
_cell_length_c   6.44547982
_cell_angle_alpha   98.68185565
_cell_angle_beta   98.63370555
_cell_angle_gamma   98.65751594
_symmetry_Int_Tables_number   1
_chemical_formula_structural   Ho5ErMoO12
_chemical_formula_sum   'Ho5 Er1 Mo1 O12'
_cell_volume   257.90882158
_cell_formula_units_Z   1
loop_
 _symmetry_equiv_pos_site_id
 _symmetry_equiv_pos_as_xyz
  1  'x, y, z'
loop_
 _atom_site_type_symbol
 _atom_site_label
 _atom_site_symmetry_multiplicity
 _atom_site_fract_x
 _atom_site_fract_y
 _atom_site_fract_z
 _atom_site_occupancy
  Ho  Ho0  1  0.611584  0.143948  0.316181  1
  Ho  Ho1  1  0.856088  0.683649  0.387951  1
  Ho  Ho2  1  0.144126  0.316720  0.611840  1
  Ho  Ho3  1  0.388230  0.855856  0.683450  1
  Ho  Ho4  1  0.683000  0.388657  0.855814  1
  Er  Er5  1  0.317478  0.611176  0.144686  1
  Mo  Mo6  1  0.000484  0.000020  0.000212  1
  O  O7  1  0.922356  0.702514  0.034693  1
  O  O8  1  0.297122  0.963551  0.077250  1
  O  O9  1  0.589346  0.431781  0.177546  1
  O  O10  1  0.964920  0.076963  0.297831  1
  O  O11  1  0.567783  0.822154  0.408744  1
  O  O12  1  0.177766  0.590233  0.430663  1
  O  O13  1  0.822780  0.409762  0.568235  1
  O  O14  1  0.431696  0.177587  0.590392  1
  O  O15  1  0.035138  0.923074  0.701928  1
  O  O16  1  0.408879  0.568668  0.823557  1
  O  O17  1  0.702311  0.035565  0.922573  1
  O  O18  1  0.078914  0.298128  0.966456  1
