# generated using pymatgen
data_AlH6Ir
_symmetry_space_group_name_H-M   'P 1'
_cell_length_a   4.36615057
_cell_length_b   4.36615099
_cell_length_c   5.24687687
_cell_angle_alpha   99.35046308
_cell_angle_beta   99.35046310
_cell_angle_gamma   119.83805022
_symmetry_Int_Tables_number   1
_chemical_formula_structural   AlH6Ir
_chemical_formula_sum   'Al1 H6 Ir1'
_cell_volume   82.07836760
_cell_formula_units_Z   1
loop_
 _symmetry_equiv_pos_site_id
 _symmetry_equiv_pos_as_xyz
  1  'x, y, z'
loop_
 _atom_site_type_symbol
 _atom_site_label
 _atom_site_symmetry_multiplicity
 _atom_site_fract_x
 _atom_site_fract_y
 _atom_site_fract_z
 _atom_site_occupancy
  Al  Al0  1  0.167220  0.832781  0.000000  1
  H  H1  1  0.891596  0.531178  0.216495  1
  H  H2  1  0.635256  0.944060  0.215034  1
  H  H3  1  0.219779  0.271932  0.218429  1
  H  H4  1  0.728068  0.780221  0.781571  1
  H  H5  1  0.468822  0.108404  0.783505  1
  H  H6  1  0.055940  0.364744  0.784966  1
  Ir  Ir7  1  0.833319  0.166682  0.000000  1
