# generated using pymatgen
data_Ti12Nb3VAs12
_symmetry_space_group_name_H-M   'P 1'
_cell_length_a   7.33606675
_cell_length_b   7.33606698
_cell_length_c   18.90298012
_cell_angle_alpha   89.96771174
_cell_angle_beta   90.03228846
_cell_angle_gamma   152.32416862
_symmetry_Int_Tables_number   1
_chemical_formula_structural   Ti12Nb3VAs12
_chemical_formula_sum   'Ti12 Nb3 V1 As12'
_cell_volume   472.51223290
_cell_formula_units_Z   1
loop_
 _symmetry_equiv_pos_site_id
 _symmetry_equiv_pos_as_xyz
  1  'x, y, z'
loop_
 _atom_site_type_symbol
 _atom_site_label
 _atom_site_symmetry_multiplicity
 _atom_site_fract_x
 _atom_site_fract_y
 _atom_site_fract_z
 _atom_site_occupancy
  Ti  Ti0  1  0.732833  0.267167  0.162633  1
  Ti  Ti1  1  0.267167  0.732833  0.837367  1
  Ti  Ti2  1  0.266633  0.733367  0.658696  1
  Ti  Ti3  1  0.733367  0.266633  0.341304  1
  Ti  Ti4  1  0.533980  0.466020  0.121516  1
  Ti  Ti5  1  0.466020  0.533980  0.878484  1
  Ti  Ti6  1  0.466381  0.533619  0.616581  1
  Ti  Ti7  1  0.533619  0.466381  0.383419  1
  Ti  Ti8  1  0.663838  0.336162  0.973693  1
  Ti  Ti9  1  0.336162  0.663838  0.026307  1
  Ti  Ti10  1  0.336171  0.663829  0.473868  1
  Ti  Ti11  1  0.663829  0.336171  0.526132  1
  Nb  Nb12  1  0.000000  0.000000  0.000000  1
  Nb  Nb13  1  0.060450  0.939550  0.748304  1
  Nb  Nb14  1  0.939550  0.060450  0.251696  1
  V  V15  1  0.000000  0.000000  0.500000  1
  As  As16  1  0.416730  0.583270  0.747664  1
  As  As17  1  0.583270  0.416730  0.252336  1
  As  As18  1  0.703405  0.296595  0.748135  1
  As  As19  1  0.296595  0.703405  0.251865  1
  As  As20  1  0.899733  0.100267  0.117860  1
  As  As21  1  0.100267  0.899733  0.882140  1
  As  As22  1  0.098176  0.901824  0.613749  1
  As  As23  1  0.901824  0.098176  0.386251  1
  As  As24  1  0.839021  0.160979  0.923239  1
  As  As25  1  0.160979  0.839021  0.076761  1
  As  As26  1  0.158550  0.841450  0.426135  1
  As  As27  1  0.841450  0.158550  0.573865  1
