# generated using pymatgen
data_CeHoSi2(PtRh)2
_symmetry_space_group_name_H-M   'P 1'
_cell_length_a   9.28291646
_cell_length_b   9.28291589
_cell_length_c   4.10237100
_cell_angle_alpha   90.00000000
_cell_angle_beta   90.00000000
_cell_angle_gamma   155.12394962
_symmetry_Int_Tables_number   1
_chemical_formula_structural   CeHoSi2(PtRh)2
_chemical_formula_sum   'Ce1 Ho1 Si2 Pt2 Rh2'
_cell_volume   148.70704097
_cell_formula_units_Z   1
loop_
 _symmetry_equiv_pos_site_id
 _symmetry_equiv_pos_as_xyz
  1  'x, y, z'
loop_
 _atom_site_type_symbol
 _atom_site_label
 _atom_site_symmetry_multiplicity
 _atom_site_fract_x
 _atom_site_fract_y
 _atom_site_fract_z
 _atom_site_occupancy
  Ce  Ce0  1  0.898832  0.101168  0.250000  1
  Ho  Ho1  1  0.104917  0.895083  0.750000  1
  Si  Si2  1  0.318900  0.681100  0.750000  1
  Si  Si3  1  0.678979  0.321021  0.250000  1
  Pt  Pt4  1  0.549552  0.450448  0.250000  1
  Pt  Pt5  1  0.451450  0.548550  0.750000  1
  Rh  Rh6  1  0.249184  0.750816  0.250000  1
  Rh  Rh7  1  0.748186  0.251814  0.750000  1
