# generated using pymatgen
data_Ta6V11Pt
_symmetry_space_group_name_H-M   'P 1'
_cell_length_a   8.72890100
_cell_length_b   8.72890024
_cell_length_c   8.27353100
_cell_angle_alpha   90.00000000
_cell_angle_beta   90.00000000
_cell_angle_gamma   119.99999152
_symmetry_Int_Tables_number   1
_chemical_formula_structural   Ta6V11Pt
_chemical_formula_sum   'Ta12 V22 Pt2'
_cell_volume   545.93465727
_cell_formula_units_Z   2
loop_
 _symmetry_equiv_pos_site_id
 _symmetry_equiv_pos_as_xyz
  1  'x, y, z'
loop_
 _atom_site_type_symbol
 _atom_site_label
 _atom_site_symmetry_multiplicity
 _atom_site_fract_x
 _atom_site_fract_y
 _atom_site_fract_z
 _atom_site_occupancy
  Ta  Ta0  1  0.336401  0.000000  0.060324  1
  Ta  Ta1  1  0.663599  0.000000  0.939676  1
  Ta  Ta2  1  0.000000  0.336401  0.060324  1
  Ta  Ta3  1  0.663599  0.000000  0.560324  1
  Ta  Ta4  1  0.000000  0.336401  0.439676  1
  Ta  Ta5  1  0.000000  0.663599  0.939676  1
  Ta  Ta6  1  0.336401  0.000000  0.439676  1
  Ta  Ta7  1  0.000000  0.663599  0.560324  1
  Ta  Ta8  1  0.663599  0.663599  0.060324  1
  Ta  Ta9  1  0.336401  0.336401  0.939676  1
  Ta  Ta10  1  0.336401  0.336401  0.560324  1
  Ta  Ta11  1  0.663599  0.663599  0.439676  1
  V  V12  1  0.163277  0.496025  0.750000  1
  V  V13  1  0.836723  0.503975  0.250000  1
  V  V14  1  0.503975  0.667254  0.750000  1
  V  V15  1  0.496025  0.163277  0.750000  1
  V  V16  1  0.496025  0.332746  0.250000  1
  V  V17  1  0.503975  0.836723  0.250000  1
  V  V18  1  0.332746  0.836723  0.750000  1
  V  V19  1  0.667254  0.503975  0.750000  1
  V  V20  1  0.667254  0.163277  0.250000  1
  V  V21  1  0.332746  0.496025  0.250000  1
  V  V22  1  0.836723  0.332746  0.750000  1
  V  V23  1  0.163277  0.667254  0.250000  1
  V  V24  1  0.333333  0.666667  0.500000  1
  V  V25  1  0.666667  0.333333  0.500000  1
  V  V26  1  0.666667  0.333333  0.000000  1
  V  V27  1  0.333333  0.666667  0.000000  1
  V  V28  1  0.171045  0.000000  0.750000  1
  V  V29  1  0.828955  0.000000  0.250000  1
  V  V30  1  0.000000  0.171045  0.750000  1
  V  V31  1  0.000000  0.828955  0.250000  1
  V  V32  1  0.828955  0.828955  0.750000  1
  V  V33  1  0.171045  0.171045  0.250000  1
  Pt  Pt34  1  0.000000  0.000000  0.500000  1
  Pt  Pt35  1  0.000000  0.000000  0.000000  1
