# generated using pymatgen
data_La20CoBi8Ru3
_symmetry_space_group_name_H-M   'P 1'
_cell_length_a   8.52499421
_cell_length_b   9.28062200
_cell_length_c   13.05652131
_cell_angle_alpha   90.00000000
_cell_angle_beta   89.57321583
_cell_angle_gamma   90.00000000
_symmetry_Int_Tables_number   1
_chemical_formula_structural   La20CoBi8Ru3
_chemical_formula_sum   'La20 Co1 Bi8 Ru3'
_cell_volume   1032.96738718
_cell_formula_units_Z   1
loop_
 _symmetry_equiv_pos_site_id
 _symmetry_equiv_pos_as_xyz
  1  'x, y, z'
loop_
 _atom_site_type_symbol
 _atom_site_label
 _atom_site_symmetry_multiplicity
 _atom_site_fract_x
 _atom_site_fract_y
 _atom_site_fract_z
 _atom_site_occupancy
  La  La0  1  0.349916  0.750000  0.698428  1
  La  La1  1  0.649331  0.250000  0.298006  1
  La  La2  1  0.850205  0.250000  0.797385  1
  La  La3  1  0.149131  0.750000  0.201114  1
  La  La4  1  0.877783  0.750000  0.806117  1
  La  La5  1  0.121139  0.250000  0.193933  1
  La  La6  1  0.378123  0.250000  0.691690  1
  La  La7  1  0.620627  0.750000  0.310357  1
  La  La8  1  0.680183  0.537310  0.563699  1
  La  La9  1  0.320433  0.463710  0.436657  1
  La  La10  1  0.178625  0.463622  0.934835  1
  La  La11  1  0.320433  0.036290  0.436657  1
  La  La12  1  0.819321  0.537010  0.064955  1
  La  La13  1  0.680183  0.962690  0.563699  1
  La  La14  1  0.819321  0.962990  0.064955  1
  La  La15  1  0.178625  0.036378  0.934835  1
  La  La16  1  0.061763  0.750000  0.495733  1
  La  La17  1  0.943479  0.250000  0.503711  1
  La  La18  1  0.555622  0.250000  0.003461  1
  La  La19  1  0.444871  0.750000  0.996074  1
  Co  Co20  1  0.427512  0.750000  0.492447  1
  Bi  Bi21  1  0.572877  0.506537  0.826547  1
  Bi  Bi22  1  0.426286  0.493839  0.173766  1
  Bi  Bi23  1  0.073808  0.493536  0.671922  1
  Bi  Bi24  1  0.426286  0.006161  0.173766  1
  Bi  Bi25  1  0.925651  0.507226  0.328101  1
  Bi  Bi26  1  0.572877  0.993463  0.826547  1
  Bi  Bi27  1  0.925651  0.992774  0.328101  1
  Bi  Bi28  1  0.073808  0.006464  0.671922  1
  Ru  Ru29  1  0.080816  0.750000  0.988215  1
  Ru  Ru30  1  0.920240  0.250000  0.012007  1
  Ru  Ru31  1  0.575074  0.250000  0.510354  1
