# generated using pymatgen
data_ErTm3(B6Rh)2
_symmetry_space_group_name_H-M   'P 1'
_cell_length_a   3.62072400
_cell_length_b   9.11954500
_cell_length_c   11.44580100
_cell_angle_alpha   90.00065208
_cell_angle_beta   90.00000000
_cell_angle_gamma   90.00000000
_symmetry_Int_Tables_number   1
_chemical_formula_structural   ErTm3(B6Rh)2
_chemical_formula_sum   'Er2 Tm6 B24 Rh4'
_cell_volume   377.93297162
_cell_formula_units_Z   2
loop_
 _symmetry_equiv_pos_site_id
 _symmetry_equiv_pos_as_xyz
  1  'x, y, z'
loop_
 _atom_site_type_symbol
 _atom_site_label
 _atom_site_symmetry_multiplicity
 _atom_site_fract_x
 _atom_site_fract_y
 _atom_site_fract_z
 _atom_site_occupancy
  Er  Er0  1  0.500000  0.322178  0.413528  1
  Er  Er1  1  0.500000  0.677822  0.586472  1
  Tm  Tm2  1  0.500000  0.178037  0.913617  1
  Tm  Tm3  1  0.500000  0.821963  0.086383  1
  Tm  Tm4  1  0.500000  0.444361  0.126436  1
  Tm  Tm5  1  0.500000  0.555639  0.873564  1
  Tm  Tm6  1  0.500000  0.055602  0.626646  1
  Tm  Tm7  1  0.500000  0.944398  0.373354  1
  B  B8  1  0.000000  0.109089  0.470352  1
  B  B9  1  0.000000  0.890911  0.529648  1
  B  B10  1  0.000000  0.390193  0.970168  1
  B  B11  1  0.000000  0.609807  0.029832  1
  B  B12  1  0.000000  0.132895  0.316107  1
  B  B13  1  0.000000  0.867105  0.683893  1
  B  B14  1  0.000000  0.366923  0.816389  1
  B  B15  1  0.000000  0.633077  0.183611  1
  B  B16  1  0.000000  0.053818  0.065070  1
  B  B17  1  0.000000  0.946182  0.934930  1
  B  B18  1  0.000000  0.446120  0.565438  1
  B  B19  1  0.000000  0.553880  0.434562  1
  B  B20  1  0.000000  0.482413  0.286560  1
  B  B21  1  0.000000  0.517587  0.713440  1
  B  B22  1  0.000000  0.017802  0.786899  1
  B  B23  1  0.000000  0.982198  0.213101  1
  B  B24  1  0.000000  0.249695  0.078919  1
  B  B25  1  0.000000  0.750305  0.921081  1
  B  B26  1  0.000000  0.250078  0.579292  1
  B  B27  1  0.000000  0.749922  0.420708  1
  B  B28  1  0.000000  0.294513  0.235799  1
  B  B29  1  0.000000  0.705487  0.764201  1
  B  B30  1  0.000000  0.205271  0.736229  1
  B  B31  1  0.000000  0.794729  0.263771  1
  Rh  Rh32  1  0.500000  0.139451  0.178556  1
  Rh  Rh33  1  0.500000  0.860549  0.821444  1
  Rh  Rh34  1  0.500000  0.360004  0.679162  1
  Rh  Rh35  1  0.500000  0.639996  0.320838  1
