# generated using pymatgen
data_Cs2RbInP2
_symmetry_space_group_name_H-M   'P 1'
_cell_length_a   9.63652062
_cell_length_b   9.63652226
_cell_length_c   9.63652067
_cell_angle_alpha   136.98283928
_cell_angle_beta   131.01254309
_cell_angle_gamma   67.20882083
_symmetry_Int_Tables_number   1
_chemical_formula_structural   Cs2RbInP2
_chemical_formula_sum   'Cs4 Rb2 In2 P4'
_cell_volume   453.17473993
_cell_formula_units_Z   2
loop_
 _symmetry_equiv_pos_site_id
 _symmetry_equiv_pos_as_xyz
  1  'x, y, z'
loop_
 _atom_site_type_symbol
 _atom_site_label
 _atom_site_symmetry_multiplicity
 _atom_site_fract_x
 _atom_site_fract_y
 _atom_site_fract_z
 _atom_site_occupancy
  Cs  Cs0  1  0.602117  0.322297  0.279820  1
  Cs  Cs1  1  0.397883  0.677703  0.720180  1
  Cs  Cs2  1  0.042478  0.822297  0.220180  1
  Cs  Cs3  1  0.957522  0.177703  0.779820  1
  Rb  Rb4  1  0.500000  0.250000  0.750000  1
  Rb  Rb5  1  0.500000  0.750000  0.250000  1
  In  In6  1  0.000000  0.250000  0.250000  1
  In  In7  1  0.000000  0.750000  0.750000  1
  P  P8  1  0.268595  0.088361  0.180234  1
  P  P9  1  0.731405  0.911639  0.819766  1
  P  P10  1  0.908128  0.588361  0.319766  1
  P  P11  1  0.091872  0.411639  0.680234  1
