# generated using pymatgen
data_Mn5Cr15Re2SiC6
_symmetry_space_group_name_H-M   'P 1'
_cell_length_a   7.46606928
_cell_length_b   7.46607044
_cell_length_c   7.47786145
_cell_angle_alpha   60.05215171
_cell_angle_beta   60.05214518
_cell_angle_gamma   59.99999939
_symmetry_Int_Tables_number   1
_chemical_formula_structural   Mn5Cr15Re2SiC6
_chemical_formula_sum   'Mn5 Cr15 Re2 Si1 C6'
_cell_volume   294.97715640
_cell_formula_units_Z   1
loop_
 _symmetry_equiv_pos_site_id
 _symmetry_equiv_pos_as_xyz
  1  'x, y, z'
loop_
 _atom_site_type_symbol
 _atom_site_label
 _atom_site_symmetry_multiplicity
 _atom_site_fract_x
 _atom_site_fract_y
 _atom_site_fract_z
 _atom_site_occupancy
  Mn  Mn0  1  0.617246  0.617246  0.148260  1
  Mn  Mn1  1  0.617283  0.149604  0.615829  1
  Mn  Mn2  1  0.149605  0.617283  0.615829  1
  Mn  Mn3  1  0.617283  0.617283  0.615829  1
  Mn  Mn4  1  0.385443  0.385443  0.843672  1
  Cr  Cr5  1  0.385109  0.843547  0.386235  1
  Cr  Cr6  1  0.843547  0.385109  0.386235  1
  Cr  Cr7  1  0.385109  0.385109  0.386235  1
  Cr  Cr8  1  0.998460  0.998460  0.342438  1
  Cr  Cr9  1  0.660642  0.998460  0.342438  1
  Cr  Cr10  1  0.998460  0.660642  0.342438  1
  Cr  Cr11  1  0.659080  0.341853  0.999600  1
  Cr  Cr12  1  0.999467  0.341853  0.999600  1
  Cr  Cr13  1  0.999335  0.340936  0.660395  1
  Cr  Cr14  1  0.341853  0.659080  0.999600  1
  Cr  Cr15  1  0.340936  0.999335  0.660395  1
  Cr  Cr16  1  0.341853  0.999467  0.999600  1
  Cr  Cr17  1  0.999335  0.999335  0.660395  1
  Cr  Cr18  1  0.999467  0.659080  0.999600  1
  Cr  Cr19  1  0.659080  0.999467  0.999600  1
  Re  Re20  1  0.749877  0.749877  0.750369  1
  Re  Re21  1  0.251145  0.251145  0.246566  1
  Si  Si22  1  0.000004  0.000004  0.999986  1
  C  C23  1  0.720657  0.720657  0.278644  1
  C  C24  1  0.280043  0.720657  0.278644  1
  C  C25  1  0.720657  0.280043  0.278644  1
  C  C26  1  0.280825  0.280825  0.720975  1
  C  C27  1  0.717374  0.280825  0.720975  1
  C  C28  1  0.280825  0.717374  0.720975  1
