# generated using pymatgen
data_Ho2Er6Sc11Si16Tc
_symmetry_space_group_name_H-M   'P 1'
_cell_length_a   6.98841806
_cell_length_b   7.32325795
_cell_length_c   13.83158122
_cell_angle_alpha   90.01870053
_cell_angle_beta   90.00855776
_cell_angle_gamma   90.14948221
_symmetry_Int_Tables_number   1
_chemical_formula_structural   Ho2Er6Sc11Si16Tc
_chemical_formula_sum   'Ho2 Er6 Sc11 Si16 Tc1'
_cell_volume   707.87004465
_cell_formula_units_Z   1
loop_
 _symmetry_equiv_pos_site_id
 _symmetry_equiv_pos_as_xyz
  1  'x, y, z'
loop_
 _atom_site_type_symbol
 _atom_site_label
 _atom_site_symmetry_multiplicity
 _atom_site_fract_x
 _atom_site_fract_y
 _atom_site_fract_z
 _atom_site_occupancy
  Ho  Ho0  1  0.013014  0.178345  0.093138  1
  Ho  Ho1  1  0.991938  0.818160  0.900811  1
  Er  Er2  1  0.487098  0.672871  0.902577  1
  Er  Er3  1  0.991941  0.817839  0.599369  1
  Er  Er4  1  0.512467  0.322835  0.095389  1
  Er  Er5  1  0.013075  0.178455  0.406765  1
  Er  Er6  1  0.512547  0.322726  0.404691  1
  Er  Er7  1  0.487123  0.672851  0.597348  1
  Sc  Sc8  1  0.843141  0.496311  0.250051  1
  Sc  Sc9  1  0.343761  0.004229  0.250041  1
  Sc  Sc10  1  0.655181  0.994784  0.749957  1
  Sc  Sc11  1  0.324447  0.177890  0.627533  1
  Sc  Sc12  1  0.673399  0.824413  0.374398  1
  Sc  Sc13  1  0.173492  0.674144  0.376792  1
  Sc  Sc14  1  0.673353  0.824340  0.125667  1
  Sc  Sc15  1  0.826218  0.331079  0.628657  1
  Sc  Sc16  1  0.324519  0.177917  0.872382  1
  Sc  Sc17  1  0.826142  0.331184  0.871288  1
  Sc  Sc18  1  0.173556  0.674016  0.123271  1
  Si  Si19  1  0.026990  0.117429  0.749915  1
  Si  Si20  1  0.974663  0.887089  0.250074  1
  Si  Si21  1  0.470600  0.614802  0.250012  1
  Si  Si22  1  0.516494  0.395881  0.749963  1
  Si  Si23  1  0.284048  0.859740  0.749877  1
  Si  Si24  1  0.718647  0.131095  0.250130  1
  Si  Si25  1  0.216356  0.370019  0.250116  1
  Si  Si26  1  0.792375  0.630414  0.749877  1
  Si  Si27  1  0.155586  0.466675  0.548045  1
  Si  Si28  1  0.842543  0.535488  0.463268  1
  Si  Si29  1  0.345700  0.965281  0.462865  1
  Si  Si30  1  0.842390  0.535471  0.036746  1
  Si  Si31  1  0.658031  0.034301  0.540012  1
  Si  Si32  1  0.155748  0.466571  0.951934  1
  Si  Si33  1  0.657637  0.034428  0.960010  1
  Si  Si34  1  0.346083  0.965151  0.037109  1
  Tc  Tc35  1  0.149695  0.495775  0.749923  1
