# generated using pymatgen
data_Pr6Zn4Pd12Rh
_symmetry_space_group_name_H-M   'P 1'
_cell_length_a   8.39954808
_cell_length_b   8.39954904
_cell_length_c   8.39954900
_cell_angle_alpha   109.47121571
_cell_angle_beta   109.47121804
_cell_angle_gamma   109.47122773
_symmetry_Int_Tables_number   1
_chemical_formula_structural   Pr6Zn4Pd12Rh
_chemical_formula_sum   'Pr6 Zn4 Pd12 Rh1'
_cell_volume   456.19021941
_cell_formula_units_Z   1
loop_
 _symmetry_equiv_pos_site_id
 _symmetry_equiv_pos_as_xyz
  1  'x, y, z'
loop_
 _atom_site_type_symbol
 _atom_site_label
 _atom_site_symmetry_multiplicity
 _atom_site_fract_x
 _atom_site_fract_y
 _atom_site_fract_z
 _atom_site_occupancy
  Pr  Pr0  1  0.701906  0.701906  0.000000  1
  Pr  Pr1  1  0.298094  0.000000  0.298094  1
  Pr  Pr2  1  0.000000  0.298094  0.298094  1
  Pr  Pr3  1  0.298094  0.298094  0.000000  1
  Pr  Pr4  1  0.701906  0.000000  0.701906  1
  Pr  Pr5  1  0.000000  0.701906  0.701906  1
  Zn  Zn6  1  0.000000  0.000000  0.500000  1
  Zn  Zn7  1  0.000000  0.500000  0.000000  1
  Zn  Zn8  1  0.500000  0.000000  0.000000  1
  Zn  Zn9  1  0.500000  0.500000  0.500000  1
  Pd  Pd10  1  0.331679  0.331679  0.663356  1
  Pd  Pd11  1  0.668321  0.000000  0.331679  1
  Pd  Pd12  1  0.000000  0.668321  0.331679  1
  Pd  Pd13  1  0.668321  0.331679  0.000000  1
  Pd  Pd14  1  0.331679  0.663356  0.331679  1
  Pd  Pd15  1  0.000000  0.331679  0.668321  1
  Pd  Pd16  1  0.331679  0.668321  0.000000  1
  Pd  Pd17  1  0.331679  0.000000  0.668321  1
  Pd  Pd18  1  0.663356  0.331679  0.331679  1
  Pd  Pd19  1  0.668321  0.668321  0.336644  1
  Pd  Pd20  1  0.668321  0.336644  0.668321  1
  Pd  Pd21  1  0.336644  0.668321  0.668321  1
  Rh  Rh22  1  0.000000  0.000000  0.000000  1
