# generated using pymatgen
data_Ho2Tm14InAg3Rh4
_symmetry_space_group_name_H-M   'P 1'
_cell_length_a   9.47100178
_cell_length_b   9.45485834
_cell_length_c   9.43584719
_cell_angle_alpha   59.84607133
_cell_angle_beta   59.87667126
_cell_angle_gamma   59.94349777
_symmetry_Int_Tables_number   1
_chemical_formula_structural   Ho2Tm14InAg3Rh4
_chemical_formula_sum   'Ho2 Tm14 In1 Ag3 Rh4'
_cell_volume   595.96201057
_cell_formula_units_Z   1
loop_
 _symmetry_equiv_pos_site_id
 _symmetry_equiv_pos_as_xyz
  1  'x, y, z'
loop_
 _atom_site_type_symbol
 _atom_site_label
 _atom_site_symmetry_multiplicity
 _atom_site_fract_x
 _atom_site_fract_y
 _atom_site_fract_z
 _atom_site_occupancy
  Ho  Ho0  1  0.062994  0.062987  0.437770  1
  Ho  Ho1  1  0.436249  0.062987  0.437770  1
  Tm  Tm2  1  0.061646  0.435432  0.067724  1
  Tm  Tm3  1  0.054695  0.647265  0.649269  1
  Tm  Tm4  1  0.435198  0.435432  0.067724  1
  Tm  Tm5  1  0.648025  0.054591  0.649360  1
  Tm  Tm6  1  0.187650  0.812796  0.187640  1
  Tm  Tm7  1  0.188320  0.189824  0.812443  1
  Tm  Tm8  1  0.811914  0.812796  0.187640  1
  Tm  Tm9  1  0.435490  0.061419  0.067600  1
  Tm  Tm10  1  0.812138  0.188500  0.187224  1
  Tm  Tm11  1  0.062733  0.436791  0.437744  1
  Tm  Tm12  1  0.809413  0.189824  0.812443  1
  Tm  Tm13  1  0.188701  0.809661  0.812938  1
  Tm  Tm14  1  0.649087  0.647662  0.054166  1
  Tm  Tm15  1  0.648773  0.647265  0.649269  1
  In  In16  1  0.420401  0.420739  0.738460  1
  Ag  Ag17  1  0.417679  0.418208  0.414666  1
  Ag  Ag18  1  0.749445  0.418208  0.414666  1
  Ag  Ag19  1  0.418193  0.749032  0.414580  1
  Rh  Rh20  1  0.857117  0.855590  0.430176  1
  Rh  Rh21  1  0.857780  0.856908  0.856381  1
  Rh  Rh22  1  0.428931  0.856908  0.856381  1
  Rh  Rh23  1  0.857428  0.429176  0.855967  1
