# generated using pymatgen
data_Ti12Al3Si5(PtC)4
_symmetry_space_group_name_H-M   'P 1'
_cell_length_a   8.14195009
_cell_length_b   8.13557878
_cell_length_c   8.14096800
_cell_angle_alpha   59.97808469
_cell_angle_beta   60.00399004
_cell_angle_gamma   59.99257185
_symmetry_Int_Tables_number   1
_chemical_formula_structural   Ti12Al3Si5(PtC)4
_chemical_formula_sum   'Ti12 Al3 Si5 Pt4 C4'
_cell_volume   381.23667151
_cell_formula_units_Z   1
loop_
 _symmetry_equiv_pos_site_id
 _symmetry_equiv_pos_as_xyz
  1  'x, y, z'
loop_
 _atom_site_type_symbol
 _atom_site_label
 _atom_site_symmetry_multiplicity
 _atom_site_fract_x
 _atom_site_fract_y
 _atom_site_fract_z
 _atom_site_occupancy
  Ti  Ti0  1  0.935128  0.935143  0.564865  1
  Ti  Ti1  1  0.685719  0.314842  0.314605  1
  Ti  Ti2  1  0.315202  0.681669  0.687927  1
  Ti  Ti3  1  0.687987  0.681004  0.315505  1
  Ti  Ti4  1  0.685719  0.314842  0.684833  1
  Ti  Ti5  1  0.315202  0.681669  0.315203  1
  Ti  Ti6  1  0.560587  0.936189  0.567624  1
  Ti  Ti7  1  0.560587  0.936189  0.935600  1
  Ti  Ti8  1  0.935976  0.561262  0.567397  1
  Ti  Ti9  1  0.935976  0.561262  0.935366  1
  Ti  Ti10  1  0.314702  0.315014  0.685142  1
  Ti  Ti11  1  0.563649  0.564760  0.935796  1
  Al  Al12  1  0.913688  0.913845  0.916318  1
  Al  Al13  1  0.913688  0.913845  0.256150  1
  Al  Al14  1  0.336036  0.992739  0.335612  1
  Si  Si15  1  0.909124  0.263977  0.913450  1
  Si  Si16  1  0.340927  0.336139  0.982537  1
  Si  Si17  1  0.986447  0.335113  0.339220  1
  Si  Si18  1  0.340927  0.336139  0.340396  1
  Si  Si19  1  0.260228  0.910660  0.914556  1
  Pt  Pt20  1  0.131328  0.614245  0.127214  1
  Pt  Pt21  1  0.124981  0.130774  0.624868  1
  Pt  Pt22  1  0.620396  0.134426  0.122589  1
  Pt  Pt23  1  0.124981  0.130774  0.119376  1
  C  C24  1  0.625302  0.125317  0.624690  1
  C  C25  1  0.625314  0.626098  0.124188  1
  C  C26  1  0.124883  0.625967  0.624575  1
  C  C27  1  0.625314  0.626098  0.624400  1
