# generated using pymatgen
data_BaGe7As5Pt4
_symmetry_space_group_name_H-M   'P 1'
_cell_length_a   7.60022450
_cell_length_b   7.58014119
_cell_length_c   7.57737603
_cell_angle_alpha   109.01771179
_cell_angle_beta   109.51267613
_cell_angle_gamma   109.68109880
_symmetry_Int_Tables_number   1
_chemical_formula_structural   BaGe7As5Pt4
_chemical_formula_sum   'Ba1 Ge7 As5 Pt4'
_cell_volume   336.87421687
_cell_formula_units_Z   1
loop_
 _symmetry_equiv_pos_site_id
 _symmetry_equiv_pos_as_xyz
  1  'x, y, z'
loop_
 _atom_site_type_symbol
 _atom_site_label
 _atom_site_symmetry_multiplicity
 _atom_site_fract_x
 _atom_site_fract_y
 _atom_site_fract_z
 _atom_site_occupancy
  Ba  Ba0  1  0.000383  0.998102  0.998947  1
  Ge  Ge1  1  0.494504  0.853565  0.645539  1
  Ge  Ge2  1  0.149790  0.352956  0.502843  1
  Ge  Ge3  1  0.510102  0.152090  0.361694  1
  Ge  Ge4  1  0.847219  0.350289  0.201597  1
  Ge  Ge5  1  0.642092  0.489808  0.847147  1
  Ge  Ge6  1  0.357204  0.206802  0.849268  1
  Ge  Ge7  1  0.797841  0.154445  0.648589  1
  As  As8  1  0.850758  0.641568  0.495509  1
  As  As9  1  0.353355  0.500126  0.146666  1
  As  As10  1  0.208921  0.855396  0.357349  1
  As  As11  1  0.145863  0.641863  0.787153  1
  As  As12  1  0.646147  0.794532  0.148243  1
  Pt  Pt13  1  0.000952  0.001534  0.505260  1
  Pt  Pt14  1  0.500767  0.503316  0.503105  1
  Pt  Pt15  1  0.000331  0.503834  0.001443  1
  Pt  Pt16  1  0.493771  0.999772  0.999650  1
