# generated using pymatgen
data_CaPr3Al15(SiRh2)3
_symmetry_space_group_name_H-M   'P 1'
_cell_length_a   7.59881112
_cell_length_b   7.55176519
_cell_length_c   9.56285501
_cell_angle_alpha   90.00387699
_cell_angle_beta   89.93567320
_cell_angle_gamma   119.72663374
_symmetry_Int_Tables_number   1
_chemical_formula_structural   CaPr3Al15(SiRh2)3
_chemical_formula_sum   'Ca1 Pr3 Al15 Si3 Rh6'
_cell_volume   476.54259537
_cell_formula_units_Z   1
loop_
 _symmetry_equiv_pos_site_id
 _symmetry_equiv_pos_as_xyz
  1  'x, y, z'
loop_
 _atom_site_type_symbol
 _atom_site_label
 _atom_site_symmetry_multiplicity
 _atom_site_fract_x
 _atom_site_fract_y
 _atom_site_fract_z
 _atom_site_occupancy
  Ca  Ca0  1  0.993452  0.664588  0.746511  1
  Pr  Pr1  1  0.005780  0.341461  0.254196  1
  Pr  Pr2  1  0.675194  0.001474  0.746991  1
  Pr  Pr3  1  0.320191  0.991744  0.250553  1
  Al  Al4  1  0.130711  0.127858  0.749710  1
  Al  Al5  1  0.869398  0.868700  0.249373  1
  Al  Al6  1  0.336086  0.002131  0.922384  1
  Al  Al7  1  0.004022  0.334026  0.928977  1
  Al  Al8  1  0.666165  0.999637  0.072587  1
  Al  Al9  1  0.661874  0.994686  0.424255  1
  Al  Al10  1  0.335150  0.001976  0.578097  1
  Al  Al11  1  0.334889  0.332737  0.049779  1
  Al  Al12  1  0.664761  0.666755  0.948248  1
  Al  Al13  1  0.664019  0.665458  0.553653  1
  Al  Al14  1  0.337070  0.333447  0.450656  1
  Al  Al15  1  0.338415  0.549522  0.749917  1
  Al  Al16  1  0.661036  0.452590  0.250924  1
  Al  Al17  1  0.548111  0.345358  0.750134  1
  Al  Al18  1  0.458453  0.657599  0.249790  1
  Si  Si19  1  0.006089  0.332065  0.577115  1
  Si  Si20  1  0.993346  0.670640  0.434421  1
  Si  Si21  1  0.995851  0.665543  0.060225  1
  Rh  Rh22  1  0.687078  0.337047  0.502063  1
  Rh  Rh23  1  0.311935  0.662127  0.497937  1
  Rh  Rh24  1  0.320861  0.669351  0.002382  1
  Rh  Rh25  1  0.679155  0.337015  0.999807  1
  Rh  Rh26  1  0.000157  0.000455  0.499636  1
  Rh  Rh27  1  0.000753  0.994011  0.999683  1
