# generated using pymatgen
data_La3NF6
_symmetry_space_group_name_H-M   'P 1'
_cell_length_a   5.80738400
_cell_length_b   5.82520600
_cell_length_c   18.82476700
_cell_angle_alpha   90.00000000
_cell_angle_beta   90.00000000
_cell_angle_gamma   90.00000000
_symmetry_Int_Tables_number   1
_chemical_formula_structural   La3NF6
_chemical_formula_sum   'La12 N4 F24'
_cell_volume   636.82696067
_cell_formula_units_Z   4
loop_
 _symmetry_equiv_pos_site_id
 _symmetry_equiv_pos_as_xyz
  1  'x, y, z'
loop_
 _atom_site_type_symbol
 _atom_site_label
 _atom_site_symmetry_multiplicity
 _atom_site_fract_x
 _atom_site_fract_y
 _atom_site_fract_z
 _atom_site_occupancy
  La  La0  1  0.011920  0.712526  0.569425  1
  La  La1  1  0.511920  0.287474  0.930575  1
  La  La2  1  0.488080  0.712526  0.430575  1
  La  La3  1  0.988080  0.287474  0.069425  1
  La  La4  1  0.988080  0.287474  0.430575  1
  La  La5  1  0.488080  0.712526  0.069425  1
  La  La6  1  0.511920  0.287474  0.569425  1
  La  La7  1  0.011920  0.712526  0.930575  1
  La  La8  1  0.519838  0.226421  0.250000  1
  La  La9  1  0.019838  0.773579  0.250000  1
  La  La10  1  0.980162  0.226421  0.750000  1
  La  La11  1  0.480162  0.773579  0.750000  1
  N  N12  1  0.750000  0.515124  0.500000  1
  N  N13  1  0.250000  0.484876  0.000000  1
  N  N14  1  0.250000  0.484876  0.500000  1
  N  N15  1  0.750000  0.515124  0.000000  1
  F  F16  1  0.750000  0.004825  0.500000  1
  F  F17  1  0.250000  0.995175  0.000000  1
  F  F18  1  0.250000  0.995175  0.500000  1
  F  F19  1  0.750000  0.004825  0.000000  1
  F  F20  1  0.402325  0.620417  0.250000  1
  F  F21  1  0.902325  0.379583  0.250000  1
  F  F22  1  0.097675  0.620417  0.750000  1
  F  F23  1  0.597675  0.379583  0.750000  1
  F  F24  1  0.226415  0.058107  0.326420  1
  F  F25  1  0.726415  0.941893  0.173580  1
  F  F26  1  0.273585  0.058107  0.673580  1
  F  F27  1  0.773585  0.941893  0.826420  1
  F  F28  1  0.773585  0.941893  0.673580  1
  F  F29  1  0.273585  0.058107  0.826420  1
  F  F30  1  0.726415  0.941893  0.326420  1
  F  F31  1  0.226415  0.058107  0.173580  1
  F  F32  1  0.098647  0.622811  0.135943  1
  F  F33  1  0.598647  0.377189  0.364057  1
  F  F34  1  0.401353  0.622811  0.864057  1
  F  F35  1  0.901353  0.377189  0.635943  1
  F  F36  1  0.901353  0.377189  0.864057  1
  F  F37  1  0.401353  0.622811  0.635943  1
  F  F38  1  0.598647  0.377189  0.135943  1
  F  F39  1  0.098647  0.622811  0.364057  1
