# generated using pymatgen
data_Cd3Hg(Rh2O7)2
_symmetry_space_group_name_H-M   'P 1'
_cell_length_a   7.29059151
_cell_length_b   7.29059090
_cell_length_c   7.20970628
_cell_angle_alpha   59.62818161
_cell_angle_beta   59.62818820
_cell_angle_gamma   59.99999824
_symmetry_Int_Tables_number   1
_chemical_formula_structural   Cd3Hg(Rh2O7)2
_chemical_formula_sum   'Cd3 Hg1 Rh4 O14'
_cell_volume   269.44140561
_cell_formula_units_Z   1
loop_
 _symmetry_equiv_pos_site_id
 _symmetry_equiv_pos_as_xyz
  1  'x, y, z'
loop_
 _atom_site_type_symbol
 _atom_site_label
 _atom_site_symmetry_multiplicity
 _atom_site_fract_x
 _atom_site_fract_y
 _atom_site_fract_z
 _atom_site_occupancy
  Cd  Cd0  1  0.625000  0.625000  0.625000  1
  Cd  Cd1  1  0.625000  0.125000  0.625000  1
  Cd  Cd2  1  0.125000  0.625000  0.625000  1
  Hg  Hg3  1  0.625000  0.625000  0.125000  1
  Rh  Rh4  1  0.125000  0.625000  0.125000  1
  Rh  Rh5  1  0.125000  0.125000  0.125000  1
  Rh  Rh6  1  0.125000  0.125000  0.625000  1
  Rh  Rh7  1  0.625000  0.125000  0.125000  1
  O  O8  1  0.800051  0.800051  0.205134  1
  O  O9  1  0.800200  0.200951  0.797897  1
  O  O10  1  0.049049  0.049049  0.452103  1
  O  O11  1  0.800051  0.194764  0.205134  1
  O  O12  1  0.449949  0.449949  0.044866  1
  O  O13  1  0.055236  0.449949  0.044866  1
  O  O14  1  0.200951  0.800200  0.797897  1
  O  O15  1  0.449800  0.049049  0.452103  1
  O  O16  1  0.504184  0.504184  0.487449  1
  O  O17  1  0.194764  0.800051  0.205134  1
  O  O18  1  0.200951  0.200951  0.797897  1
  O  O19  1  0.745816  0.745816  0.762551  1
  O  O20  1  0.449949  0.055236  0.044866  1
  O  O21  1  0.049049  0.449800  0.452103  1
