# generated using pymatgen
data_ErTmAl6
_symmetry_space_group_name_H-M   'P 1'
_cell_length_a   14.46956548
_cell_length_b   14.46956580
_cell_length_c   14.46956467
_cell_angle_alpha   24.41392457
_cell_angle_beta   24.41392085
_cell_angle_gamma   24.41392449
_symmetry_Int_Tables_number   1
_chemical_formula_structural   ErTmAl6
_chemical_formula_sum   'Er3 Tm3 Al18'
_cell_volume   454.98775652
_cell_formula_units_Z   3
loop_
 _symmetry_equiv_pos_site_id
 _symmetry_equiv_pos_as_xyz
  1  'x, y, z'
loop_
 _atom_site_type_symbol
 _atom_site_label
 _atom_site_symmetry_multiplicity
 _atom_site_fract_x
 _atom_site_fract_y
 _atom_site_fract_z
 _atom_site_occupancy
  Er  Er0  1  0.001432  0.001432  0.001432  1
  Er  Er1  1  0.501505  0.501505  0.501505  1
  Er  Er2  1  0.610658  0.610658  0.610658  1
  Tm  Tm3  1  0.110673  0.110673  0.110673  1
  Tm  Tm4  1  0.892085  0.892085  0.892085  1
  Tm  Tm5  1  0.392110  0.392110  0.392110  1
  Al  Al6  1  0.923070  0.373268  0.373268  1
  Al  Al7  1  0.422430  0.873651  0.873651  1
  Al  Al8  1  0.373268  0.373268  0.923070  1
  Al  Al9  1  0.873651  0.873651  0.422430  1
  Al  Al10  1  0.373268  0.923070  0.373268  1
  Al  Al11  1  0.873651  0.422430  0.873651  1
  Al  Al12  1  0.580330  0.129282  0.129282  1
  Al  Al13  1  0.080004  0.629333  0.629333  1
  Al  Al14  1  0.129282  0.129282  0.580330  1
  Al  Al15  1  0.629333  0.629333  0.080004  1
  Al  Al16  1  0.129282  0.580330  0.129282  1
  Al  Al17  1  0.629333  0.080004  0.629333  1
  Al  Al18  1  0.501368  0.501368  0.001832  1
  Al  Al19  1  0.001412  0.001412  0.501472  1
  Al  Al20  1  0.501368  0.001832  0.501368  1
  Al  Al21  1  0.001412  0.501472  0.001412  1
  Al  Al22  1  0.001832  0.501368  0.501368  1
  Al  Al23  1  0.501472  0.001412  0.001412  1
