# generated using pymatgen
data_KSn2(AsO4)3
_symmetry_space_group_name_H-M   'P 1'
_cell_length_a   9.66593419
_cell_length_b   9.66593360
_cell_length_c   9.66593462
_cell_angle_alpha   54.42627582
_cell_angle_beta   54.42628095
_cell_angle_gamma   54.42628179
_symmetry_Int_Tables_number   1
_chemical_formula_structural   KSn2(AsO4)3
_chemical_formula_sum   'K2 Sn4 As6 O24'
_cell_volume   555.57912575
_cell_formula_units_Z   2
loop_
 _symmetry_equiv_pos_site_id
 _symmetry_equiv_pos_as_xyz
  1  'x, y, z'
loop_
 _atom_site_type_symbol
 _atom_site_label
 _atom_site_symmetry_multiplicity
 _atom_site_fract_x
 _atom_site_fract_y
 _atom_site_fract_z
 _atom_site_occupancy
  K  K0  1  0.000000  0.000000  0.000000  1
  K  K1  1  0.500000  0.500000  0.500000  1
  Sn  Sn2  1  0.151348  0.151348  0.151348  1
  Sn  Sn3  1  0.848652  0.848652  0.848652  1
  Sn  Sn4  1  0.353531  0.353531  0.353531  1
  Sn  Sn5  1  0.646469  0.646469  0.646469  1
  As  As6  1  0.964248  0.249509  0.534365  1
  As  As7  1  0.249509  0.534365  0.964248  1
  As  As8  1  0.035752  0.750491  0.465635  1
  As  As9  1  0.750491  0.465635  0.035752  1
  As  As10  1  0.534365  0.964248  0.249509  1
  As  As11  1  0.465635  0.035752  0.750491  1
  O  O12  1  0.400761  0.617463  0.753616  1
  O  O13  1  0.617463  0.753616  0.400761  1
  O  O14  1  0.753616  0.400761  0.617463  1
  O  O15  1  0.599239  0.382537  0.246384  1
  O  O16  1  0.382537  0.246384  0.599239  1
  O  O17  1  0.246384  0.599239  0.382537  1
  O  O18  1  0.308407  0.017537  0.969520  1
  O  O19  1  0.017537  0.969520  0.308407  1
  O  O20  1  0.969520  0.308407  0.017537  1
  O  O21  1  0.691593  0.982463  0.030480  1
  O  O22  1  0.982463  0.030480  0.691593  1
  O  O23  1  0.030480  0.691593  0.982463  1
  O  O24  1  0.709364  0.670145  0.024557  1
  O  O25  1  0.024557  0.709364  0.670145  1
  O  O26  1  0.670145  0.024557  0.709364  1
  O  O27  1  0.290636  0.329855  0.975443  1
  O  O28  1  0.975443  0.290636  0.329855  1
  O  O29  1  0.329855  0.975443  0.290636  1
  O  O30  1  0.129846  0.277259  0.524311  1
  O  O31  1  0.524311  0.129846  0.277259  1
  O  O32  1  0.277259  0.524311  0.129846  1
  O  O33  1  0.870154  0.722741  0.475689  1
  O  O34  1  0.475689  0.870154  0.722741  1
  O  O35  1  0.722741  0.475689  0.870154  1
