# generated using pymatgen
data_Ba4Al8Si7Hg
_symmetry_space_group_name_H-M   'P 1'
_cell_length_a   4.30551300
_cell_length_b   10.04955323
_cell_length_c   11.12158652
_cell_angle_alpha   89.81770253
_cell_angle_beta   90.00000000
_cell_angle_gamma   90.00000000
_symmetry_Int_Tables_number   1
_chemical_formula_structural   Ba4Al8Si7Hg
_chemical_formula_sum   'Ba4 Al8 Si7 Hg1'
_cell_volume   481.21173113
_cell_formula_units_Z   1
loop_
 _symmetry_equiv_pos_site_id
 _symmetry_equiv_pos_as_xyz
  1  'x, y, z'
loop_
 _atom_site_type_symbol
 _atom_site_label
 _atom_site_symmetry_multiplicity
 _atom_site_fract_x
 _atom_site_fract_y
 _atom_site_fract_z
 _atom_site_occupancy
  Ba  Ba0  1  0.250000  0.248585  0.174700  1
  Ba  Ba1  1  0.750000  0.750381  0.830020  1
  Ba  Ba2  1  0.250000  0.744716  0.323410  1
  Ba  Ba3  1  0.750000  0.257148  0.676362  1
  Al  Al4  1  0.250000  0.596960  0.048388  1
  Al  Al5  1  0.750000  0.402334  0.953028  1
  Al  Al6  1  0.250000  0.095773  0.445007  1
  Al  Al7  1  0.750000  0.899519  0.534534  1
  Al  Al8  1  0.250000  0.545060  0.620603  1
  Al  Al9  1  0.750000  0.455181  0.378072  1
  Al  Al10  1  0.250000  0.042125  0.894433  1
  Al  Al11  1  0.750000  0.957588  0.116241  1
  Si  Si12  1  0.750000  0.024927  0.336555  1
  Si  Si13  1  0.250000  0.475594  0.844408  1
  Si  Si14  1  0.750000  0.524525  0.155093  1
  Si  Si15  1  0.250000  0.356281  0.459466  1
  Si  Si16  1  0.750000  0.644842  0.538043  1
  Si  Si17  1  0.250000  0.851828  0.046145  1
  Si  Si18  1  0.750000  0.148729  0.960945  1
  Hg  Hg19  1  0.250000  0.977904  0.664548  1
