# generated using pymatgen
data_Ho3CdCo2Sn3
_symmetry_space_group_name_H-M   'P 1'
_cell_length_a   7.64681400
_cell_length_b   7.64681334
_cell_length_c   3.78202100
_cell_angle_alpha   90.00000000
_cell_angle_beta   90.00000000
_cell_angle_gamma   119.99999419
_symmetry_Int_Tables_number   1
_chemical_formula_structural   Ho3CdCo2Sn3
_chemical_formula_sum   'Ho3 Cd1 Co2 Sn3'
_cell_volume   191.52065085
_cell_formula_units_Z   1
loop_
 _symmetry_equiv_pos_site_id
 _symmetry_equiv_pos_as_xyz
  1  'x, y, z'
loop_
 _atom_site_type_symbol
 _atom_site_label
 _atom_site_symmetry_multiplicity
 _atom_site_fract_x
 _atom_site_fract_y
 _atom_site_fract_z
 _atom_site_occupancy
  Ho  Ho0  1  0.382507  0.413566  0.500000  1
  Ho  Ho1  1  0.586434  0.968943  0.500000  1
  Ho  Ho2  1  0.031057  0.617493  0.500000  1
  Cd  Cd3  1  0.666667  0.333333  0.000000  1
  Co  Co4  1  0.333333  0.666667  0.000000  1
  Co  Co5  1  0.000000  0.000000  0.500000  1
  Sn  Sn6  1  0.746878  0.750116  0.000000  1
  Sn  Sn7  1  0.249884  0.996762  0.000000  1
  Sn  Sn8  1  0.003238  0.253122  0.000000  1
