# generated using pymatgen
data_CsY10(C2Br9)2
_symmetry_space_group_name_H-M   'P 1'
_cell_length_a   10.74286423
_cell_length_b   10.81520237
_cell_length_c   10.91659423
_cell_angle_alpha   113.33672356
_cell_angle_beta   87.41324283
_cell_angle_gamma   119.00463111
_symmetry_Int_Tables_number   1
_chemical_formula_structural   CsY10(C2Br9)2
_chemical_formula_sum   'Cs1 Y10 C4 Br18'
_cell_volume   1001.33617739
_cell_formula_units_Z   1
loop_
 _symmetry_equiv_pos_site_id
 _symmetry_equiv_pos_as_xyz
  1  'x, y, z'
loop_
 _atom_site_type_symbol
 _atom_site_label
 _atom_site_symmetry_multiplicity
 _atom_site_fract_x
 _atom_site_fract_y
 _atom_site_fract_z
 _atom_site_occupancy
  Cs  Cs0  1  0.500000  0.000000  0.500000  1
  Y  Y1  1  0.662856  0.717148  0.702796  1
  Y  Y2  1  0.282004  0.364201  0.011982  1
  Y  Y3  1  0.093220  0.406331  0.300655  1
  Y  Y4  1  0.959871  0.036530  0.332991  1
  Y  Y5  1  0.906780  0.593669  0.699345  1
  Y  Y6  1  0.111610  0.941889  0.001200  1
  Y  Y7  1  0.040129  0.963470  0.667009  1
  Y  Y8  1  0.337144  0.282852  0.297204  1
  Y  Y9  1  0.717996  0.635799  0.988018  1
  Y  Y10  1  0.888390  0.058111  0.998800  1
  C  C11  1  0.156662  0.227367  0.123460  1
  C  C12  1  0.843338  0.772633  0.876540  1
  C  C13  1  0.921867  0.851427  0.796328  1
  C  C14  1  0.078133  0.148573  0.203672  1
  Br  Br15  1  0.451004  0.530178  0.834148  1
  Br  Br16  1  0.382791  0.040030  0.159651  1
  Br  Br17  1  0.778744  0.858122  0.501043  1
  Br  Br18  1  0.838453  0.310348  0.153931  1
  Br  Br19  1  0.548996  0.469822  0.165852  1
  Br  Br20  1  0.221256  0.141878  0.498957  1
  Br  Br21  1  0.314841  0.099904  0.828707  1
  Br  Br22  1  0.685159  0.900096  0.171293  1
  Br  Br23  1  0.973605  0.760363  0.173067  1
  Br  Br24  1  0.932682  0.302157  0.500797  1
  Br  Br25  1  0.026395  0.239637  0.826933  1
  Br  Br26  1  0.067318  0.697843  0.499203  1
  Br  Br27  1  0.260516  0.623021  0.187253  1
  Br  Br28  1  0.739484  0.376979  0.812747  1
  Br  Br29  1  0.639047  0.434405  0.500132  1
  Br  Br30  1  0.161547  0.689652  0.846069  1
  Br  Br31  1  0.617209  0.959970  0.840349  1
  Br  Br32  1  0.360953  0.565595  0.499868  1
