# generated using pymatgen
data_Ho4Sc3AlOs4
_symmetry_space_group_name_H-M   'P 1'
_cell_length_a   4.09807100
_cell_length_b   7.19224300
_cell_length_c   8.53095125
_cell_angle_alpha   89.79399254
_cell_angle_beta   90.00000000
_cell_angle_gamma   90.00000000
_symmetry_Int_Tables_number   1
_chemical_formula_structural   Ho4Sc3AlOs4
_chemical_formula_sum   'Ho4 Sc3 Al1 Os4'
_cell_volume   251.44238266
_cell_formula_units_Z   1
loop_
 _symmetry_equiv_pos_site_id
 _symmetry_equiv_pos_as_xyz
  1  'x, y, z'
loop_
 _atom_site_type_symbol
 _atom_site_label
 _atom_site_symmetry_multiplicity
 _atom_site_fract_x
 _atom_site_fract_y
 _atom_site_fract_z
 _atom_site_occupancy
  Ho  Ho0  1  0.250000  0.043058  0.668363  1
  Ho  Ho1  1  0.250000  0.522776  0.818582  1
  Ho  Ho2  1  0.750000  0.973184  0.332794  1
  Ho  Ho3  1  0.750000  0.470399  0.175800  1
  Sc  Sc4  1  0.250000  0.141835  0.058713  1
  Sc  Sc5  1  0.250000  0.633374  0.446585  1
  Sc  Sc6  1  0.750000  0.855922  0.939286  1
  Al  Al7  1  0.750000  0.362018  0.557499  1
  Os  Os8  1  0.250000  0.267222  0.378321  1
  Os  Os9  1  0.250000  0.764141  0.129873  1
  Os  Os10  1  0.750000  0.730338  0.628702  1
  Os  Os11  1  0.750000  0.235732  0.865483  1
