# generated using pymatgen
data_Lu8Tl3Os
_symmetry_space_group_name_H-M   'P 1'
_cell_length_a   10.15941900
_cell_length_b   10.15941880
_cell_length_c   7.04776100
_cell_angle_alpha   90.00000000
_cell_angle_beta   90.00000000
_cell_angle_gamma   119.99999739
_symmetry_Int_Tables_number   1
_chemical_formula_structural   Lu8Tl3Os
_chemical_formula_sum   'Lu16 Tl6 Os2'
_cell_volume   629.96953375
_cell_formula_units_Z   2
loop_
 _symmetry_equiv_pos_site_id
 _symmetry_equiv_pos_as_xyz
  1  'x, y, z'
loop_
 _atom_site_type_symbol
 _atom_site_label
 _atom_site_symmetry_multiplicity
 _atom_site_fract_x
 _atom_site_fract_y
 _atom_site_fract_z
 _atom_site_occupancy
  Lu  Lu0  1  0.534996  0.069990  0.524154  1
  Lu  Lu1  1  0.930010  0.465004  0.524154  1
  Lu  Lu2  1  0.534996  0.465004  0.524154  1
  Lu  Lu3  1  0.465004  0.930010  0.024154  1
  Lu  Lu4  1  0.069990  0.534996  0.024154  1
  Lu  Lu5  1  0.465004  0.534996  0.024154  1
  Lu  Lu6  1  0.177217  0.354433  0.724954  1
  Lu  Lu7  1  0.645567  0.822783  0.724954  1
  Lu  Lu8  1  0.177217  0.822783  0.724954  1
  Lu  Lu9  1  0.822783  0.645567  0.224954  1
  Lu  Lu10  1  0.354433  0.177217  0.224954  1
  Lu  Lu11  1  0.822783  0.177217  0.224954  1
  Lu  Lu12  1  0.666667  0.333333  0.905864  1
  Lu  Lu13  1  0.333333  0.666667  0.405864  1
  Lu  Lu14  1  0.000000  0.000000  0.504294  1
  Lu  Lu15  1  0.000000  0.000000  0.004294  1
  Tl  Tl16  1  0.836467  0.672933  0.774619  1
  Tl  Tl17  1  0.327067  0.163533  0.774619  1
  Tl  Tl18  1  0.836467  0.163533  0.774619  1
  Tl  Tl19  1  0.163533  0.327067  0.274619  1
  Tl  Tl20  1  0.672933  0.836467  0.274619  1
  Tl  Tl21  1  0.163533  0.836467  0.274619  1
  Os  Os22  1  0.666667  0.333333  0.296499  1
  Os  Os23  1  0.333333  0.666667  0.796499  1
