# generated using pymatgen
data_Y5Ho3(CoB14)2
_symmetry_space_group_name_H-M   'P 1'
_cell_length_a   7.21553942
_cell_length_b   7.21575342
_cell_length_c   7.50275500
_cell_angle_alpha   90.00000000
_cell_angle_beta   90.00000000
_cell_angle_gamma   89.96099630
_symmetry_Int_Tables_number   1
_chemical_formula_structural   Y5Ho3(CoB14)2
_chemical_formula_sum   'Y5 Ho3 Co2 B28'
_cell_volume   390.63499922
_cell_formula_units_Z   1
loop_
 _symmetry_equiv_pos_site_id
 _symmetry_equiv_pos_as_xyz
  1  'x, y, z'
loop_
 _atom_site_type_symbol
 _atom_site_label
 _atom_site_symmetry_multiplicity
 _atom_site_fract_x
 _atom_site_fract_y
 _atom_site_fract_z
 _atom_site_occupancy
  Y  Y0  1  0.692936  0.169724  0.500000  1
  Y  Y1  1  0.307129  0.830365  0.500000  1
  Y  Y2  1  0.806771  0.669979  0.000000  1
  Y  Y3  1  0.830209  0.692993  0.500000  1
  Y  Y4  1  0.169818  0.306997  0.500000  1
  Ho  Ho5  1  0.193395  0.329911  0.000000  1
  Ho  Ho6  1  0.669847  0.193031  0.000000  1
  Ho  Ho7  1  0.329972  0.806838  0.000000  1
  Co  Co8  1  0.000337  0.000605  0.000000  1
  Co  Co9  1  0.499835  0.499936  0.500000  1
  B  B10  1  0.174266  0.038783  0.230074  1
  B  B11  1  0.961334  0.174290  0.230106  1
  B  B12  1  0.039102  0.826049  0.230363  1
  B  B13  1  0.673978  0.460990  0.268602  1
  B  B14  1  0.325669  0.538606  0.268375  1
  B  B15  1  0.825966  0.961637  0.230282  1
  B  B16  1  0.538382  0.674085  0.268448  1
  B  B17  1  0.461269  0.325630  0.268281  1
  B  B18  1  0.825966  0.961637  0.769718  1
  B  B19  1  0.039102  0.826049  0.769637  1
  B  B20  1  0.961334  0.174290  0.769894  1
  B  B21  1  0.325669  0.538606  0.731625  1
  B  B22  1  0.673978  0.460990  0.731398  1
  B  B23  1  0.174266  0.038783  0.769926  1
  B  B24  1  0.461269  0.325630  0.731719  1
  B  B25  1  0.538382  0.674085  0.731552  1
  B  B26  1  0.088356  0.588160  0.248727  1
  B  B27  1  0.411807  0.088254  0.248242  1
  B  B28  1  0.588176  0.911747  0.248463  1
  B  B29  1  0.911786  0.411692  0.248947  1
  B  B30  1  0.911786  0.411692  0.751053  1
  B  B31  1  0.588176  0.911747  0.751537  1
  B  B32  1  0.411807  0.088254  0.751758  1
  B  B33  1  0.088356  0.588160  0.751273  1
  B  B34  1  0.000115  0.000151  0.387883  1
  B  B35  1  0.499669  0.499736  0.111562  1
  B  B36  1  0.000115  0.000151  0.612117  1
  B  B37  1  0.499669  0.499736  0.888438  1
