# generated using pymatgen
data_Eu2ScSnO6
_symmetry_space_group_name_H-M   'P 1'
_cell_length_a   5.72209721
_cell_length_b   5.72209729
_cell_length_c   5.72209748
_cell_angle_alpha   60.64717673
_cell_angle_beta   60.64717639
_cell_angle_gamma   60.64715893
_symmetry_Int_Tables_number   1
_chemical_formula_structural   Eu2ScSnO6
_chemical_formula_sum   'Eu2 Sc1 Sn1 O6'
_cell_volume   134.41590420
_cell_formula_units_Z   1
loop_
 _symmetry_equiv_pos_site_id
 _symmetry_equiv_pos_as_xyz
  1  'x, y, z'
loop_
 _atom_site_type_symbol
 _atom_site_label
 _atom_site_symmetry_multiplicity
 _atom_site_fract_x
 _atom_site_fract_y
 _atom_site_fract_z
 _atom_site_occupancy
  Eu  Eu0  1  0.249761  0.249761  0.249761  1
  Eu  Eu1  1  0.750239  0.750239  0.750239  1
  Sc  Sc2  1  0.500000  0.500000  0.500000  1
  Sn  Sn3  1  0.000000  0.000000  0.000000  1
  O  O4  1  0.752489  0.336077  0.161030  1
  O  O5  1  0.663922  0.838971  0.247512  1
  O  O6  1  0.161027  0.752491  0.336077  1
  O  O7  1  0.838973  0.247509  0.663922  1
  O  O8  1  0.336078  0.161029  0.752488  1
  O  O9  1  0.247510  0.663922  0.838972  1
