# generated using pymatgen
data_DyTaFeB6
_symmetry_space_group_name_H-M   'P 1'
_cell_length_a   3.36482700
_cell_length_b   8.91593700
_cell_length_c   11.22746000
_cell_angle_alpha   90.00000000
_cell_angle_beta   90.00000000
_cell_angle_gamma   90.00000000
_symmetry_Int_Tables_number   1
_chemical_formula_structural   DyTaFeB6
_chemical_formula_sum   'Dy4 Ta4 Fe4 B24'
_cell_volume   336.83037422
_cell_formula_units_Z   4
loop_
 _symmetry_equiv_pos_site_id
 _symmetry_equiv_pos_as_xyz
  1  'x, y, z'
loop_
 _atom_site_type_symbol
 _atom_site_label
 _atom_site_symmetry_multiplicity
 _atom_site_fract_x
 _atom_site_fract_y
 _atom_site_fract_z
 _atom_site_occupancy
  Dy  Dy0  1  0.000000  0.823615  0.086048  1
  Dy  Dy1  1  0.000000  0.176385  0.913952  1
  Dy  Dy2  1  0.000000  0.323615  0.413952  1
  Dy  Dy3  1  0.000000  0.676385  0.586048  1
  Ta  Ta4  1  0.000000  0.445452  0.127984  1
  Ta  Ta5  1  0.000000  0.554548  0.872016  1
  Ta  Ta6  1  0.000000  0.945452  0.372016  1
  Ta  Ta7  1  0.000000  0.054548  0.627984  1
  Fe  Fe8  1  0.000000  0.144706  0.183790  1
  Fe  Fe9  1  0.000000  0.855294  0.816210  1
  Fe  Fe10  1  0.000000  0.644706  0.316210  1
  Fe  Fe11  1  0.000000  0.355294  0.683790  1
  B  B12  1  0.500000  0.055311  0.068144  1
  B  B13  1  0.500000  0.944689  0.931856  1
  B  B14  1  0.500000  0.555311  0.431856  1
  B  B15  1  0.500000  0.444689  0.568144  1
  B  B16  1  0.500000  0.252402  0.083530  1
  B  B17  1  0.500000  0.747598  0.916470  1
  B  B18  1  0.500000  0.752402  0.416470  1
  B  B19  1  0.500000  0.247598  0.583530  1
  B  B20  1  0.500000  0.297404  0.236420  1
  B  B21  1  0.500000  0.702596  0.763580  1
  B  B22  1  0.500000  0.797404  0.263580  1
  B  B23  1  0.500000  0.202596  0.736420  1
  B  B24  1  0.500000  0.130546  0.316890  1
  B  B25  1  0.500000  0.869454  0.683110  1
  B  B26  1  0.500000  0.630546  0.183110  1
  B  B27  1  0.500000  0.369454  0.816890  1
  B  B28  1  0.500000  0.483290  0.286631  1
  B  B29  1  0.500000  0.516710  0.713369  1
  B  B30  1  0.500000  0.983290  0.213369  1
  B  B31  1  0.500000  0.016710  0.786631  1
  B  B32  1  0.500000  0.099857  0.473802  1
  B  B33  1  0.500000  0.900143  0.526198  1
  B  B34  1  0.500000  0.599857  0.026198  1
  B  B35  1  0.500000  0.400143  0.973802  1
