# generated using pymatgen
data_Er2CuSiBr2
_symmetry_space_group_name_H-M   'P 1'
_cell_length_a   4.01039100
_cell_length_b   4.01039183
_cell_length_c   10.77992800
_cell_angle_alpha   90.00000000
_cell_angle_beta   90.00000000
_cell_angle_gamma   120.00003440
_symmetry_Int_Tables_number   1
_chemical_formula_structural   Er2CuSiBr2
_chemical_formula_sum   'Er2 Cu1 Si1 Br2'
_cell_volume   150.14810838
_cell_formula_units_Z   1
loop_
 _symmetry_equiv_pos_site_id
 _symmetry_equiv_pos_as_xyz
  1  'x, y, z'
loop_
 _atom_site_type_symbol
 _atom_site_label
 _atom_site_symmetry_multiplicity
 _atom_site_fract_x
 _atom_site_fract_y
 _atom_site_fract_z
 _atom_site_occupancy
  Er  Er0  1  0.000000  0.000000  0.175408  1
  Er  Er1  1  0.000000  0.000000  0.823439  1
  Cu  Cu2  1  0.333333  0.666667  0.013596  1
  Si  Si3  1  0.666667  0.333333  0.988808  1
  Br  Br4  1  0.333333  0.666667  0.658412  1
  Br  Br5  1  0.666667  0.333333  0.340338  1
