# generated using pymatgen
data_Ho3Sc2TlIn3Rh2
_symmetry_space_group_name_H-M   'P 1'
_cell_length_a   3.55412700
_cell_length_b   7.90899496
_cell_length_c   17.95052533
_cell_angle_alpha   90.16315268
_cell_angle_beta   90.00000000
_cell_angle_gamma   90.00000000
_symmetry_Int_Tables_number   1
_chemical_formula_structural   Ho3Sc2TlIn3Rh2
_chemical_formula_sum   'Ho6 Sc4 Tl2 In6 Rh4'
_cell_volume   504.57954779
_cell_formula_units_Z   2
loop_
 _symmetry_equiv_pos_site_id
 _symmetry_equiv_pos_as_xyz
  1  'x, y, z'
loop_
 _atom_site_type_symbol
 _atom_site_label
 _atom_site_symmetry_multiplicity
 _atom_site_fract_x
 _atom_site_fract_y
 _atom_site_fract_z
 _atom_site_occupancy
  Ho  Ho0  1  0.000000  0.000000  0.000000  1
  Ho  Ho1  1  0.000000  0.500000  0.500000  1
  Ho  Ho2  1  0.000000  0.749212  0.783751  1
  Ho  Ho3  1  0.000000  0.250788  0.216249  1
  Ho  Ho4  1  0.000000  0.249675  0.717596  1
  Ho  Ho5  1  0.000000  0.750325  0.282404  1
  Sc  Sc6  1  0.000000  0.879647  0.590903  1
  Sc  Sc7  1  0.000000  0.120353  0.409097  1
  Sc  Sc8  1  0.000000  0.378197  0.910726  1
  Sc  Sc9  1  0.000000  0.621803  0.089274  1
  Tl  Tl10  1  0.500000  0.807838  0.439946  1
  Tl  Tl11  1  0.500000  0.192162  0.560054  1
  In  In12  1  0.500000  0.310594  0.060801  1
  In  In13  1  0.500000  0.689406  0.939199  1
  In  In14  1  0.500000  0.922844  0.149711  1
  In  In15  1  0.500000  0.077156  0.850289  1
  In  In16  1  0.500000  0.421408  0.349257  1
  In  In17  1  0.500000  0.578592  0.650743  1
  Rh  Rh18  1  0.500000  0.960291  0.694759  1
  Rh  Rh19  1  0.500000  0.039709  0.305241  1
  Rh  Rh20  1  0.500000  0.462637  0.807142  1
  Rh  Rh21  1  0.500000  0.537363  0.192858  1
