# generated using pymatgen
data_La11(TcC6)3
_symmetry_space_group_name_H-M   'P 1'
_cell_length_a   10.28214965
_cell_length_b   10.28214944
_cell_length_c   10.28214900
_cell_angle_alpha   95.54260691
_cell_angle_beta   95.54260680
_cell_angle_gamma   95.54260094
_symmetry_Int_Tables_number   1
_chemical_formula_structural   La11(TcC6)3
_chemical_formula_sum   'La22 Tc6 C36'
_cell_volume   1070.74219511
_cell_formula_units_Z   2
loop_
 _symmetry_equiv_pos_site_id
 _symmetry_equiv_pos_as_xyz
  1  'x, y, z'
loop_
 _atom_site_type_symbol
 _atom_site_label
 _atom_site_symmetry_multiplicity
 _atom_site_fract_x
 _atom_site_fract_y
 _atom_site_fract_z
 _atom_site_occupancy
  La  La0  1  0.164744  0.828924  0.766150  1
  La  La1  1  0.766157  0.164763  0.828934  1
  La  La2  1  0.828928  0.766134  0.164763  1
  La  La3  1  0.835253  0.171075  0.233852  1
  La  La4  1  0.233844  0.835237  0.171065  1
  La  La5  1  0.171073  0.233862  0.835237  1
  La  La6  1  0.823535  0.496858  0.421011  1
  La  La7  1  0.421020  0.823525  0.496836  1
  La  La8  1  0.496850  0.421027  0.823525  1
  La  La9  1  0.176466  0.503141  0.578989  1
  La  La10  1  0.578983  0.176475  0.503166  1
  La  La11  1  0.503152  0.578974  0.176478  1
  La  La12  1  0.839648  0.903427  0.510288  1
  La  La13  1  0.510272  0.839637  0.903430  1
  La  La14  1  0.903425  0.510290  0.839645  1
  La  La15  1  0.160352  0.096574  0.489711  1
  La  La16  1  0.489729  0.160365  0.096572  1
  La  La17  1  0.096573  0.489710  0.160355  1
  La  La18  1  0.863468  0.863465  0.863470  1
  La  La19  1  0.136533  0.136537  0.136534  1
  La  La20  1  0.639302  0.639297  0.639297  1
  La  La21  1  0.360698  0.360703  0.360703  1
  Tc  Tc22  1  0.921044  0.253628  0.573808  1
  Tc  Tc23  1  0.573802  0.921040  0.253627  1
  Tc  Tc24  1  0.253629  0.573830  0.921052  1
  Tc  Tc25  1  0.078950  0.746365  0.426169  1
  Tc  Tc26  1  0.426196  0.078960  0.746374  1
  Tc  Tc27  1  0.746374  0.426171  0.078952  1
  C  C28  1  0.343473  0.632275  0.779578  1
  C  C29  1  0.779562  0.343466  0.632274  1
  C  C30  1  0.632280  0.779562  0.343471  1
  C  C31  1  0.656527  0.367725  0.220423  1
  C  C32  1  0.220437  0.656532  0.367724  1
  C  C33  1  0.367720  0.220437  0.656526  1
  C  C34  1  0.983024  0.700172  0.569138  1
  C  C35  1  0.569148  0.983045  0.700181  1
  C  C36  1  0.700181  0.569148  0.983025  1
  C  C37  1  0.016972  0.299826  0.430858  1
  C  C38  1  0.430852  0.016960  0.299820  1
  C  C39  1  0.299819  0.430852  0.016977  1
  C  C40  1  0.966673  0.111171  0.669425  1
  C  C41  1  0.669431  0.966677  0.111180  1
  C  C42  1  0.111166  0.669422  0.966678  1
  C  C43  1  0.033326  0.888829  0.330573  1
  C  C44  1  0.330570  0.033323  0.888821  1
  C  C45  1  0.888834  0.330577  0.033324  1
  C  C46  1  0.904463  0.684519  0.664560  1
  C  C47  1  0.664557  0.904474  0.684526  1
  C  C48  1  0.684537  0.664572  0.904462  1
  C  C49  1  0.095538  0.315481  0.335439  1
  C  C50  1  0.335441  0.095527  0.315477  1
  C  C51  1  0.315463  0.335429  0.095541  1
  C  C52  1  0.674030  0.678802  0.400601  1
  C  C53  1  0.400597  0.674012  0.678790  1
  C  C54  1  0.678793  0.400601  0.674023  1
  C  C55  1  0.325969  0.321194  0.599399  1
  C  C56  1  0.599402  0.325988  0.321212  1
  C  C57  1  0.321209  0.599400  0.325979  1
  C  C58  1  0.004563  0.012493  0.733359  1
  C  C59  1  0.733354  0.004563  0.012498  1
  C  C60  1  0.012484  0.733351  0.004569  1
  C  C61  1  0.995438  0.987510  0.266642  1
  C  C62  1  0.266646  0.995441  0.987502  1
  C  C63  1  0.987516  0.266648  0.995431  1
