# generated using pymatgen
data_Hf12Zn8Cu3PdC4
_symmetry_space_group_name_H-M   'P 1'
_cell_length_a   8.54137212
_cell_length_b   8.54137341
_cell_length_c   8.54137286
_cell_angle_alpha   59.85814060
_cell_angle_beta   59.85813491
_cell_angle_gamma   59.85814291
_symmetry_Int_Tables_number   1
_chemical_formula_structural   Hf12Zn8Cu3PdC4
_chemical_formula_sum   'Hf12 Zn8 Cu3 Pd1 C4'
_cell_volume   439.20543169
_cell_formula_units_Z   1
loop_
 _symmetry_equiv_pos_site_id
 _symmetry_equiv_pos_as_xyz
  1  'x, y, z'
loop_
 _atom_site_type_symbol
 _atom_site_label
 _atom_site_symmetry_multiplicity
 _atom_site_fract_x
 _atom_site_fract_y
 _atom_site_fract_z
 _atom_site_occupancy
  Hf  Hf0  1  0.438758  0.438758  0.060267  1
  Hf  Hf1  1  0.060899  0.438846  0.060899  1
  Hf  Hf2  1  0.438846  0.060899  0.060899  1
  Hf  Hf3  1  0.060899  0.060899  0.438846  1
  Hf  Hf4  1  0.438758  0.060267  0.438758  1
  Hf  Hf5  1  0.060267  0.438758  0.438758  1
  Hf  Hf6  1  0.811242  0.811242  0.189733  1
  Hf  Hf7  1  0.189101  0.811154  0.189101  1
  Hf  Hf8  1  0.811154  0.189101  0.189101  1
  Hf  Hf9  1  0.189101  0.189101  0.811154  1
  Hf  Hf10  1  0.811242  0.189733  0.811242  1
  Hf  Hf11  1  0.189733  0.811242  0.811242  1
  Zn  Zn12  1  0.833604  0.833604  0.506705  1
  Zn  Zn13  1  0.833604  0.506705  0.833604  1
  Zn  Zn14  1  0.506705  0.833604  0.833604  1
  Zn  Zn15  1  0.831161  0.831161  0.831161  1
  Zn  Zn16  1  0.416396  0.416396  0.743295  1
  Zn  Zn17  1  0.416396  0.743295  0.416396  1
  Zn  Zn18  1  0.743295  0.416396  0.416396  1
  Zn  Zn19  1  0.418839  0.418839  0.418839  1
  Cu  Cu20  1  0.625000  0.625000  0.125000  1
  Cu  Cu21  1  0.625000  0.125000  0.625000  1
  Cu  Cu22  1  0.125000  0.625000  0.625000  1
  Pd  Pd23  1  0.625000  0.625000  0.625000  1
  C  C24  1  0.125000  0.125000  0.625000  1
  C  C25  1  0.125000  0.625000  0.125000  1
  C  C26  1  0.625000  0.125000  0.125000  1
  C  C27  1  0.125000  0.125000  0.125000  1
