# generated using pymatgen
data_Li4TbY3O8
_symmetry_space_group_name_H-M   'P 1'
_cell_length_a   3.39958000
_cell_length_b   5.31864016
_cell_length_c   11.26970633
_cell_angle_alpha   90.02785484
_cell_angle_beta   90.00000000
_cell_angle_gamma   90.00000000
_symmetry_Int_Tables_number   1
_chemical_formula_structural   Li4TbY3O8
_chemical_formula_sum   'Li4 Tb1 Y3 O8'
_cell_volume   203.76914437
_cell_formula_units_Z   1
loop_
 _symmetry_equiv_pos_site_id
 _symmetry_equiv_pos_as_xyz
  1  'x, y, z'
loop_
 _atom_site_type_symbol
 _atom_site_label
 _atom_site_symmetry_multiplicity
 _atom_site_fract_x
 _atom_site_fract_y
 _atom_site_fract_z
 _atom_site_occupancy
  Li  Li0  1  0.250000  0.097291  0.566412  1
  Li  Li1  1  0.750000  0.902750  0.433476  1
  Li  Li2  1  0.750000  0.597143  0.933586  1
  Li  Li3  1  0.250000  0.402775  0.066642  1
  Tb  Tb4  1  0.250000  0.046634  0.859497  1
  Y  Y5  1  0.250000  0.453917  0.359626  1
  Y  Y6  1  0.750000  0.546166  0.640081  1
  Y  Y7  1  0.750000  0.953834  0.140523  1
  O  O8  1  0.250000  0.307569  0.704670  1
  O  O9  1  0.750000  0.692866  0.294954  1
  O  O10  1  0.750000  0.806153  0.794911  1
  O  O11  1  0.250000  0.192822  0.205081  1
  O  O12  1  0.250000  0.756708  0.026650  1
  O  O13  1  0.750000  0.243277  0.973900  1
  O  O14  1  0.750000  0.256937  0.473486  1
  O  O15  1  0.250000  0.743158  0.526504  1
