# generated using pymatgen
data_AlFe(BrO3)6
_symmetry_space_group_name_H-M   'P 1'
_cell_length_a   8.95759600
_cell_length_b   8.95759540
_cell_length_c   5.66802700
_cell_angle_alpha   90.00000000
_cell_angle_beta   90.00000000
_cell_angle_gamma   120.00000222
_symmetry_Int_Tables_number   1
_chemical_formula_structural   AlFe(BrO3)6
_chemical_formula_sum   'Al1 Fe1 Br6 O18'
_cell_volume   393.86323695
_cell_formula_units_Z   1
loop_
 _symmetry_equiv_pos_site_id
 _symmetry_equiv_pos_as_xyz
  1  'x, y, z'
loop_
 _atom_site_type_symbol
 _atom_site_label
 _atom_site_symmetry_multiplicity
 _atom_site_fract_x
 _atom_site_fract_y
 _atom_site_fract_z
 _atom_site_occupancy
  Al  Al0  1  0.666667  0.333333  0.694831  1
  Fe  Fe1  1  0.333333  0.666667  0.188628  1
  Br  Br2  1  0.680664  0.029319  0.364475  1
  Br  Br3  1  0.325709  0.983036  0.856785  1
  Br  Br4  1  0.016964  0.342673  0.856785  1
  Br  Br5  1  0.348655  0.319336  0.364475  1
  Br  Br6  1  0.970681  0.651345  0.364475  1
  Br  Br7  1  0.657327  0.674291  0.856785  1
  O  O8  1  0.781298  0.827925  0.038783  1
  O  O9  1  0.940487  0.779493  0.538134  1
  O  O10  1  0.839005  0.059513  0.538134  1
  O  O11  1  0.172075  0.953372  0.038783  1
  O  O12  1  0.046628  0.218702  0.038783  1
  O  O13  1  0.220507  0.160995  0.538134  1
  O  O14  1  0.718690  0.521525  0.905839  1
  O  O15  1  0.183634  0.712348  0.416474  1
  O  O16  1  0.551220  0.421532  0.498404  1
  O  O17  1  0.117479  0.546677  0.985751  1
  O  O18  1  0.429197  0.882521  0.985751  1
  O  O19  1  0.578468  0.129687  0.498404  1
  O  O20  1  0.870313  0.448780  0.498404  1
  O  O21  1  0.453323  0.570803  0.985751  1
  O  O22  1  0.287652  0.471285  0.416474  1
  O  O23  1  0.802835  0.281310  0.905839  1
  O  O24  1  0.478475  0.197165  0.905839  1
  O  O25  1  0.528715  0.816366  0.416474  1
