# generated using pymatgen
data_Ho2Co7(As2Ru)3
_symmetry_space_group_name_H-M   'P 1'
_cell_length_a   3.83737000
_cell_length_b   10.82302500
_cell_length_c   12.30923100
_cell_angle_alpha   90.00000000
_cell_angle_beta   90.00000000
_cell_angle_gamma   90.00000000
_symmetry_Int_Tables_number   1
_chemical_formula_structural   Ho2Co7(As2Ru)3
_chemical_formula_sum   'Ho4 Co14 As12 Ru6'
_cell_volume   511.22638421
_cell_formula_units_Z   2
loop_
 _symmetry_equiv_pos_site_id
 _symmetry_equiv_pos_as_xyz
  1  'x, y, z'
loop_
 _atom_site_type_symbol
 _atom_site_label
 _atom_site_symmetry_multiplicity
 _atom_site_fract_x
 _atom_site_fract_y
 _atom_site_fract_z
 _atom_site_occupancy
  Ho  Ho0  1  0.250000  0.585172  0.703897  1
  Ho  Ho1  1  0.250000  0.914828  0.203897  1
  Ho  Ho2  1  0.750000  0.416282  0.294476  1
  Ho  Ho3  1  0.750000  0.083718  0.794476  1
  Co  Co4  1  0.750000  0.596753  0.512924  1
  Co  Co5  1  0.750000  0.903247  0.012924  1
  Co  Co6  1  0.250000  0.220631  0.177720  1
  Co  Co7  1  0.250000  0.279369  0.677720  1
  Co  Co8  1  0.750000  0.781456  0.823146  1
  Co  Co9  1  0.750000  0.718544  0.323146  1
  Co  Co10  1  0.250000  0.883727  0.698599  1
  Co  Co11  1  0.250000  0.616273  0.198599  1
  Co  Co12  1  0.750000  0.114379  0.300609  1
  Co  Co13  1  0.750000  0.385621  0.800609  1
  Co  Co14  1  0.250000  0.467140  0.931516  1
  Co  Co15  1  0.250000  0.032860  0.431516  1
  Co  Co16  1  0.750000  0.535596  0.067755  1
  Co  Co17  1  0.750000  0.964404  0.567755  1
  As  As18  1  0.250000  0.419997  0.113648  1
  As  As19  1  0.250000  0.080003  0.613648  1
  As  As20  1  0.750000  0.581829  0.885578  1
  As  As21  1  0.750000  0.918171  0.385578  1
  As  As22  1  0.250000  0.271731  0.865809  1
  As  As23  1  0.250000  0.228269  0.365809  1
  As  As24  1  0.750000  0.731744  0.133053  1
  As  As25  1  0.750000  0.768256  0.633053  1
  As  As26  1  0.250000  0.600112  0.386430  1
  As  As27  1  0.250000  0.899888  0.886430  1
  As  As28  1  0.750000  0.403617  0.614200  1
  As  As29  1  0.750000  0.096383  0.114200  1
  Ru  Ru30  1  0.250000  0.710389  0.990333  1
  Ru  Ru31  1  0.250000  0.789611  0.490333  1
  Ru  Ru32  1  0.750000  0.291533  0.012287  1
  Ru  Ru33  1  0.750000  0.208467  0.512287  1
  Ru  Ru34  1  0.250000  0.407895  0.488023  1
  Ru  Ru35  1  0.250000  0.092105  0.988023  1
