# generated using pymatgen
data_Er6Nb4Al12Ru7
_symmetry_space_group_name_H-M   'P 1'
_cell_length_a   9.01341307
_cell_length_b   9.01341306
_cell_length_c   9.01341300
_cell_angle_alpha   60.00000390
_cell_angle_beta   60.00000392
_cell_angle_gamma   59.99999835
_symmetry_Int_Tables_number   1
_chemical_formula_structural   Er6Nb4Al12Ru7
_chemical_formula_sum   'Er6 Nb4 Al12 Ru7'
_cell_volume   517.78902644
_cell_formula_units_Z   1
loop_
 _symmetry_equiv_pos_site_id
 _symmetry_equiv_pos_as_xyz
  1  'x, y, z'
loop_
 _atom_site_type_symbol
 _atom_site_label
 _atom_site_symmetry_multiplicity
 _atom_site_fract_x
 _atom_site_fract_y
 _atom_site_fract_z
 _atom_site_occupancy
  Er  Er0  1  0.705862  0.705862  0.294138  1
  Er  Er1  1  0.294138  0.705862  0.294138  1
  Er  Er2  1  0.705862  0.294138  0.294138  1
  Er  Er3  1  0.294138  0.294138  0.705862  1
  Er  Er4  1  0.705862  0.294138  0.705862  1
  Er  Er5  1  0.294138  0.705862  0.705862  1
  Nb  Nb6  1  0.880082  0.880082  0.359754  1
  Nb  Nb7  1  0.880082  0.359754  0.880082  1
  Nb  Nb8  1  0.359754  0.880082  0.880082  1
  Nb  Nb9  1  0.880082  0.880082  0.880082  1
  Al  Al10  1  0.120478  0.120478  0.638567  1
  Al  Al11  1  0.120478  0.638567  0.120478  1
  Al  Al12  1  0.638567  0.120478  0.120478  1
  Al  Al13  1  0.120478  0.120478  0.120478  1
  Al  Al14  1  0.667740  0.667740  0.996783  1
  Al  Al15  1  0.667740  0.996783  0.667740  1
  Al  Al16  1  0.996783  0.667740  0.667740  1
  Al  Al17  1  0.667740  0.667740  0.667740  1
  Al  Al18  1  0.330774  0.330774  0.007677  1
  Al  Al19  1  0.330774  0.007677  0.330774  1
  Al  Al20  1  0.007677  0.330774  0.330774  1
  Al  Al21  1  0.330774  0.330774  0.330774  1
  Ru  Ru22  1  0.000000  0.000000  0.000000  1
  Ru  Ru23  1  0.996849  0.996849  0.503151  1
  Ru  Ru24  1  0.503151  0.996849  0.503151  1
  Ru  Ru25  1  0.996849  0.503151  0.503151  1
  Ru  Ru26  1  0.503151  0.503151  0.996849  1
  Ru  Ru27  1  0.996849  0.503151  0.996849  1
  Ru  Ru28  1  0.503151  0.996849  0.996849  1
