# generated using pymatgen
data_Nd3Y(LuBi)6
_symmetry_space_group_name_H-M   'P 1'
_cell_length_a   8.27465300
_cell_length_b   9.43484900
_cell_length_c   12.18648300
_cell_angle_alpha   90.00000000
_cell_angle_beta   90.00000000
_cell_angle_gamma   90.00000000
_symmetry_Int_Tables_number   1
_chemical_formula_structural   Nd3Y(LuBi)6
_chemical_formula_sum   'Nd6 Y2 Lu12 Bi12'
_cell_volume   951.39996574
_cell_formula_units_Z   2
loop_
 _symmetry_equiv_pos_site_id
 _symmetry_equiv_pos_as_xyz
  1  'x, y, z'
loop_
 _atom_site_type_symbol
 _atom_site_label
 _atom_site_symmetry_multiplicity
 _atom_site_fract_x
 _atom_site_fract_y
 _atom_site_fract_z
 _atom_site_occupancy
  Nd  Nd0  1  0.185399  0.750000  0.719748  1
  Nd  Nd1  1  0.685399  0.750000  0.780252  1
  Nd  Nd2  1  0.816700  0.250000  0.280681  1
  Nd  Nd3  1  0.316700  0.250000  0.219319  1
  Nd  Nd4  1  0.351835  0.750000  0.216288  1
  Nd  Nd5  1  0.851835  0.750000  0.283712  1
  Y  Y6  1  0.647739  0.250000  0.782671  1
  Y  Y7  1  0.147739  0.250000  0.717329  1
  Lu  Lu8  1  0.023277  0.750000  0.987928  1
  Lu  Lu9  1  0.523277  0.750000  0.512072  1
  Lu  Lu10  1  0.976923  0.250000  0.009654  1
  Lu  Lu11  1  0.476923  0.250000  0.490346  1
  Lu  Lu12  1  0.308444  0.432500  0.940255  1
  Lu  Lu13  1  0.808444  0.067500  0.559745  1
  Lu  Lu14  1  0.691337  0.932777  0.057724  1
  Lu  Lu15  1  0.191337  0.567223  0.442276  1
  Lu  Lu16  1  0.691337  0.567223  0.057724  1
  Lu  Lu17  1  0.191337  0.932777  0.442276  1
  Lu  Lu18  1  0.308444  0.067500  0.940255  1
  Lu  Lu19  1  0.808444  0.432500  0.559745  1
  Bi  Bi20  1  0.435285  0.008387  0.669929  1
  Bi  Bi21  1  0.935285  0.491613  0.830071  1
  Bi  Bi22  1  0.564137  0.504044  0.333182  1
  Bi  Bi23  1  0.064137  0.995956  0.166818  1
  Bi  Bi24  1  0.564137  0.995956  0.333182  1
  Bi  Bi25  1  0.064137  0.504044  0.166818  1
  Bi  Bi26  1  0.435285  0.491613  0.669929  1
  Bi  Bi27  1  0.935285  0.008387  0.830071  1
  Bi  Bi28  1  0.402901  0.750000  0.956903  1
  Bi  Bi29  1  0.902901  0.750000  0.543097  1
  Bi  Bi30  1  0.596820  0.250000  0.038401  1
  Bi  Bi31  1  0.096820  0.250000  0.461599  1
