# generated using pymatgen
data_DyHo15In4Pt3Rh
_symmetry_space_group_name_H-M   'P 1'
_cell_length_a   9.66391645
_cell_length_b   9.66391773
_cell_length_c   9.65187715
_cell_angle_alpha   60.05989021
_cell_angle_beta   60.05988741
_cell_angle_gamma   60.09340180
_symmetry_Int_Tables_number   1
_chemical_formula_structural   DyHo15In4Pt3Rh
_chemical_formula_sum   'Dy1 Ho15 In4 Pt3 Rh1'
_cell_volume   638.41325598
_cell_formula_units_Z   1
loop_
 _symmetry_equiv_pos_site_id
 _symmetry_equiv_pos_as_xyz
  1  'x, y, z'
loop_
 _atom_site_type_symbol
 _atom_site_label
 _atom_site_symmetry_multiplicity
 _atom_site_fract_x
 _atom_site_fract_y
 _atom_site_fract_z
 _atom_site_occupancy
  Dy  Dy0  1  0.187668  0.187668  0.813244  1
  Ho  Ho1  1  0.602132  0.602132  0.193275  1
  Ho  Ho2  1  0.440816  0.059735  0.440287  1
  Ho  Ho3  1  0.439803  0.439803  0.058273  1
  Ho  Ho4  1  0.812197  0.186172  0.814464  1
  Ho  Ho5  1  0.188836  0.810961  0.189448  1
  Ho  Ho6  1  0.441112  0.062864  0.056879  1
  Ho  Ho7  1  0.186172  0.812197  0.814464  1
  Ho  Ho8  1  0.062864  0.441112  0.056879  1
  Ho  Ho9  1  0.813141  0.813141  0.186238  1
  Ho  Ho10  1  0.197834  0.599577  0.603439  1
  Ho  Ho11  1  0.059735  0.440816  0.440287  1
  Ho  Ho12  1  0.059134  0.059134  0.442443  1
  Ho  Ho13  1  0.810961  0.188836  0.189448  1
  Ho  Ho14  1  0.599577  0.197834  0.603439  1
  Ho  Ho15  1  0.597983  0.597983  0.601186  1
  In  In16  1  0.833829  0.833829  0.833266  1
  In  In17  1  0.833187  0.833187  0.500659  1
  In  In18  1  0.500887  0.833286  0.832611  1
  In  In19  1  0.833286  0.500887  0.832611  1
  Pt  Pt20  1  0.391699  0.822025  0.390792  1
  Pt  Pt21  1  0.393627  0.393627  0.392151  1
  Pt  Pt22  1  0.822025  0.391699  0.390792  1
  Rh  Rh23  1  0.391494  0.391494  0.823422  1
