# generated using pymatgen
data_Tm3ZnGa4Ag
_symmetry_space_group_name_H-M   'P 1'
_cell_length_a   6.90034000
_cell_length_b   6.88396376
_cell_length_c   4.33901000
_cell_angle_alpha   90.00000000
_cell_angle_beta   90.00000000
_cell_angle_gamma   120.07873414
_symmetry_Int_Tables_number   1
_chemical_formula_structural   Tm3ZnGa4Ag
_chemical_formula_sum   'Tm3 Zn1 Ga4 Ag1'
_cell_volume   178.35498073
_cell_formula_units_Z   1
loop_
 _symmetry_equiv_pos_site_id
 _symmetry_equiv_pos_as_xyz
  1  'x, y, z'
loop_
 _atom_site_type_symbol
 _atom_site_label
 _atom_site_symmetry_multiplicity
 _atom_site_fract_x
 _atom_site_fract_y
 _atom_site_fract_z
 _atom_site_occupancy
  Tm  Tm0  1  0.573115  0.000000  0.000000  1
  Tm  Tm1  1  0.000259  0.574465  0.000000  1
  Tm  Tm2  1  0.425794  0.425535  0.000000  1
  Zn  Zn3  1  0.248919  0.000000  0.500000  1
  Ga  Ga4  1  0.002629  0.249651  0.500000  1
  Ga  Ga5  1  0.752978  0.750349  0.500000  1
  Ga  Ga6  1  0.333521  0.668986  0.500000  1
  Ga  Ga7  1  0.664534  0.331014  0.500000  1
  Ag  Ag8  1  0.998252  0.000000  0.000000  1
