# generated using pymatgen
data_Pu4VW3N8
_symmetry_space_group_name_H-M   'P 1'
_cell_length_a   3.23253600
_cell_length_b   5.59567380
_cell_length_c   10.70979847
_cell_angle_alpha   89.93929529
_cell_angle_beta   90.00000000
_cell_angle_gamma   90.00000000
_symmetry_Int_Tables_number   1
_chemical_formula_structural   Pu4VW3N8
_chemical_formula_sum   'Pu4 V1 W3 N8'
_cell_volume   193.72105014
_cell_formula_units_Z   1
loop_
 _symmetry_equiv_pos_site_id
 _symmetry_equiv_pos_as_xyz
  1  'x, y, z'
loop_
 _atom_site_type_symbol
 _atom_site_label
 _atom_site_symmetry_multiplicity
 _atom_site_fract_x
 _atom_site_fract_y
 _atom_site_fract_z
 _atom_site_occupancy
  Pu  Pu0  1  0.750000  0.076531  0.857456  1
  Pu  Pu1  1  0.750000  0.578586  0.640144  1
  Pu  Pu2  1  0.250000  0.923692  0.146594  1
  Pu  Pu3  1  0.250000  0.423013  0.357694  1
  V  V4  1  0.750000  0.923750  0.402999  1
  W  W5  1  0.250000  0.073489  0.598711  1
  W  W6  1  0.750000  0.428009  0.103021  1
  W  W7  1  0.250000  0.571408  0.897566  1
  N  N8  1  0.250000  0.336677  0.744008  1
  N  N9  1  0.750000  0.161132  0.247945  1
  N  N10  1  0.250000  0.246143  0.006192  1
  N  N11  1  0.750000  0.665229  0.257652  1
  N  N12  1  0.250000  0.835692  0.752249  1
  N  N13  1  0.750000  0.753128  0.995669  1
  N  N14  1  0.750000  0.244321  0.503971  1
  N  N15  1  0.250000  0.759199  0.488128  1
