# generated using pymatgen
data_Nd12B3PBr12
_symmetry_space_group_name_H-M   'P 1'
_cell_length_a   10.21608342
_cell_length_b   10.21608303
_cell_length_c   10.21608315
_cell_angle_alpha   109.78459628
_cell_angle_beta   109.78459200
_cell_angle_gamma   109.78459755
_symmetry_Int_Tables_number   1
_chemical_formula_structural   Nd12B3PBr12
_chemical_formula_sum   'Nd12 B3 P1 Br12'
_cell_volume   811.12588673
_cell_formula_units_Z   1
loop_
 _symmetry_equiv_pos_site_id
 _symmetry_equiv_pos_as_xyz
  1  'x, y, z'
loop_
 _atom_site_type_symbol
 _atom_site_label
 _atom_site_symmetry_multiplicity
 _atom_site_fract_x
 _atom_site_fract_y
 _atom_site_fract_z
 _atom_site_occupancy
  Nd  Nd0  1  0.469542  0.493782  0.227392  1
  Nd  Nd1  1  0.750000  0.230384  0.269616  1
  Nd  Nd2  1  0.750000  0.017314  0.482686  1
  Nd  Nd3  1  0.227392  0.469542  0.493782  1
  Nd  Nd4  1  0.269616  0.750000  0.230384  1
  Nd  Nd5  1  0.030458  0.272608  0.006218  1
  Nd  Nd6  1  0.006218  0.030458  0.272608  1
  Nd  Nd7  1  0.482686  0.750000  0.017314  1
  Nd  Nd8  1  0.493782  0.227392  0.469542  1
  Nd  Nd9  1  0.017314  0.482686  0.750000  1
  Nd  Nd10  1  0.272608  0.006218  0.030458  1
  Nd  Nd11  1  0.230384  0.269616  0.750000  1
  B  B12  1  0.498917  0.001083  0.250000  1
  B  B13  1  0.001083  0.250000  0.498917  1
  B  B14  1  0.250000  0.498917  0.001083  1
  P  P15  1  0.250000  0.250000  0.250000  1
  Br  Br16  1  0.250000  0.758068  0.741932  1
  Br  Br17  1  0.512960  0.506270  0.756306  1
  Br  Br18  1  0.987040  0.743694  0.993730  1
  Br  Br19  1  0.741932  0.250000  0.758068  1
  Br  Br20  1  0.993730  0.987040  0.743694  1
  Br  Br21  1  0.250000  0.993709  0.506291  1
  Br  Br22  1  0.756306  0.512960  0.506270  1
  Br  Br23  1  0.506291  0.250000  0.993709  1
  Br  Br24  1  0.758068  0.741932  0.250000  1
  Br  Br25  1  0.743694  0.993730  0.987040  1
  Br  Br26  1  0.993709  0.506291  0.250000  1
  Br  Br27  1  0.506270  0.756306  0.512960  1
