# generated using pymatgen
data_VIrSe4
_symmetry_space_group_name_H-M   'P 1'
_cell_length_a   3.54240000
_cell_length_b   11.71473300
_cell_length_c   13.02584400
_cell_angle_alpha   90.00000000
_cell_angle_beta   90.00000000
_cell_angle_gamma   90.00000000
_symmetry_Int_Tables_number   1
_chemical_formula_structural   VIrSe4
_chemical_formula_sum   'V4 Ir4 Se16'
_cell_volume   540.54999362
_cell_formula_units_Z   4
loop_
 _symmetry_equiv_pos_site_id
 _symmetry_equiv_pos_as_xyz
  1  'x, y, z'
loop_
 _atom_site_type_symbol
 _atom_site_label
 _atom_site_symmetry_multiplicity
 _atom_site_fract_x
 _atom_site_fract_y
 _atom_site_fract_z
 _atom_site_occupancy
  V  V0  1  0.000000  0.047448  0.001374  1
  V  V1  1  0.500000  0.952552  0.501374  1
  V  V2  1  0.000000  0.265962  0.492534  1
  V  V3  1  0.500000  0.734038  0.992534  1
  Ir  Ir4  1  0.000000  0.534871  0.998668  1
  Ir  Ir5  1  0.500000  0.465129  0.498668  1
  Ir  Ir6  1  0.000000  0.753279  0.494653  1
  Ir  Ir7  1  0.500000  0.246721  0.994653  1
  Se  Se8  1  0.500000  0.095627  0.129823  1
  Se  Se9  1  0.000000  0.904373  0.629823  1
  Se  Se10  1  0.500000  0.152648  0.589936  1
  Se  Se11  1  0.000000  0.847352  0.089936  1
  Se  Se12  1  0.500000  0.313462  0.364375  1
  Se  Se13  1  0.000000  0.686538  0.864375  1
  Se  Se14  1  0.500000  0.434977  0.897261  1
  Se  Se15  1  0.000000  0.565023  0.397261  1
  Se  Se16  1  0.000000  0.066021  0.405337  1
  Se  Se17  1  0.500000  0.933979  0.905337  1
  Se  Se18  1  0.000000  0.182631  0.867807  1
  Se  Se19  1  0.500000  0.817369  0.367807  1
  Se  Se20  1  0.000000  0.346497  0.095960  1
  Se  Se21  1  0.500000  0.653503  0.595960  1
  Se  Se22  1  0.000000  0.402093  0.625330  1
  Se  Se23  1  0.500000  0.597907  0.125330  1
