# generated using pymatgen
data_Tm20IrRu7Au4
_symmetry_space_group_name_H-M   'P 1'
_cell_length_a   10.88448735
_cell_length_b   10.88448769
_cell_length_c   6.35493700
_cell_angle_alpha   89.96365045
_cell_angle_beta   89.96365098
_cell_angle_gamma   92.61210415
_symmetry_Int_Tables_number   1
_chemical_formula_structural   Tm20IrRu7Au4
_chemical_formula_sum   'Tm20 Ir1 Ru7 Au4'
_cell_volume   752.09994388
_cell_formula_units_Z   1
loop_
 _symmetry_equiv_pos_site_id
 _symmetry_equiv_pos_as_xyz
  1  'x, y, z'
loop_
 _atom_site_type_symbol
 _atom_site_label
 _atom_site_symmetry_multiplicity
 _atom_site_fract_x
 _atom_site_fract_y
 _atom_site_fract_z
 _atom_site_occupancy
  Tm  Tm0  1  0.298725  0.073238  0.363334  1
  Tm  Tm1  1  0.293165  0.906276  0.878888  1
  Tm  Tm2  1  0.707194  0.094434  0.879906  1
  Tm  Tm3  1  0.701385  0.927162  0.363535  1
  Tm  Tm4  1  0.573313  0.799711  0.864654  1
  Tm  Tm5  1  0.594662  0.206338  0.378959  1
  Tm  Tm6  1  0.405737  0.793929  0.379493  1
  Tm  Tm7  1  0.427410  0.201650  0.863340  1
  Tm  Tm8  1  0.200289  0.426687  0.635346  1
  Tm  Tm9  1  0.206071  0.594263  0.120507  1
  Tm  Tm10  1  0.793662  0.405338  0.121041  1
  Tm  Tm11  1  0.798350  0.572590  0.636660  1
  Tm  Tm12  1  0.926762  0.701275  0.136666  1
  Tm  Tm13  1  0.905566  0.292806  0.620094  1
  Tm  Tm14  1  0.093724  0.706835  0.621112  1
  Tm  Tm15  1  0.072838  0.298615  0.136465  1
  Tm  Tm16  1  0.000454  0.999806  0.496047  1
  Tm  Tm17  1  0.000194  0.999546  0.003953  1
  Tm  Tm18  1  0.501861  0.499976  0.997060  1
  Tm  Tm19  1  0.500024  0.498139  0.502940  1
  Ir  Ir20  1  0.351146  0.648854  0.750000  1
  Ru  Ru21  1  0.851892  0.148108  0.250000  1
  Ru  Ru22  1  0.149014  0.850986  0.250000  1
  Ru  Ru23  1  0.647788  0.352212  0.750000  1
  Ru  Ru24  1  0.499822  0.999805  0.120264  1
  Ru  Ru25  1  0.500102  0.000182  0.620671  1
  Ru  Ru26  1  0.999818  0.499898  0.879329  1
  Ru  Ru27  1  0.000195  0.500178  0.379736  1
  Au  Au28  1  0.839647  0.840079  0.749562  1
  Au  Au29  1  0.159921  0.160353  0.750438  1
  Au  Au30  1  0.659540  0.660271  0.251770  1
  Au  Au31  1  0.339729  0.340460  0.248230  1
