# generated using pymatgen
data_Li3Lu5Pt4
_symmetry_space_group_name_H-M   'P 1'
_cell_length_a   4.02241200
_cell_length_b   7.00545284
_cell_length_c   8.64564843
_cell_angle_alpha   91.39725503
_cell_angle_beta   90.00000000
_cell_angle_gamma   90.00000000
_symmetry_Int_Tables_number   1
_chemical_formula_structural   Li3Lu5Pt4
_chemical_formula_sum   'Li3 Lu5 Pt4'
_cell_volume   243.55171063
_cell_formula_units_Z   1
loop_
 _symmetry_equiv_pos_site_id
 _symmetry_equiv_pos_as_xyz
  1  'x, y, z'
loop_
 _atom_site_type_symbol
 _atom_site_label
 _atom_site_symmetry_multiplicity
 _atom_site_fract_x
 _atom_site_fract_y
 _atom_site_fract_z
 _atom_site_occupancy
  Li  Li0  1  0.250000  0.125817  0.054705  1
  Li  Li1  1  0.250000  0.646580  0.430195  1
  Li  Li2  1  0.750000  0.877676  0.949467  1
  Lu  Lu3  1  0.250000  0.024968  0.689738  1
  Lu  Lu4  1  0.250000  0.556323  0.838981  1
  Lu  Lu5  1  0.750000  0.942642  0.323673  1
  Lu  Lu6  1  0.750000  0.457748  0.167176  1
  Lu  Lu7  1  0.750000  0.372315  0.553491  1
  Pt  Pt8  1  0.250000  0.235555  0.364534  1
  Pt  Pt9  1  0.250000  0.745980  0.131429  1
  Pt  Pt10  1  0.750000  0.753398  0.631318  1
  Pt  Pt11  1  0.750000  0.260998  0.865295  1
