# generated using pymatgen
data_Li8Hf3UBr24
_symmetry_space_group_name_H-M   'P 1'
_cell_length_a   6.81651000
_cell_length_b   6.81651025
_cell_length_c   26.86704100
_cell_angle_alpha   90.00000000
_cell_angle_beta   90.00000000
_cell_angle_gamma   120.00000069
_symmetry_Int_Tables_number   1
_chemical_formula_structural   Li8Hf3UBr24
_chemical_formula_sum   'Li8 Hf3 U1 Br24'
_cell_volume   1081.12182567
_cell_formula_units_Z   1
loop_
 _symmetry_equiv_pos_site_id
 _symmetry_equiv_pos_as_xyz
  1  'x, y, z'
loop_
 _atom_site_type_symbol
 _atom_site_label
 _atom_site_symmetry_multiplicity
 _atom_site_fract_x
 _atom_site_fract_y
 _atom_site_fract_z
 _atom_site_occupancy
  Li  Li0  1  0.000000  0.000000  0.250091  1
  Li  Li1  1  0.000000  0.000000  0.749909  1
  Li  Li2  1  0.333333  0.666667  0.000983  1
  Li  Li3  1  0.333333  0.666667  0.499001  1
  Li  Li4  1  0.333333  0.666667  0.250054  1
  Li  Li5  1  0.666667  0.333333  0.749946  1
  Li  Li6  1  0.666667  0.333333  0.999017  1
  Li  Li7  1  0.666667  0.333333  0.500999  1
  Hf  Hf8  1  0.000000  0.000000  0.500000  1
  Hf  Hf9  1  0.333333  0.666667  0.749838  1
  Hf  Hf10  1  0.666667  0.333333  0.250162  1
  U  U11  1  0.000000  0.000000  0.000000  1
  Br  Br12  1  0.351222  0.017633  0.306532  1
  Br  Br13  1  0.333245  0.982256  0.806249  1
  Br  Br14  1  0.999368  0.335558  0.059065  1
  Br  Br15  1  0.000581  0.315842  0.556447  1
  Br  Br16  1  0.982367  0.333590  0.306532  1
  Br  Br17  1  0.017744  0.350988  0.806249  1
  Br  Br18  1  0.350988  0.333245  0.193751  1
  Br  Br19  1  0.333590  0.351222  0.693468  1
  Br  Br20  1  0.315842  0.315261  0.443553  1
  Br  Br21  1  0.335558  0.336190  0.940935  1
  Br  Br22  1  0.684739  0.000581  0.443553  1
  Br  Br23  1  0.336190  0.000632  0.059065  1
  Br  Br24  1  0.315261  0.999419  0.556447  1
  Br  Br25  1  0.664442  0.663810  0.059065  1
  Br  Br26  1  0.684158  0.684739  0.556447  1
  Br  Br27  1  0.666410  0.648778  0.306532  1
  Br  Br28  1  0.649012  0.666755  0.806249  1
  Br  Br29  1  0.982256  0.649012  0.193751  1
  Br  Br30  1  0.017633  0.666410  0.693468  1
  Br  Br31  1  0.999419  0.684158  0.443553  1
  Br  Br32  1  0.000632  0.664442  0.940935  1
  Br  Br33  1  0.663810  0.999368  0.940935  1
  Br  Br34  1  0.666755  0.017744  0.193751  1
  Br  Br35  1  0.648778  0.982367  0.693468  1
