# generated using pymatgen
data_YTm10In9(NiAu)2
_symmetry_space_group_name_H-M   'P 1'
_cell_length_a   12.98065792
_cell_length_b   13.02266180
_cell_length_c   3.61904300
_cell_angle_alpha   90.00000000
_cell_angle_beta   90.00000000
_cell_angle_gamma   110.18986533
_symmetry_Int_Tables_number   1
_chemical_formula_structural   YTm10In9(NiAu)2
_chemical_formula_sum   'Y1 Tm10 In9 Ni2 Au2'
_cell_volume   574.18192238
_cell_formula_units_Z   1
loop_
 _symmetry_equiv_pos_site_id
 _symmetry_equiv_pos_as_xyz
  1  'x, y, z'
loop_
 _atom_site_type_symbol
 _atom_site_label
 _atom_site_symmetry_multiplicity
 _atom_site_fract_x
 _atom_site_fract_y
 _atom_site_fract_z
 _atom_site_occupancy
  Y  Y0  1  0.000000  0.000000  0.000000  1
  Tm  Tm1  1  0.069967  0.418591  0.000000  1
  Tm  Tm2  1  0.930033  0.581409  0.000000  1
  Tm  Tm3  1  0.421539  0.077918  0.000000  1
  Tm  Tm4  1  0.578461  0.922082  0.000000  1
  Tm  Tm5  1  0.617762  0.360047  0.000000  1
  Tm  Tm6  1  0.382238  0.639953  0.000000  1
  Tm  Tm7  1  0.841535  0.157173  0.000000  1
  Tm  Tm8  1  0.158465  0.842827  0.000000  1
  Tm  Tm9  1  0.318149  0.301946  0.000000  1
  Tm  Tm10  1  0.681851  0.698054  0.000000  1
  In  In11  1  0.843983  0.364624  0.500000  1
  In  In12  1  0.156017  0.635376  0.500000  1
  In  In13  1  0.367769  0.846685  0.500000  1
  In  In14  1  0.632231  0.153315  0.500000  1
  In  In15  1  0.070620  0.216747  0.500000  1
  In  In16  1  0.929380  0.783253  0.500000  1
  In  In17  1  0.220076  0.072119  0.500000  1
  In  In18  1  0.779924  0.927881  0.500000  1
  In  In19  1  0.500000  0.500000  0.500000  1
  Ni  Ni20  1  0.451654  0.244835  0.500000  1
  Ni  Ni21  1  0.548346  0.755165  0.500000  1
  Au  Au22  1  0.254656  0.453228  0.500000  1
  Au  Au23  1  0.745344  0.546772  0.500000  1
