# generated using pymatgen
data_LaGdS3
_symmetry_space_group_name_H-M   'P 1'
_cell_length_a   4.07826300
_cell_length_b   7.51148100
_cell_length_c   15.52303200
_cell_angle_alpha   90.00000000
_cell_angle_beta   90.00000000
_cell_angle_gamma   90.00000000
_symmetry_Int_Tables_number   1
_chemical_formula_structural   LaGdS3
_chemical_formula_sum   'La4 Gd4 S12'
_cell_volume   475.52938065
_cell_formula_units_Z   4
loop_
 _symmetry_equiv_pos_site_id
 _symmetry_equiv_pos_as_xyz
  1  'x, y, z'
loop_
 _atom_site_type_symbol
 _atom_site_label
 _atom_site_symmetry_multiplicity
 _atom_site_fract_x
 _atom_site_fract_y
 _atom_site_fract_z
 _atom_site_occupancy
  La  La0  1  0.750000  0.358376  0.297944  1
  La  La1  1  0.250000  0.641624  0.702056  1
  La  La2  1  0.750000  0.858376  0.202056  1
  La  La3  1  0.250000  0.141624  0.797944  1
  Gd  Gd4  1  0.750000  0.731511  0.956521  1
  Gd  Gd5  1  0.250000  0.268489  0.043479  1
  Gd  Gd6  1  0.750000  0.231511  0.543479  1
  Gd  Gd7  1  0.250000  0.768489  0.456521  1
  S  S8  1  0.250000  0.373551  0.437516  1
  S  S9  1  0.750000  0.626449  0.562484  1
  S  S10  1  0.250000  0.873551  0.062484  1
  S  S11  1  0.750000  0.126449  0.937516  1
  S  S12  1  0.250000  0.150326  0.216615  1
  S  S13  1  0.750000  0.849674  0.783385  1
  S  S14  1  0.250000  0.650326  0.283385  1
  S  S15  1  0.750000  0.349674  0.716615  1
  S  S16  1  0.750000  0.487483  0.104920  1
  S  S17  1  0.250000  0.512517  0.895080  1
  S  S18  1  0.750000  0.987483  0.395080  1
  S  S19  1  0.250000  0.012517  0.604920  1
