# generated using pymatgen
data_La10MgAl3(OsRu2)2
_symmetry_space_group_name_H-M   'P 1'
_cell_length_a   8.69584689
_cell_length_b   8.69268987
_cell_length_c   8.63067417
_cell_angle_alpha   109.13328661
_cell_angle_beta   109.69087810
_cell_angle_gamma   109.37219080
_symmetry_Int_Tables_number   1
_chemical_formula_structural   La10MgAl3(OsRu2)2
_chemical_formula_sum   'La10 Mg1 Al3 Os2 Ru4'
_cell_volume   503.54744514
_cell_formula_units_Z   1
loop_
 _symmetry_equiv_pos_site_id
 _symmetry_equiv_pos_as_xyz
  1  'x, y, z'
loop_
 _atom_site_type_symbol
 _atom_site_label
 _atom_site_symmetry_multiplicity
 _atom_site_fract_x
 _atom_site_fract_y
 _atom_site_fract_z
 _atom_site_occupancy
  La  La0  1  0.245806  0.681166  0.435149  1
  La  La1  1  0.751393  0.806395  0.061974  1
  La  La2  1  0.435677  0.254119  0.690238  1
  La  La3  1  0.689434  0.440624  0.254419  1
  La  La4  1  0.057074  0.750680  0.811340  1
  La  La5  1  0.822281  0.068070  0.753863  1
  La  La6  1  0.212437  0.213262  0.212570  1
  La  La7  1  0.499606  0.999111  0.296502  1
  La  La8  1  0.288128  0.502628  0.000316  1
  La  La9  1  0.999660  0.287504  0.498466  1
  Mg  Mg10  1  0.500081  0.999043  0.912774  1
  Al  Al11  1  0.588024  0.588310  0.588421  1
  Al  Al12  1  0.911070  0.499523  0.998195  1
  Al  Al13  1  0.001222  0.912438  0.499811  1
  Os  Os14  1  0.239495  0.126086  0.863180  1
  Os  Os15  1  0.748173  0.384077  0.631884  1
  Ru  Ru16  1  0.886923  0.259285  0.122908  1
  Ru  Ru17  1  0.115805  0.863074  0.248634  1
  Ru  Ru18  1  0.636175  0.751819  0.384433  1
  Ru  Ru19  1  0.371539  0.612788  0.734925  1
