# generated using pymatgen
data_Be8Fe3Ni(W6C)2
_symmetry_space_group_name_H-M   'P 1'
_cell_length_a   7.56896999
_cell_length_b   7.56407968
_cell_length_c   7.56408100
_cell_angle_alpha   59.99999860
_cell_angle_beta   60.02136912
_cell_angle_gamma   60.02136624
_symmetry_Int_Tables_number   1
_chemical_formula_structural   Be8Fe3Ni(W6C)2
_chemical_formula_sum   'Be8 Fe3 Ni1 W12 C2'
_cell_volume   306.31921226
_cell_formula_units_Z   1
loop_
 _symmetry_equiv_pos_site_id
 _symmetry_equiv_pos_as_xyz
  1  'x, y, z'
loop_
 _atom_site_type_symbol
 _atom_site_label
 _atom_site_symmetry_multiplicity
 _atom_site_fract_x
 _atom_site_fract_y
 _atom_site_fract_z
 _atom_site_occupancy
  Be  Be0  1  0.421742  0.420580  0.737097  1
  Be  Be1  1  0.421742  0.737097  0.420580  1
  Be  Be2  1  0.734045  0.421985  0.421985  1
  Be  Be3  1  0.421742  0.420580  0.420580  1
  Be  Be4  1  0.828258  0.829420  0.512903  1
  Be  Be5  1  0.828258  0.512903  0.829420  1
  Be  Be6  1  0.515955  0.828015  0.828015  1
  Be  Be7  1  0.828258  0.829420  0.829420  1
  Fe  Fe8  1  0.625000  0.625000  0.125000  1
  Fe  Fe9  1  0.625000  0.125000  0.625000  1
  Fe  Fe10  1  0.625000  0.625000  0.625000  1
  Ni  Ni11  1  0.125000  0.625000  0.625000  1
  W  W12  1  0.047837  0.051660  0.450252  1
  W  W13  1  0.451959  0.048301  0.451440  1
  W  W14  1  0.047837  0.450252  0.450252  1
  W  W15  1  0.451959  0.451440  0.048301  1
  W  W16  1  0.047837  0.450252  0.051660  1
  W  W17  1  0.451959  0.048301  0.048301  1
  W  W18  1  0.202163  0.198340  0.799748  1
  W  W19  1  0.798041  0.201699  0.798560  1
  W  W20  1  0.202163  0.799748  0.799748  1
  W  W21  1  0.798041  0.798560  0.201699  1
  W  W22  1  0.202163  0.799748  0.198340  1
  W  W23  1  0.798041  0.201699  0.201699  1
  C  C24  1  0.250788  0.249737  0.249737  1
  C  C25  1  0.999212  0.000263  0.000263  1
