# generated using pymatgen
data_ErHf3(Si3Ni5)4
_symmetry_space_group_name_H-M   'P 1'
_cell_length_a   3.72193700
_cell_length_b   6.59638870
_cell_length_c   18.42286014
_cell_angle_alpha   89.97018535
_cell_angle_beta   90.00000000
_cell_angle_gamma   90.00000000
_symmetry_Int_Tables_number   1
_chemical_formula_structural   ErHf3(Si3Ni5)4
_chemical_formula_sum   'Er1 Hf3 Si12 Ni20'
_cell_volume   452.30590027
_cell_formula_units_Z   1
loop_
 _symmetry_equiv_pos_site_id
 _symmetry_equiv_pos_as_xyz
  1  'x, y, z'
loop_
 _atom_site_type_symbol
 _atom_site_label
 _atom_site_symmetry_multiplicity
 _atom_site_fract_x
 _atom_site_fract_y
 _atom_site_fract_z
 _atom_site_occupancy
  Er  Er0  1  0.250000  0.877169  0.142914  1
  Hf  Hf1  1  0.250000  0.621035  0.643277  1
  Hf  Hf2  1  0.750000  0.379158  0.357895  1
  Hf  Hf3  1  0.750000  0.120043  0.855342  1
  Si  Si4  1  0.250000  0.854156  0.922732  1
  Si  Si5  1  0.750000  0.157545  0.075343  1
  Si  Si6  1  0.750000  0.351610  0.577849  1
  Si  Si7  1  0.250000  0.646419  0.424358  1
  Si  Si8  1  0.750000  0.622491  0.759666  1
  Si  Si9  1  0.250000  0.376797  0.241318  1
  Si  Si10  1  0.250000  0.405431  0.910355  1
  Si  Si11  1  0.750000  0.583327  0.083839  1
  Si  Si12  1  0.750000  0.905396  0.586332  1
  Si  Si13  1  0.250000  0.095481  0.415517  1
  Si  Si14  1  0.250000  0.122466  0.739055  1
  Si  Si15  1  0.750000  0.876709  0.263368  1
  Ni  Ni16  1  0.250000  0.133852  0.993279  1
  Ni  Ni17  1  0.750000  0.379401  0.981575  1
  Ni  Ni18  1  0.750000  0.121282  0.487253  1
  Ni  Ni19  1  0.250000  0.615215  0.010671  1
  Ni  Ni20  1  0.250000  0.359480  0.116428  1
  Ni  Ni21  1  0.750000  0.648381  0.883985  1
  Ni  Ni22  1  0.750000  0.854690  0.387525  1
  Ni  Ni23  1  0.250000  0.143001  0.614975  1
  Ni  Ni24  1  0.250000  0.071373  0.295930  1
  Ni  Ni25  1  0.750000  0.928756  0.706324  1
  Ni  Ni26  1  0.750000  0.568575  0.206811  1
  Ni  Ni27  1  0.250000  0.430027  0.790957  1
  Ni  Ni28  1  0.750000  0.628915  0.506708  1
  Ni  Ni29  1  0.250000  0.370629  0.496225  1
  Ni  Ni30  1  0.250000  0.820164  0.799192  1
  Ni  Ni31  1  0.750000  0.183819  0.202066  1
  Ni  Ni32  1  0.750000  0.318975  0.700105  1
  Ni  Ni33  1  0.250000  0.678549  0.301895  1
  Ni  Ni34  1  0.250000  0.879005  0.514290  1
  Ni  Ni35  1  0.750000  0.870682  0.004648  1
