# generated using pymatgen
data_Nd3Y5(TmBi)12
_symmetry_space_group_name_H-M   'P 1'
_cell_length_a   8.28163289
_cell_length_b   9.48935800
_cell_length_c   12.12854000
_cell_angle_alpha   90.00000000
_cell_angle_beta   89.96127762
_cell_angle_gamma   90.00000000
_symmetry_Int_Tables_number   1
_chemical_formula_structural   Nd3Y5(TmBi)12
_chemical_formula_sum   'Nd3 Y5 Tm12 Bi12'
_cell_volume   953.14995603
_cell_formula_units_Z   1
loop_
 _symmetry_equiv_pos_site_id
 _symmetry_equiv_pos_as_xyz
  1  'x, y, z'
loop_
 _atom_site_type_symbol
 _atom_site_label
 _atom_site_symmetry_multiplicity
 _atom_site_fract_x
 _atom_site_fract_y
 _atom_site_fract_z
 _atom_site_occupancy
  Nd  Nd0  1  0.183969  0.750000  0.720209  1
  Nd  Nd1  1  0.684325  0.750000  0.779623  1
  Nd  Nd2  1  0.816043  0.250000  0.279988  1
  Y  Y3  1  0.313676  0.250000  0.218753  1
  Y  Y4  1  0.352329  0.750000  0.216857  1
  Y  Y5  1  0.853559  0.750000  0.282421  1
  Y  Y6  1  0.647287  0.250000  0.783877  1
  Y  Y7  1  0.147698  0.250000  0.716461  1
  Tm  Tm8  1  0.024428  0.750000  0.988927  1
  Tm  Tm9  1  0.523465  0.750000  0.511325  1
  Tm  Tm10  1  0.975689  0.250000  0.012507  1
  Tm  Tm11  1  0.476303  0.250000  0.488418  1
  Tm  Tm12  1  0.306961  0.435172  0.940190  1
  Tm  Tm13  1  0.807818  0.065368  0.559779  1
  Tm  Tm14  1  0.693338  0.935122  0.059961  1
  Tm  Tm15  1  0.192388  0.565130  0.439760  1
  Tm  Tm16  1  0.693338  0.564878  0.059961  1
  Tm  Tm17  1  0.192388  0.934870  0.439760  1
  Tm  Tm18  1  0.306961  0.064828  0.940190  1
  Tm  Tm19  1  0.807818  0.434632  0.559779  1
  Bi  Bi20  1  0.434414  0.007951  0.670792  1
  Bi  Bi21  1  0.934070  0.491901  0.829764  1
  Bi  Bi22  1  0.563317  0.506038  0.328325  1
  Bi  Bi23  1  0.069029  0.994257  0.171319  1
  Bi  Bi24  1  0.563317  0.993962  0.328325  1
  Bi  Bi25  1  0.069029  0.505743  0.171319  1
  Bi  Bi26  1  0.434414  0.492049  0.670792  1
  Bi  Bi27  1  0.934070  0.008099  0.829764  1
  Bi  Bi28  1  0.406022  0.750000  0.962078  1
  Bi  Bi29  1  0.905198  0.750000  0.537841  1
  Bi  Bi30  1  0.590739  0.250000  0.040535  1
  Bi  Bi31  1  0.096600  0.250000  0.460395  1
