# generated using pymatgen
data_YHo5ScVO12
_symmetry_space_group_name_H-M   'P 1'
_cell_length_a   6.55034697
_cell_length_b   6.54704876
_cell_length_c   6.54996569
_cell_angle_alpha   92.69387874
_cell_angle_beta   92.65305306
_cell_angle_gamma   92.68069136
_symmetry_Int_Tables_number   1
_chemical_formula_structural   YHo5ScVO12
_chemical_formula_sum   'Y1 Ho5 Sc1 V1 O12'
_cell_volume   279.94959269
_cell_formula_units_Z   1
loop_
 _symmetry_equiv_pos_site_id
 _symmetry_equiv_pos_as_xyz
  1  'x, y, z'
loop_
 _atom_site_type_symbol
 _atom_site_label
 _atom_site_symmetry_multiplicity
 _atom_site_fract_x
 _atom_site_fract_y
 _atom_site_fract_z
 _atom_site_occupancy
  Y  Y0  1  0.743531  0.927406  0.435915  1
  Ho  Ho1  1  0.927685  0.436481  0.744022  1
  Ho  Ho2  1  0.435691  0.743501  0.927565  1
  Ho  Ho3  1  0.256327  0.072798  0.564256  1
  Ho  Ho4  1  0.072834  0.563471  0.256434  1
  Ho  Ho5  1  0.563861  0.256730  0.072153  1
  Sc  Sc6  1  0.000611  0.000307  0.000127  1
  V  V7  1  0.499545  0.499832  0.500282  1
  O  O8  1  0.589947  0.461325  0.802160  1
  O  O9  1  0.459405  0.801173  0.590414  1
  O  O10  1  0.802058  0.587892  0.461295  1
  O  O11  1  0.410037  0.538856  0.197909  1
  O  O12  1  0.537158  0.198670  0.409682  1
  O  O13  1  0.197728  0.410127  0.538723  1
  O  O14  1  0.070578  0.914539  0.307946  1
  O  O15  1  0.914644  0.308386  0.069355  1
  O  O16  1  0.691789  0.931346  0.083131  1
  O  O17  1  0.085294  0.691701  0.931105  1
  O  O18  1  0.932610  0.086437  0.692774  1
  O  O19  1  0.308665  0.069020  0.914751  1
