# generated using pymatgen
data_Hf3Al2AuN
_symmetry_space_group_name_H-M   'P 1'
_cell_length_a   8.61675016
_cell_length_b   8.61675044
_cell_length_c   8.61675100
_cell_angle_alpha   59.99999400
_cell_angle_beta   59.99999292
_cell_angle_gamma   59.99999857
_symmetry_Int_Tables_number   1
_chemical_formula_structural   Hf3Al2AuN
_chemical_formula_sum   'Hf12 Al8 Au4 N4'
_cell_volume   452.39262174
_cell_formula_units_Z   4
loop_
 _symmetry_equiv_pos_site_id
 _symmetry_equiv_pos_as_xyz
  1  'x, y, z'
loop_
 _atom_site_type_symbol
 _atom_site_label
 _atom_site_symmetry_multiplicity
 _atom_site_fract_x
 _atom_site_fract_y
 _atom_site_fract_z
 _atom_site_occupancy
  Hf  Hf0  1  0.817792  0.182208  0.182208  1
  Hf  Hf1  1  0.182208  0.817792  0.182208  1
  Hf  Hf2  1  0.817792  0.817792  0.182208  1
  Hf  Hf3  1  0.182208  0.817792  0.817792  1
  Hf  Hf4  1  0.817792  0.182208  0.817792  1
  Hf  Hf5  1  0.182208  0.182208  0.817792  1
  Hf  Hf6  1  0.432208  0.067792  0.067792  1
  Hf  Hf7  1  0.067792  0.432208  0.067792  1
  Hf  Hf8  1  0.432208  0.432208  0.067792  1
  Hf  Hf9  1  0.067792  0.432208  0.432208  1
  Hf  Hf10  1  0.432208  0.067792  0.432208  1
  Hf  Hf11  1  0.067792  0.067792  0.432208  1
  Al  Al12  1  0.415910  0.415910  0.752267  1
  Al  Al13  1  0.415910  0.415910  0.415910  1
  Al  Al14  1  0.752267  0.415910  0.415910  1
  Al  Al15  1  0.415910  0.752267  0.415910  1
  Al  Al16  1  0.834090  0.834090  0.497733  1
  Al  Al17  1  0.834090  0.834090  0.834090  1
  Al  Al18  1  0.497733  0.834090  0.834090  1
  Al  Al19  1  0.834090  0.497733  0.834090  1
  Au  Au20  1  0.625000  0.625000  0.125000  1
  Au  Au21  1  0.625000  0.625000  0.625000  1
  Au  Au22  1  0.125000  0.625000  0.625000  1
  Au  Au23  1  0.625000  0.125000  0.625000  1
  N  N24  1  0.125000  0.125000  0.625000  1
  N  N25  1  0.125000  0.125000  0.125000  1
  N  N26  1  0.625000  0.125000  0.125000  1
  N  N27  1  0.125000  0.625000  0.125000  1
