# generated using pymatgen
data_Tb3HoSc6(Si5Ir2)4
_symmetry_space_group_name_H-M   'P 1'
_cell_length_a   12.49036442
_cell_length_b   12.49036530
_cell_length_c   4.15854600
_cell_angle_alpha   90.00000000
_cell_angle_beta   90.00000000
_cell_angle_gamma   90.03872972
_symmetry_Int_Tables_number   1
_chemical_formula_structural   Tb3HoSc6(Si5Ir2)4
_chemical_formula_sum   'Tb3 Ho1 Sc6 Si20 Ir8'
_cell_volume   648.77134626
_cell_formula_units_Z   1
loop_
 _symmetry_equiv_pos_site_id
 _symmetry_equiv_pos_as_xyz
  1  'x, y, z'
loop_
 _atom_site_type_symbol
 _atom_site_label
 _atom_site_symmetry_multiplicity
 _atom_site_fract_x
 _atom_site_fract_y
 _atom_site_fract_z
 _atom_site_occupancy
  Tb  Tb0  1  0.115611  0.615526  0.500000  1
  Tb  Tb1  1  0.884474  0.384389  0.500000  1
  Tb  Tb2  1  0.615309  0.884691  0.500000  1
  Ho  Ho3  1  0.384604  0.115396  0.500000  1
  Sc  Sc4  1  0.673714  0.174112  0.500000  1
  Sc  Sc5  1  0.325888  0.826286  0.500000  1
  Sc  Sc6  1  0.174530  0.325470  0.500000  1
  Sc  Sc7  1  0.825837  0.674163  0.500000  1
  Sc  Sc8  1  0.000308  0.999971  0.000000  1
  Sc  Sc9  1  0.500029  0.499692  0.000000  1
  Si  Si10  1  0.567560  0.067630  0.000000  1
  Si  Si11  1  0.432370  0.932440  0.000000  1
  Si  Si12  1  0.068053  0.431947  0.000000  1
  Si  Si13  1  0.932199  0.567801  0.000000  1
  Si  Si14  1  0.200066  0.165515  0.000000  1
  Si  Si15  1  0.800272  0.834590  0.000000  1
  Si  Si16  1  0.165709  0.800768  0.000000  1
  Si  Si17  1  0.699232  0.334291  0.000000  1
  Si  Si18  1  0.834336  0.199762  0.000000  1
  Si  Si19  1  0.300238  0.665664  0.000000  1
  Si  Si20  1  0.665410  0.699728  0.000000  1
  Si  Si21  1  0.334485  0.299934  0.000000  1
  Si  Si22  1  0.007709  0.150636  0.500000  1
  Si  Si23  1  0.992812  0.849466  0.500000  1
  Si  Si24  1  0.151561  0.993682  0.500000  1
  Si  Si25  1  0.506318  0.348439  0.500000  1
  Si  Si26  1  0.849221  0.007981  0.500000  1
  Si  Si27  1  0.492019  0.650779  0.500000  1
  Si  Si28  1  0.650534  0.507188  0.500000  1
  Si  Si29  1  0.349364  0.492291  0.500000  1
  Ir  Ir30  1  0.020684  0.243748  0.000000  1
  Ir  Ir31  1  0.979477  0.756248  0.000000  1
  Ir  Ir32  1  0.244778  0.979955  0.000000  1
  Ir  Ir33  1  0.520045  0.255222  0.000000  1
  Ir  Ir34  1  0.755865  0.020621  0.000000  1
  Ir  Ir35  1  0.479379  0.744135  0.000000  1
  Ir  Ir36  1  0.743752  0.520523  0.000000  1
  Ir  Ir37  1  0.256252  0.479316  0.000000  1
