# generated using pymatgen
data_DyY7Ti11Si16Pt
_symmetry_space_group_name_H-M   'P 1'
_cell_length_a   7.05961221
_cell_length_b   7.05974602
_cell_length_c   12.88535741
_cell_angle_alpha   89.82276682
_cell_angle_beta   90.16311408
_cell_angle_gamma   89.70434331
_symmetry_Int_Tables_number   1
_chemical_formula_structural   DyY7Ti11Si16Pt
_chemical_formula_sum   'Dy1 Y7 Ti11 Si16 Pt1'
_cell_volume   642.17996583
_cell_formula_units_Z   1
loop_
 _symmetry_equiv_pos_site_id
 _symmetry_equiv_pos_as_xyz
  1  'x, y, z'
loop_
 _atom_site_type_symbol
 _atom_site_label
 _atom_site_symmetry_multiplicity
 _atom_site_fract_x
 _atom_site_fract_y
 _atom_site_fract_z
 _atom_site_occupancy
  Dy  Dy0  1  0.343267  0.001135  0.468572  1
  Y  Y1  1  0.996330  0.659794  0.032926  1
  Y  Y2  1  0.001278  0.343132  0.531539  1
  Y  Y3  1  0.659791  0.996369  0.966964  1
  Y  Y4  1  0.158778  0.503002  0.782043  1
  Y  Y5  1  0.841752  0.498925  0.285532  1
  Y  Y6  1  0.503061  0.158885  0.217932  1
  Y  Y7  1  0.498987  0.841873  0.714479  1
  Ti  Ti8  1  0.345277  0.506020  0.375586  1
  Ti  Ti9  1  0.850725  0.994974  0.377218  1
  Ti  Ti10  1  0.006990  0.150855  0.124984  1
  Ti  Ti11  1  0.995003  0.850963  0.622888  1
  Ti  Ti12  1  0.506176  0.345130  0.624498  1
  Ti  Ti13  1  0.150743  0.007122  0.874870  1
  Ti  Ti14  1  0.824385  0.173417  0.748652  1
  Ti  Ti15  1  0.173474  0.824369  0.251383  1
  Ti  Ti16  1  0.326912  0.326839  0.999954  1
  Ti  Ti17  1  0.492413  0.649915  0.127407  1
  Ti  Ti18  1  0.650054  0.492218  0.872452  1
  Si  Si19  1  0.055586  0.714403  0.435511  1
  Si  Si20  1  0.952109  0.291304  0.934449  1
  Si  Si21  1  0.714349  0.055471  0.564701  1
  Si  Si22  1  0.208421  0.452663  0.184824  1
  Si  Si23  1  0.790258  0.549574  0.684770  1
  Si  Si24  1  0.452834  0.208463  0.815132  1
  Si  Si25  1  0.549587  0.790392  0.315369  1
  Si  Si26  1  0.291370  0.952194  0.065378  1
  Si  Si27  1  0.798223  0.867862  0.185839  1
  Si  Si28  1  0.291316  0.626620  0.567226  1
  Si  Si29  1  0.704814  0.369349  0.066016  1
  Si  Si30  1  0.626396  0.291268  0.432841  1
  Si  Si31  1  0.369334  0.704873  0.933895  1
  Si  Si32  1  0.131382  0.202878  0.316298  1
  Si  Si33  1  0.202757  0.131114  0.683779  1
  Si  Si34  1  0.867898  0.798404  0.814101  1
  Pt  Pt35  1  0.667964  0.668229  0.499991  1
