# generated using pymatgen
data_ErTm2Cd3CuAu2
_symmetry_space_group_name_H-M   'P 1'
_cell_length_a   7.74570667
_cell_length_b   7.74570690
_cell_length_c   3.79821400
_cell_angle_alpha   90.00000000
_cell_angle_beta   90.00000000
_cell_angle_gamma   120.04779802
_symmetry_Int_Tables_number   1
_chemical_formula_structural   ErTm2Cd3CuAu2
_chemical_formula_sum   'Er1 Tm2 Cd3 Cu1 Au2'
_cell_volume   197.25262449
_cell_formula_units_Z   1
loop_
 _symmetry_equiv_pos_site_id
 _symmetry_equiv_pos_as_xyz
  1  'x, y, z'
loop_
 _atom_site_type_symbol
 _atom_site_label
 _atom_site_symmetry_multiplicity
 _atom_site_fract_x
 _atom_site_fract_y
 _atom_site_fract_z
 _atom_site_occupancy
  Er  Er0  1  0.404951  0.404951  0.000000  1
  Tm  Tm1  1  0.594958  0.000031  0.000000  1
  Tm  Tm2  1  0.000031  0.594958  0.000000  1
  Cd  Cd3  1  0.250253  0.999806  0.500000  1
  Cd  Cd4  1  0.999806  0.250253  0.500000  1
  Cd  Cd5  1  0.749830  0.749830  0.500000  1
  Cu  Cu6  1  0.999832  0.999832  0.000000  1
  Au  Au7  1  0.333167  0.667172  0.500000  1
  Au  Au8  1  0.667172  0.333167  0.500000  1
