# generated using pymatgen
data_YEr3InRh
_symmetry_space_group_name_H-M   'P 1'
_cell_length_a   9.61002691
_cell_length_b   9.61274298
_cell_length_c   9.61274246
_cell_angle_alpha   59.96463830
_cell_angle_beta   59.97554512
_cell_angle_gamma   59.97554431
_symmetry_Int_Tables_number   1
_chemical_formula_structural   YEr3InRh
_chemical_formula_sum   'Y4 Er12 In4 Rh4'
_cell_volume   627.51989495
_cell_formula_units_Z   4
loop_
 _symmetry_equiv_pos_site_id
 _symmetry_equiv_pos_as_xyz
  1  'x, y, z'
loop_
 _atom_site_type_symbol
 _atom_site_label
 _atom_site_symmetry_multiplicity
 _atom_site_fract_x
 _atom_site_fract_y
 _atom_site_fract_z
 _atom_site_occupancy
  Y  Y0  1  0.061259  0.437794  0.437794  1
  Y  Y1  1  0.437236  0.060991  0.060991  1
  Y  Y2  1  0.437948  0.060944  0.438831  1
  Y  Y3  1  0.437948  0.438831  0.060944  1
  Er  Er4  1  0.059767  0.438525  0.060333  1
  Er  Er5  1  0.059767  0.060333  0.438525  1
  Er  Er6  1  0.189929  0.810893  0.810893  1
  Er  Er7  1  0.812648  0.188906  0.188906  1
  Er  Er8  1  0.811517  0.189852  0.810679  1
  Er  Er9  1  0.811517  0.810679  0.189852  1
  Er  Er10  1  0.188728  0.812213  0.189113  1
  Er  Er11  1  0.188728  0.189113  0.812213  1
  Er  Er12  1  0.651725  0.651513  0.651513  1
  Er  Er13  1  0.649077  0.648825  0.050006  1
  Er  Er14  1  0.050131  0.648857  0.648857  1
  Er  Er15  1  0.649077  0.050006  0.648825  1
  In  In16  1  0.417232  0.416908  0.416908  1
  In  In17  1  0.417265  0.417516  0.748778  1
  In  In18  1  0.748866  0.417239  0.417239  1
  In  In19  1  0.417265  0.748778  0.417516  1
  Rh  Rh20  1  0.858368  0.857224  0.857224  1
  Rh  Rh21  1  0.858370  0.858460  0.427511  1
  Rh  Rh22  1  0.427263  0.858090  0.858090  1
  Rh  Rh23  1  0.858370  0.427511  0.858460  1
