# generated using pymatgen
data_Li2CePrBi4
_symmetry_space_group_name_H-M   'P 1'
_cell_length_a   4.52833100
_cell_length_b   4.52833100
_cell_length_c   10.72110100
_cell_angle_alpha   90.00000000
_cell_angle_beta   90.00000000
_cell_angle_gamma   90.00000000
_symmetry_Int_Tables_number   1
_chemical_formula_structural   Li2CePrBi4
_chemical_formula_sum   'Li2 Ce1 Pr1 Bi4'
_cell_volume   219.84455611
_cell_formula_units_Z   1
loop_
 _symmetry_equiv_pos_site_id
 _symmetry_equiv_pos_as_xyz
  1  'x, y, z'
loop_
 _atom_site_type_symbol
 _atom_site_label
 _atom_site_symmetry_multiplicity
 _atom_site_fract_x
 _atom_site_fract_y
 _atom_site_fract_z
 _atom_site_occupancy
  Li  Li0  1  0.000000  0.000000  0.001394  1
  Li  Li1  1  0.500000  0.500000  0.001394  1
  Ce  Ce2  1  0.000000  0.500000  0.259033  1
  Pr  Pr3  1  0.500000  0.000000  0.735401  1
  Bi  Bi4  1  0.000000  0.500000  0.840729  1
  Bi  Bi5  1  0.500000  0.000000  0.173287  1
  Bi  Bi6  1  0.000000  0.000000  0.494381  1
  Bi  Bi7  1  0.500000  0.500000  0.494381  1
