# generated using pymatgen
data_Ho8Sc2Zn3Bi2Au
_symmetry_space_group_name_H-M   'P 1'
_cell_length_a   8.53434604
_cell_length_b   8.53434719
_cell_length_c   8.55107497
_cell_angle_alpha   123.93167873
_cell_angle_beta   123.93168211
_cell_angle_gamma   83.18889923
_symmetry_Int_Tables_number   1
_chemical_formula_structural   Ho8Sc2Zn3Bi2Au
_chemical_formula_sum   'Ho8 Sc2 Zn3 Bi2 Au1'
_cell_volume   411.55928342
_cell_formula_units_Z   1
loop_
 _symmetry_equiv_pos_site_id
 _symmetry_equiv_pos_as_xyz
  1  'x, y, z'
loop_
 _atom_site_type_symbol
 _atom_site_label
 _atom_site_symmetry_multiplicity
 _atom_site_fract_x
 _atom_site_fract_y
 _atom_site_fract_z
 _atom_site_occupancy
  Ho  Ho0  1  0.011719  0.513308  0.807484  1
  Ho  Ho1  1  0.704235  0.205824  0.192516  1
  Ho  Ho2  1  0.513929  0.705189  0.500000  1
  Ho  Ho3  1  0.205173  0.013175  0.500000  1
  Ho  Ho4  1  0.986692  0.488281  0.192516  1
  Ho  Ho5  1  0.294176  0.795765  0.807484  1
  Ho  Ho6  1  0.486825  0.294827  0.500000  1
  Ho  Ho7  1  0.794811  0.986071  0.500000  1
  Sc  Sc8  1  0.000236  0.000197  0.000433  1
  Sc  Sc9  1  0.499803  0.499764  0.999567  1
  Zn  Zn10  1  0.640642  0.142480  0.783120  1
  Zn  Zn11  1  0.357520  0.859358  0.216880  1
  Zn  Zn12  1  0.142312  0.357688  0.500000  1
  Bi  Bi13  1  0.748957  0.751043  0.000000  1
  Bi  Bi14  1  0.248957  0.251043  0.000000  1
  Au  Au15  1  0.864010  0.635990  0.500000  1
