# generated using pymatgen
data_YHo11(SiAu)12
_symmetry_space_group_name_H-M   'P 1'
_cell_length_a   4.33151300
_cell_length_b   7.52988106
_cell_length_c   22.38772900
_cell_angle_alpha   89.99291591
_cell_angle_beta   90.00000000
_cell_angle_gamma   90.00000000
_symmetry_Int_Tables_number   1
_chemical_formula_structural   YHo11(SiAu)12
_chemical_formula_sum   'Y1 Ho11 Si12 Au12'
_cell_volume   730.19318645
_cell_formula_units_Z   1
loop_
 _symmetry_equiv_pos_site_id
 _symmetry_equiv_pos_as_xyz
  1  'x, y, z'
loop_
 _atom_site_type_symbol
 _atom_site_label
 _atom_site_symmetry_multiplicity
 _atom_site_fract_x
 _atom_site_fract_y
 _atom_site_fract_z
 _atom_site_occupancy
  Y  Y0  1  0.250000  0.773059  0.496984  1
  Ho  Ho1  1  0.250000  0.724961  0.330324  1
  Ho  Ho2  1  0.750000  0.261969  0.667770  1
  Ho  Ho3  1  0.750000  0.217866  0.164631  1
  Ho  Ho4  1  0.250000  0.767515  0.836038  1
  Ho  Ho5  1  0.250000  0.780966  0.165780  1
  Ho  Ho6  1  0.750000  0.233689  0.835186  1
  Ho  Ho7  1  0.750000  0.269969  0.330634  1
  Ho  Ho8  1  0.250000  0.736563  0.668944  1
  Ho  Ho9  1  0.250000  0.723965  0.000196  1
  Ho  Ho10  1  0.750000  0.274199  0.002541  1
  Ho  Ho11  1  0.750000  0.224589  0.500251  1
  Si  Si12  1  0.250000  0.088922  0.077337  1
  Si  Si13  1  0.750000  0.912293  0.930086  1
  Si  Si14  1  0.750000  0.585178  0.410954  1
  Si  Si15  1  0.250000  0.414559  0.572967  1
  Si  Si16  1  0.250000  0.089237  0.249069  1
  Si  Si17  1  0.750000  0.915078  0.758319  1
  Si  Si18  1  0.750000  0.588890  0.236542  1
  Si  Si19  1  0.250000  0.412105  0.753002  1
  Si  Si20  1  0.250000  0.089504  0.410943  1
  Si  Si21  1  0.750000  0.911689  0.582025  1
  Si  Si22  1  0.750000  0.589803  0.098755  1
  Si  Si23  1  0.250000  0.411366  0.914324  1
  Au  Au24  1  0.250000  0.420286  0.238385  1
  Au  Au25  1  0.750000  0.581127  0.757605  1
  Au  Au26  1  0.750000  0.919197  0.259158  1
  Au  Au27  1  0.250000  0.080054  0.742959  1
  Au  Au28  1  0.250000  0.418735  0.426381  1
  Au  Au29  1  0.750000  0.581147  0.584680  1
  Au  Au30  1  0.750000  0.915969  0.069395  1
  Au  Au31  1  0.250000  0.081147  0.926807  1
  Au  Au32  1  0.250000  0.422756  0.092825  1
  Au  Au33  1  0.750000  0.580476  0.911413  1
  Au  Au34  1  0.750000  0.919640  0.401212  1
  Au  Au35  1  0.250000  0.081534  0.595579  1
