# generated using pymatgen
data_Ce4Pr12Cd3HgIr4
_symmetry_space_group_name_H-M   'P 1'
_cell_length_a   9.96714693
_cell_length_b   9.96714622
_cell_length_c   9.96714714
_cell_angle_alpha   60.12672425
_cell_angle_beta   60.12672739
_cell_angle_gamma   60.12672817
_symmetry_Int_Tables_number   1
_chemical_formula_structural   Ce4Pr12Cd3HgIr4
_chemical_formula_sum   'Ce4 Pr12 Cd3 Hg1 Ir4'
_cell_volume   702.17052239
_cell_formula_units_Z   1
loop_
 _symmetry_equiv_pos_site_id
 _symmetry_equiv_pos_as_xyz
  1  'x, y, z'
loop_
 _atom_site_type_symbol
 _atom_site_label
 _atom_site_symmetry_multiplicity
 _atom_site_fract_x
 _atom_site_fract_y
 _atom_site_fract_z
 _atom_site_occupancy
  Ce  Ce0  1  0.345272  0.345272  0.345272  1
  Ce  Ce1  1  0.346119  0.346119  0.962504  1
  Ce  Ce2  1  0.346119  0.962504  0.346119  1
  Ce  Ce3  1  0.962504  0.346119  0.346119  1
  Pr  Pr4  1  0.808828  0.190846  0.190846  1
  Pr  Pr5  1  0.192023  0.807141  0.807141  1
  Pr  Pr6  1  0.190846  0.808828  0.190846  1
  Pr  Pr7  1  0.807141  0.192023  0.807141  1
  Pr  Pr8  1  0.190846  0.190846  0.808828  1
  Pr  Pr9  1  0.807141  0.807141  0.192023  1
  Pr  Pr10  1  0.941965  0.559381  0.559381  1
  Pr  Pr11  1  0.558940  0.940128  0.940128  1
  Pr  Pr12  1  0.559381  0.941965  0.559381  1
  Pr  Pr13  1  0.940128  0.558940  0.940128  1
  Pr  Pr14  1  0.559381  0.559381  0.941965  1
  Pr  Pr15  1  0.940128  0.940128  0.558940  1
  Cd  Cd16  1  0.579180  0.579180  0.262250  1
  Cd  Cd17  1  0.579180  0.262250  0.579180  1
  Cd  Cd18  1  0.262250  0.579180  0.579180  1
  Hg  Hg19  1  0.582004  0.582004  0.582004  1
  Ir  Ir20  1  0.145891  0.145891  0.145891  1
  Ir  Ir21  1  0.145689  0.145689  0.563352  1
  Ir  Ir22  1  0.145689  0.563352  0.145689  1
  Ir  Ir23  1  0.563352  0.145689  0.145689  1
