# generated using pymatgen
data_Sm2Ni12P5
_symmetry_space_group_name_H-M   'P 1'
_cell_length_a   3.65455000
_cell_length_b   10.78333463
_cell_length_c   13.11888957
_cell_angle_alpha   71.73430055
_cell_angle_beta   90.00000000
_cell_angle_gamma   90.00000000
_symmetry_Int_Tables_number   1
_chemical_formula_structural   Sm2Ni12P5
_chemical_formula_sum   'Sm4 Ni24 P10'
_cell_volume   490.94274556
_cell_formula_units_Z   2
loop_
 _symmetry_equiv_pos_site_id
 _symmetry_equiv_pos_as_xyz
  1  'x, y, z'
loop_
 _atom_site_type_symbol
 _atom_site_label
 _atom_site_symmetry_multiplicity
 _atom_site_fract_x
 _atom_site_fract_y
 _atom_site_fract_z
 _atom_site_occupancy
  Sm  Sm0  1  0.250000  0.280559  0.682505  1
  Sm  Sm1  1  0.750000  0.719441  0.317495  1
  Sm  Sm2  1  0.250000  0.245447  0.187477  1
  Sm  Sm3  1  0.750000  0.754553  0.812523  1
  Ni  Ni4  1  0.250000  0.838948  0.137294  1
  Ni  Ni5  1  0.750000  0.161052  0.862706  1
  Ni  Ni6  1  0.250000  0.287328  0.438241  1
  Ni  Ni7  1  0.750000  0.712672  0.561759  1
  Ni  Ni8  1  0.250000  0.070649  0.015558  1
  Ni  Ni9  1  0.750000  0.929351  0.984442  1
  Ni  Ni10  1  0.250000  0.064444  0.446813  1
  Ni  Ni11  1  0.750000  0.935556  0.553187  1
  Ni  Ni12  1  0.250000  0.597979  0.696363  1
  Ni  Ni13  1  0.750000  0.402021  0.303637  1
  Ni  Ni14  1  0.250000  0.583632  0.006947  1
  Ni  Ni15  1  0.750000  0.416368  0.993053  1
  Ni  Ni16  1  0.250000  0.578666  0.510288  1
  Ni  Ni17  1  0.750000  0.421334  0.489712  1
  Ni  Ni18  1  0.250000  0.298815  0.918165  1
  Ni  Ni19  1  0.750000  0.701185  0.081835  1
  Ni  Ni20  1  0.250000  0.993705  0.660365  1
  Ni  Ni21  1  0.750000  0.006295  0.339635  1
  Ni  Ni22  1  0.250000  0.839154  0.437759  1
  Ni  Ni23  1  0.750000  0.160846  0.562241  1
  Ni  Ni24  1  0.250000  0.989661  0.848775  1
  Ni  Ni25  1  0.750000  0.010339  0.151225  1
  Ni  Ni26  1  0.250000  0.563612  0.203706  1
  Ni  Ni27  1  0.750000  0.436388  0.796294  1
  P  P28  1  0.250000  0.510125  0.870498  1
  P  P29  1  0.750000  0.489875  0.129502  1
  P  P30  1  0.250000  0.799922  0.983032  1
  P  P31  1  0.750000  0.200078  0.016968  1
  P  P32  1  0.250000  0.496128  0.377861  1
  P  P33  1  0.750000  0.503872  0.622139  1
  P  P34  1  0.250000  0.812661  0.611432  1
  P  P35  1  0.750000  0.187339  0.388568  1
  P  P36  1  0.250000  0.947939  0.259735  1
  P  P37  1  0.750000  0.052061  0.740265  1
