# generated using pymatgen
data_Pr5AlZnRu3
_symmetry_space_group_name_H-M   'P 1'
_cell_length_a   8.63842332
_cell_length_b   8.63842377
_cell_length_c   8.56339503
_cell_angle_alpha   109.49333207
_cell_angle_beta   109.44828621
_cell_angle_gamma   109.82430953
_symmetry_Int_Tables_number   1
_chemical_formula_structural   Pr5AlZnRu3
_chemical_formula_sum   'Pr10 Al2 Zn2 Ru6'
_cell_volume   489.76344001
_cell_formula_units_Z   2
loop_
 _symmetry_equiv_pos_site_id
 _symmetry_equiv_pos_as_xyz
  1  'x, y, z'
loop_
 _atom_site_type_symbol
 _atom_site_label
 _atom_site_symmetry_multiplicity
 _atom_site_fract_x
 _atom_site_fract_y
 _atom_site_fract_z
 _atom_site_occupancy
  Pr  Pr0  1  0.251327  0.684266  0.437191  1
  Pr  Pr1  1  0.747074  0.814135  0.062809  1
  Pr  Pr2  1  0.435328  0.251275  0.685700  1
  Pr  Pr3  1  0.684189  0.434189  0.250000  1
  Pr  Pr4  1  0.065575  0.749628  0.814300  1
  Pr  Pr5  1  0.813802  0.063802  0.750000  1
  Pr  Pr6  1  0.218775  0.219269  0.218287  1
  Pr  Pr7  1  0.500982  0.000488  0.281713  1
  Pr  Pr8  1  0.283609  0.500287  0.999524  1
  Pr  Pr9  1  0.000763  0.284085  0.500476  1
  Al  Al10  1  0.909855  0.500532  0.001467  1
  Al  Al11  1  0.999064  0.908387  0.498533  1
  Zn  Zn12  1  0.589484  0.588475  0.589152  1
  Zn  Zn13  1  0.499322  0.000332  0.910848  1
  Ru  Ru14  1  0.243207  0.119669  0.866654  1
  Ru  Ru15  1  0.753015  0.376553  0.633346  1
  Ru  Ru16  1  0.878305  0.257647  0.122963  1
  Ru  Ru17  1  0.117610  0.867609  0.250000  1
  Ru  Ru18  1  0.634684  0.755343  0.377037  1
  Ru  Ru19  1  0.374029  0.624029  0.750000  1
