# generated using pymatgen
data_Sr10OsW3N14
_symmetry_space_group_name_H-M   'P 1'
_cell_length_a   6.48825441
_cell_length_b   9.40215496
_cell_length_c   9.43399844
_cell_angle_alpha   115.76063552
_cell_angle_beta   97.54150195
_cell_angle_gamma   88.91695693
_symmetry_Int_Tables_number   1
_chemical_formula_structural   Sr10OsW3N14
_chemical_formula_sum   'Sr10 Os1 W3 N14'
_cell_volume   513.35988827
_cell_formula_units_Z   1
loop_
 _symmetry_equiv_pos_site_id
 _symmetry_equiv_pos_as_xyz
  1  'x, y, z'
loop_
 _atom_site_type_symbol
 _atom_site_label
 _atom_site_symmetry_multiplicity
 _atom_site_fract_x
 _atom_site_fract_y
 _atom_site_fract_z
 _atom_site_occupancy
  Sr  Sr0  1  0.844107  0.595035  0.319700  1
  Sr  Sr1  1  0.267097  0.989784  0.560852  1
  Sr  Sr2  1  0.686578  0.406776  0.839683  1
  Sr  Sr3  1  0.292067  0.587844  0.145449  1
  Sr  Sr4  1  0.400794  0.791103  0.922658  1
  Sr  Sr5  1  0.605508  0.206923  0.080210  1
  Sr  Sr6  1  0.147502  0.400877  0.676168  1
  Sr  Sr7  1  0.906503  0.845897  0.759470  1
  Sr  Sr8  1  0.127479  0.144492  0.243360  1
  Sr  Sr9  1  0.732619  0.013201  0.445937  1
  Os  Os10  1  0.589860  0.353794  0.463938  1
  W  W11  1  0.423871  0.640943  0.526535  1
  W  W12  1  0.120152  0.217673  0.919918  1
  W  W13  1  0.877290  0.784804  0.081240  1
  N  N14  1  0.493624  0.546601  0.672331  1
  N  N15  1  0.471184  0.456226  0.327662  1
  N  N16  1  0.151233  0.706483  0.536641  1
  N  N17  1  0.839294  0.275749  0.423148  1
  N  N18  1  0.433732  0.206632  0.508156  1
  N  N19  1  0.591603  0.810666  0.546680  1
  N  N20  1  0.955600  0.141159  0.717732  1
  N  N21  1  0.049922  0.873092  0.280337  1
  N  N22  1  0.232999  0.051582  0.963606  1
  N  N23  1  0.767082  0.944145  0.028884  1
  N  N24  1  0.350607  0.332022  0.912391  1
  N  N25  1  0.964477  0.350172  0.081888  1
  N  N26  1  0.032898  0.651547  0.918656  1
  N  N27  1  0.644317  0.674781  0.096774  1
