# generated using pymatgen
data_Sm3Er3Al17Si7Os8
_symmetry_space_group_name_H-M   'P 1'
_cell_length_a   8.71756309
_cell_length_b   8.70317799
_cell_length_c   9.52215200
_cell_angle_alpha   90.00000000
_cell_angle_beta   90.00000000
_cell_angle_gamma   120.12465726
_symmetry_Int_Tables_number   1
_chemical_formula_structural   Sm3Er3Al17Si7Os8
_chemical_formula_sum   'Sm3 Er3 Al17 Si7 Os8'
_cell_volume   624.87306424
_cell_formula_units_Z   1
loop_
 _symmetry_equiv_pos_site_id
 _symmetry_equiv_pos_as_xyz
  1  'x, y, z'
loop_
 _atom_site_type_symbol
 _atom_site_label
 _atom_site_symmetry_multiplicity
 _atom_site_fract_x
 _atom_site_fract_y
 _atom_site_fract_z
 _atom_site_occupancy
  Sm  Sm0  1  0.809128  0.618000  0.750000  1
  Sm  Sm1  1  0.383674  0.189062  0.750000  1
  Sm  Sm2  1  0.804727  0.189912  0.750000  1
  Er  Er3  1  0.193131  0.389105  0.250000  1
  Er  Er4  1  0.609942  0.806857  0.250000  1
  Er  Er5  1  0.196341  0.804640  0.250000  1
  Al  Al6  1  0.165185  0.331338  0.574618  1
  Al  Al7  1  0.834529  0.671897  0.419100  1
  Al  Al8  1  0.669898  0.834385  0.573946  1
  Al  Al9  1  0.834529  0.671897  0.080900  1
  Al  Al10  1  0.328961  0.165524  0.420403  1
  Al  Al11  1  0.165185  0.331338  0.925382  1
  Al  Al12  1  0.164433  0.833564  0.572628  1
  Al  Al13  1  0.328961  0.165524  0.079597  1
  Al  Al14  1  0.835839  0.163591  0.419978  1
  Al  Al15  1  0.669898  0.834385  0.926054  1
  Al  Al16  1  0.835839  0.163591  0.080022  1
  Al  Al17  1  0.164433  0.833564  0.927372  1
  Al  Al18  1  0.127577  0.566830  0.750000  1
  Al  Al19  1  0.564067  0.435464  0.250000  1
  Al  Al20  1  0.438414  0.567429  0.750000  1
  Al  Al21  1  0.999799  0.999238  0.250000  1
  Al  Al22  1  0.999655  0.001040  0.750000  1
  Si  Si23  1  0.333441  0.664611  0.041759  1
  Si  Si24  1  0.666311  0.335767  0.964243  1
  Si  Si25  1  0.666311  0.335767  0.535757  1
  Si  Si26  1  0.333441  0.664611  0.458241  1
  Si  Si27  1  0.564559  0.123661  0.250000  1
  Si  Si28  1  0.435434  0.871196  0.750000  1
  Si  Si29  1  0.875340  0.434873  0.250000  1
  Os  Os30  1  0.500268  0.999657  0.003748  1
  Os  Os31  1  0.999549  0.499849  0.008884  1
  Os  Os32  1  0.500268  0.999657  0.496252  1
  Os  Os33  1  0.499979  0.500760  0.002455  1
  Os  Os34  1  0.999549  0.499849  0.491116  1
  Os  Os35  1  0.499979  0.500760  0.497545  1
  Os  Os36  1  0.000713  0.000405  0.000175  1
  Os  Os37  1  0.000713  0.000405  0.499825  1
