# generated using pymatgen
data_U4FeCo3B16
_symmetry_space_group_name_H-M   'P 1'
_cell_length_a   3.37326900
_cell_length_b   5.88587311
_cell_length_c   11.42058621
_cell_angle_alpha   90.02196213
_cell_angle_beta   90.00000000
_cell_angle_gamma   90.00000000
_symmetry_Int_Tables_number   1
_chemical_formula_structural   U4FeCo3B16
_chemical_formula_sum   'U4 Fe1 Co3 B16'
_cell_volume   226.75153453
_cell_formula_units_Z   1
loop_
 _symmetry_equiv_pos_site_id
 _symmetry_equiv_pos_as_xyz
  1  'x, y, z'
loop_
 _atom_site_type_symbol
 _atom_site_label
 _atom_site_symmetry_multiplicity
 _atom_site_fract_x
 _atom_site_fract_y
 _atom_site_fract_z
 _atom_site_occupancy
  U  U0  1  0.000000  0.627487  0.349793  1
  U  U1  1  0.000000  0.373547  0.649763  1
  U  U2  1  0.000000  0.127086  0.150589  1
  U  U3  1  0.000000  0.872912  0.849245  1
  Fe  Fe4  1  0.000000  0.867301  0.587994  1
  Co  Co5  1  0.000000  0.631930  0.087146  1
  Co  Co6  1  0.000000  0.367926  0.912338  1
  Co  Co7  1  0.000000  0.133478  0.412408  1
  B  B8  1  0.500000  0.784137  0.187191  1
  B  B9  1  0.500000  0.216259  0.813405  1
  B  B10  1  0.500000  0.283980  0.312960  1
  B  B11  1  0.500000  0.716906  0.686147  1
  B  B12  1  0.500000  0.864979  0.034027  1
  B  B13  1  0.500000  0.134863  0.966174  1
  B  B14  1  0.500000  0.364636  0.465984  1
  B  B15  1  0.500000  0.635923  0.533927  1
  B  B16  1  0.500000  0.885775  0.454406  1
  B  B17  1  0.500000  0.112286  0.546667  1
  B  B18  1  0.500000  0.386338  0.046346  1
  B  B19  1  0.500000  0.613668  0.953929  1
  B  B20  1  0.500000  0.974494  0.307832  1
  B  B21  1  0.500000  0.024666  0.691235  1
  B  B22  1  0.500000  0.474728  0.192193  1
  B  B23  1  0.500000  0.524696  0.808304  1
