# generated using pymatgen
data_Nd2AlSi13Ir6
_symmetry_space_group_name_H-M   'P 1'
_cell_length_a   8.09231766
_cell_length_b   8.09231822
_cell_length_c   8.09231672
_cell_angle_alpha   56.95995158
_cell_angle_beta   56.95995005
_cell_angle_gamma   56.95994670
_symmetry_Int_Tables_number   1
_chemical_formula_structural   Nd2AlSi13Ir6
_chemical_formula_sum   'Nd2 Al1 Si13 Ir6'
_cell_volume   348.44570365
_cell_formula_units_Z   1
loop_
 _symmetry_equiv_pos_site_id
 _symmetry_equiv_pos_as_xyz
  1  'x, y, z'
loop_
 _atom_site_type_symbol
 _atom_site_label
 _atom_site_symmetry_multiplicity
 _atom_site_fract_x
 _atom_site_fract_y
 _atom_site_fract_z
 _atom_site_occupancy
  Nd  Nd0  1  0.999240  0.999240  0.999240  1
  Nd  Nd1  1  0.500760  0.500760  0.500760  1
  Al  Al2  1  0.750000  0.750000  0.750000  1
  Si  Si3  1  0.250000  0.250000  0.250000  1
  Si  Si4  1  0.849944  0.063583  0.671466  1
  Si  Si5  1  0.671466  0.849944  0.063583  1
  Si  Si6  1  0.063583  0.671466  0.849944  1
  Si  Si7  1  0.650056  0.828534  0.436417  1
  Si  Si8  1  0.436417  0.650056  0.828534  1
  Si  Si9  1  0.828534  0.436417  0.650056  1
  Si  Si10  1  0.170506  0.561072  0.355517  1
  Si  Si11  1  0.561072  0.355517  0.170506  1
  Si  Si12  1  0.355517  0.170506  0.561072  1
  Si  Si13  1  0.938928  0.329494  0.144483  1
  Si  Si14  1  0.329494  0.144483  0.938928  1
  Si  Si15  1  0.144483  0.938928  0.329494  1
  Ir  Ir16  1  0.079071  0.420929  0.750000  1
  Ir  Ir17  1  0.250000  0.930874  0.569126  1
  Ir  Ir18  1  0.569126  0.250000  0.930874  1
  Ir  Ir19  1  0.930874  0.569126  0.250000  1
  Ir  Ir20  1  0.420929  0.750000  0.079071  1
  Ir  Ir21  1  0.750000  0.079071  0.420929  1
