# generated using pymatgen
data_Li4CePr2Si3Ge
_symmetry_space_group_name_H-M   'P 1'
_cell_length_a   4.42000224
_cell_length_b   6.79826702
_cell_length_c   8.36877692
_cell_angle_alpha   113.96437687
_cell_angle_beta   105.31212413
_cell_angle_gamma   89.99999832
_symmetry_Int_Tables_number   1
_chemical_formula_structural   Li4CePr2Si3Ge
_chemical_formula_sum   'Li4 Ce1 Pr2 Si3 Ge1'
_cell_volume   219.98639289
_cell_formula_units_Z   1
loop_
 _symmetry_equiv_pos_site_id
 _symmetry_equiv_pos_as_xyz
  1  'x, y, z'
loop_
 _atom_site_type_symbol
 _atom_site_label
 _atom_site_symmetry_multiplicity
 _atom_site_fract_x
 _atom_site_fract_y
 _atom_site_fract_z
 _atom_site_occupancy
  Li  Li0  1  0.669818  0.978513  0.339635  1
  Li  Li1  1  0.330448  0.018805  0.660895  1
  Li  Li2  1  0.330448  0.642091  0.660895  1
  Li  Li3  1  0.669818  0.361122  0.339635  1
  Ce  Ce4  1  0.867493  0.367493  0.734985  1
  Pr  Pr5  1  0.999449  0.999449  0.998899  1
  Pr  Pr6  1  0.132064  0.632064  0.264130  1
  Si  Si7  1  0.497232  0.672153  0.994465  1
  Si  Si8  1  0.497232  0.322312  0.994465  1
  Si  Si9  1  0.788495  0.788495  0.576992  1
  Ge  Ge10  1  0.217501  0.217501  0.435003  1
