# generated using pymatgen
data_Dy5Ho4Tm7(InIr)4
_symmetry_space_group_name_H-M   'P 1'
_cell_length_a   9.61913103
_cell_length_b   9.60606575
_cell_length_c   9.60606439
_cell_angle_alpha   59.98940381
_cell_angle_beta   59.95500064
_cell_angle_gamma   59.95500010
_symmetry_Int_Tables_number   1
_chemical_formula_structural   Dy5Ho4Tm7(InIr)4
_chemical_formula_sum   'Dy5 Ho4 Tm7 In4 Ir4'
_cell_volume   627.16442966
_cell_formula_units_Z   1
loop_
 _symmetry_equiv_pos_site_id
 _symmetry_equiv_pos_as_xyz
  1  'x, y, z'
loop_
 _atom_site_type_symbol
 _atom_site_label
 _atom_site_symmetry_multiplicity
 _atom_site_fract_x
 _atom_site_fract_y
 _atom_site_fract_z
 _atom_site_occupancy
  Dy  Dy0  1  0.809052  0.190948  0.190948  1
  Dy  Dy1  1  0.810456  0.189225  0.810641  1
  Dy  Dy2  1  0.189677  0.810641  0.189225  1
  Dy  Dy3  1  0.810456  0.810641  0.189225  1
  Dy  Dy4  1  0.189677  0.189225  0.810641  1
  Ho  Ho5  1  0.598398  0.599004  0.599004  1
  Ho  Ho6  1  0.598627  0.600358  0.202388  1
  Ho  Ho7  1  0.598627  0.202388  0.600358  1
  Ho  Ho8  1  0.203595  0.599004  0.599004  1
  Tm  Tm9  1  0.060806  0.439194  0.439194  1
  Tm  Tm10  1  0.439241  0.060759  0.060759  1
  Tm  Tm11  1  0.439564  0.059905  0.439686  1
  Tm  Tm12  1  0.060845  0.439686  0.059905  1
  Tm  Tm13  1  0.439564  0.439686  0.059905  1
  Tm  Tm14  1  0.060845  0.059905  0.439686  1
  Tm  Tm15  1  0.190437  0.809563  0.809563  1
  In  In16  1  0.834559  0.832618  0.832618  1
  In  In17  1  0.832742  0.832577  0.501939  1
  In  In18  1  0.832742  0.501939  0.832577  1
  In  In19  1  0.500204  0.832618  0.832618  1
  Ir  Ir20  1  0.391124  0.390438  0.390438  1
  Ir  Ir21  1  0.390382  0.391531  0.827705  1
  Ir  Ir22  1  0.390382  0.827705  0.391531  1
  Ir  Ir23  1  0.828001  0.390438  0.390438  1
