# generated using pymatgen
data_Zr6Be16Pt7
_symmetry_space_group_name_H-M   'P 1'
_cell_length_a   8.09159623
_cell_length_b   8.09163333
_cell_length_c   8.09163100
_cell_angle_alpha   60.00124431
_cell_angle_beta   60.00184259
_cell_angle_gamma   60.00164750
_symmetry_Int_Tables_number   1
_chemical_formula_structural   Zr6Be16Pt7
_chemical_formula_sum   'Zr6 Be16 Pt7'
_cell_volume   374.63384370
_cell_formula_units_Z   1
loop_
 _symmetry_equiv_pos_site_id
 _symmetry_equiv_pos_as_xyz
  1  'x, y, z'
loop_
 _atom_site_type_symbol
 _atom_site_label
 _atom_site_symmetry_multiplicity
 _atom_site_fract_x
 _atom_site_fract_y
 _atom_site_fract_z
 _atom_site_occupancy
  Zr  Zr0  1  0.710619  0.710623  0.289379  1
  Zr  Zr1  1  0.289377  0.710624  0.289374  1
  Zr  Zr2  1  0.710623  0.289375  0.289378  1
  Zr  Zr3  1  0.289381  0.289377  0.710621  1
  Zr  Zr4  1  0.710623  0.289376  0.710626  1
  Zr  Zr5  1  0.289377  0.710625  0.710622  1
  Be  Be6  1  0.873003  0.873013  0.380968  1
  Be  Be7  1  0.873014  0.380969  0.873012  1
  Be  Be8  1  0.380969  0.873012  0.873005  1
  Be  Be9  1  0.873014  0.873008  0.873012  1
  Be  Be10  1  0.126997  0.126987  0.619032  1
  Be  Be11  1  0.126986  0.619031  0.126988  1
  Be  Be12  1  0.619031  0.126988  0.126995  1
  Be  Be13  1  0.126986  0.126992  0.126988  1
  Be  Be14  1  0.673548  0.673543  0.979360  1
  Be  Be15  1  0.673541  0.979367  0.673541  1
  Be  Be16  1  0.979365  0.673541  0.673548  1
  Be  Be17  1  0.673539  0.673548  0.673537  1
  Be  Be18  1  0.326452  0.326457  0.020640  1
  Be  Be19  1  0.326459  0.020633  0.326459  1
  Be  Be20  1  0.020635  0.326459  0.326452  1
  Be  Be21  1  0.326461  0.326452  0.326463  1
  Pt  Pt22  1  0.000000  0.000000  0.000000  1
  Pt  Pt23  1  0.000000  0.000000  0.500000  1
  Pt  Pt24  1  0.500000  0.000000  0.500000  1
  Pt  Pt25  1  0.000000  0.500000  0.500000  1
  Pt  Pt26  1  0.500000  0.500000  0.000000  1
  Pt  Pt27  1  0.000000  0.500000  0.000000  1
  Pt  Pt28  1  0.500000  0.000000  0.000000  1
