# generated using pymatgen
data_Tb2Yb3Pr(CoSn6)2
_symmetry_space_group_name_H-M   'P 1'
_cell_length_a   8.46296704
_cell_length_b   8.46296706
_cell_length_c   13.30829956
_cell_angle_alpha   90.16982389
_cell_angle_beta   89.83018281
_cell_angle_gamma   148.02659896
_symmetry_Int_Tables_number   1
_chemical_formula_structural   Tb2Yb3Pr(CoSn6)2
_chemical_formula_sum   'Tb2 Yb3 Pr1 Co2 Sn12'
_cell_volume   504.72252919
_cell_formula_units_Z   1
loop_
 _symmetry_equiv_pos_site_id
 _symmetry_equiv_pos_as_xyz
  1  'x, y, z'
loop_
 _atom_site_type_symbol
 _atom_site_label
 _atom_site_symmetry_multiplicity
 _atom_site_fract_x
 _atom_site_fract_y
 _atom_site_fract_z
 _atom_site_occupancy
  Tb  Tb0  1  0.901121  0.098879  0.754081  1
  Tb  Tb1  1  0.099366  0.900634  0.248549  1
  Yb  Yb2  1  0.100699  0.899301  0.597020  1
  Yb  Yb3  1  0.101088  0.898912  0.903397  1
  Yb  Yb4  1  0.899652  0.100348  0.403230  1
  Pr  Pr5  1  0.898971  0.101029  0.093816  1
  Co  Co6  1  0.298730  0.701270  0.250395  1
  Co  Co7  1  0.702624  0.297376  0.749483  1
  Sn  Sn8  1  0.758066  0.241934  0.572101  1
  Sn  Sn9  1  0.426537  0.573463  0.578867  1
  Sn  Sn10  1  0.572977  0.427023  0.422963  1
  Sn  Sn11  1  0.733221  0.266779  0.249273  1
  Sn  Sn12  1  0.266532  0.733468  0.749985  1
  Sn  Sn13  1  0.240642  0.759358  0.072231  1
  Sn  Sn14  1  0.242904  0.757096  0.427860  1
  Sn  Sn15  1  0.572285  0.427715  0.076006  1
  Sn  Sn16  1  0.455565  0.544435  0.251114  1
  Sn  Sn17  1  0.545964  0.454036  0.749779  1
  Sn  Sn18  1  0.755713  0.244287  0.927738  1
  Sn  Sn19  1  0.427340  0.572660  0.922116  1
