# generated using pymatgen
data_Sm2TmLu5(WO6)4
_symmetry_space_group_name_H-M   'P 1'
_cell_length_a   5.36496300
_cell_length_b   7.65721955
_cell_length_c   11.38651590
_cell_angle_alpha   75.33825565
_cell_angle_beta   90.00000000
_cell_angle_gamma   90.00000000
_symmetry_Int_Tables_number   1
_chemical_formula_structural   Sm2TmLu5(WO6)4
_chemical_formula_sum   'Sm2 Tm1 Lu5 W4 O24'
_cell_volume   452.53415840
_cell_formula_units_Z   1
loop_
 _symmetry_equiv_pos_site_id
 _symmetry_equiv_pos_as_xyz
  1  'x, y, z'
loop_
 _atom_site_type_symbol
 _atom_site_label
 _atom_site_symmetry_multiplicity
 _atom_site_fract_x
 _atom_site_fract_y
 _atom_site_fract_z
 _atom_site_occupancy
  Sm  Sm0  1  0.314342  0.500000  0.750000  1
  Sm  Sm1  1  0.685852  0.500000  0.250000  1
  Tm  Tm2  1  0.256649  0.000000  0.750000  1
  Lu  Lu3  1  0.184153  0.796847  0.078237  1
  Lu  Lu4  1  0.184153  0.203153  0.421763  1
  Lu  Lu5  1  0.742900  0.000000  0.250000  1
  Lu  Lu6  1  0.815705  0.203252  0.922030  1
  Lu  Lu7  1  0.815705  0.796748  0.577970  1
  W  W8  1  0.744609  0.727287  0.884853  1
  W  W9  1  0.255438  0.727648  0.384676  1
  W  W10  1  0.744609  0.272713  0.615147  1
  W  W11  1  0.255438  0.272352  0.115324  1
  O  O12  1  0.541548  0.154508  0.069297  1
  O  O13  1  0.041641  0.056264  0.104342  1
  O  O14  1  0.016197  0.719161  0.768364  1
  O  O15  1  0.458824  0.155073  0.568762  1
  O  O16  1  0.350386  0.489539  0.387127  1
  O  O17  1  0.956922  0.056488  0.603603  1
  O  O18  1  0.543438  0.796834  0.724549  1
  O  O19  1  0.457884  0.797862  0.224591  1
  O  O20  1  0.143689  0.639853  0.547911  1
  O  O21  1  0.041641  0.943736  0.395658  1
  O  O22  1  0.458824  0.844927  0.931238  1
  O  O23  1  0.457884  0.202138  0.275409  1
  O  O24  1  0.856541  0.360424  0.451998  1
  O  O25  1  0.649469  0.489338  0.887271  1
  O  O26  1  0.350386  0.510461  0.112873  1
  O  O27  1  0.956922  0.943512  0.896397  1
  O  O28  1  0.541548  0.845492  0.430703  1
  O  O29  1  0.983684  0.280389  0.231704  1
  O  O30  1  0.543438  0.203166  0.775451  1
  O  O31  1  0.856541  0.639576  0.048002  1
  O  O32  1  0.016197  0.280839  0.731636  1
  O  O33  1  0.143689  0.360147  0.952089  1
  O  O34  1  0.983684  0.719611  0.268296  1
  O  O35  1  0.649469  0.510662  0.612729  1
