# generated using pymatgen
data_ScTaV4(B2Ru5)2
_symmetry_space_group_name_H-M   'P 1'
_cell_length_a   9.22530000
_cell_length_b   9.22529999
_cell_length_c   2.96672400
_cell_angle_alpha   90.00000000
_cell_angle_beta   90.00000000
_cell_angle_gamma   90.07053519
_symmetry_Int_Tables_number   1
_chemical_formula_structural   ScTaV4(B2Ru5)2
_chemical_formula_sum   'Sc1 Ta1 V4 B4 Ru10'
_cell_volume   252.48629610
_cell_formula_units_Z   1
loop_
 _symmetry_equiv_pos_site_id
 _symmetry_equiv_pos_as_xyz
  1  'x, y, z'
loop_
 _atom_site_type_symbol
 _atom_site_label
 _atom_site_symmetry_multiplicity
 _atom_site_fract_x
 _atom_site_fract_y
 _atom_site_fract_z
 _atom_site_occupancy
  Sc  Sc0  1  0.823131  0.676869  0.000000  1
  Ta  Ta1  1  0.177674  0.322326  0.000000  1
  V  V2  1  0.324413  0.821975  0.000000  1
  V  V3  1  0.678025  0.175587  0.000000  1
  V  V4  1  0.502062  0.501200  0.000000  1
  V  V5  1  0.998800  0.997938  0.000000  1
  B  B6  1  0.623406  0.876594  0.000000  1
  B  B7  1  0.376711  0.123289  0.000000  1
  B  B8  1  0.123778  0.624644  0.000000  1
  B  B9  1  0.875356  0.376222  0.000000  1
  Ru  Ru10  1  0.560292  0.716278  0.500000  1
  Ru  Ru11  1  0.431750  0.286933  0.500000  1
  Ru  Ru12  1  0.080098  0.790507  0.500000  1
  Ru  Ru13  1  0.927450  0.210644  0.500000  1
  Ru  Ru14  1  0.289356  0.572550  0.500000  1
  Ru  Ru15  1  0.709493  0.419902  0.500000  1
  Ru  Ru16  1  0.213067  0.068250  0.500000  1
  Ru  Ru17  1  0.783722  0.939708  0.500000  1
  Ru  Ru18  1  0.498692  0.001308  0.500000  1
  Ru  Ru19  1  0.002727  0.497273  0.500000  1
