# generated using pymatgen
data_ErLuCo12SiP6
_symmetry_space_group_name_H-M   'P 1'
_cell_length_a   8.96836800
_cell_length_b   8.96836742
_cell_length_c   3.56431400
_cell_angle_alpha   90.00000000
_cell_angle_beta   90.00000000
_cell_angle_gamma   119.99998740
_symmetry_Int_Tables_number   1
_chemical_formula_structural   ErLuCo12SiP6
_chemical_formula_sum   'Er1 Lu1 Co12 Si1 P6'
_cell_volume   248.27526600
_cell_formula_units_Z   1
loop_
 _symmetry_equiv_pos_site_id
 _symmetry_equiv_pos_as_xyz
  1  'x, y, z'
loop_
 _atom_site_type_symbol
 _atom_site_label
 _atom_site_symmetry_multiplicity
 _atom_site_fract_x
 _atom_site_fract_y
 _atom_site_fract_z
 _atom_site_occupancy
  Er  Er0  1  0.333333  0.666667  0.000000  1
  Lu  Lu1  1  0.666667  0.333333  0.500000  1
  Co  Co2  1  0.121832  0.839632  0.000000  1
  Co  Co3  1  0.386690  0.436206  0.500000  1
  Co  Co4  1  0.717799  0.878168  0.000000  1
  Co  Co5  1  0.563794  0.950484  0.500000  1
  Co  Co6  1  0.229016  0.099438  0.500000  1
  Co  Co7  1  0.870421  0.770984  0.500000  1
  Co  Co8  1  0.900562  0.129579  0.500000  1
  Co  Co9  1  0.938204  0.372828  0.000000  1
  Co  Co10  1  0.627172  0.565376  0.000000  1
  Co  Co11  1  0.434624  0.061796  0.000000  1
  Co  Co12  1  0.049516  0.613310  0.500000  1
  Co  Co13  1  0.160368  0.282201  0.000000  1
  Si  Si14  1  0.000000  0.000000  0.000000  1
  P  P15  1  0.597206  0.710397  0.500000  1
  P  P16  1  0.705727  0.114472  0.000000  1
  P  P17  1  0.885528  0.591255  0.000000  1
  P  P18  1  0.408745  0.294273  0.000000  1
  P  P19  1  0.289603  0.886809  0.500000  1
  P  P20  1  0.113191  0.402794  0.500000  1
