# generated using pymatgen
data_La2CuP4Ir2Pd
_symmetry_space_group_name_H-M   'P 1'
_cell_length_a   4.27698200
_cell_length_b   4.27698200
_cell_length_c   9.61167500
_cell_angle_alpha   90.00000000
_cell_angle_beta   90.00000000
_cell_angle_gamma   90.00000000
_symmetry_Int_Tables_number   1
_chemical_formula_structural   La2CuP4Ir2Pd
_chemical_formula_sum   'La2 Cu1 P4 Ir2 Pd1'
_cell_volume   175.82228609
_cell_formula_units_Z   1
loop_
 _symmetry_equiv_pos_site_id
 _symmetry_equiv_pos_as_xyz
  1  'x, y, z'
loop_
 _atom_site_type_symbol
 _atom_site_label
 _atom_site_symmetry_multiplicity
 _atom_site_fract_x
 _atom_site_fract_y
 _atom_site_fract_z
 _atom_site_occupancy
  La  La0  1  0.000000  0.500000  0.245108  1
  La  La1  1  0.500000  0.000000  0.754892  1
  Cu  Cu2  1  0.000000  0.000000  0.500000  1
  P  P3  1  0.000000  0.000000  0.000000  1
  P  P4  1  0.500000  0.500000  0.000000  1
  P  P5  1  0.000000  0.500000  0.641546  1
  P  P6  1  0.500000  0.000000  0.358454  1
  Ir  Ir7  1  0.000000  0.500000  0.892299  1
  Ir  Ir8  1  0.500000  0.000000  0.107701  1
  Pd  Pd9  1  0.500000  0.500000  0.500000  1
