# generated using pymatgen
data_NaSi2Pt2Rh
_symmetry_space_group_name_H-M   'P 1'
_cell_length_a   6.70674221
_cell_length_b   6.70674132
_cell_length_c   5.69289012
_cell_angle_alpha   115.54516267
_cell_angle_beta   115.54516204
_cell_angle_gamma   64.14306277
_symmetry_Int_Tables_number   1
_chemical_formula_structural   NaSi2Pt2Rh
_chemical_formula_sum   'Na2 Si4 Pt4 Rh2'
_cell_volume   198.36401376
_cell_formula_units_Z   2
loop_
 _symmetry_equiv_pos_site_id
 _symmetry_equiv_pos_as_xyz
  1  'x, y, z'
loop_
 _atom_site_type_symbol
 _atom_site_label
 _atom_site_symmetry_multiplicity
 _atom_site_fract_x
 _atom_site_fract_y
 _atom_site_fract_z
 _atom_site_occupancy
  Na  Na0  1  0.501605  0.501605  0.018837  1
  Na  Na1  1  0.999414  0.999414  0.959536  1
  Si  Si2  1  0.838332  0.838332  0.296977  1
  Si  Si3  1  0.314455  0.314455  0.388217  1
  Si  Si4  1  0.161279  0.161279  0.597480  1
  Si  Si5  1  0.687572  0.687572  0.741763  1
  Pt  Pt6  1  0.728018  0.271181  0.497412  1
  Pt  Pt7  1  0.271181  0.728018  0.497412  1
  Pt  Pt8  1  0.458103  0.042123  0.997327  1
  Pt  Pt9  1  0.042123  0.458103  0.997327  1
  Rh  Rh10  1  0.959308  0.538489  0.496361  1
  Rh  Rh11  1  0.538489  0.959308  0.496361  1
