# generated using pymatgen
data_Pa4Tc7Sb6
_symmetry_space_group_name_H-M   'P 1'
_cell_length_a   7.49305330
_cell_length_b   7.50153305
_cell_length_c   7.50153100
_cell_angle_alpha   109.49410797
_cell_angle_beta   109.44832319
_cell_angle_gamma   109.44832380
_symmetry_Int_Tables_number   1
_chemical_formula_structural   Pa4Tc7Sb6
_chemical_formula_sum   'Pa4 Tc7 Sb6'
_cell_volume   324.68297208
_cell_formula_units_Z   1
loop_
 _symmetry_equiv_pos_site_id
 _symmetry_equiv_pos_as_xyz
  1  'x, y, z'
loop_
 _atom_site_type_symbol
 _atom_site_label
 _atom_site_symmetry_multiplicity
 _atom_site_fract_x
 _atom_site_fract_y
 _atom_site_fract_z
 _atom_site_occupancy
  Pa  Pa0  1  0.500000  0.000000  0.000000  1
  Pa  Pa1  1  0.500000  0.500000  0.500000  1
  Pa  Pa2  1  0.000000  0.000000  0.500000  1
  Pa  Pa3  1  0.000000  0.500000  0.000000  1
  Tc  Tc4  1  0.749941  0.249941  0.499881  1
  Tc  Tc5  1  0.500000  0.249941  0.750059  1
  Tc  Tc6  1  0.500000  0.750059  0.249941  1
  Tc  Tc7  1  0.250059  0.500119  0.750059  1
  Tc  Tc8  1  0.749941  0.499881  0.249941  1
  Tc  Tc9  1  0.250059  0.750059  0.500119  1
  Tc  Tc10  1  0.000000  0.000000  0.000000  1
  Sb  Sb11  1  0.309200  0.309421  0.000000  1
  Sb  Sb12  1  0.000221  0.309421  0.309421  1
  Sb  Sb13  1  0.999779  0.690579  0.690579  1
  Sb  Sb14  1  0.690800  0.000000  0.690579  1
  Sb  Sb15  1  0.309200  0.000000  0.309421  1
  Sb  Sb16  1  0.690800  0.690579  0.000000  1
