# generated using pymatgen
data_SmEu3Mn2Zn2O12
_symmetry_space_group_name_H-M   'P 1'
_cell_length_a   5.45637427
_cell_length_b   5.64959783
_cell_length_c   7.71782124
_cell_angle_alpha   89.94051994
_cell_angle_beta   89.92030708
_cell_angle_gamma   90.34942701
_symmetry_Int_Tables_number   1
_chemical_formula_structural   SmEu3Mn2Zn2O12
_chemical_formula_sum   'Sm1 Eu3 Mn2 Zn2 O12'
_cell_volume   237.90724450
_cell_formula_units_Z   1
loop_
 _symmetry_equiv_pos_site_id
 _symmetry_equiv_pos_as_xyz
  1  'x, y, z'
loop_
 _atom_site_type_symbol
 _atom_site_label
 _atom_site_symmetry_multiplicity
 _atom_site_fract_x
 _atom_site_fract_y
 _atom_site_fract_z
 _atom_site_occupancy
  Sm  Sm0  1  0.512824  0.561949  0.251544  1
  Eu  Eu1  1  0.990457  0.054498  0.249778  1
  Eu  Eu2  1  0.490505  0.447151  0.750184  1
  Eu  Eu3  1  0.010463  0.943724  0.750192  1
  Mn  Mn4  1  0.000752  0.498836  0.498991  1
  Mn  Mn5  1  0.499468  0.000948  0.000247  1
  Zn  Zn6  1  0.500668  0.003531  0.500946  1
  Zn  Zn7  1  0.000604  0.498551  0.999871  1
  O  O8  1  0.095929  0.470674  0.258492  1
  O  O9  1  0.591734  0.029889  0.759822  1
  O  O10  1  0.909084  0.530181  0.740282  1
  O  O11  1  0.408168  0.969634  0.241474  1
  O  O12  1  0.292998  0.685106  0.542872  1
  O  O13  1  0.787262  0.811487  0.047872  1
  O  O14  1  0.708616  0.312737  0.453560  1
  O  O15  1  0.207387  0.184447  0.955242  1
  O  O16  1  0.183042  0.210051  0.547781  1
  O  O17  1  0.681707  0.291112  0.049364  1
  O  O18  1  0.812582  0.785507  0.448635  1
  O  O19  1  0.315749  0.709986  0.952850  1
