# generated using pymatgen
data_CaAc3(InAg)4
_symmetry_space_group_name_H-M   'P 1'
_cell_length_a   5.00778400
_cell_length_b   7.91784739
_cell_length_c   8.44067169
_cell_angle_alpha   90.40814439
_cell_angle_beta   90.00000000
_cell_angle_gamma   90.00000000
_symmetry_Int_Tables_number   1
_chemical_formula_structural   CaAc3(InAg)4
_chemical_formula_sum   'Ca1 Ac3 In4 Ag4'
_cell_volume   334.67147982
_cell_formula_units_Z   1
loop_
 _symmetry_equiv_pos_site_id
 _symmetry_equiv_pos_as_xyz
  1  'x, y, z'
loop_
 _atom_site_type_symbol
 _atom_site_label
 _atom_site_symmetry_multiplicity
 _atom_site_fract_x
 _atom_site_fract_y
 _atom_site_fract_z
 _atom_site_occupancy
  Ca  Ca0  1  0.750000  0.491441  0.790868  1
  Ac  Ac1  1  0.250000  0.007658  0.293229  1
  Ac  Ac2  1  0.250000  0.506759  0.199064  1
  Ac  Ac3  1  0.750000  0.991405  0.708830  1
  In  In4  1  0.750000  0.317163  0.423383  1
  In  In5  1  0.250000  0.191064  0.913555  1
  In  In6  1  0.750000  0.807974  0.081017  1
  In  In7  1  0.250000  0.683347  0.588385  1
  Ag  Ag8  1  0.750000  0.208063  0.083733  1
  Ag  Ag9  1  0.750000  0.701609  0.415036  1
  Ag  Ag10  1  0.250000  0.793267  0.911097  1
  Ag  Ag11  1  0.250000  0.300248  0.591804  1
