# generated using pymatgen
data_Yb2Gd(SiIr)2
_symmetry_space_group_name_H-M   'P 1'
_cell_length_a   5.68358247
_cell_length_b   5.68358104
_cell_length_c   13.12774100
_cell_angle_alpha   92.03072433
_cell_angle_beta   87.96927618
_cell_angle_gamma   137.07698842
_symmetry_Int_Tables_number   1
_chemical_formula_structural   Yb2Gd(SiIr)2
_chemical_formula_sum   'Yb4 Gd2 Si4 Ir4'
_cell_volume   288.58641301
_cell_formula_units_Z   2
loop_
 _symmetry_equiv_pos_site_id
 _symmetry_equiv_pos_as_xyz
  1  'x, y, z'
loop_
 _atom_site_type_symbol
 _atom_site_label
 _atom_site_symmetry_multiplicity
 _atom_site_fract_x
 _atom_site_fract_y
 _atom_site_fract_z
 _atom_site_occupancy
  Yb  Yb0  1  0.523172  0.476828  0.248316  1
  Yb  Yb1  1  0.769244  0.230756  0.894940  1
  Yb  Yb2  1  0.476828  0.523172  0.751684  1
  Yb  Yb3  1  0.230756  0.769244  0.105060  1
  Gd  Gd4  1  0.769730  0.230270  0.607266  1
  Gd  Gd5  1  0.230270  0.769730  0.392734  1
  Si  Si6  1  0.062177  0.937823  0.587832  1
  Si  Si7  1  0.061380  0.938620  0.913025  1
  Si  Si8  1  0.937823  0.062177  0.412168  1
  Si  Si9  1  0.938620  0.061380  0.086975  1
  Ir  Ir10  1  0.826577  0.173423  0.249725  1
  Ir  Ir11  1  0.173423  0.826577  0.750275  1
  Ir  Ir12  1  0.500000  0.500000  0.000000  1
  Ir  Ir13  1  0.500000  0.500000  0.500000  1
