# generated using pymatgen
data_PrEuIn8Ir
_symmetry_space_group_name_H-M   'P 1'
_cell_length_a   4.73360400
_cell_length_b   4.73360400
_cell_length_c   12.38562500
_cell_angle_alpha   90.00000000
_cell_angle_beta   90.00000000
_cell_angle_gamma   90.00000000
_symmetry_Int_Tables_number   1
_chemical_formula_structural   PrEuIn8Ir
_chemical_formula_sum   'Pr1 Eu1 In8 Ir1'
_cell_volume   277.52478395
_cell_formula_units_Z   1
loop_
 _symmetry_equiv_pos_site_id
 _symmetry_equiv_pos_as_xyz
  1  'x, y, z'
loop_
 _atom_site_type_symbol
 _atom_site_label
 _atom_site_symmetry_multiplicity
 _atom_site_fract_x
 _atom_site_fract_y
 _atom_site_fract_z
 _atom_site_occupancy
  Pr  Pr0  1  0.500000  0.500000  0.195335  1
  Eu  Eu1  1  0.500000  0.500000  0.806993  1
  In  In2  1  0.000000  0.500000  0.621516  1
  In  In3  1  0.000000  0.000000  0.190647  1
  In  In4  1  0.000000  0.500000  0.381714  1
  In  In5  1  0.500000  0.000000  0.621516  1
  In  In6  1  0.000000  0.000000  0.804963  1
  In  In7  1  0.500000  0.000000  0.381714  1
  In  In8  1  0.000000  0.500000  0.998133  1
  In  In9  1  0.500000  0.000000  0.998133  1
  Ir  Ir10  1  0.500000  0.500000  0.499336  1
