# generated using pymatgen
data_Tb6AlGa3Rh4
_symmetry_space_group_name_H-M   'P 1'
_cell_length_a   5.58322000
_cell_length_b   7.89094765
_cell_length_c   13.62273855
_cell_angle_alpha   90.09377888
_cell_angle_beta   90.00000000
_cell_angle_gamma   90.00000000
_symmetry_Int_Tables_number   1
_chemical_formula_structural   Tb6AlGa3Rh4
_chemical_formula_sum   'Tb12 Al2 Ga6 Rh8'
_cell_volume   600.17478162
_cell_formula_units_Z   2
loop_
 _symmetry_equiv_pos_site_id
 _symmetry_equiv_pos_as_xyz
  1  'x, y, z'
loop_
 _atom_site_type_symbol
 _atom_site_label
 _atom_site_symmetry_multiplicity
 _atom_site_fract_x
 _atom_site_fract_y
 _atom_site_fract_z
 _atom_site_occupancy
  Tb  Tb0  1  0.631187  0.264792  0.251464  1
  Tb  Tb1  1  0.368813  0.735208  0.748536  1
  Tb  Tb2  1  0.368813  0.764792  0.251464  1
  Tb  Tb3  1  0.631187  0.235208  0.748536  1
  Tb  Tb4  1  0.147871  0.400701  0.098736  1
  Tb  Tb5  1  0.852129  0.599299  0.901264  1
  Tb  Tb6  1  0.848036  0.599605  0.597277  1
  Tb  Tb7  1  0.848036  0.900395  0.402723  1
  Tb  Tb8  1  0.151964  0.400395  0.402723  1
  Tb  Tb9  1  0.151964  0.099605  0.597277  1
  Tb  Tb10  1  0.147871  0.099299  0.901264  1
  Tb  Tb11  1  0.852129  0.900701  0.098736  1
  Al  Al12  1  0.631536  0.250000  0.000000  1
  Al  Al13  1  0.368464  0.750000  0.000000  1
  Ga  Ga14  1  0.126321  0.111707  0.250647  1
  Ga  Ga15  1  0.873679  0.888293  0.749353  1
  Ga  Ga16  1  0.873679  0.611707  0.250647  1
  Ga  Ga17  1  0.126321  0.388293  0.749353  1
  Ga  Ga18  1  0.353126  0.750000  0.500000  1
  Ga  Ga19  1  0.646874  0.250000  0.500000  1
  Rh  Rh20  1  0.358480  0.035328  0.091892  1
  Rh  Rh21  1  0.641520  0.964672  0.908108  1
  Rh  Rh22  1  0.640514  0.961989  0.592977  1
  Rh  Rh23  1  0.640514  0.538011  0.407023  1
  Rh  Rh24  1  0.359486  0.038011  0.407023  1
  Rh  Rh25  1  0.359486  0.461989  0.592977  1
  Rh  Rh26  1  0.358480  0.464672  0.908108  1
  Rh  Rh27  1  0.641520  0.535328  0.091892  1
