# generated using pymatgen
data_Ti8Al10Co2(SiOs)5
_symmetry_space_group_name_H-M   'P 1'
_cell_length_a   8.51977808
_cell_length_b   8.51977832
_cell_length_c   8.51977730
_cell_angle_alpha   120.55412981
_cell_angle_beta   119.43368155
_cell_angle_gamma   90.01329010
_symmetry_Int_Tables_number   1
_chemical_formula_structural   Ti8Al10Co2(SiOs)5
_chemical_formula_sum   'Ti8 Al10 Co2 Si5 Os5'
_cell_volume   437.27831315
_cell_formula_units_Z   1
loop_
 _symmetry_equiv_pos_site_id
 _symmetry_equiv_pos_as_xyz
  1  'x, y, z'
loop_
 _atom_site_type_symbol
 _atom_site_label
 _atom_site_symmetry_multiplicity
 _atom_site_fract_x
 _atom_site_fract_y
 _atom_site_fract_z
 _atom_site_occupancy
  Ti  Ti0  1  0.801744  0.298093  0.090960  1
  Ti  Ti1  1  0.207133  0.298093  0.496349  1
  Ti  Ti2  1  0.202003  0.702003  0.500000  1
  Ti  Ti3  1  0.207133  0.710783  0.909040  1
  Ti  Ti4  1  0.801744  0.710783  0.503651  1
  Ti  Ti5  1  0.794470  0.294470  0.500000  1
  Ti  Ti6  1  0.376564  0.120397  0.743833  1
  Ti  Ti7  1  0.376564  0.632730  0.256167  1
  Al  Al8  1  0.843854  0.666942  0.823089  1
  Al  Al9  1  0.843854  0.020764  0.176911  1
  Al  Al10  1  0.839200  0.660872  0.178327  1
  Al  Al11  1  0.482545  0.660872  0.821673  1
  Al  Al12  1  0.376062  0.114732  0.261330  1
  Al  Al13  1  0.853403  0.114732  0.738670  1
  Al  Al14  1  0.619315  0.883809  0.264495  1
  Al  Al15  1  0.619315  0.354819  0.735505  1
  Al  Al16  1  0.617411  0.880699  0.736713  1
  Al  Al17  1  0.143984  0.880699  0.263287  1
  Co  Co18  1  0.007217  0.007217  0.000000  1
  Co  Co19  1  0.493643  0.993643  0.500000  1
  Si  Si20  1  0.998516  0.498516  0.500000  1
  Si  Si21  1  0.151452  0.333983  0.182529  1
  Si  Si22  1  0.151452  0.968923  0.817471  1
  Si  Si23  1  0.153507  0.350026  0.803482  1
  Si  Si24  1  0.546542  0.350026  0.196518  1
  Os  Os25  1  0.005516  0.006829  0.514228  1
  Os  Os26  1  0.492601  0.006829  0.001314  1
  Os  Os27  1  0.495142  0.495142  0.000000  1
  Os  Os28  1  0.492601  0.491287  0.485772  1
  Os  Os29  1  0.005516  0.491287  0.998686  1
