# generated using pymatgen
data_Yb12PdRu3
_symmetry_space_group_name_H-M   'P 1'
_cell_length_a   6.18344696
_cell_length_b   7.75706846
_cell_length_c   9.21705300
_cell_angle_alpha   90.00000000
_cell_angle_beta   90.00000000
_cell_angle_gamma   89.37147129
_symmetry_Int_Tables_number   1
_chemical_formula_structural   Yb12PdRu3
_chemical_formula_sum   'Yb12 Pd1 Ru3'
_cell_volume   442.07323024
_cell_formula_units_Z   1
loop_
 _symmetry_equiv_pos_site_id
 _symmetry_equiv_pos_as_xyz
  1  'x, y, z'
loop_
 _atom_site_type_symbol
 _atom_site_label
 _atom_site_symmetry_multiplicity
 _atom_site_fract_x
 _atom_site_fract_y
 _atom_site_fract_z
 _atom_site_occupancy
  Yb  Yb0  1  0.346387  0.665683  0.071156  1
  Yb  Yb1  1  0.151239  0.167469  0.431191  1
  Yb  Yb2  1  0.649614  0.324987  0.560028  1
  Yb  Yb3  1  0.855235  0.841694  0.938869  1
  Yb  Yb4  1  0.649614  0.324987  0.939972  1
  Yb  Yb5  1  0.855235  0.841694  0.561131  1
  Yb  Yb6  1  0.346387  0.665683  0.428844  1
  Yb  Yb7  1  0.151239  0.167469  0.068809  1
  Yb  Yb8  1  0.873759  0.538135  0.250000  1
  Yb  Yb9  1  0.624096  0.034070  0.250000  1
  Yb  Yb10  1  0.119343  0.456619  0.750000  1
  Yb  Yb11  1  0.368066  0.970836  0.750000  1
  Pd  Pd12  1  0.557566  0.626465  0.750000  1
  Ru  Ru13  1  0.050038  0.870867  0.250000  1
  Ru  Ru14  1  0.455151  0.373313  0.250000  1
  Ru  Ru15  1  0.947030  0.130026  0.750000  1
