# generated using pymatgen
data_CaNdNbFeO6
_symmetry_space_group_name_H-M   'P 1'
_cell_length_a   5.84628305
_cell_length_b   9.55684872
_cell_length_c   9.71461093
_cell_angle_alpha   70.56847697
_cell_angle_beta   90.01038437
_cell_angle_gamma   89.99368523
_symmetry_Int_Tables_number   1
_chemical_formula_structural   CaNdNbFeO6
_chemical_formula_sum   'Ca4 Nd4 Nb4 Fe4 O24'
_cell_volume   511.85854025
_cell_formula_units_Z   4
loop_
 _symmetry_equiv_pos_site_id
 _symmetry_equiv_pos_as_xyz
  1  'x, y, z'
loop_
 _atom_site_type_symbol
 _atom_site_label
 _atom_site_symmetry_multiplicity
 _atom_site_fract_x
 _atom_site_fract_y
 _atom_site_fract_z
 _atom_site_occupancy
  Ca  Ca0  1  0.557965  0.882156  0.366352  1
  Ca  Ca1  1  0.558727  0.382095  0.866037  1
  Ca  Ca2  1  0.941182  0.882340  0.865868  1
  Ca  Ca3  1  0.942139  0.382094  0.366311  1
  Nd  Nd4  1  0.431175  0.117123  0.636056  1
  Nd  Nd5  1  0.431731  0.617429  0.135365  1
  Nd  Nd6  1  0.068174  0.117412  0.135454  1
  Nd  Nd7  1  0.068911  0.616888  0.636184  1
  Nb  Nb8  1  0.508107  0.000648  0.000618  1
  Nb  Nb9  1  0.508590  0.500673  0.500159  1
  Nb  Nb10  1  0.991610  0.000611  0.500270  1
  Nb  Nb11  1  0.991703  0.500682  0.000547  1
  Fe  Fe12  1  0.502532  0.749813  0.750597  1
  Fe  Fe13  1  0.997581  0.749814  0.250923  1
  Fe  Fe14  1  0.502433  0.249819  0.250922  1
  Fe  Fe15  1  0.997384  0.249807  0.750671  1
  O  O16  1  0.813646  0.120626  0.325198  1
  O  O17  1  0.813570  0.620402  0.825408  1
  O  O18  1  0.686173  0.120504  0.825577  1
  O  O19  1  0.686485  0.620584  0.325144  1
  O  O20  1  0.185737  0.879863  0.670913  1
  O  O21  1  0.185291  0.379374  0.171167  1
  O  O22  1  0.314609  0.879386  0.171191  1
  O  O23  1  0.314576  0.379798  0.670785  1
  O  O24  1  0.284812  0.065073  0.378973  1
  O  O25  1  0.284893  0.564472  0.879618  1
  O  O26  1  0.214823  0.064644  0.879724  1
  O  O27  1  0.215299  0.565092  0.378849  1
  O  O28  1  0.705725  0.937832  0.618940  1
  O  O29  1  0.705328  0.437008  0.119109  1
  O  O30  1  0.794535  0.936996  0.119237  1
  O  O31  1  0.794584  0.437667  0.618773  1
  O  O32  1  0.961354  0.821962  0.432307  1
  O  O33  1  0.961578  0.322488  0.931275  1
  O  O34  1  0.538787  0.322012  0.432192  1
  O  O35  1  0.538248  0.822524  0.931214  1
  O  O36  1  0.033795  0.175500  0.570810  1
  O  O37  1  0.033697  0.675685  0.070163  1
  O  O38  1  0.466374  0.675486  0.570794  1
  O  O39  1  0.466139  0.175619  0.070306  1
