# generated using pymatgen
data_Tb19SmSn16
_symmetry_space_group_name_H-M   'P 1'
_cell_length_a   8.08440813
_cell_length_b   8.23668566
_cell_length_c   15.55907091
_cell_angle_alpha   90.00549275
_cell_angle_beta   89.93032861
_cell_angle_gamma   89.95432975
_symmetry_Int_Tables_number   1
_chemical_formula_structural   Tb19SmSn16
_chemical_formula_sum   'Tb19 Sm1 Sn16'
_cell_volume   1036.05764900
_cell_formula_units_Z   1
loop_
 _symmetry_equiv_pos_site_id
 _symmetry_equiv_pos_as_xyz
  1  'x, y, z'
loop_
 _atom_site_type_symbol
 _atom_site_label
 _atom_site_symmetry_multiplicity
 _atom_site_fract_x
 _atom_site_fract_y
 _atom_site_fract_z
 _atom_site_occupancy
  Tb  Tb0  1  0.367087  0.835418  0.878300  1
  Tb  Tb1  1  0.867313  0.664586  0.621379  1
  Tb  Tb2  1  0.632766  0.164336  0.378392  1
  Tb  Tb3  1  0.133207  0.335765  0.121929  1
  Tb  Tb4  1  0.633198  0.164365  0.121803  1
  Tb  Tb5  1  0.132669  0.335551  0.378316  1
  Tb  Tb6  1  0.367285  0.835469  0.621418  1
  Tb  Tb7  1  0.867046  0.664439  0.878327  1
  Tb  Tb8  1  0.519554  0.320994  0.901699  1
  Tb  Tb9  1  0.019891  0.179388  0.598485  1
  Tb  Tb10  1  0.480371  0.679322  0.401650  1
  Tb  Tb11  1  0.980594  0.820370  0.098497  1
  Tb  Tb12  1  0.480591  0.679443  0.098383  1
  Tb  Tb13  1  0.980267  0.820697  0.401623  1
  Tb  Tb14  1  0.519589  0.320816  0.597988  1
  Tb  Tb15  1  0.198630  0.502231  0.749744  1
  Tb  Tb16  1  0.698256  0.997609  0.749639  1
  Tb  Tb17  1  0.801509  0.497930  0.250115  1
  Tb  Tb18  1  0.301635  0.002112  0.250094  1
  Sm  Sm19  1  0.018711  0.179677  0.902265  1
  Sn  Sn20  1  0.294178  0.034552  0.042354  1
  Sn  Sn21  1  0.792833  0.464879  0.458215  1
  Sn  Sn22  1  0.707287  0.965084  0.541655  1
  Sn  Sn23  1  0.207528  0.536060  0.958556  1
  Sn  Sn24  1  0.705337  0.963418  0.958692  1
  Sn  Sn25  1  0.207114  0.535044  0.541616  1
  Sn  Sn26  1  0.292797  0.035112  0.458242  1
  Sn  Sn27  1  0.792929  0.464957  0.041800  1
  Sn  Sn28  1  0.565366  0.618552  0.749971  1
  Sn  Sn29  1  0.065632  0.880722  0.749861  1
  Sn  Sn30  1  0.434758  0.381519  0.250052  1
  Sn  Sn31  1  0.934616  0.118773  0.250059  1
  Sn  Sn32  1  0.328384  0.145636  0.749629  1
  Sn  Sn33  1  0.826499  0.355181  0.749180  1
  Sn  Sn34  1  0.672262  0.854213  0.250020  1
  Sn  Sn35  1  0.172312  0.645782  0.250054  1
