# generated using pymatgen
data_Dy5(Cd2Ni)2
_symmetry_space_group_name_H-M   'P 1'
_cell_length_a   3.59902800
_cell_length_b   7.84747100
_cell_length_c   18.08126300
_cell_angle_alpha   90.00000000
_cell_angle_beta   90.00000000
_cell_angle_gamma   90.00000000
_symmetry_Int_Tables_number   1
_chemical_formula_structural   Dy5(Cd2Ni)2
_chemical_formula_sum   'Dy10 Cd8 Ni4'
_cell_volume   510.67395412
_cell_formula_units_Z   2
loop_
 _symmetry_equiv_pos_site_id
 _symmetry_equiv_pos_as_xyz
  1  'x, y, z'
loop_
 _atom_site_type_symbol
 _atom_site_label
 _atom_site_symmetry_multiplicity
 _atom_site_fract_x
 _atom_site_fract_y
 _atom_site_fract_z
 _atom_site_occupancy
  Dy  Dy0  1  0.500000  0.385385  0.588859  1
  Dy  Dy1  1  0.500000  0.885385  0.911141  1
  Dy  Dy2  1  0.500000  0.114615  0.088859  1
  Dy  Dy3  1  0.500000  0.753939  0.720618  1
  Dy  Dy4  1  0.500000  0.253939  0.779382  1
  Dy  Dy5  1  0.500000  0.500000  0.000000  1
  Dy  Dy6  1  0.500000  0.746061  0.220618  1
  Dy  Dy7  1  0.500000  0.246061  0.279382  1
  Dy  Dy8  1  0.500000  0.000000  0.500000  1
  Dy  Dy9  1  0.500000  0.614615  0.411141  1
  Cd  Cd10  1  0.000000  0.789253  0.069237  1
  Cd  Cd11  1  0.000000  0.929096  0.348325  1
  Cd  Cd12  1  0.000000  0.070904  0.651675  1
  Cd  Cd13  1  0.000000  0.570904  0.848325  1
  Cd  Cd14  1  0.000000  0.710747  0.569237  1
  Cd  Cd15  1  0.000000  0.210747  0.930763  1
  Cd  Cd16  1  0.000000  0.289253  0.430763  1
  Cd  Cd17  1  0.000000  0.429096  0.151675  1
  Ni  Ni18  1  0.000000  0.972888  0.804369  1
  Ni  Ni19  1  0.000000  0.527112  0.304369  1
  Ni  Ni20  1  0.000000  0.472888  0.695631  1
  Ni  Ni21  1  0.000000  0.027112  0.195631  1
