# generated using pymatgen
data_La2Tm3Co2
_symmetry_space_group_name_H-M   'P 1'
_cell_length_a   8.74977359
_cell_length_b   8.74977332
_cell_length_c   6.88330834
_cell_angle_alpha   84.42843618
_cell_angle_beta   84.42843384
_cell_angle_gamma   42.70923269
_symmetry_Int_Tables_number   1
_chemical_formula_structural   La2Tm3Co2
_chemical_formula_sum   'La4 Tm6 Co4'
_cell_volume   355.48879920
_cell_formula_units_Z   2
loop_
 _symmetry_equiv_pos_site_id
 _symmetry_equiv_pos_as_xyz
  1  'x, y, z'
loop_
 _atom_site_type_symbol
 _atom_site_label
 _atom_site_symmetry_multiplicity
 _atom_site_fract_x
 _atom_site_fract_y
 _atom_site_fract_z
 _atom_site_occupancy
  La  La0  1  0.017646  0.785346  0.904212  1
  La  La1  1  0.214654  0.982354  0.595788  1
  La  La2  1  0.982354  0.214654  0.095788  1
  La  La3  1  0.785346  0.017646  0.404212  1
  Tm  Tm4  1  0.360677  0.212690  0.818213  1
  Tm  Tm5  1  0.787310  0.639323  0.681787  1
  Tm  Tm6  1  0.639323  0.787310  0.181787  1
  Tm  Tm7  1  0.212690  0.360677  0.318213  1
  Tm  Tm8  1  0.569853  0.430147  0.750000  1
  Tm  Tm9  1  0.430147  0.569853  0.250000  1
  Co  Co10  1  0.174452  0.597945  0.580456  1
  Co  Co11  1  0.402055  0.825548  0.919544  1
  Co  Co12  1  0.825548  0.402055  0.419544  1
  Co  Co13  1  0.597945  0.174452  0.080456  1
