# generated using pymatgen
data_LiLa3YbRu
_symmetry_space_group_name_H-M   'P 1'
_cell_length_a   10.10179445
_cell_length_b   10.11750919
_cell_length_c   10.10179410
_cell_angle_alpha   59.94853361
_cell_angle_beta   60.10294020
_cell_angle_gamma   59.94853054
_symmetry_Int_Tables_number   1
_chemical_formula_structural   LiLa3YbRu
_chemical_formula_sum   'Li4 La12 Yb4 Ru4'
_cell_volume   730.05160194
_cell_formula_units_Z   4
loop_
 _symmetry_equiv_pos_site_id
 _symmetry_equiv_pos_as_xyz
  1  'x, y, z'
loop_
 _atom_site_type_symbol
 _atom_site_label
 _atom_site_symmetry_multiplicity
 _atom_site_fract_x
 _atom_site_fract_y
 _atom_site_fract_z
 _atom_site_occupancy
  Li  Li0  1  0.826900  0.827944  0.826900  1
  Li  Li1  1  0.518255  0.826900  0.827944  1
  Li  Li2  1  0.826900  0.518255  0.826900  1
  Li  Li3  1  0.827944  0.826900  0.518255  1
  La  La4  1  0.591478  0.593692  0.221138  1
  La  La5  1  0.435862  0.064138  0.064138  1
  La  La6  1  0.061876  0.438124  0.061876  1
  La  La7  1  0.438124  0.061876  0.438124  1
  La  La8  1  0.221138  0.593692  0.591478  1
  La  La9  1  0.064138  0.435862  0.435862  1
  La  La10  1  0.593692  0.221138  0.593692  1
  La  La11  1  0.593692  0.591478  0.593692  1
  La  La12  1  0.190613  0.809387  0.190613  1
  La  La13  1  0.809387  0.190613  0.809387  1
  La  La14  1  0.064138  0.064138  0.435862  1
  La  La15  1  0.435862  0.435862  0.064138  1
  Yb  Yb16  1  0.810019  0.189981  0.189981  1
  Yb  Yb17  1  0.189981  0.189981  0.810019  1
  Yb  Yb18  1  0.810019  0.810019  0.189981  1
  Yb  Yb19  1  0.189981  0.810019  0.810019  1
  Ru  Ru20  1  0.841253  0.385285  0.388175  1
  Ru  Ru21  1  0.385285  0.388175  0.385285  1
  Ru  Ru22  1  0.385285  0.841253  0.385285  1
  Ru  Ru23  1  0.388175  0.385285  0.841253  1
