# generated using pymatgen
data_HoTh2(Si3Pd10)2
_symmetry_space_group_name_H-M   'P 1'
_cell_length_a   8.76018720
_cell_length_b   8.76018692
_cell_length_c   8.76018700
_cell_angle_alpha   60.00000348
_cell_angle_beta   60.00000452
_cell_angle_gamma   60.00000415
_symmetry_Int_Tables_number   1
_chemical_formula_structural   HoTh2(Si3Pd10)2
_chemical_formula_sum   'Ho1 Th2 Si6 Pd20'
_cell_volume   475.36278491
_cell_formula_units_Z   1
loop_
 _symmetry_equiv_pos_site_id
 _symmetry_equiv_pos_as_xyz
  1  'x, y, z'
loop_
 _atom_site_type_symbol
 _atom_site_label
 _atom_site_symmetry_multiplicity
 _atom_site_fract_x
 _atom_site_fract_y
 _atom_site_fract_z
 _atom_site_occupancy
  Ho  Ho0  1  0.000000  0.000000  0.000000  1
  Th  Th1  1  0.250000  0.250000  0.250000  1
  Th  Th2  1  0.750000  0.750000  0.750000  1
  Si  Si3  1  0.734830  0.265170  0.265170  1
  Si  Si4  1  0.265170  0.734830  0.734830  1
  Si  Si5  1  0.265170  0.734830  0.265170  1
  Si  Si6  1  0.734830  0.265170  0.734830  1
  Si  Si7  1  0.265170  0.265170  0.734830  1
  Si  Si8  1  0.734830  0.734830  0.265170  1
  Pd  Pd9  1  0.384308  0.384308  0.384308  1
  Pd  Pd10  1  0.615692  0.615692  0.615692  1
  Pd  Pd11  1  0.384308  0.384308  0.847078  1
  Pd  Pd12  1  0.384308  0.847078  0.384308  1
  Pd  Pd13  1  0.615692  0.615692  0.152922  1
  Pd  Pd14  1  0.615692  0.152922  0.615692  1
  Pd  Pd15  1  0.847078  0.384308  0.384308  1
  Pd  Pd16  1  0.152922  0.615692  0.615692  1
  Pd  Pd17  1  0.346702  0.000000  0.000000  1
  Pd  Pd18  1  0.653298  0.000000  0.000000  1
  Pd  Pd19  1  0.000000  0.346702  0.653298  1
  Pd  Pd20  1  0.000000  0.653298  0.346702  1
  Pd  Pd21  1  0.000000  0.346702  0.000000  1
  Pd  Pd22  1  0.653298  0.000000  0.346702  1
  Pd  Pd23  1  0.000000  0.653298  0.000000  1
  Pd  Pd24  1  0.346702  0.000000  0.653298  1
  Pd  Pd25  1  0.000000  0.000000  0.346702  1
  Pd  Pd26  1  0.000000  0.000000  0.653298  1
  Pd  Pd27  1  0.653298  0.346702  0.000000  1
  Pd  Pd28  1  0.346702  0.653298  0.000000  1
