# generated using pymatgen
data_Na2TbIrO6
_symmetry_space_group_name_H-M   'P 1'
_cell_length_a   5.65438118
_cell_length_b   5.77561600
_cell_length_c   8.09584963
_cell_angle_alpha   90.00000000
_cell_angle_beta   90.49478368
_cell_angle_gamma   90.00000000
_symmetry_Int_Tables_number   1
_chemical_formula_structural   Na2TbIrO6
_chemical_formula_sum   'Na4 Tb2 Ir2 O12'
_cell_volume   264.38062960
_cell_formula_units_Z   2
loop_
 _symmetry_equiv_pos_site_id
 _symmetry_equiv_pos_as_xyz
  1  'x, y, z'
loop_
 _atom_site_type_symbol
 _atom_site_label
 _atom_site_symmetry_multiplicity
 _atom_site_fract_x
 _atom_site_fract_y
 _atom_site_fract_z
 _atom_site_occupancy
  Na  Na0  1  0.008373  0.533668  0.248446  1
  Na  Na1  1  0.491628  0.033668  0.251555  1
  Na  Na2  1  0.508372  0.966331  0.748445  1
  Na  Na3  1  0.991628  0.466331  0.751555  1
  Tb  Tb4  1  0.500000  0.500000  0.000000  1
  Tb  Tb5  1  0.999999  0.000000  0.500001  1
  Ir  Ir6  1  0.000000  0.000000  0.000000  1
  Ir  Ir7  1  0.499999  0.500000  0.500001  1
  O  O8  1  0.271253  0.810288  0.042947  1
  O  O9  1  0.184406  0.271213  0.045368  1
  O  O10  1  0.915931  0.979208  0.228346  1
  O  O11  1  0.584070  0.479209  0.271654  1
  O  O12  1  0.315595  0.771213  0.454632  1
  O  O13  1  0.228748  0.310288  0.457053  1
  O  O14  1  0.771253  0.689711  0.542946  1
  O  O15  1  0.684406  0.228786  0.545368  1
  O  O16  1  0.415931  0.520791  0.728346  1
  O  O17  1  0.084069  0.020791  0.771654  1
  O  O18  1  0.815594  0.728786  0.954632  1
  O  O19  1  0.728747  0.189711  0.957053  1
