# generated using pymatgen
data_Ba4W(BrN2)2
_symmetry_space_group_name_H-M   'P 1'
_cell_length_a   6.36098700
_cell_length_b   8.56904186
_cell_length_c   11.27433538
_cell_angle_alpha   81.41950809
_cell_angle_beta   90.00000000
_cell_angle_gamma   90.00000000
_symmetry_Int_Tables_number   1
_chemical_formula_structural   Ba4W(BrN2)2
_chemical_formula_sum   'Ba8 W2 Br4 N8'
_cell_volume   607.65819394
_cell_formula_units_Z   2
loop_
 _symmetry_equiv_pos_site_id
 _symmetry_equiv_pos_as_xyz
  1  'x, y, z'
loop_
 _atom_site_type_symbol
 _atom_site_label
 _atom_site_symmetry_multiplicity
 _atom_site_fract_x
 _atom_site_fract_y
 _atom_site_fract_z
 _atom_site_occupancy
  Ba  Ba0  1  0.750000  0.284292  0.302601  1
  Ba  Ba1  1  0.750000  0.004383  0.621707  1
  Ba  Ba2  1  0.750000  0.445276  0.615391  1
  Ba  Ba3  1  0.750000  0.810872  0.102788  1
  Ba  Ba4  1  0.250000  0.995617  0.378293  1
  Ba  Ba5  1  0.250000  0.554724  0.384609  1
  Ba  Ba6  1  0.250000  0.189128  0.897212  1
  Ba  Ba7  1  0.250000  0.715708  0.697399  1
  W  W8  1  0.750000  0.770816  0.401351  1
  W  W9  1  0.250000  0.229184  0.598649  1
  Br  Br10  1  0.250000  0.330350  0.162495  1
  Br  Br11  1  0.750000  0.669650  0.837505  1
  Br  Br12  1  0.250000  0.837294  0.098967  1
  Br  Br13  1  0.750000  0.162706  0.901033  1
  N  N14  1  0.250000  0.038331  0.704524  1
  N  N15  1  0.005665  0.244782  0.500017  1
  N  N16  1  0.505665  0.755218  0.499983  1
  N  N17  1  0.994335  0.755218  0.499983  1
  N  N18  1  0.750000  0.609384  0.304656  1
  N  N19  1  0.750000  0.961669  0.295476  1
  N  N20  1  0.494335  0.244782  0.500017  1
  N  N21  1  0.250000  0.390616  0.695344  1
