# generated using pymatgen
data_Mn(BeRu)2
_symmetry_space_group_name_H-M   'P 1'
_cell_length_a   6.09165100
_cell_length_b   6.09165100
_cell_length_c   2.99934200
_cell_angle_alpha   90.00000000
_cell_angle_beta   90.00000000
_cell_angle_gamma   90.00000000
_symmetry_Int_Tables_number   1
_chemical_formula_structural   Mn(BeRu)2
_chemical_formula_sum   'Mn2 Be4 Ru4'
_cell_volume   111.30021851
_cell_formula_units_Z   2
loop_
 _symmetry_equiv_pos_site_id
 _symmetry_equiv_pos_as_xyz
  1  'x, y, z'
loop_
 _atom_site_type_symbol
 _atom_site_label
 _atom_site_symmetry_multiplicity
 _atom_site_fract_x
 _atom_site_fract_y
 _atom_site_fract_z
 _atom_site_occupancy
  Mn  Mn0  1  0.500000  0.500000  0.000000  1
  Mn  Mn1  1  0.000000  0.000000  0.000000  1
  Be  Be2  1  0.121049  0.621049  0.000000  1
  Be  Be3  1  0.878951  0.378951  0.000000  1
  Be  Be4  1  0.621049  0.878951  0.000000  1
  Be  Be5  1  0.378951  0.121049  0.000000  1
  Ru  Ru6  1  0.675587  0.175587  0.500000  1
  Ru  Ru7  1  0.324413  0.824413  0.500000  1
  Ru  Ru8  1  0.175587  0.324413  0.500000  1
  Ru  Ru9  1  0.824413  0.675587  0.500000  1
