# generated using pymatgen
data_TlAgAu2(SO4)4
_symmetry_space_group_name_H-M   'P 1'
_cell_length_a   9.02310283
_cell_length_b   4.84138469
_cell_length_c   10.05190275
_cell_angle_alpha   65.61222486
_cell_angle_beta   88.97945536
_cell_angle_gamma   92.16126664
_symmetry_Int_Tables_number   1
_chemical_formula_structural   TlAgAu2(SO4)4
_chemical_formula_sum   'Tl1 Ag1 Au2 S4 O16'
_cell_volume   399.37599117
_cell_formula_units_Z   1
loop_
 _symmetry_equiv_pos_site_id
 _symmetry_equiv_pos_as_xyz
  1  'x, y, z'
loop_
 _atom_site_type_symbol
 _atom_site_label
 _atom_site_symmetry_multiplicity
 _atom_site_fract_x
 _atom_site_fract_y
 _atom_site_fract_z
 _atom_site_occupancy
  Tl  Tl0  1  0.000000  0.000000  0.500000  1
  Ag  Ag1  1  0.500000  0.000000  0.000000  1
  Au  Au2  1  0.000000  0.000000  0.000000  1
  Au  Au3  1  0.500000  0.000000  0.500000  1
  S  S4  1  0.207729  0.604208  0.908876  1
  S  S5  1  0.314534  0.603112  0.379009  1
  S  S6  1  0.792271  0.395792  0.091124  1
  S  S7  1  0.685466  0.396888  0.620991  1
  O  O8  1  0.360816  0.644694  0.518427  1
  O  O9  1  0.639184  0.355306  0.481573  1
  O  O10  1  0.132685  0.644235  0.039689  1
  O  O11  1  0.197146  0.253827  0.959231  1
  O  O12  1  0.681322  0.746797  0.570184  1
  O  O13  1  0.581156  0.229996  0.741137  1
  O  O14  1  0.802854  0.746173  0.040769  1
  O  O15  1  0.867315  0.355765  0.960311  1
  O  O16  1  0.366896  0.674894  0.903674  1
  O  O17  1  0.418844  0.770004  0.258863  1
  O  O18  1  0.870544  0.237234  0.223551  1
  O  O19  1  0.158080  0.659553  0.355779  1
  O  O20  1  0.318678  0.253203  0.429816  1
  O  O21  1  0.633104  0.325106  0.096326  1
  O  O22  1  0.129456  0.762766  0.776449  1
  O  O23  1  0.841920  0.340447  0.644221  1
