# generated using pymatgen
data_Cs5RbV3RhBr18
_symmetry_space_group_name_H-M   'P 1'
_cell_length_a   7.76403800
_cell_length_b   7.76403961
_cell_length_c   19.32497600
_cell_angle_alpha   90.00000000
_cell_angle_beta   90.00000000
_cell_angle_gamma   119.99999315
_symmetry_Int_Tables_number   1
_chemical_formula_structural   Cs5RbV3RhBr18
_chemical_formula_sum   'Cs5 Rb1 V3 Rh1 Br18'
_cell_volume   1008.84633230
_cell_formula_units_Z   1
loop_
 _symmetry_equiv_pos_site_id
 _symmetry_equiv_pos_as_xyz
  1  'x, y, z'
loop_
 _atom_site_type_symbol
 _atom_site_label
 _atom_site_symmetry_multiplicity
 _atom_site_fract_x
 _atom_site_fract_y
 _atom_site_fract_z
 _atom_site_occupancy
  Cs  Cs0  1  0.666667  0.333333  0.571020  1
  Cs  Cs1  1  0.333333  0.666667  0.070123  1
  Cs  Cs2  1  0.333333  0.666667  0.431089  1
  Cs  Cs3  1  0.666667  0.333333  0.931324  1
  Cs  Cs4  1  0.000000  0.000000  0.250170  1
  Rb  Rb5  1  0.000000  0.000000  0.746927  1
  V  V6  1  0.666667  0.333333  0.333862  1
  V  V7  1  0.333333  0.666667  0.834535  1
  V  V8  1  0.666667  0.333333  0.166056  1
  Rh  Rh9  1  0.333333  0.666667  0.670475  1
  Br  Br10  1  0.821807  0.643613  0.405192  1
  Br  Br11  1  0.180846  0.819154  0.596473  1
  Br  Br12  1  0.638309  0.819154  0.596473  1
  Br  Br13  1  0.821807  0.178193  0.405192  1
  Br  Br14  1  0.356387  0.178193  0.405192  1
  Br  Br15  1  0.176738  0.353478  0.903636  1
  Br  Br16  1  0.028653  0.514326  0.748346  1
  Br  Br17  1  0.646522  0.823262  0.903636  1
  Br  Br18  1  0.822032  0.644064  0.094535  1
  Br  Br19  1  0.180846  0.361691  0.596473  1
  Br  Br20  1  0.485674  0.971347  0.748346  1
  Br  Br21  1  0.514414  0.485586  0.249956  1
  Br  Br22  1  0.485674  0.514326  0.748346  1
  Br  Br23  1  0.176738  0.823262  0.903636  1
  Br  Br24  1  0.355936  0.177968  0.094535  1
  Br  Br25  1  0.971173  0.485586  0.249956  1
  Br  Br26  1  0.514414  0.028827  0.249956  1
  Br  Br27  1  0.822032  0.177968  0.094535  1
