# generated using pymatgen
data_Li2Cr3RuO8
_symmetry_space_group_name_H-M   'P 1'
_cell_length_a   5.95725616
_cell_length_b   5.95725601
_cell_length_c   5.95725660
_cell_angle_alpha   60.55243482
_cell_angle_beta   60.55243552
_cell_angle_gamma   60.55244097
_symmetry_Int_Tables_number   1
_chemical_formula_structural   Li2Cr3RuO8
_chemical_formula_sum   'Li2 Cr3 Ru1 O8'
_cell_volume   151.35982502
_cell_formula_units_Z   1
loop_
 _symmetry_equiv_pos_site_id
 _symmetry_equiv_pos_as_xyz
  1  'x, y, z'
loop_
 _atom_site_type_symbol
 _atom_site_label
 _atom_site_symmetry_multiplicity
 _atom_site_fract_x
 _atom_site_fract_y
 _atom_site_fract_z
 _atom_site_occupancy
  Li  Li0  1  0.870140  0.870140  0.870140  1
  Li  Li1  1  0.129860  0.129860  0.129860  1
  Cr  Cr2  1  0.500000  0.000000  0.500000  1
  Cr  Cr3  1  0.500000  0.500000  0.000000  1
  Cr  Cr4  1  0.000000  0.500000  0.500000  1
  Ru  Ru5  1  0.500000  0.500000  0.500000  1
  O  O6  1  0.736020  0.736020  0.736020  1
  O  O7  1  0.283204  0.735755  0.735755  1
  O  O8  1  0.735755  0.735755  0.283204  1
  O  O9  1  0.735755  0.283204  0.735755  1
  O  O10  1  0.264245  0.716796  0.264245  1
  O  O11  1  0.264245  0.264245  0.716796  1
  O  O12  1  0.716796  0.264245  0.264245  1
  O  O13  1  0.263980  0.263980  0.263980  1
