# generated using pymatgen
data_Ba5Nb2Cl2O9
_symmetry_space_group_name_H-M   'P 1'
_cell_length_a   6.05653500
_cell_length_b   6.05653424
_cell_length_c   25.13589300
_cell_angle_alpha   90.00000000
_cell_angle_beta   90.00000000
_cell_angle_gamma   120.00000963
_symmetry_Int_Tables_number   1
_chemical_formula_structural   Ba5Nb2Cl2O9
_chemical_formula_sum   'Ba10 Nb4 Cl4 O18'
_cell_volume   798.49705088
_cell_formula_units_Z   2
loop_
 _symmetry_equiv_pos_site_id
 _symmetry_equiv_pos_as_xyz
  1  'x, y, z'
loop_
 _atom_site_type_symbol
 _atom_site_label
 _atom_site_symmetry_multiplicity
 _atom_site_fract_x
 _atom_site_fract_y
 _atom_site_fract_z
 _atom_site_occupancy
  Ba  Ba0  1  0.333333  0.666667  0.418350  1
  Ba  Ba1  1  0.333333  0.666667  0.081650  1
  Ba  Ba2  1  0.333333  0.666667  0.827264  1
  Ba  Ba3  1  0.666667  0.333333  0.581650  1
  Ba  Ba4  1  0.666667  0.333333  0.918350  1
  Ba  Ba5  1  0.666667  0.333333  0.327264  1
  Ba  Ba6  1  0.666667  0.333333  0.172736  1
  Ba  Ba7  1  0.333333  0.666667  0.250000  1
  Ba  Ba8  1  0.666667  0.333333  0.750000  1
  Ba  Ba9  1  0.333333  0.666667  0.672736  1
  Nb  Nb10  1  0.000000  0.000000  0.810875  1
  Nb  Nb11  1  0.000000  0.000000  0.310875  1
  Nb  Nb12  1  0.000000  0.000000  0.189125  1
  Nb  Nb13  1  0.000000  0.000000  0.689125  1
  Cl  Cl14  1  0.333333  0.666667  0.546723  1
  Cl  Cl15  1  0.333333  0.666667  0.953277  1
  Cl  Cl16  1  0.666667  0.333333  0.046723  1
  Cl  Cl17  1  0.666667  0.333333  0.453277  1
  O  O18  1  0.162761  0.325522  0.154919  1
  O  O19  1  0.700431  0.850215  0.750000  1
  O  O20  1  0.837239  0.674478  0.654919  1
  O  O21  1  0.850215  0.149785  0.250000  1
  O  O22  1  0.162761  0.837239  0.345081  1
  O  O23  1  0.162761  0.837239  0.154919  1
  O  O24  1  0.837239  0.162761  0.654919  1
  O  O25  1  0.325522  0.162761  0.654919  1
  O  O26  1  0.837239  0.162761  0.845081  1
  O  O27  1  0.850215  0.700431  0.250000  1
  O  O28  1  0.299569  0.149785  0.250000  1
  O  O29  1  0.325522  0.162761  0.845081  1
  O  O30  1  0.149785  0.299569  0.750000  1
  O  O31  1  0.837239  0.674478  0.845081  1
  O  O32  1  0.162761  0.325522  0.345081  1
  O  O33  1  0.674478  0.837239  0.154919  1
  O  O34  1  0.149785  0.850215  0.750000  1
  O  O35  1  0.674478  0.837239  0.345081  1
