# generated using pymatgen
data_Tb4Er3Co6CuSn22
_symmetry_space_group_name_H-M   'P 1'
_cell_length_a   9.65077377
_cell_length_b   9.64911899
_cell_length_c   9.89214159
_cell_angle_alpha   89.96642649
_cell_angle_beta   90.06499931
_cell_angle_gamma   119.98154841
_symmetry_Int_Tables_number   1
_chemical_formula_structural   Tb4Er3Co6CuSn22
_chemical_formula_sum   'Tb4 Er3 Co6 Cu1 Sn22'
_cell_volume   797.90500982
_cell_formula_units_Z   1
loop_
 _symmetry_equiv_pos_site_id
 _symmetry_equiv_pos_as_xyz
  1  'x, y, z'
loop_
 _atom_site_type_symbol
 _atom_site_label
 _atom_site_symmetry_multiplicity
 _atom_site_fract_x
 _atom_site_fract_y
 _atom_site_fract_z
 _atom_site_occupancy
  Tb  Tb0  1  0.999980  0.999968  0.000051  1
  Tb  Tb1  1  0.520993  0.042072  0.693671  1
  Tb  Tb2  1  0.042073  0.520993  0.306065  1
  Tb  Tb3  1  0.957935  0.478986  0.693923  1
  Er  Er4  1  0.479288  0.520717  0.306407  1
  Er  Er5  1  0.520670  0.479282  0.693579  1
  Er  Er6  1  0.479367  0.958607  0.306116  1
  Co  Co7  1  0.831656  0.167659  0.196994  1
  Co  Co8  1  0.167881  0.832052  0.803170  1
  Co  Co9  1  0.831730  0.664028  0.197031  1
  Co  Co10  1  0.168339  0.336090  0.803044  1
  Co  Co11  1  0.336259  0.168072  0.197157  1
  Co  Co12  1  0.663934  0.831638  0.803001  1
  Cu  Cu13  1  0.999985  0.999991  0.499994  1
  Sn  Sn14  1  0.346291  0.000067  0.000140  1
  Sn  Sn15  1  0.653645  0.999853  0.000258  1
  Sn  Sn16  1  0.000026  0.346231  0.000051  1
  Sn  Sn17  1  0.999965  0.653789  0.999938  1
  Sn  Sn18  1  0.653632  0.653680  0.000026  1
  Sn  Sn19  1  0.346391  0.346289  0.000027  1
  Sn  Sn20  1  0.333395  0.666594  0.816489  1
  Sn  Sn21  1  0.666419  0.333169  0.183592  1
  Sn  Sn22  1  0.783325  0.215121  0.453002  1
  Sn  Sn23  1  0.216252  0.784522  0.546328  1
  Sn  Sn24  1  0.782932  0.568221  0.453479  1
  Sn  Sn25  1  0.217051  0.431735  0.546506  1
  Sn  Sn26  1  0.431773  0.216305  0.453190  1
  Sn  Sn27  1  0.568260  0.783325  0.546041  1
  Sn  Sn28  1  0.334313  0.667131  0.118954  1
  Sn  Sn29  1  0.666146  0.333795  0.881642  1
  Sn  Sn30  1  0.111410  0.889225  0.283312  1
  Sn  Sn31  1  0.889046  0.110835  0.716726  1
  Sn  Sn32  1  0.111447  0.222209  0.283379  1
  Sn  Sn33  1  0.888610  0.777776  0.716667  1
  Sn  Sn34  1  0.777336  0.888637  0.283411  1
  Sn  Sn35  1  0.222245  0.111336  0.716640  1
