# generated using pymatgen
data_Pa2GaRu5
_symmetry_space_group_name_H-M   'P 1'
_cell_length_a   4.11962700
_cell_length_b   5.73033600
_cell_length_c   11.21199000
_cell_angle_alpha   90.00000000
_cell_angle_beta   90.00000000
_cell_angle_gamma   90.00000000
_symmetry_Int_Tables_number   1
_chemical_formula_structural   Pa2GaRu5
_chemical_formula_sum   'Pa4 Ga2 Ru10'
_cell_volume   264.67973143
_cell_formula_units_Z   2
loop_
 _symmetry_equiv_pos_site_id
 _symmetry_equiv_pos_as_xyz
  1  'x, y, z'
loop_
 _atom_site_type_symbol
 _atom_site_label
 _atom_site_symmetry_multiplicity
 _atom_site_fract_x
 _atom_site_fract_y
 _atom_site_fract_z
 _atom_site_occupancy
  Pa  Pa0  1  0.500000  0.813571  0.361647  1
  Pa  Pa1  1  0.500000  0.186429  0.638353  1
  Pa  Pa2  1  0.500000  0.313571  0.138353  1
  Pa  Pa3  1  0.500000  0.686429  0.861647  1
  Ga  Ga4  1  0.000000  0.500000  0.500000  1
  Ga  Ga5  1  0.000000  0.000000  0.000000  1
  Ru  Ru6  1  0.000000  0.500000  0.000000  1
  Ru  Ru7  1  0.000000  0.000000  0.500000  1
  Ru  Ru8  1  0.000000  0.563976  0.249724  1
  Ru  Ru9  1  0.000000  0.436024  0.750276  1
  Ru  Ru10  1  0.000000  0.063976  0.250276  1
  Ru  Ru11  1  0.000000  0.936024  0.749724  1
  Ru  Ru12  1  0.500000  0.807928  0.112983  1
  Ru  Ru13  1  0.500000  0.192072  0.887017  1
  Ru  Ru14  1  0.500000  0.307928  0.387017  1
  Ru  Ru15  1  0.500000  0.692072  0.612983  1
