# generated using pymatgen
data_Ho3ScCr4(Fe4P3)4
_symmetry_space_group_name_H-M   'P 1'
_cell_length_a   3.64303500
_cell_length_b   10.33141714
_cell_length_c   11.78524230
_cell_angle_alpha   89.86465484
_cell_angle_beta   90.00000000
_cell_angle_gamma   90.00000000
_symmetry_Int_Tables_number   1
_chemical_formula_structural   Ho3ScCr4(Fe4P3)4
_chemical_formula_sum   'Ho3 Sc1 Cr4 Fe16 P12'
_cell_volume   443.56834423
_cell_formula_units_Z   1
loop_
 _symmetry_equiv_pos_site_id
 _symmetry_equiv_pos_as_xyz
  1  'x, y, z'
loop_
 _atom_site_type_symbol
 _atom_site_label
 _atom_site_symmetry_multiplicity
 _atom_site_fract_x
 _atom_site_fract_y
 _atom_site_fract_z
 _atom_site_occupancy
  Ho  Ho0  1  0.250000  0.918436  0.205103  1
  Ho  Ho1  1  0.750000  0.419713  0.294910  1
  Ho  Ho2  1  0.750000  0.081436  0.795303  1
  Sc  Sc3  1  0.250000  0.580634  0.703752  1
  Cr  Cr4  1  0.250000  0.702670  0.988787  1
  Cr  Cr5  1  0.250000  0.795876  0.490098  1
  Cr  Cr6  1  0.750000  0.297743  0.010406  1
  Cr  Cr7  1  0.750000  0.203571  0.512553  1
  Fe  Fe8  1  0.250000  0.406186  0.492145  1
  Fe  Fe9  1  0.250000  0.094871  0.990598  1
  Fe  Fe10  1  0.750000  0.594603  0.511927  1
  Fe  Fe11  1  0.750000  0.904981  0.009013  1
  Fe  Fe12  1  0.250000  0.218933  0.175693  1
  Fe  Fe13  1  0.250000  0.282858  0.675585  1
  Fe  Fe14  1  0.750000  0.780249  0.823576  1
  Fe  Fe15  1  0.750000  0.718226  0.325097  1
  Fe  Fe16  1  0.250000  0.871600  0.702648  1
  Fe  Fe17  1  0.250000  0.624927  0.201110  1
  Fe  Fe18  1  0.750000  0.125573  0.298258  1
  Fe  Fe19  1  0.750000  0.377278  0.796630  1
  Fe  Fe20  1  0.250000  0.465026  0.929277  1
  Fe  Fe21  1  0.250000  0.036439  0.433194  1
  Fe  Fe22  1  0.750000  0.536983  0.065222  1
  Fe  Fe23  1  0.750000  0.961221  0.569099  1
  P  P24  1  0.250000  0.424215  0.111605  1
  P  P25  1  0.250000  0.076068  0.613962  1
  P  P26  1  0.750000  0.577114  0.882460  1
  P  P27  1  0.750000  0.922519  0.387734  1
  P  P28  1  0.250000  0.265490  0.870198  1
  P  P29  1  0.250000  0.235690  0.371222  1
  P  P30  1  0.750000  0.734172  0.130128  1
  P  P31  1  0.750000  0.759933  0.631145  1
  P  P32  1  0.250000  0.597606  0.394028  1
  P  P33  1  0.250000  0.903192  0.894652  1
  P  P34  1  0.750000  0.406958  0.607454  1
  P  P35  1  0.750000  0.097010  0.105431  1
