# generated using pymatgen
data_Er16MnIn6Au
_symmetry_space_group_name_H-M   'P 1'
_cell_length_a   10.43941000
_cell_length_b   10.43947042
_cell_length_c   6.89759300
_cell_angle_alpha   89.99976356
_cell_angle_beta   90.00023704
_cell_angle_gamma   119.99957287
_symmetry_Int_Tables_number   1
_chemical_formula_structural   Er16MnIn6Au
_chemical_formula_sum   'Er16 Mn1 In6 Au1'
_cell_volume   651.00524613
_cell_formula_units_Z   1
loop_
 _symmetry_equiv_pos_site_id
 _symmetry_equiv_pos_as_xyz
  1  'x, y, z'
loop_
 _atom_site_type_symbol
 _atom_site_label
 _atom_site_symmetry_multiplicity
 _atom_site_fract_x
 _atom_site_fract_y
 _atom_site_fract_z
 _atom_site_occupancy
  Er  Er0  1  0.523850  0.047723  0.798010  1
  Er  Er1  1  0.952270  0.476136  0.798021  1
  Er  Er2  1  0.523870  0.476135  0.798015  1
  Er  Er3  1  0.465698  0.931389  0.295367  1
  Er  Er4  1  0.068611  0.534304  0.295370  1
  Er  Er5  1  0.465691  0.534301  0.295385  1
  Er  Er6  1  0.826532  0.653068  0.500365  1
  Er  Er7  1  0.346927  0.173477  0.500379  1
  Er  Er8  1  0.826544  0.173466  0.500386  1
  Er  Er9  1  0.175333  0.350671  0.007638  1
  Er  Er10  1  0.649335  0.824665  0.007649  1
  Er  Er11  1  0.175338  0.824667  0.007628  1
  Er  Er12  1  0.666666  0.333338  0.158057  1
  Er  Er13  1  0.333337  0.666669  0.673460  1
  Er  Er14  1  0.999997  0.000002  0.777031  1
  Er  Er15  1  0.999989  0.999992  0.278786  1
  Mn  Mn16  1  0.333327  0.666657  0.058804  1
  In  In17  1  0.836547  0.673090  0.032823  1
  In  In18  1  0.326915  0.163459  0.032821  1
  In  In19  1  0.836538  0.163451  0.032818  1
  In  In20  1  0.163208  0.326423  0.539624  1
  In  In21  1  0.673581  0.836795  0.539599  1
  In  In22  1  0.163215  0.836789  0.539597  1
  Au  Au23  1  0.666677  0.333335  0.568270  1
