# generated using pymatgen
data_LiLa5ZnIr3
_symmetry_space_group_name_H-M   'P 1'
_cell_length_a   8.71070887
_cell_length_b   8.71070946
_cell_length_c   8.66814400
_cell_angle_alpha   109.49673741
_cell_angle_beta   109.45766126
_cell_angle_gamma   109.65740273
_symmetry_Int_Tables_number   1
_chemical_formula_structural   LiLa5ZnIr3
_chemical_formula_sum   'Li2 La10 Zn2 Ir6'
_cell_volume   505.06072398
_cell_formula_units_Z   2
loop_
 _symmetry_equiv_pos_site_id
 _symmetry_equiv_pos_as_xyz
  1  'x, y, z'
loop_
 _atom_site_type_symbol
 _atom_site_label
 _atom_site_symmetry_multiplicity
 _atom_site_fract_x
 _atom_site_fract_y
 _atom_site_fract_z
 _atom_site_occupancy
  Li  Li0  1  0.908260  0.501022  0.001368  1
  Li  Li1  1  0.999653  0.906891  0.498632  1
  La  La2  1  0.255121  0.684392  0.435643  1
  La  La3  1  0.748748  0.819476  0.064357  1
  La  La4  1  0.432784  0.250084  0.682422  1
  La  La5  1  0.679656  0.429656  0.250000  1
  La  La6  1  0.067662  0.750362  0.817578  1
  La  La7  1  0.813935  0.063935  0.750000  1
  La  La8  1  0.222388  0.222768  0.222870  1
  La  La9  1  0.499899  0.999518  0.277130  1
  La  La10  1  0.278760  0.499739  0.999742  1
  La  La11  1  0.999998  0.279019  0.500258  1
  Zn  Zn12  1  0.594753  0.593615  0.593465  1
  Zn  Zn13  1  0.500148  0.001287  0.906535  1
  Ir  Ir14  1  0.254796  0.130438  0.886679  1
  Ir  Ir15  1  0.743759  0.368117  0.613321  1
  Ir  Ir16  1  0.877164  0.246029  0.132316  1
  Ir  Ir17  1  0.136008  0.886007  0.250000  1
  Ir  Ir18  1  0.613712  0.744849  0.367684  1
  Ir  Ir19  1  0.372795  0.622795  0.750000  1
