# generated using pymatgen
data_NdSm5FeI10
_symmetry_space_group_name_H-M   'P 1'
_cell_length_a   7.85493660
_cell_length_b   9.59964903
_cell_length_c   9.92376300
_cell_angle_alpha   107.88953426
_cell_angle_beta   97.42160918
_cell_angle_gamma   104.64873411
_symmetry_Int_Tables_number   1
_chemical_formula_structural   NdSm5FeI10
_chemical_formula_sum   'Nd1 Sm5 Fe1 I10'
_cell_volume   671.35715519
_cell_formula_units_Z   1
loop_
 _symmetry_equiv_pos_site_id
 _symmetry_equiv_pos_as_xyz
  1  'x, y, z'
loop_
 _atom_site_type_symbol
 _atom_site_label
 _atom_site_symmetry_multiplicity
 _atom_site_fract_x
 _atom_site_fract_y
 _atom_site_fract_z
 _atom_site_occupancy
  Nd  Nd0  1  0.531505  0.236272  0.422888  1
  Sm  Sm1  1  0.468099  0.760659  0.576270  1
  Sm  Sm2  1  0.143637  0.369467  0.328470  1
  Sm  Sm3  1  0.856668  0.630820  0.671242  1
  Sm  Sm4  1  0.618020  0.543920  0.256293  1
  Sm  Sm5  1  0.383803  0.456591  0.744360  1
  Fe  Fe6  1  0.500766  0.497792  0.499298  1
  I  I7  1  0.144173  0.039210  0.223840  1
  I  I8  1  0.848091  0.958798  0.773252  1
  I  I9  1  0.237611  0.412357  0.040219  1
  I  I10  1  0.763805  0.590675  0.960866  1
  I  I11  1  0.710361  0.236778  0.147665  1
  I  I12  1  0.292990  0.765459  0.849203  1
  I  I13  1  0.049352  0.689350  0.413336  1
  I  I14  1  0.954514  0.312701  0.588665  1
  I  I15  1  0.411542  0.127448  0.680105  1
  I  I16  1  0.585067  0.871703  0.324032  1
