# generated using pymatgen
data_KEuCrN3
_symmetry_space_group_name_H-M   'P 1'
_cell_length_a   6.26307502
_cell_length_b   6.26307543
_cell_length_c   12.12811500
_cell_angle_alpha   90.00000000
_cell_angle_beta   90.00000000
_cell_angle_gamma   125.82495599
_symmetry_Int_Tables_number   1
_chemical_formula_structural   KEuCrN3
_chemical_formula_sum   'K4 Eu4 Cr4 N12'
_cell_volume   385.73327014
_cell_formula_units_Z   4
loop_
 _symmetry_equiv_pos_site_id
 _symmetry_equiv_pos_as_xyz
  1  'x, y, z'
loop_
 _atom_site_type_symbol
 _atom_site_label
 _atom_site_symmetry_multiplicity
 _atom_site_fract_x
 _atom_site_fract_y
 _atom_site_fract_z
 _atom_site_occupancy
  K  K0  1  0.541458  0.458542  0.643452  1
  K  K1  1  0.458542  0.541458  0.356548  1
  K  K2  1  0.958542  0.041458  0.143452  1
  K  K3  1  0.041458  0.958542  0.856548  1
  Eu  Eu4  1  0.850529  0.149471  0.585127  1
  Eu  Eu5  1  0.149471  0.850529  0.414873  1
  Eu  Eu6  1  0.649471  0.350529  0.085127  1
  Eu  Eu7  1  0.350529  0.649471  0.914873  1
  Cr  Cr8  1  0.726804  0.273196  0.837384  1
  Cr  Cr9  1  0.273196  0.726804  0.162616  1
  Cr  Cr10  1  0.773196  0.226804  0.337384  1
  Cr  Cr11  1  0.226804  0.773196  0.662616  1
  N  N12  1  0.815826  0.184174  0.951739  1
  N  N13  1  0.184174  0.815826  0.048261  1
  N  N14  1  0.684174  0.315826  0.451739  1
  N  N15  1  0.315826  0.684174  0.548261  1
  N  N16  1  0.581157  0.418843  0.880790  1
  N  N17  1  0.418843  0.581157  0.119210  1
  N  N18  1  0.918843  0.081157  0.380790  1
  N  N19  1  0.081157  0.918843  0.619210  1
  N  N20  1  0.514562  0.985438  0.750000  1
  N  N21  1  0.985438  0.514562  0.250000  1
  N  N22  1  0.485438  0.014562  0.250000  1
  N  N23  1  0.014562  0.485438  0.750000  1
