# generated using pymatgen
data_Fe2AgIBr8
_symmetry_space_group_name_H-M   'P 1'
_cell_length_a   7.79093134
_cell_length_b   8.10333482
_cell_length_c   16.64665149
_cell_angle_alpha   85.32329984
_cell_angle_beta   86.16198260
_cell_angle_gamma   78.32720600
_symmetry_Int_Tables_number   1
_chemical_formula_structural   Fe2AgIBr8
_chemical_formula_sum   'Fe4 Ag2 I2 Br16'
_cell_volume   1024.41330121
_cell_formula_units_Z   2
loop_
 _symmetry_equiv_pos_site_id
 _symmetry_equiv_pos_as_xyz
  1  'x, y, z'
loop_
 _atom_site_type_symbol
 _atom_site_label
 _atom_site_symmetry_multiplicity
 _atom_site_fract_x
 _atom_site_fract_y
 _atom_site_fract_z
 _atom_site_occupancy
  Fe  Fe0  1  0.137415  0.714823  0.577912  1
  Fe  Fe1  1  0.862585  0.285177  0.422088  1
  Fe  Fe2  1  0.718771  0.301929  0.872008  1
  Fe  Fe3  1  0.281229  0.698071  0.127992  1
  Ag  Ag4  1  0.052016  0.218094  0.605834  1
  Ag  Ag5  1  0.947984  0.781906  0.394166  1
  I  I6  1  0.546308  0.857702  0.845139  1
  I  I7  1  0.453692  0.142298  0.154861  1
  Br  Br8  1  0.200752  0.459350  0.661433  1
  Br  Br9  1  0.799248  0.540650  0.338567  1
  Br  Br10  1  0.636257  0.552611  0.780484  1
  Br  Br11  1  0.363743  0.447389  0.219516  1
  Br  Br12  1  0.261990  0.914653  0.639587  1
  Br  Br13  1  0.738010  0.085347  0.360413  1
  Br  Br14  1  0.925835  0.130936  0.793808  1
  Br  Br15  1  0.074165  0.869064  0.206192  1
  Br  Br16  1  0.188465  0.640393  0.007558  1
  Br  Br17  1  0.811535  0.359607  0.992442  1
  Br  Br18  1  0.725787  0.324959  0.553649  1
  Br  Br19  1  0.274213  0.675041  0.446351  1
  Br  Br20  1  0.833346  0.801866  0.568795  1
  Br  Br21  1  0.166654  0.198134  0.431205  1
  Br  Br22  1  0.454144  0.179040  0.896280  1
  Br  Br23  1  0.545856  0.820960  0.103720  1
