# generated using pymatgen
data_Sr9Tb7(LuPb4)4
_symmetry_space_group_name_H-M   'P 1'
_cell_length_a   8.17728961
_cell_length_b   8.70229816
_cell_length_c   16.39745944
_cell_angle_alpha   90.02616168
_cell_angle_beta   90.00420008
_cell_angle_gamma   90.07406124
_symmetry_Int_Tables_number   1
_chemical_formula_structural   Sr9Tb7(LuPb4)4
_chemical_formula_sum   'Sr9 Tb7 Lu4 Pb16'
_cell_volume   1166.86199291
_cell_formula_units_Z   1
loop_
 _symmetry_equiv_pos_site_id
 _symmetry_equiv_pos_as_xyz
  1  'x, y, z'
loop_
 _atom_site_type_symbol
 _atom_site_label
 _atom_site_symmetry_multiplicity
 _atom_site_fract_x
 _atom_site_fract_y
 _atom_site_fract_z
 _atom_site_occupancy
  Sr  Sr0  1  0.495699  0.678924  0.593908  1
  Sr  Sr1  1  0.995500  0.820656  0.905961  1
  Sr  Sr2  1  0.501429  0.319104  0.090721  1
  Sr  Sr3  1  0.002361  0.181927  0.411260  1
  Sr  Sr4  1  0.501772  0.318987  0.409524  1
  Sr  Sr5  1  0.002434  0.181874  0.088778  1
  Sr  Sr6  1  0.495866  0.678885  0.906040  1
  Sr  Sr7  1  0.995306  0.820837  0.594047  1
  Sr  Sr8  1  0.674286  0.012532  0.250059  1
  Tb  Tb9  1  0.170339  0.342976  0.874840  1
  Tb  Tb10  1  0.330185  0.838913  0.120751  1
  Tb  Tb11  1  0.832538  0.661551  0.379283  1
  Tb  Tb12  1  0.330331  0.838912  0.379355  1
  Tb  Tb13  1  0.832433  0.661740  0.120976  1
  Tb  Tb14  1  0.670927  0.158353  0.873854  1
  Tb  Tb15  1  0.170265  0.343167  0.624911  1
  Lu  Lu16  1  0.670345  0.157597  0.626311  1
  Lu  Lu17  1  0.831079  0.503856  0.749690  1
  Lu  Lu18  1  0.332229  0.996906  0.749678  1
  Lu  Lu19  1  0.173211  0.494160  0.249980  1
  Pb  Pb20  1  0.671845  0.955936  0.462323  1
  Pb  Pb21  1  0.173408  0.541326  0.043767  1
  Pb  Pb22  1  0.326387  0.041914  0.953575  1
  Pb  Pb23  1  0.824643  0.456496  0.546460  1
  Pb  Pb24  1  0.328167  0.042223  0.546774  1
  Pb  Pb25  1  0.826365  0.457898  0.954062  1
  Pb  Pb26  1  0.671585  0.954735  0.038658  1
  Pb  Pb27  1  0.173347  0.541193  0.456268  1
  Pb  Pb28  1  0.474883  0.362400  0.749214  1
  Pb  Pb29  1  0.973899  0.135102  0.749240  1
  Pb  Pb30  1  0.526403  0.627906  0.250102  1
  Pb  Pb31  1  0.038555  0.852844  0.250065  1
  Pb  Pb32  1  0.694875  0.857816  0.749598  1
  Pb  Pb33  1  0.195782  0.643472  0.749896  1
  Pb  Pb34  1  0.282178  0.138499  0.250005  1
  Pb  Pb35  1  0.809141  0.378381  0.250065  1
