# generated using pymatgen
data_Pr3Fe(P3Rh4)2
_symmetry_space_group_name_H-M   'P 1'
_cell_length_a   3.95356400
_cell_length_b   11.33209200
_cell_length_c   12.91402100
_cell_angle_alpha   90.00000000
_cell_angle_beta   90.00000000
_cell_angle_gamma   90.00000000
_symmetry_Int_Tables_number   1
_chemical_formula_structural   Pr3Fe(P3Rh4)2
_chemical_formula_sum   'Pr6 Fe2 P12 Rh16'
_cell_volume   578.57591855
_cell_formula_units_Z   2
loop_
 _symmetry_equiv_pos_site_id
 _symmetry_equiv_pos_as_xyz
  1  'x, y, z'
loop_
 _atom_site_type_symbol
 _atom_site_label
 _atom_site_symmetry_multiplicity
 _atom_site_fract_x
 _atom_site_fract_y
 _atom_site_fract_z
 _atom_site_occupancy
  Pr  Pr0  1  0.000000  0.500000  0.520041  1
  Pr  Pr1  1  0.500000  0.000000  0.479959  1
  Pr  Pr2  1  0.500000  0.818483  0.201515  1
  Pr  Pr3  1  0.500000  0.181517  0.201515  1
  Pr  Pr4  1  0.000000  0.681517  0.798485  1
  Pr  Pr5  1  0.000000  0.318483  0.798485  1
  Fe  Fe6  1  0.000000  0.500000  0.989556  1
  Fe  Fe7  1  0.500000  0.000000  0.010444  1
  P  P8  1  0.500000  0.500000  0.889169  1
  P  P9  1  0.000000  0.000000  0.110831  1
  P  P10  1  0.500000  0.500000  0.344484  1
  P  P11  1  0.000000  0.000000  0.655516  1
  P  P12  1  0.500000  0.311301  0.618758  1
  P  P13  1  0.500000  0.688699  0.618758  1
  P  P14  1  0.000000  0.188699  0.381242  1
  P  P15  1  0.000000  0.811301  0.381242  1
  P  P16  1  0.500000  0.852249  0.897914  1
  P  P17  1  0.500000  0.147751  0.897914  1
  P  P18  1  0.000000  0.647751  0.102086  1
  P  P19  1  0.000000  0.352249  0.102086  1
  Rh  Rh20  1  0.500000  0.500000  0.162965  1
  Rh  Rh21  1  0.000000  0.000000  0.837035  1
  Rh  Rh22  1  0.500000  0.500000  0.704017  1
  Rh  Rh23  1  0.000000  0.000000  0.295983  1
  Rh  Rh24  1  0.500000  0.335504  0.996079  1
  Rh  Rh25  1  0.500000  0.664496  0.996079  1
  Rh  Rh26  1  0.000000  0.164496  0.003921  1
  Rh  Rh27  1  0.000000  0.835504  0.003921  1
  Rh  Rh28  1  0.500000  0.292798  0.429945  1
  Rh  Rh29  1  0.500000  0.707202  0.429945  1
  Rh  Rh30  1  0.000000  0.207202  0.570055  1
  Rh  Rh31  1  0.000000  0.792798  0.570055  1
  Rh  Rh32  1  0.500000  0.875802  0.712522  1
  Rh  Rh33  1  0.500000  0.124198  0.712522  1
  Rh  Rh34  1  0.000000  0.624198  0.287478  1
  Rh  Rh35  1  0.000000  0.375802  0.287478  1
