# generated using pymatgen
data_Ti3MnGe2BOs2
_symmetry_space_group_name_H-M   'P 1'
_cell_length_a   6.65427166
_cell_length_b   6.68586865
_cell_length_c   3.11733700
_cell_angle_alpha   90.00000000
_cell_angle_beta   90.00000000
_cell_angle_gamma   120.15721676
_symmetry_Int_Tables_number   1
_chemical_formula_structural   Ti3MnGe2BOs2
_chemical_formula_sum   'Ti3 Mn1 Ge2 B1 Os2'
_cell_volume   119.91749628
_cell_formula_units_Z   1
loop_
 _symmetry_equiv_pos_site_id
 _symmetry_equiv_pos_as_xyz
  1  'x, y, z'
loop_
 _atom_site_type_symbol
 _atom_site_label
 _atom_site_symmetry_multiplicity
 _atom_site_fract_x
 _atom_site_fract_y
 _atom_site_fract_z
 _atom_site_occupancy
  Ti  Ti0  1  0.000000  0.393452  0.500000  1
  Ti  Ti1  1  0.623127  0.616263  0.500000  1
  Ti  Ti2  1  0.376873  0.993136  0.500000  1
  Mn  Mn3  1  0.000000  0.765013  0.000000  1
  Ge  Ge4  1  0.330417  0.666804  0.000000  1
  Ge  Ge5  1  0.669583  0.336387  0.000000  1
  B  B6  1  0.000000  0.993003  0.500000  1
  Os  Os7  1  0.239211  0.237577  0.000000  1
  Os  Os8  1  0.760789  0.998366  0.000000  1
