# generated using pymatgen
data_LiCaLu3Al17Pd6
_symmetry_space_group_name_H-M   'P 1'
_cell_length_a   7.60767087
_cell_length_b   7.60196183
_cell_length_c   9.43756400
_cell_angle_alpha   90.00000000
_cell_angle_beta   90.00000000
_cell_angle_gamma   119.20588024
_symmetry_Int_Tables_number   1
_chemical_formula_structural   LiCaLu3Al17Pd6
_chemical_formula_sum   'Li1 Ca1 Lu3 Al17 Pd6'
_cell_volume   476.41768473
_cell_formula_units_Z   1
loop_
 _symmetry_equiv_pos_site_id
 _symmetry_equiv_pos_as_xyz
  1  'x, y, z'
loop_
 _atom_site_type_symbol
 _atom_site_label
 _atom_site_symmetry_multiplicity
 _atom_site_fract_x
 _atom_site_fract_y
 _atom_site_fract_z
 _atom_site_occupancy
  Li  Li0  1  0.127460  0.129204  0.250000  1
  Ca  Ca1  1  0.995332  0.668734  0.250000  1
  Lu  Lu2  1  0.005904  0.327946  0.750000  1
  Lu  Lu3  1  0.665627  0.995422  0.250000  1
  Lu  Lu4  1  0.325490  0.004859  0.750000  1
  Al  Al5  1  0.866644  0.867687  0.750000  1
  Al  Al6  1  0.000472  0.327736  0.083341  1
  Al  Al7  1  0.000792  0.663767  0.921131  1
  Al  Al8  1  0.000792  0.663767  0.578869  1
  Al  Al9  1  0.331480  0.001701  0.419070  1
  Al  Al10  1  0.000472  0.327736  0.416659  1
  Al  Al11  1  0.664450  0.002063  0.577892  1
  Al  Al12  1  0.664450  0.002063  0.922108  1
  Al  Al13  1  0.331480  0.001701  0.080930  1
  Al  Al14  1  0.333970  0.334086  0.547989  1
  Al  Al15  1  0.671973  0.673795  0.441052  1
  Al  Al16  1  0.671973  0.673795  0.058948  1
  Al  Al17  1  0.333970  0.334086  0.952011  1
  Al  Al18  1  0.345323  0.544955  0.250000  1
  Al  Al19  1  0.657463  0.448169  0.750000  1
  Al  Al20  1  0.540548  0.335702  0.250000  1
  Al  Al21  1  0.450866  0.657676  0.750000  1
  Pd  Pd22  1  0.675129  0.328773  0.999077  1
  Pd  Pd23  1  0.329803  0.675492  0.998752  1
  Pd  Pd24  1  0.329803  0.675492  0.501248  1
  Pd  Pd25  1  0.675129  0.328773  0.500923  1
  Pd  Pd26  1  0.001604  0.002409  0.991180  1
  Pd  Pd27  1  0.001604  0.002409  0.508820  1
