# generated using pymatgen
data_Dy2NbRu3
_symmetry_space_group_name_H-M   'P 1'
_cell_length_a   5.70475404
_cell_length_b   5.70475442
_cell_length_c   8.03836400
_cell_angle_alpha   90.00000000
_cell_angle_beta   90.00000000
_cell_angle_gamma   120.01575713
_symmetry_Int_Tables_number   1
_chemical_formula_structural   Dy2NbRu3
_chemical_formula_sum   'Dy4 Nb2 Ru6'
_cell_volume   226.51825077
_cell_formula_units_Z   2
loop_
 _symmetry_equiv_pos_site_id
 _symmetry_equiv_pos_as_xyz
  1  'x, y, z'
loop_
 _atom_site_type_symbol
 _atom_site_label
 _atom_site_symmetry_multiplicity
 _atom_site_fract_x
 _atom_site_fract_y
 _atom_site_fract_z
 _atom_site_occupancy
  Dy  Dy0  1  0.666659  0.333341  0.560591  1
  Dy  Dy1  1  0.333341  0.666659  0.439409  1
  Dy  Dy2  1  0.333341  0.666659  0.060591  1
  Dy  Dy3  1  0.666659  0.333341  0.939409  1
  Nb  Nb4  1  0.000000  0.000000  0.500000  1
  Nb  Nb5  1  0.000000  0.000000  0.000000  1
  Ru  Ru6  1  0.171569  0.343149  0.750000  1
  Ru  Ru7  1  0.171602  0.828398  0.750000  1
  Ru  Ru8  1  0.656851  0.828431  0.750000  1
  Ru  Ru9  1  0.828431  0.656851  0.250000  1
  Ru  Ru10  1  0.828398  0.171602  0.250000  1
  Ru  Ru11  1  0.343149  0.171569  0.250000  1
