# generated using pymatgen
data_BaErCuSe2S
_symmetry_space_group_name_H-M   'P 1'
_cell_length_a   7.26073700
_cell_length_b   7.26073719
_cell_length_c   10.32436500
_cell_angle_alpha   90.00000000
_cell_angle_beta   90.00000000
_cell_angle_gamma   147.11452823
_symmetry_Int_Tables_number   1
_chemical_formula_structural   BaErCuSe2S
_chemical_formula_sum   'Ba2 Er2 Cu2 Se4 S2'
_cell_volume   295.52473460
_cell_formula_units_Z   2
loop_
 _symmetry_equiv_pos_site_id
 _symmetry_equiv_pos_as_xyz
  1  'x, y, z'
loop_
 _atom_site_type_symbol
 _atom_site_label
 _atom_site_symmetry_multiplicity
 _atom_site_fract_x
 _atom_site_fract_y
 _atom_site_fract_z
 _atom_site_occupancy
  Ba  Ba0  1  0.737326  0.262674  0.250000  1
  Ba  Ba1  1  0.262674  0.737326  0.750000  1
  Er  Er2  1  0.000000  0.000000  0.000000  1
  Er  Er3  1  0.000000  0.000000  0.500000  1
  Cu  Cu4  1  0.472201  0.527798  0.250000  1
  Cu  Cu5  1  0.527798  0.472201  0.750000  1
  Se  Se6  1  0.364349  0.635650  0.059013  1
  Se  Se7  1  0.364349  0.635650  0.440988  1
  Se  Se8  1  0.635650  0.364349  0.559013  1
  Se  Se9  1  0.635650  0.364349  0.940988  1
  S  S10  1  0.062380  0.937619  0.250000  1
  S  S11  1  0.937619  0.062380  0.750000  1
