# generated using pymatgen
data_NdDy8Th3(Si2Ni)4
_symmetry_space_group_name_H-M   'P 1'
_cell_length_a   4.17082100
_cell_length_b   11.49780079
_cell_length_c   11.27286378
_cell_angle_alpha   89.63611698
_cell_angle_beta   90.00000000
_cell_angle_gamma   90.00000000
_symmetry_Int_Tables_number   1
_chemical_formula_structural   NdDy8Th3(Si2Ni)4
_chemical_formula_sum   'Nd1 Dy8 Th3 Si8 Ni4'
_cell_volume   540.58231264
_cell_formula_units_Z   1
loop_
 _symmetry_equiv_pos_site_id
 _symmetry_equiv_pos_as_xyz
  1  'x, y, z'
loop_
 _atom_site_type_symbol
 _atom_site_label
 _atom_site_symmetry_multiplicity
 _atom_site_fract_x
 _atom_site_fract_y
 _atom_site_fract_z
 _atom_site_occupancy
  Nd  Nd0  1  0.250000  0.119334  0.562298  1
  Dy  Dy1  1  0.750000  0.560891  0.616144  1
  Dy  Dy2  1  0.250000  0.379370  0.060017  1
  Dy  Dy3  1  0.750000  0.872857  0.437001  1
  Dy  Dy4  1  0.750000  0.621877  0.937978  1
  Dy  Dy5  1  0.250000  0.797902  0.710919  1
  Dy  Dy6  1  0.250000  0.692096  0.209889  1
  Dy  Dy7  1  0.750000  0.197195  0.290236  1
  Dy  Dy8  1  0.750000  0.315187  0.791892  1
  Th  Th9  1  0.250000  0.061212  0.883303  1
  Th  Th10  1  0.250000  0.440539  0.385371  1
  Th  Th11  1  0.750000  0.939655  0.115647  1
  Si  Si12  1  0.250000  0.805183  0.971523  1
  Si  Si13  1  0.250000  0.689920  0.471631  1
  Si  Si14  1  0.750000  0.195704  0.027838  1
  Si  Si15  1  0.750000  0.313319  0.532709  1
  Si  Si16  1  0.250000  0.497526  0.801964  1
  Si  Si17  1  0.250000  0.012308  0.305624  1
  Si  Si18  1  0.750000  0.508602  0.193179  1
  Si  Si19  1  0.750000  0.977101  0.694466  1
  Ni  Ni20  1  0.250000  0.368455  0.630559  1
  Ni  Ni21  1  0.250000  0.136143  0.128866  1
  Ni  Ni22  1  0.750000  0.633992  0.367473  1
  Ni  Ni23  1  0.750000  0.863630  0.873471  1
