# generated using pymatgen
data_Ho3Er3NiI10
_symmetry_space_group_name_H-M   'P 1'
_cell_length_a   7.67673892
_cell_length_b   9.63623063
_cell_length_c   9.63814294
_cell_angle_alpha   106.81806929
_cell_angle_beta   96.69776187
_cell_angle_gamma   104.32985568
_symmetry_Int_Tables_number   1
_chemical_formula_structural   Ho3Er3NiI10
_chemical_formula_sum   'Ho3 Er3 Ni1 I10'
_cell_volume   647.48649792
_cell_formula_units_Z   1
loop_
 _symmetry_equiv_pos_site_id
 _symmetry_equiv_pos_as_xyz
  1  'x, y, z'
loop_
 _atom_site_type_symbol
 _atom_site_label
 _atom_site_symmetry_multiplicity
 _atom_site_fract_x
 _atom_site_fract_y
 _atom_site_fract_z
 _atom_site_occupancy
  Ho  Ho0  1  0.336268  0.118337  0.160101  1
  Ho  Ho1  1  0.663230  0.880970  0.839930  1
  Ho  Ho2  1  0.966588  0.277601  0.082351  1
  Er  Er3  1  0.033279  0.723731  0.918259  1
  Er  Er4  1  0.887665  0.959065  0.234050  1
  Er  Er5  1  0.112307  0.040822  0.766445  1
  Ni  Ni6  1  0.999430  0.999859  0.999888  1
  I  I7  1  0.346267  0.448274  0.272182  1
  I  I8  1  0.655472  0.551698  0.727711  1
  I  I9  1  0.769479  0.253335  0.342965  1
  I  I10  1  0.229748  0.746382  0.657523  1
  I  I11  1  0.544224  0.186223  0.905884  1
  I  I12  1  0.455051  0.813173  0.093300  1
  I  I13  1  0.745628  0.913980  0.537903  1
  I  I14  1  0.254242  0.085814  0.462134  1
  I  I15  1  0.914530  0.627370  0.180228  1
  I  I16  1  0.086593  0.373365  0.819145  1
