# generated using pymatgen
data_Pr5ZrWO12
_symmetry_space_group_name_H-M   'P 1'
_cell_length_a   7.19606546
_cell_length_b   7.19606475
_cell_length_c   7.73324303
_cell_angle_alpha   74.47637516
_cell_angle_beta   74.47637764
_cell_angle_gamma   51.25596145
_symmetry_Int_Tables_number   1
_chemical_formula_structural   Pr5ZrWO12
_chemical_formula_sum   'Pr5 Zr1 W1 O12'
_cell_volume   298.25580297
_cell_formula_units_Z   1
loop_
 _symmetry_equiv_pos_site_id
 _symmetry_equiv_pos_as_xyz
  1  'x, y, z'
loop_
 _atom_site_type_symbol
 _atom_site_label
 _atom_site_symmetry_multiplicity
 _atom_site_fract_x
 _atom_site_fract_y
 _atom_site_fract_z
 _atom_site_occupancy
  Pr  Pr0  1  0.304278  0.301020  0.361596  1
  Pr  Pr1  1  0.698980  0.695722  0.638404  1
  Pr  Pr2  1  0.690103  0.697677  0.169704  1
  Pr  Pr3  1  0.302323  0.309897  0.830296  1
  Pr  Pr4  1  0.004699  0.995301  0.500000  1
  Zr  Zr5  1  0.765419  0.234581  0.000000  1
  W  W6  1  0.249254  0.750746  0.000000  1
  O  O7  1  0.094666  0.597480  0.573982  1
  O  O8  1  0.011943  0.987123  0.184572  1
  O  O9  1  0.402520  0.905334  0.426018  1
  O  O10  1  0.495826  0.506906  0.180665  1
  O  O11  1  0.102945  0.584465  0.080126  1
  O  O12  1  0.904743  0.406864  0.421124  1
  O  O13  1  0.012877  0.988057  0.815428  1
  O  O14  1  0.593136  0.095256  0.578876  1
  O  O15  1  0.493094  0.504174  0.819335  1
  O  O16  1  0.561521  0.103864  0.082221  1
  O  O17  1  0.415535  0.897055  0.919874  1
  O  O18  1  0.896136  0.438479  0.917779  1
