# generated using pymatgen
data_Tb2Nd8Ir3Rh
_symmetry_space_group_name_H-M   'P 1'
_cell_length_a   6.66936840
_cell_length_b   7.27600900
_cell_length_c   8.95829979
_cell_angle_alpha   96.36196664
_cell_angle_beta   112.14657035
_cell_angle_gamma   90.05318093
_symmetry_Int_Tables_number   1
_chemical_formula_structural   Tb2Nd8Ir3Rh
_chemical_formula_sum   'Tb2 Nd8 Ir3 Rh1'
_cell_volume   399.73144553
_cell_formula_units_Z   1
loop_
 _symmetry_equiv_pos_site_id
 _symmetry_equiv_pos_as_xyz
  1  'x, y, z'
loop_
 _atom_site_type_symbol
 _atom_site_label
 _atom_site_symmetry_multiplicity
 _atom_site_fract_x
 _atom_site_fract_y
 _atom_site_fract_z
 _atom_site_occupancy
  Tb  Tb0  1  0.435718  0.750553  0.999456  1
  Tb  Tb1  1  0.563017  0.248844  0.999884  1
  Nd  Nd2  1  0.977148  0.922266  0.181348  1
  Nd  Nd3  1  0.794135  0.577103  0.813732  1
  Nd  Nd4  1  0.022129  0.077696  0.817655  1
  Nd  Nd5  1  0.207293  0.422153  0.184773  1
  Nd  Nd6  1  0.644683  0.812376  0.431170  1
  Nd  Nd7  1  0.214741  0.688323  0.567648  1
  Nd  Nd8  1  0.353189  0.188680  0.568515  1
  Nd  Nd9  1  0.786498  0.312340  0.433409  1
  Ir  Ir10  1  0.598891  0.928525  0.787934  1
  Ir  Ir11  1  0.187845  0.428322  0.785032  1
  Ir  Ir12  1  0.400615  0.071571  0.213074  1
  Rh  Rh13  1  0.814098  0.571249  0.216369  1
