# generated using pymatgen
data_Zr14GaPd19
_symmetry_space_group_name_H-M   'P 1'
_cell_length_a   8.17990339
_cell_length_b   8.17990263
_cell_length_c   9.75060473
_cell_angle_alpha   90.39371593
_cell_angle_beta   90.39371747
_cell_angle_gamma   106.90041089
_symmetry_Int_Tables_number   1
_chemical_formula_structural   Zr14GaPd19
_chemical_formula_sum   'Zr14 Ga1 Pd19'
_cell_volume   624.20225396
_cell_formula_units_Z   1
loop_
 _symmetry_equiv_pos_site_id
 _symmetry_equiv_pos_as_xyz
  1  'x, y, z'
loop_
 _atom_site_type_symbol
 _atom_site_label
 _atom_site_symmetry_multiplicity
 _atom_site_fract_x
 _atom_site_fract_y
 _atom_site_fract_z
 _atom_site_occupancy
  Zr  Zr0  1  0.199898  0.810582  0.995281  1
  Zr  Zr1  1  0.689965  0.308589  0.499394  1
  Zr  Zr2  1  0.311054  0.311054  0.688208  1
  Zr  Zr3  1  0.677116  0.677116  0.323841  1
  Zr  Zr4  1  0.810582  0.199898  0.995281  1
  Zr  Zr5  1  0.000514  0.503680  0.748716  1
  Zr  Zr6  1  0.999243  0.496835  0.250489  1
  Zr  Zr7  1  0.815653  0.815653  0.805478  1
  Zr  Zr8  1  0.498952  0.498952  0.001474  1
  Zr  Zr9  1  0.496835  0.999243  0.250489  1
  Zr  Zr10  1  0.308589  0.689965  0.499394  1
  Zr  Zr11  1  0.503680  0.000514  0.748716  1
  Zr  Zr12  1  0.193242  0.193242  0.185522  1
  Zr  Zr13  1  0.999933  0.999933  0.500701  1
  Ga  Ga14  1  0.892307  0.892307  0.107630  1
  Pd  Pd15  1  0.646444  0.349805  0.207041  1
  Pd  Pd16  1  0.060529  0.352826  0.496344  1
  Pd  Pd17  1  0.648871  0.357182  0.794037  1
  Pd  Pd18  1  0.852359  0.131757  0.286463  1
  Pd  Pd19  1  0.131757  0.852359  0.286463  1
  Pd  Pd20  1  0.603570  0.603570  0.605895  1
  Pd  Pd21  1  0.440222  0.144464  0.996390  1
  Pd  Pd22  1  0.357182  0.648871  0.794037  1
  Pd  Pd23  1  0.151392  0.858810  0.706464  1
  Pd  Pd24  1  0.144464  0.440222  0.996390  1
  Pd  Pd25  1  0.575280  0.854704  0.007018  1
  Pd  Pd26  1  0.938082  0.645502  0.502565  1
  Pd  Pd27  1  0.645502  0.938082  0.502565  1
  Pd  Pd28  1  0.095547  0.095547  0.905150  1
  Pd  Pd29  1  0.395094  0.395094  0.395700  1
  Pd  Pd30  1  0.854704  0.575280  0.007018  1
  Pd  Pd31  1  0.352826  0.060529  0.496344  1
  Pd  Pd32  1  0.858810  0.151392  0.706464  1
  Pd  Pd33  1  0.349805  0.646444  0.207041  1
