# generated using pymatgen
data_Na2Be(Ni2P)6
_symmetry_space_group_name_H-M   'P 1'
_cell_length_a   8.99874300
_cell_length_b   8.99874272
_cell_length_c   3.55778400
_cell_angle_alpha   90.00000000
_cell_angle_beta   90.00000000
_cell_angle_gamma   119.99999737
_symmetry_Int_Tables_number   1
_chemical_formula_structural   Na2Be(Ni2P)6
_chemical_formula_sum   'Na2 Be1 Ni12 P6'
_cell_volume   249.50192725
_cell_formula_units_Z   1
loop_
 _symmetry_equiv_pos_site_id
 _symmetry_equiv_pos_as_xyz
  1  'x, y, z'
loop_
 _atom_site_type_symbol
 _atom_site_label
 _atom_site_symmetry_multiplicity
 _atom_site_fract_x
 _atom_site_fract_y
 _atom_site_fract_z
 _atom_site_occupancy
  Na  Na0  1  0.000000  0.000000  0.000000  1
  Na  Na1  1  0.333333  0.666667  0.500000  1
  Be  Be2  1  0.666667  0.333333  0.000000  1
  Ni  Ni3  1  0.100705  0.390512  0.000000  1
  Ni  Ni4  1  0.289809  0.899295  0.000000  1
  Ni  Ni5  1  0.609488  0.710191  0.000000  1
  Ni  Ni6  1  0.824056  0.608816  0.000000  1
  Ni  Ni7  1  0.784760  0.175944  0.000000  1
  Ni  Ni8  1  0.391184  0.215240  0.000000  1
  Ni  Ni9  1  0.051563  0.766245  0.500000  1
  Ni  Ni10  1  0.714682  0.948437  0.500000  1
  Ni  Ni11  1  0.233755  0.285318  0.500000  1
  Ni  Ni12  1  0.879506  0.423992  0.500000  1
  Ni  Ni13  1  0.544487  0.120494  0.500000  1
  Ni  Ni14  1  0.576008  0.455513  0.500000  1
  P  P15  1  0.073898  0.621316  0.000000  1
  P  P16  1  0.547418  0.926102  0.000000  1
  P  P17  1  0.378684  0.452582  0.000000  1
  P  P18  1  0.781165  0.736762  0.500000  1
  P  P19  1  0.955598  0.218835  0.500000  1
  P  P20  1  0.263238  0.044402  0.500000  1
