# generated using pymatgen
data_Tb2NdAlAu5
_symmetry_space_group_name_H-M   'P 1'
_cell_length_a   8.56001806
_cell_length_b   8.56001949
_cell_length_c   13.63416500
_cell_angle_alpha   90.00000000
_cell_angle_beta   90.00000000
_cell_angle_gamma   128.15602711
_symmetry_Int_Tables_number   1
_chemical_formula_structural   Tb2NdAlAu5
_chemical_formula_sum   'Tb8 Nd4 Al4 Au20'
_cell_volume   785.56753688
_cell_formula_units_Z   4
loop_
 _symmetry_equiv_pos_site_id
 _symmetry_equiv_pos_as_xyz
  1  'x, y, z'
loop_
 _atom_site_type_symbol
 _atom_site_label
 _atom_site_symmetry_multiplicity
 _atom_site_fract_x
 _atom_site_fract_y
 _atom_site_fract_z
 _atom_site_occupancy
  Tb  Tb0  1  0.630820  0.369180  0.465155  1
  Tb  Tb1  1  0.369180  0.630820  0.534845  1
  Tb  Tb2  1  0.630820  0.369180  0.034845  1
  Tb  Tb3  1  0.369180  0.630820  0.965155  1
  Tb  Tb4  1  0.882123  0.117877  0.949981  1
  Tb  Tb5  1  0.117877  0.882123  0.050019  1
  Tb  Tb6  1  0.882123  0.117877  0.550019  1
  Tb  Tb7  1  0.117877  0.882123  0.449981  1
  Nd  Nd8  1  0.930167  0.069833  0.250000  1
  Nd  Nd9  1  0.069833  0.930167  0.750000  1
  Nd  Nd10  1  0.318708  0.681292  0.250000  1
  Nd  Nd11  1  0.681292  0.318708  0.750000  1
  Al  Al12  1  0.718785  0.281215  0.250000  1
  Al  Al13  1  0.281215  0.718785  0.750000  1
  Al  Al14  1  0.533390  0.466610  0.250000  1
  Al  Al15  1  0.466610  0.533390  0.750000  1
  Au  Au16  1  0.324066  0.070694  0.250000  1
  Au  Au17  1  0.070694  0.324066  0.750000  1
  Au  Au18  1  0.675934  0.929306  0.750000  1
  Au  Au19  1  0.929306  0.675934  0.250000  1
  Au  Au20  1  0.574241  0.008029  0.398803  1
  Au  Au21  1  0.008029  0.574241  0.601197  1
  Au  Au22  1  0.574241  0.008029  0.101197  1
  Au  Au23  1  0.008029  0.574241  0.898803  1
  Au  Au24  1  0.425759  0.991971  0.601197  1
  Au  Au25  1  0.991971  0.425759  0.398803  1
  Au  Au26  1  0.425759  0.991971  0.898803  1
  Au  Au27  1  0.991971  0.425759  0.101197  1
  Au  Au28  1  0.684469  0.737067  0.395847  1
  Au  Au29  1  0.737067  0.684469  0.604153  1
  Au  Au30  1  0.684469  0.737067  0.104153  1
  Au  Au31  1  0.737067  0.684469  0.895847  1
  Au  Au32  1  0.315531  0.262933  0.604153  1
  Au  Au33  1  0.262933  0.315531  0.395847  1
  Au  Au34  1  0.315531  0.262933  0.895847  1
  Au  Au35  1  0.262933  0.315531  0.104153  1
