# generated using pymatgen
data_Ti3V(SiIr)4
_symmetry_space_group_name_H-M   'P 1'
_cell_length_a   3.88225400
_cell_length_b   6.23435138
_cell_length_c   7.22110618
_cell_angle_alpha   89.79020884
_cell_angle_beta   90.00000000
_cell_angle_gamma   90.00000000
_symmetry_Int_Tables_number   1
_chemical_formula_structural   Ti3V(SiIr)4
_chemical_formula_sum   'Ti3 V1 Si4 Ir4'
_cell_volume   174.77368457
_cell_formula_units_Z   1
loop_
 _symmetry_equiv_pos_site_id
 _symmetry_equiv_pos_as_xyz
  1  'x, y, z'
loop_
 _atom_site_type_symbol
 _atom_site_label
 _atom_site_symmetry_multiplicity
 _atom_site_fract_x
 _atom_site_fract_y
 _atom_site_fract_z
 _atom_site_occupancy
  Ti  Ti0  1  0.250000  0.523701  0.684222  1
  Ti  Ti1  1  0.750000  0.976173  0.176511  1
  Ti  Ti2  1  0.750000  0.474024  0.318931  1
  V  V3  1  0.250000  0.025212  0.820507  1
  Si  Si4  1  0.250000  0.771639  0.376083  1
  Si  Si5  1  0.250000  0.265898  0.118804  1
  Si  Si6  1  0.750000  0.222382  0.629165  1
  Si  Si7  1  0.750000  0.736905  0.875970  1
  Ir  Ir8  1  0.250000  0.158391  0.439950  1
  Ir  Ir9  1  0.250000  0.655252  0.062839  1
  Ir  Ir10  1  0.750000  0.842192  0.559279  1
  Ir  Ir11  1  0.750000  0.348230  0.937738  1
