# generated using pymatgen
data_Y3V(P3Ir4)2
_symmetry_space_group_name_H-M   'P 1'
_cell_length_a   3.95720200
_cell_length_b   11.22121500
_cell_length_c   12.82774600
_cell_angle_alpha   90.00000000
_cell_angle_beta   90.00000000
_cell_angle_gamma   90.00000000
_symmetry_Int_Tables_number   1
_chemical_formula_structural   Y3V(P3Ir4)2
_chemical_formula_sum   'Y6 V2 P12 Ir16'
_cell_volume   569.61111527
_cell_formula_units_Z   2
loop_
 _symmetry_equiv_pos_site_id
 _symmetry_equiv_pos_as_xyz
  1  'x, y, z'
loop_
 _atom_site_type_symbol
 _atom_site_label
 _atom_site_symmetry_multiplicity
 _atom_site_fract_x
 _atom_site_fract_y
 _atom_site_fract_z
 _atom_site_occupancy
  Y  Y0  1  0.000000  0.500000  0.516427  1
  Y  Y1  1  0.500000  0.000000  0.483573  1
  Y  Y2  1  0.500000  0.817019  0.202906  1
  Y  Y3  1  0.500000  0.182981  0.202906  1
  Y  Y4  1  0.000000  0.682981  0.797094  1
  Y  Y5  1  0.000000  0.317019  0.797094  1
  V  V6  1  0.500000  0.500000  0.155447  1
  V  V7  1  0.000000  0.000000  0.844553  1
  P  P8  1  0.500000  0.500000  0.875553  1
  P  P9  1  0.000000  0.000000  0.124447  1
  P  P10  1  0.500000  0.500000  0.340613  1
  P  P11  1  0.000000  0.000000  0.659387  1
  P  P12  1  0.500000  0.313856  0.617704  1
  P  P13  1  0.500000  0.686144  0.617704  1
  P  P14  1  0.000000  0.186144  0.382296  1
  P  P15  1  0.000000  0.813856  0.382296  1
  P  P16  1  0.500000  0.846898  0.888036  1
  P  P17  1  0.500000  0.153102  0.888036  1
  P  P18  1  0.000000  0.653102  0.111964  1
  P  P19  1  0.000000  0.346898  0.111964  1
  Ir  Ir20  1  0.500000  0.500000  0.696472  1
  Ir  Ir21  1  0.000000  0.000000  0.303528  1
  Ir  Ir22  1  0.000000  0.500000  0.991439  1
  Ir  Ir23  1  0.500000  0.000000  0.008561  1
  Ir  Ir24  1  0.500000  0.331251  0.981905  1
  Ir  Ir25  1  0.500000  0.668749  0.981905  1
  Ir  Ir26  1  0.000000  0.168749  0.018095  1
  Ir  Ir27  1  0.000000  0.831251  0.018095  1
  Ir  Ir28  1  0.500000  0.289676  0.429522  1
  Ir  Ir29  1  0.500000  0.710324  0.429522  1
  Ir  Ir30  1  0.000000  0.210324  0.570478  1
  Ir  Ir31  1  0.000000  0.789676  0.570478  1
  Ir  Ir32  1  0.500000  0.874095  0.711423  1
  Ir  Ir33  1  0.500000  0.125905  0.711423  1
  Ir  Ir34  1  0.000000  0.625905  0.288577  1
  Ir  Ir35  1  0.000000  0.374095  0.288577  1
