# generated using pymatgen
data_YbU2(AlIr)3
_symmetry_space_group_name_H-M   'P 1'
_cell_length_a   7.05300786
_cell_length_b   7.05300750
_cell_length_c   4.05169600
_cell_angle_alpha   90.00000000
_cell_angle_beta   90.00000000
_cell_angle_gamma   121.83153417
_symmetry_Int_Tables_number   1
_chemical_formula_structural   YbU2(AlIr)3
_chemical_formula_sum   'Yb1 U2 Al3 Ir3'
_cell_volume   171.23848166
_cell_formula_units_Z   1
loop_
 _symmetry_equiv_pos_site_id
 _symmetry_equiv_pos_as_xyz
  1  'x, y, z'
loop_
 _atom_site_type_symbol
 _atom_site_label
 _atom_site_symmetry_multiplicity
 _atom_site_fract_x
 _atom_site_fract_y
 _atom_site_fract_z
 _atom_site_occupancy
  Yb  Yb0  1  0.418850  0.418850  0.500000  1
  U  U1  1  0.578314  0.003276  0.500000  1
  U  U2  1  0.003276  0.578314  0.500000  1
  Al  Al3  1  0.750098  0.750098  0.000000  1
  Al  Al4  1  0.233303  0.007221  0.000000  1
  Al  Al5  1  0.007221  0.233303  0.000000  1
  Ir  Ir6  1  0.697634  0.329122  0.000000  1
  Ir  Ir7  1  0.329122  0.697634  0.000000  1
  Ir  Ir8  1  0.982181  0.982181  0.500000  1
