# generated using pymatgen
data_Li3Lu4AlPt4
_symmetry_space_group_name_H-M   'P 1'
_cell_length_a   3.97432000
_cell_length_b   6.90813747
_cell_length_c   8.32033954
_cell_angle_alpha   90.81422059
_cell_angle_beta   90.00000000
_cell_angle_gamma   90.00000000
_symmetry_Int_Tables_number   1
_chemical_formula_structural   Li3Lu4AlPt4
_chemical_formula_sum   'Li3 Lu4 Al1 Pt4'
_cell_volume   228.41309526
_cell_formula_units_Z   1
loop_
 _symmetry_equiv_pos_site_id
 _symmetry_equiv_pos_as_xyz
  1  'x, y, z'
loop_
 _atom_site_type_symbol
 _atom_site_label
 _atom_site_symmetry_multiplicity
 _atom_site_fract_x
 _atom_site_fract_y
 _atom_site_fract_z
 _atom_site_occupancy
  Li  Li0  1  0.250000  0.127267  0.060251  1
  Li  Li1  1  0.250000  0.628850  0.439925  1
  Li  Li2  1  0.750000  0.876089  0.942544  1
  Lu  Lu3  1  0.250000  0.046231  0.678951  1
  Lu  Lu4  1  0.250000  0.548627  0.822244  1
  Lu  Lu5  1  0.750000  0.949636  0.321991  1
  Lu  Lu6  1  0.750000  0.449974  0.178439  1
  Al  Al7  1  0.750000  0.376425  0.557178  1
  Pt  Pt8  1  0.250000  0.249885  0.384573  1
  Pt  Pt9  1  0.250000  0.739995  0.128838  1
  Pt  Pt10  1  0.750000  0.747876  0.623585  1
  Pt  Pt11  1  0.750000  0.259147  0.861482  1
