# generated using pymatgen
data_YbY7(Ge4Mo3)4
_symmetry_space_group_name_H-M   'P 1'
_cell_length_a   6.93401922
_cell_length_b   7.07607037
_cell_length_c   13.16182549
_cell_angle_alpha   90.05252005
_cell_angle_beta   89.96116447
_cell_angle_gamma   90.00999985
_symmetry_Int_Tables_number   1
_chemical_formula_structural   YbY7(Ge4Mo3)4
_chemical_formula_sum   'Yb1 Y7 Ge16 Mo12'
_cell_volume   645.79254029
_cell_formula_units_Z   1
loop_
 _symmetry_equiv_pos_site_id
 _symmetry_equiv_pos_as_xyz
  1  'x, y, z'
loop_
 _atom_site_type_symbol
 _atom_site_label
 _atom_site_symmetry_multiplicity
 _atom_site_fract_x
 _atom_site_fract_y
 _atom_site_fract_z
 _atom_site_occupancy
  Yb  Yb0  1  0.990930  0.168941  0.090600  1
  Y  Y1  1  0.491448  0.329993  0.092861  1
  Y  Y2  1  0.991133  0.170394  0.407190  1
  Y  Y3  1  0.510066  0.669980  0.592296  1
  Y  Y4  1  0.009355  0.831307  0.909358  1
  Y  Y5  1  0.509309  0.669797  0.908574  1
  Y  Y6  1  0.009847  0.830544  0.592495  1
  Y  Y7  1  0.490480  0.329556  0.406237  1
  Ge  Ge8  1  0.669443  0.046712  0.547497  1
  Ge  Ge9  1  0.167459  0.452733  0.952470  1
  Ge  Ge10  1  0.329967  0.956088  0.048848  1
  Ge  Ge11  1  0.830725  0.546319  0.452345  1
  Ge  Ge12  1  0.330718  0.953533  0.452169  1
  Ge  Ge13  1  0.832606  0.542704  0.049011  1
  Ge  Ge14  1  0.668388  0.046635  0.952978  1
  Ge  Ge15  1  0.169265  0.453456  0.547559  1
  Ge  Ge16  1  0.529556  0.367151  0.750005  1
  Ge  Ge17  1  0.029882  0.133802  0.750629  1
  Ge  Ge18  1  0.469360  0.632581  0.250149  1
  Ge  Ge19  1  0.970537  0.869041  0.248765  1
  Ge  Ge20  1  0.811131  0.643093  0.750679  1
  Ge  Ge21  1  0.310448  0.857729  0.750441  1
  Ge  Ge22  1  0.186412  0.355681  0.247460  1
  Ge  Ge23  1  0.692784  0.141159  0.248073  1
  Mo  Mo24  1  0.829749  0.343757  0.627026  1
  Mo  Mo25  1  0.330478  0.156799  0.873057  1
  Mo  Mo26  1  0.170114  0.658200  0.127501  1
  Mo  Mo27  1  0.670434  0.843124  0.372750  1
  Mo  Mo28  1  0.169631  0.656806  0.373163  1
  Mo  Mo29  1  0.668906  0.840378  0.127061  1
  Mo  Mo30  1  0.828462  0.343559  0.872315  1
  Mo  Mo31  1  0.330134  0.156410  0.627114  1
  Mo  Mo32  1  0.665657  0.006104  0.749855  1
  Mo  Mo33  1  0.165854  0.494651  0.749995  1
  Mo  Mo34  1  0.335262  0.993771  0.250669  1
  Mo  Mo35  1  0.834070  0.507510  0.250804  1
