# generated using pymatgen
data_ReBr4O
_symmetry_space_group_name_H-M   'P 1'
_cell_length_a   3.83789847
_cell_length_b   7.29167141
_cell_length_c   7.28787640
_cell_angle_alpha   94.41548196
_cell_angle_beta   105.33721438
_cell_angle_gamma   74.62330769
_symmetry_Int_Tables_number   1
_chemical_formula_structural   ReBr4O
_chemical_formula_sum   'Re1 Br4 O1'
_cell_volume   189.63968762
_cell_formula_units_Z   1
loop_
 _symmetry_equiv_pos_site_id
 _symmetry_equiv_pos_as_xyz
  1  'x, y, z'
loop_
 _atom_site_type_symbol
 _atom_site_label
 _atom_site_symmetry_multiplicity
 _atom_site_fract_x
 _atom_site_fract_y
 _atom_site_fract_z
 _atom_site_occupancy
  Re  Re0  1  0.011289  0.000030  0.999970  1
  Br  Br1  1  0.018345  0.819563  0.698631  1
  Br  Br2  1  0.318639  0.700549  0.177887  1
  Br  Br3  1  0.838152  0.299428  0.821878  1
  Br  Br4  1  0.139605  0.180330  0.301613  1
  O  O5  1  0.551969  0.000099  0.000020  1
