# generated using pymatgen
data_SrMn4(GaO6)2
_symmetry_space_group_name_H-M   'P 1'
_cell_length_a   8.12632647
_cell_length_b   8.12632460
_cell_length_c   9.58877200
_cell_angle_alpha   54.71919044
_cell_angle_beta   54.71919113
_cell_angle_gamma   65.73560706
_symmetry_Int_Tables_number   1
_chemical_formula_structural   SrMn4(GaO6)2
_chemical_formula_sum   'Sr2 Mn8 Ga4 O24'
_cell_volume   419.12067556
_cell_formula_units_Z   2
loop_
 _symmetry_equiv_pos_site_id
 _symmetry_equiv_pos_as_xyz
  1  'x, y, z'
loop_
 _atom_site_type_symbol
 _atom_site_label
 _atom_site_symmetry_multiplicity
 _atom_site_fract_x
 _atom_site_fract_y
 _atom_site_fract_z
 _atom_site_occupancy
  Sr  Sr0  1  0.280451  0.719549  0.000000  1
  Sr  Sr1  1  0.719549  0.280451  0.000000  1
  Mn  Mn2  1  0.667333  0.999424  0.820464  1
  Mn  Mn3  1  0.186005  0.518006  0.476869  1
  Mn  Mn4  1  0.813995  0.481994  0.523131  1
  Mn  Mn5  1  0.332667  0.000576  0.179536  1
  Mn  Mn6  1  0.000576  0.332667  0.179536  1
  Mn  Mn7  1  0.999424  0.667333  0.820464  1
  Mn  Mn8  1  0.518006  0.186005  0.476869  1
  Mn  Mn9  1  0.481994  0.813995  0.523131  1
  Ga  Ga10  1  0.856655  0.856655  0.478227  1
  Ga  Ga11  1  0.339538  0.339538  0.810564  1
  Ga  Ga12  1  0.143345  0.143345  0.521773  1
  Ga  Ga13  1  0.660462  0.660462  0.189436  1
  O  O14  1  0.701424  0.701424  0.940275  1
  O  O15  1  0.014247  0.671452  0.348102  1
  O  O16  1  0.671452  0.014247  0.348102  1
  O  O17  1  0.674331  0.017716  0.612815  1
  O  O18  1  0.017716  0.674331  0.612815  1
  O  O19  1  0.048158  0.048158  0.273877  1
  O  O20  1  0.713242  0.369953  0.271117  1
  O  O21  1  0.369953  0.713242  0.271117  1
  O  O22  1  0.982284  0.325669  0.387185  1
  O  O23  1  0.985753  0.328548  0.651898  1
  O  O24  1  0.030384  0.372176  0.945788  1
  O  O25  1  0.372176  0.030384  0.945788  1
  O  O26  1  0.298576  0.298576  0.059725  1
  O  O27  1  0.969616  0.627824  0.054212  1
  O  O28  1  0.347583  0.347583  0.344432  1
  O  O29  1  0.352083  0.352083  0.600711  1
  O  O30  1  0.286758  0.630047  0.728883  1
  O  O31  1  0.630047  0.286758  0.728883  1
  O  O32  1  0.951842  0.951842  0.726123  1
  O  O33  1  0.647917  0.647917  0.399289  1
  O  O34  1  0.325669  0.982284  0.387185  1
  O  O35  1  0.652417  0.652417  0.655568  1
  O  O36  1  0.328548  0.985753  0.651898  1
  O  O37  1  0.627824  0.969616  0.054212  1
