# generated using pymatgen
data_Tm2NiB8Ru7
_symmetry_space_group_name_H-M   'P 1'
_cell_length_a   9.16131246
_cell_length_b   7.42051108
_cell_length_c   7.42198202
_cell_angle_alpha   90.05728550
_cell_angle_beta   113.88819768
_cell_angle_gamma   114.52266812
_symmetry_Int_Tables_number   1
_chemical_formula_structural   Tm2NiB8Ru7
_chemical_formula_sum   'Tm4 Ni2 B16 Ru14'
_cell_volume   410.96165696
_cell_formula_units_Z   2
loop_
 _symmetry_equiv_pos_site_id
 _symmetry_equiv_pos_as_xyz
  1  'x, y, z'
loop_
 _atom_site_type_symbol
 _atom_site_label
 _atom_site_symmetry_multiplicity
 _atom_site_fract_x
 _atom_site_fract_y
 _atom_site_fract_z
 _atom_site_occupancy
  Tm  Tm0  1  0.749968  0.876875  0.123654  1
  Tm  Tm1  1  0.248632  0.624351  0.372184  1
  Tm  Tm2  1  0.747025  0.374555  0.629658  1
  Tm  Tm3  1  0.247742  0.116796  0.874711  1
  Ni  Ni4  1  0.879231  0.549744  0.040554  1
  Ni  Ni5  1  0.376618  0.839710  0.049625  1
  B  B6  1  0.916657  0.288314  0.076264  1
  B  B7  1  0.418602  0.570386  0.127772  1
  B  B8  1  0.087542  0.210745  0.152606  1
  B  B9  1  0.581443  0.155054  0.206167  1
  B  B10  1  0.404362  0.055332  0.281410  1
  B  B11  1  0.919051  0.629068  0.351859  1
  B  B12  1  0.587917  0.649763  0.374858  1
  B  B13  1  0.089092  0.879514  0.443405  1
  B  B14  1  0.909915  0.123439  0.559094  1
  B  B15  1  0.413253  0.347858  0.623073  1
  B  B16  1  0.087526  0.375168  0.658292  1
  B  B17  1  0.587772  0.937918  0.707905  1
  B  B18  1  0.417072  0.846243  0.789021  1
  B  B19  1  0.907401  0.786377  0.846636  1
  B  B20  1  0.587666  0.434489  0.874858  1
  B  B21  1  0.081311  0.707296  0.931488  1
  Ru  Ru22  1  0.114856  0.937315  0.162198  1
  Ru  Ru23  1  0.632704  0.466155  0.175707  1
  Ru  Ru24  1  0.373040  0.331592  0.316666  1
  Ru  Ru25  1  0.872381  0.325259  0.338655  1
  Ru  Ru26  1  0.620148  0.957509  0.437315  1
  Ru  Ru27  1  0.126998  0.180264  0.461127  1
  Ru  Ru28  1  0.873410  0.821696  0.538080  1
  Ru  Ru29  1  0.373970  0.037209  0.550623  1
  Ru  Ru30  1  0.132883  0.680960  0.673219  1
  Ru  Ru31  1  0.620842  0.664563  0.673289  1
  Ru  Ru32  1  0.375839  0.538316  0.827908  1
  Ru  Ru33  1  0.873190  0.055340  0.832756  1
  Ru  Ru34  1  0.632462  0.170167  0.949957  1
  Ru  Ru35  1  0.131479  0.454661  0.967408  1
