# generated using pymatgen
data_Dy5Ho3Ti9Si16Tc3
_symmetry_space_group_name_H-M   'P 1'
_cell_length_a   6.97265551
_cell_length_b   6.97230724
_cell_length_c   12.80635536
_cell_angle_alpha   90.07288720
_cell_angle_beta   89.92524835
_cell_angle_gamma   90.02422409
_symmetry_Int_Tables_number   1
_chemical_formula_structural   Dy5Ho3Ti9Si16Tc3
_chemical_formula_sum   'Dy5 Ho3 Ti9 Si16 Tc3'
_cell_volume   622.58623596
_cell_formula_units_Z   1
loop_
 _symmetry_equiv_pos_site_id
 _symmetry_equiv_pos_as_xyz
  1  'x, y, z'
loop_
 _atom_site_type_symbol
 _atom_site_label
 _atom_site_symmetry_multiplicity
 _atom_site_fract_x
 _atom_site_fract_y
 _atom_site_fract_z
 _atom_site_occupancy
  Dy  Dy0  1  0.340539  0.001713  0.467224  1
  Dy  Dy1  1  0.498576  0.841771  0.719332  1
  Dy  Dy2  1  0.500312  0.158656  0.217708  1
  Dy  Dy3  1  0.841838  0.498525  0.280658  1
  Dy  Dy4  1  0.158631  0.500328  0.782301  1
  Ho  Ho5  1  0.658749  0.999698  0.968407  1
  Ho  Ho6  1  0.001333  0.340763  0.532806  1
  Ho  Ho7  1  0.999716  0.658701  0.031692  1
  Ti  Ti8  1  0.674038  0.673844  0.500001  1
  Ti  Ti9  1  0.152074  0.005804  0.877295  1
  Ti  Ti10  1  0.494506  0.653755  0.124657  1
  Ti  Ti11  1  0.505075  0.347671  0.627859  1
  Ti  Ti12  1  0.653787  0.494562  0.875330  1
  Ti  Ti13  1  0.347614  0.504968  0.372166  1
  Ti  Ti14  1  0.847072  0.992182  0.375971  1
  Ti  Ti15  1  0.005753  0.152087  0.122726  1
  Ti  Ti16  1  0.992150  0.847021  0.624045  1
  Si  Si17  1  0.199487  0.129320  0.684115  1
  Si  Si18  1  0.370658  0.700515  0.933559  1
  Si  Si19  1  0.631529  0.297331  0.434883  1
  Si  Si20  1  0.700522  0.370689  0.066484  1
  Si  Si21  1  0.297007  0.630875  0.565158  1
  Si  Si22  1  0.799481  0.870218  0.183586  1
  Si  Si23  1  0.128972  0.199865  0.315825  1
  Si  Si24  1  0.870186  0.799457  0.816412  1
  Si  Si25  1  0.290294  0.951855  0.066629  1
  Si  Si26  1  0.547240  0.789932  0.315818  1
  Si  Si27  1  0.452284  0.210779  0.817021  1
  Si  Si28  1  0.790178  0.546993  0.684042  1
  Si  Si29  1  0.210775  0.452328  0.182978  1
  Si  Si30  1  0.708526  0.049466  0.567484  1
  Si  Si31  1  0.951864  0.290340  0.933420  1
  Si  Si32  1  0.049139  0.707920  0.432553  1
  Tc  Tc33  1  0.328097  0.328084  0.999973  1
  Tc  Tc34  1  0.173831  0.828066  0.248333  1
  Tc  Tc35  1  0.828166  0.173920  0.751552  1
