# generated using pymatgen
data_Rb6SiWSe8
_symmetry_space_group_name_H-M   'P 1'
_cell_length_a   10.05646900
_cell_length_b   10.14018300
_cell_length_c   11.56159500
_cell_angle_alpha   90.00000000
_cell_angle_beta   90.00000000
_cell_angle_gamma   90.00000000
_symmetry_Int_Tables_number   1
_chemical_formula_structural   Rb6SiWSe8
_chemical_formula_sum   'Rb12 Si2 W2 Se16'
_cell_volume   1178.98712931
_cell_formula_units_Z   2
loop_
 _symmetry_equiv_pos_site_id
 _symmetry_equiv_pos_as_xyz
  1  'x, y, z'
loop_
 _atom_site_type_symbol
 _atom_site_label
 _atom_site_symmetry_multiplicity
 _atom_site_fract_x
 _atom_site_fract_y
 _atom_site_fract_z
 _atom_site_occupancy
  Rb  Rb0  1  0.546402  0.205958  0.062283  1
  Rb  Rb1  1  0.046402  0.294042  0.437717  1
  Rb  Rb2  1  0.452459  0.796748  0.523814  1
  Rb  Rb3  1  0.952459  0.703252  0.976186  1
  Rb  Rb4  1  0.452459  0.796748  0.976186  1
  Rb  Rb5  1  0.952459  0.703252  0.523814  1
  Rb  Rb6  1  0.546402  0.205958  0.437717  1
  Rb  Rb7  1  0.046402  0.294042  0.062283  1
  Rb  Rb8  1  0.646317  0.415006  0.750000  1
  Rb  Rb9  1  0.146317  0.084994  0.750000  1
  Rb  Rb10  1  0.362314  0.581367  0.250000  1
  Rb  Rb11  1  0.862314  0.918633  0.250000  1
  Si  Si12  1  0.276162  0.019361  0.250000  1
  Si  Si13  1  0.776162  0.480639  0.250000  1
  W  W14  1  0.721307  0.983707  0.750000  1
  W  W15  1  0.221307  0.516293  0.750000  1
  Se  Se16  1  0.836026  0.050911  0.584548  1
  Se  Se17  1  0.336026  0.449089  0.915452  1
  Se  Se18  1  0.165943  0.957689  0.082039  1
  Se  Se19  1  0.665943  0.542311  0.417961  1
  Se  Se20  1  0.165943  0.957689  0.417961  1
  Se  Se21  1  0.665943  0.542311  0.082039  1
  Se  Se22  1  0.836026  0.050911  0.915452  1
  Se  Se23  1  0.336026  0.449089  0.584548  1
  Se  Se24  1  0.506916  0.077597  0.750000  1
  Se  Se25  1  0.006916  0.422403  0.750000  1
  Se  Se26  1  0.485298  0.924334  0.250000  1
  Se  Se27  1  0.985298  0.575666  0.250000  1
  Se  Se28  1  0.704504  0.753172  0.750000  1
  Se  Se29  1  0.204504  0.746828  0.750000  1
  Se  Se30  1  0.295522  0.246790  0.250000  1
  Se  Se31  1  0.795522  0.253210  0.250000  1
