# generated using pymatgen
data_PH3Br2
_symmetry_space_group_name_H-M   'P 1'
_cell_length_a   4.61728251
_cell_length_b   6.58635040
_cell_length_c   6.05072475
_cell_angle_alpha   90.59916049
_cell_angle_beta   89.01196317
_cell_angle_gamma   45.14250619
_symmetry_Int_Tables_number   1
_chemical_formula_structural   PH3Br2
_chemical_formula_sum   'P1 H3 Br2'
_cell_volume   130.35128261
_cell_formula_units_Z   1
loop_
 _symmetry_equiv_pos_site_id
 _symmetry_equiv_pos_as_xyz
  1  'x, y, z'
loop_
 _atom_site_type_symbol
 _atom_site_label
 _atom_site_symmetry_multiplicity
 _atom_site_fract_x
 _atom_site_fract_y
 _atom_site_fract_z
 _atom_site_occupancy
  P  P0  1  0.092693  0.842873  0.178768  1
  H  H1  1  0.450267  0.730208  0.285780  1
  H  H2  1  0.699057  0.090109  0.265162  1
  H  H3  1  0.129385  0.678907  0.009236  1
  Br  Br4  1  0.115382  0.106083  0.932475  1
  Br  Br5  1  0.071178  0.563491  0.442046  1
