# generated using pymatgen
data_Ce2Dy2ScAl3Ir4
_symmetry_space_group_name_H-M   'P 1'
_cell_length_a   6.93108432
_cell_length_b   4.31566500
_cell_length_c   8.07480136
_cell_angle_alpha   90.00000000
_cell_angle_beta   89.96537684
_cell_angle_gamma   90.00000000
_symmetry_Int_Tables_number   1
_chemical_formula_structural   Ce2Dy2ScAl3Ir4
_chemical_formula_sum   'Ce2 Dy2 Sc1 Al3 Ir4'
_cell_volume   241.53533621
_cell_formula_units_Z   1
loop_
 _symmetry_equiv_pos_site_id
 _symmetry_equiv_pos_as_xyz
  1  'x, y, z'
loop_
 _atom_site_type_symbol
 _atom_site_label
 _atom_site_symmetry_multiplicity
 _atom_site_fract_x
 _atom_site_fract_y
 _atom_site_fract_z
 _atom_site_occupancy
  Ce  Ce0  1  0.030720  0.750000  0.826373  1
  Ce  Ce1  1  0.538726  0.750000  0.685621  1
  Dy  Dy2  1  0.958385  0.250000  0.176338  1
  Dy  Dy3  1  0.474663  0.250000  0.311060  1
  Sc  Sc4  1  0.132217  0.750000  0.433708  1
  Al  Al5  1  0.860390  0.250000  0.558576  1
  Al  Al6  1  0.364840  0.250000  0.945145  1
  Al  Al7  1  0.638956  0.750000  0.066268  1
  Ir  Ir8  1  0.737214  0.250000  0.877279  1
  Ir  Ir9  1  0.243361  0.250000  0.626787  1
  Ir  Ir10  1  0.264563  0.750000  0.108203  1
  Ir  Ir11  1  0.755966  0.750000  0.384643  1
