# generated using pymatgen
data_Cr3SiCl16
_symmetry_space_group_name_H-M   'P 1'
_cell_length_a   6.96341006
_cell_length_b   10.56169399
_cell_length_c   10.65297556
_cell_angle_alpha   77.14411931
_cell_angle_beta   90.00549533
_cell_angle_gamma   90.01451823
_symmetry_Int_Tables_number   1
_chemical_formula_structural   Cr3SiCl16
_chemical_formula_sum   'Cr3 Si1 Cl16'
_cell_volume   763.83781502
_cell_formula_units_Z   1
loop_
 _symmetry_equiv_pos_site_id
 _symmetry_equiv_pos_as_xyz
  1  'x, y, z'
loop_
 _atom_site_type_symbol
 _atom_site_label
 _atom_site_symmetry_multiplicity
 _atom_site_fract_x
 _atom_site_fract_y
 _atom_site_fract_z
 _atom_site_occupancy
  Cr  Cr0  1  0.928238  0.249623  0.643045  1
  Cr  Cr1  1  0.428297  0.750326  0.856930  1
  Cr  Cr2  1  0.071723  0.750438  0.356836  1
  Si  Si3  1  0.571743  0.249685  0.143107  1
  Cl  Cl4  1  0.072314  0.405501  0.697194  1
  Cl  Cl5  1  0.572419  0.594409  0.802730  1
  Cl  Cl6  1  0.927675  0.594480  0.302821  1
  Cl  Cl7  1  0.433161  0.399610  0.195181  1
  Cl  Cl8  1  0.930949  0.086071  0.799209  1
  Cl  Cl9  1  0.430928  0.913951  0.700701  1
  Cl  Cl10  1  0.069095  0.913951  0.200660  1
  Cl  Cl11  1  0.569257  0.092352  0.293288  1
  Cl  Cl12  1  0.069382  0.203073  0.483474  1
  Cl  Cl13  1  0.569351  0.796864  0.016570  1
  Cl  Cl14  1  0.930634  0.796858  0.516625  1
  Cl  Cl15  1  0.436112  0.204935  0.989592  1
  Cl  Cl16  1  0.641143  0.304123  0.592872  1
  Cl  Cl17  1  0.141073  0.695881  0.907153  1
  Cl  Cl18  1  0.358854  0.695871  0.407198  1
  Cl  Cl19  1  0.847649  0.301999  0.094817  1
