# generated using pymatgen
data_Li2Ac3ZnPdPt2
_symmetry_space_group_name_H-M   'P 1'
_cell_length_a   7.79068802
_cell_length_b   7.72597034
_cell_length_c   4.20187000
_cell_angle_alpha   90.00000000
_cell_angle_beta   90.00000000
_cell_angle_gamma   119.72557857
_symmetry_Int_Tables_number   1
_chemical_formula_structural   Li2Ac3ZnPdPt2
_chemical_formula_sum   'Li2 Ac3 Zn1 Pd1 Pt2'
_cell_volume   219.63239511
_cell_formula_units_Z   1
loop_
 _symmetry_equiv_pos_site_id
 _symmetry_equiv_pos_as_xyz
  1  'x, y, z'
loop_
 _atom_site_type_symbol
 _atom_site_label
 _atom_site_symmetry_multiplicity
 _atom_site_fract_x
 _atom_site_fract_y
 _atom_site_fract_z
 _atom_site_occupancy
  Li  Li0  1  0.773849  0.771261  0.500000  1
  Li  Li1  1  0.226151  0.997414  0.500000  1
  Ac  Ac2  1  0.406303  0.408855  0.000000  1
  Ac  Ac3  1  0.593697  0.002552  0.000000  1
  Ac  Ac4  1  0.000000  0.581822  0.000000  1
  Zn  Zn5  1  0.000000  0.221816  0.500000  1
  Pd  Pd6  1  0.000000  0.011822  0.000000  1
  Pt  Pt7  1  0.666766  0.335612  0.500000  1
  Pt  Pt8  1  0.333234  0.668848  0.500000  1
