# generated using pymatgen
data_SrV(SnRh2)3
_symmetry_space_group_name_H-M   'P 1'
_cell_length_a   7.60317400
_cell_length_b   7.60317378
_cell_length_c   3.93489000
_cell_angle_alpha   90.00000000
_cell_angle_beta   90.00000000
_cell_angle_gamma   120.00000967
_symmetry_Int_Tables_number   1
_chemical_formula_structural   SrV(SnRh2)3
_chemical_formula_sum   'Sr1 V1 Sn3 Rh6'
_cell_volume   196.99401505
_cell_formula_units_Z   1
loop_
 _symmetry_equiv_pos_site_id
 _symmetry_equiv_pos_as_xyz
  1  'x, y, z'
loop_
 _atom_site_type_symbol
 _atom_site_label
 _atom_site_symmetry_multiplicity
 _atom_site_fract_x
 _atom_site_fract_y
 _atom_site_fract_z
 _atom_site_occupancy
  Sr  Sr0  1  0.000000  0.000000  0.000000  1
  V  V1  1  0.333333  0.666667  0.000000  1
  Sn  Sn2  1  0.804372  0.195628  0.500000  1
  Sn  Sn3  1  0.391255  0.195628  0.500000  1
  Sn  Sn4  1  0.804372  0.608745  0.500000  1
  Rh  Rh5  1  0.211993  0.788007  0.500000  1
  Rh  Rh6  1  0.211993  0.423987  0.500000  1
  Rh  Rh7  1  0.521488  0.042978  0.000000  1
  Rh  Rh8  1  0.957022  0.478512  0.000000  1
  Rh  Rh9  1  0.521488  0.478512  0.000000  1
  Rh  Rh10  1  0.576013  0.788007  0.500000  1
