# generated using pymatgen
data_DyTmLu6(CdPt)2
_symmetry_space_group_name_H-M   'P 1'
_cell_length_a   9.52527771
_cell_length_b   9.51593095
_cell_length_c   9.51200581
_cell_angle_alpha   60.07865234
_cell_angle_beta   59.98111354
_cell_angle_gamma   59.94024078
_symmetry_Int_Tables_number   1
_chemical_formula_structural   DyTmLu6(CdPt)2
_chemical_formula_sum   'Dy2 Tm2 Lu12 Cd4 Pt4'
_cell_volume   609.65581481
_cell_formula_units_Z   2
loop_
 _symmetry_equiv_pos_site_id
 _symmetry_equiv_pos_as_xyz
  1  'x, y, z'
loop_
 _atom_site_type_symbol
 _atom_site_label
 _atom_site_symmetry_multiplicity
 _atom_site_fract_x
 _atom_site_fract_y
 _atom_site_fract_z
 _atom_site_occupancy
  Dy  Dy0  1  0.565247  0.565247  0.934753  1
  Dy  Dy1  1  0.934753  0.934753  0.565246  1
  Tm  Tm2  1  0.564664  0.935336  0.564664  1
  Tm  Tm3  1  0.935336  0.564663  0.935336  1
  Lu  Lu4  1  0.353262  0.352105  0.352352  1
  Lu  Lu5  1  0.352105  0.353262  0.942282  1
  Lu  Lu6  1  0.352352  0.942282  0.353262  1
  Lu  Lu7  1  0.942282  0.352352  0.352105  1
  Lu  Lu8  1  0.810949  0.189051  0.189051  1
  Lu  Lu9  1  0.189051  0.810949  0.810949  1
  Lu  Lu10  1  0.188830  0.811170  0.188830  1
  Lu  Lu11  1  0.811170  0.188830  0.811170  1
  Lu  Lu12  1  0.188834  0.188834  0.811166  1
  Lu  Lu13  1  0.811166  0.811166  0.188834  1
  Lu  Lu14  1  0.938600  0.561400  0.561400  1
  Lu  Lu15  1  0.561400  0.938600  0.938600  1
  Cd  Cd16  1  0.583175  0.581372  0.580898  1
  Cd  Cd17  1  0.581372  0.583175  0.254555  1
  Cd  Cd18  1  0.580898  0.254555  0.583175  1
  Cd  Cd19  1  0.254555  0.580898  0.581372  1
  Pt  Pt20  1  0.144535  0.142877  0.142486  1
  Pt  Pt21  1  0.142877  0.144535  0.570102  1
  Pt  Pt22  1  0.142486  0.570102  0.144535  1
  Pt  Pt23  1  0.570102  0.142486  0.142877  1
