# generated using pymatgen
data_Y4Co12P12Ru5Rh3
_symmetry_space_group_name_H-M   'P 1'
_cell_length_a   3.74420800
_cell_length_b   10.47607324
_cell_length_c   12.01645228
_cell_angle_alpha   89.97520451
_cell_angle_beta   90.00000000
_cell_angle_gamma   90.00000000
_symmetry_Int_Tables_number   1
_chemical_formula_structural   Y4Co12P12Ru5Rh3
_chemical_formula_sum   'Y4 Co12 P12 Ru5 Rh3'
_cell_volume   471.34045701
_cell_formula_units_Z   1
loop_
 _symmetry_equiv_pos_site_id
 _symmetry_equiv_pos_as_xyz
  1  'x, y, z'
loop_
 _atom_site_type_symbol
 _atom_site_label
 _atom_site_symmetry_multiplicity
 _atom_site_fract_x
 _atom_site_fract_y
 _atom_site_fract_z
 _atom_site_occupancy
  Y  Y0  1  0.250000  0.914740  0.209636  1
  Y  Y1  1  0.750000  0.085733  0.790644  1
  Y  Y2  1  0.750000  0.413859  0.290024  1
  Y  Y3  1  0.250000  0.585754  0.710108  1
  Co  Co4  1  0.250000  0.276724  0.678913  1
  Co  Co5  1  0.750000  0.723393  0.322038  1
  Co  Co6  1  0.750000  0.776443  0.821511  1
  Co  Co7  1  0.250000  0.224778  0.177692  1
  Co  Co8  1  0.250000  0.615995  0.198426  1
  Co  Co9  1  0.750000  0.383684  0.801528  1
  Co  Co10  1  0.750000  0.116025  0.299861  1
  Co  Co11  1  0.250000  0.883659  0.698827  1
  Co  Co12  1  0.250000  0.036970  0.432698  1
  Co  Co13  1  0.750000  0.963348  0.566705  1
  Co  Co14  1  0.750000  0.537036  0.066742  1
  Co  Co15  1  0.250000  0.462846  0.932743  1
  P  P16  1  0.250000  0.078174  0.611351  1
  P  P17  1  0.750000  0.922270  0.388486  1
  P  P18  1  0.750000  0.578106  0.888458  1
  P  P19  1  0.250000  0.422593  0.111183  1
  P  P20  1  0.250000  0.224829  0.362740  1
  P  P21  1  0.750000  0.775358  0.636697  1
  P  P22  1  0.750000  0.724768  0.136712  1
  P  P23  1  0.250000  0.272658  0.865835  1
  P  P24  1  0.250000  0.898461  0.883201  1
  P  P25  1  0.750000  0.103770  0.114706  1
  P  P26  1  0.750000  0.394732  0.618905  1
  P  P27  1  0.250000  0.604737  0.381704  1
  Ru  Ru28  1  0.250000  0.791203  0.484990  1
  Ru  Ru29  1  0.750000  0.208955  0.514825  1
  Ru  Ru30  1  0.750000  0.292542  0.015113  1
  Ru  Ru31  1  0.250000  0.708374  0.983816  1
  Ru  Ru32  1  0.250000  0.095276  0.986347  1
  Rh  Rh33  1  0.750000  0.902486  0.016725  1
  Rh  Rh34  1  0.750000  0.595017  0.516256  1
  Rh  Rh35  1  0.250000  0.404703  0.483855  1
