# generated using pymatgen
data_CaTm2(Si3Os)4
_symmetry_space_group_name_H-M   'P 1'
_cell_length_a   10.13417100
_cell_length_b   10.13416976
_cell_length_c   8.14649300
_cell_angle_alpha   90.00000000
_cell_angle_beta   90.00000000
_cell_angle_gamma   132.57522719
_symmetry_Int_Tables_number   1
_chemical_formula_structural   CaTm2(Si3Os)4
_chemical_formula_sum   'Ca2 Tm4 Si24 Os8'
_cell_volume   616.10507158
_cell_formula_units_Z   2
loop_
 _symmetry_equiv_pos_site_id
 _symmetry_equiv_pos_as_xyz
  1  'x, y, z'
loop_
 _atom_site_type_symbol
 _atom_site_label
 _atom_site_symmetry_multiplicity
 _atom_site_fract_x
 _atom_site_fract_y
 _atom_site_fract_z
 _atom_site_occupancy
  Ca  Ca0  1  0.500834  0.000834  0.250000  1
  Ca  Ca1  1  0.999166  0.499166  0.750000  1
  Tm  Tm2  1  0.502945  0.002945  0.750000  1
  Tm  Tm3  1  0.997055  0.497055  0.250000  1
  Tm  Tm4  1  0.999920  0.000080  0.000000  1
  Tm  Tm5  1  0.500080  0.499920  0.500000  1
  Si  Si6  1  0.794550  0.205450  0.500000  1
  Si  Si7  1  0.705450  0.294550  0.000000  1
  Si  Si8  1  0.204589  0.795411  0.500000  1
  Si  Si9  1  0.295411  0.704589  0.000000  1
  Si  Si10  1  0.673916  0.660717  0.167094  1
  Si  Si11  1  0.160717  0.173916  0.332906  1
  Si  Si12  1  0.826084  0.839283  0.667094  1
  Si  Si13  1  0.339283  0.326084  0.832906  1
  Si  Si14  1  0.845219  0.610367  0.997417  1
  Si  Si15  1  0.110367  0.345219  0.502583  1
  Si  Si16  1  0.654781  0.889633  0.497417  1
  Si  Si17  1  0.389633  0.154781  0.002583  1
  Si  Si18  1  0.154323  0.387862  0.008258  1
  Si  Si19  1  0.887862  0.654323  0.491742  1
  Si  Si20  1  0.125735  0.891444  0.728561  1
  Si  Si21  1  0.391444  0.625735  0.771439  1
  Si  Si22  1  0.374265  0.608556  0.228561  1
  Si  Si23  1  0.108556  0.874265  0.271439  1
  Si  Si24  1  0.878801  0.113844  0.272424  1
  Si  Si25  1  0.613844  0.378801  0.227576  1
  Si  Si26  1  0.621199  0.386156  0.772424  1
  Si  Si27  1  0.886156  0.121199  0.727576  1
  Si  Si28  1  0.612138  0.845677  0.991742  1
  Si  Si29  1  0.345677  0.112138  0.508258  1
  Os  Os30  1  0.626341  0.628015  0.872504  1
  Os  Os31  1  0.128015  0.126341  0.627496  1
  Os  Os32  1  0.371985  0.373659  0.127496  1
  Os  Os33  1  0.873659  0.871985  0.372504  1
  Os  Os34  1  0.170181  0.829819  0.000000  1
  Os  Os35  1  0.329819  0.670181  0.500000  1
  Os  Os36  1  0.831689  0.168311  0.000000  1
  Os  Os37  1  0.668311  0.331689  0.500000  1
