# generated using pymatgen
data_PrZr4Bi3F28
_symmetry_space_group_name_H-M   'P 1'
_cell_length_a   5.81252939
_cell_length_b   9.37125402
_cell_length_c   12.57370793
_cell_angle_alpha   62.12343258
_cell_angle_beta   90.07762303
_cell_angle_gamma   89.99653621
_symmetry_Int_Tables_number   1
_chemical_formula_structural   PrZr4Bi3F28
_chemical_formula_sum   'Pr1 Zr4 Bi3 F28'
_cell_volume   605.42006717
_cell_formula_units_Z   1
loop_
 _symmetry_equiv_pos_site_id
 _symmetry_equiv_pos_as_xyz
  1  'x, y, z'
loop_
 _atom_site_type_symbol
 _atom_site_label
 _atom_site_symmetry_multiplicity
 _atom_site_fract_x
 _atom_site_fract_y
 _atom_site_fract_z
 _atom_site_occupancy
  Pr  Pr0  1  0.743670  0.813135  0.263886  1
  Zr  Zr1  1  0.756617  0.275483  0.956942  1
  Zr  Zr2  1  0.255408  0.724967  0.544061  1
  Zr  Zr3  1  0.244744  0.724652  0.041118  1
  Zr  Zr4  1  0.743910  0.273494  0.458130  1
  Bi  Bi5  1  0.756236  0.817579  0.762644  1
  Bi  Bi6  1  0.255813  0.182462  0.738205  1
  Bi  Bi7  1  0.240997  0.181228  0.237849  1
  F  F8  1  0.450174  0.711724  0.915009  1
  F  F9  1  0.949490  0.287601  0.584248  1
  F  F10  1  0.551831  0.288247  0.082556  1
  F  F11  1  0.050447  0.712337  0.417130  1
  F  F12  1  0.449301  0.275850  0.547649  1
  F  F13  1  0.946581  0.725749  0.952486  1
  F  F14  1  0.548609  0.722992  0.453571  1
  F  F15  1  0.053297  0.275102  0.046704  1
  F  F16  1  0.776631  0.519610  0.860511  1
  F  F17  1  0.273805  0.481649  0.639177  1
  F  F18  1  0.224493  0.482589  0.137161  1
  F  F19  1  0.725197  0.518800  0.361943  1
  F  F20  1  0.761645  0.029682  0.057278  1
  F  F21  1  0.262284  0.971770  0.441837  1
  F  F22  1  0.239274  0.972563  0.940640  1
  F  F23  1  0.738441  0.026732  0.559238  1
  F  F24  1  0.974427  0.734980  0.637236  1
  F  F25  1  0.477627  0.266319  0.861082  1
  F  F26  1  0.024585  0.266452  0.363879  1
  F  F27  1  0.523509  0.733768  0.137055  1
  F  F28  1  0.050136  0.747274  0.168943  1
  F  F29  1  0.549146  0.250801  0.330978  1
  F  F30  1  0.953521  0.251399  0.829283  1
  F  F31  1  0.451726  0.749546  0.670849  1
  F  F32  1  0.406599  0.971123  0.230454  1
  F  F33  1  0.917791  0.033268  0.269725  1
  F  F34  1  0.585930  0.028538  0.769760  1
  F  F35  1  0.086110  0.970533  0.730788  1
