# generated using pymatgen
data_Dy2HoCoNi2Sn3
_symmetry_space_group_name_H-M   'P 1'
_cell_length_a   7.37386550
_cell_length_b   7.36914048
_cell_length_c   3.79874900
_cell_angle_alpha   90.00000000
_cell_angle_beta   90.00000000
_cell_angle_gamma   119.97880874
_symmetry_Int_Tables_number   1
_chemical_formula_structural   Dy2HoCoNi2Sn3
_chemical_formula_sum   'Dy2 Ho1 Co1 Ni2 Sn3'
_cell_volume   178.80348395
_cell_formula_units_Z   1
loop_
 _symmetry_equiv_pos_site_id
 _symmetry_equiv_pos_as_xyz
  1  'x, y, z'
loop_
 _atom_site_type_symbol
 _atom_site_label
 _atom_site_symmetry_multiplicity
 _atom_site_fract_x
 _atom_site_fract_y
 _atom_site_fract_z
 _atom_site_occupancy
  Dy  Dy0  1  0.405176  0.405245  0.500000  1
  Dy  Dy1  1  0.594824  0.000069  0.500000  1
  Ho  Ho2  1  0.000000  0.595178  0.500000  1
  Co  Co3  1  0.000000  0.999562  0.500000  1
  Ni  Ni4  1  0.667128  0.333563  0.000000  1
  Ni  Ni5  1  0.332872  0.666435  0.000000  1
  Sn  Sn6  1  0.743197  0.742812  0.000000  1
  Sn  Sn7  1  0.256803  0.999615  0.000000  1
  Sn  Sn8  1  0.000000  0.257521  0.000000  1
