# generated using pymatgen
data_YHoEr2(OsC2)2
_symmetry_space_group_name_H-M   'P 1'
_cell_length_a   5.10648700
_cell_length_b   6.43964848
_cell_length_c   9.72996628
_cell_angle_alpha   90.07805519
_cell_angle_beta   90.00000000
_cell_angle_gamma   90.00000000
_symmetry_Int_Tables_number   1
_chemical_formula_structural   YHoEr2(OsC2)2
_chemical_formula_sum   'Y2 Ho2 Er4 Os4 C8'
_cell_volume   319.95973173
_cell_formula_units_Z   2
loop_
 _symmetry_equiv_pos_site_id
 _symmetry_equiv_pos_as_xyz
  1  'x, y, z'
loop_
 _atom_site_type_symbol
 _atom_site_label
 _atom_site_symmetry_multiplicity
 _atom_site_fract_x
 _atom_site_fract_y
 _atom_site_fract_z
 _atom_site_occupancy
  Y  Y0  1  0.250000  0.527887  0.217417  1
  Y  Y1  1  0.750000  0.472113  0.782583  1
  Ho  Ho2  1  0.750000  0.972863  0.718249  1
  Ho  Ho3  1  0.250000  0.027137  0.281751  1
  Er  Er4  1  0.250000  0.680840  0.553453  1
  Er  Er5  1  0.750000  0.319160  0.446547  1
  Er  Er6  1  0.750000  0.819692  0.053109  1
  Er  Er7  1  0.250000  0.180308  0.946891  1
  Os  Os8  1  0.250000  0.724597  0.866153  1
  Os  Os9  1  0.750000  0.275403  0.133847  1
  Os  Os10  1  0.750000  0.776095  0.365971  1
  Os  Os11  1  0.250000  0.223905  0.634029  1
  C  C12  1  0.250000  0.459588  0.758404  1
  C  C13  1  0.750000  0.540412  0.241596  1
  C  C14  1  0.750000  0.040631  0.258503  1
  C  C15  1  0.250000  0.959369  0.741497  1
  C  C16  1  0.250000  0.829481  0.054143  1
  C  C17  1  0.750000  0.170519  0.945857  1
  C  C18  1  0.750000  0.673546  0.553915  1
  C  C19  1  0.250000  0.326454  0.446085  1
