# generated using pymatgen
data_SrScBrO2
_symmetry_space_group_name_H-M   'P 1'
_cell_length_a   5.83414203
_cell_length_b   5.83414267
_cell_length_c   9.57148113
_cell_angle_alpha   77.49746902
_cell_angle_beta   77.49747001
_cell_angle_gamma   40.60035348
_symmetry_Int_Tables_number   1
_chemical_formula_structural   SrScBrO2
_chemical_formula_sum   'Sr2 Sc2 Br2 O4'
_cell_volume   206.28990719
_cell_formula_units_Z   2
loop_
 _symmetry_equiv_pos_site_id
 _symmetry_equiv_pos_as_xyz
  1  'x, y, z'
loop_
 _atom_site_type_symbol
 _atom_site_label
 _atom_site_symmetry_multiplicity
 _atom_site_fract_x
 _atom_site_fract_y
 _atom_site_fract_z
 _atom_site_occupancy
  Sr  Sr0  1  0.396855  0.396855  0.782974  1
  Sr  Sr1  1  0.603145  0.603145  0.217026  1
  Sc  Sc2  1  0.861478  0.861478  0.498614  1
  Sc  Sc3  1  0.138522  0.138522  0.501386  1
  Br  Br4  1  0.663729  0.663729  0.870155  1
  Br  Br5  1  0.336271  0.336271  0.129845  1
  O  O6  1  0.315338  0.315338  0.552420  1
  O  O7  1  0.975756  0.975756  0.649433  1
  O  O8  1  0.024244  0.024244  0.350567  1
  O  O9  1  0.684662  0.684662  0.447580  1
