# generated using pymatgen
data_Nd9DyB2Br15
_symmetry_space_group_name_H-M   'P 1'
_cell_length_a   9.37203702
_cell_length_b   10.14777442
_cell_length_c   11.04376428
_cell_angle_alpha   91.24578936
_cell_angle_beta   114.48713121
_cell_angle_gamma   110.72854798
_symmetry_Int_Tables_number   1
_chemical_formula_structural   Nd9DyB2Br15
_chemical_formula_sum   'Nd9 Dy1 B2 Br15'
_cell_volume   876.29297146
_cell_formula_units_Z   1
loop_
 _symmetry_equiv_pos_site_id
 _symmetry_equiv_pos_as_xyz
  1  'x, y, z'
loop_
 _atom_site_type_symbol
 _atom_site_label
 _atom_site_symmetry_multiplicity
 _atom_site_fract_x
 _atom_site_fract_y
 _atom_site_fract_z
 _atom_site_occupancy
  Nd  Nd0  1  0.799889  0.409522  0.275178  1
  Nd  Nd1  1  0.196751  0.589771  0.723013  1
  Nd  Nd2  1  0.673504  0.745674  0.820879  1
  Nd  Nd3  1  0.324077  0.252784  0.179217  1
  Nd  Nd4  1  0.525576  0.703847  0.096324  1
  Nd  Nd5  1  0.473484  0.295790  0.903309  1
  Nd  Nd6  1  0.584942  0.036978  0.324525  1
  Nd  Nd7  1  0.410985  0.961143  0.674168  1
  Nd  Nd8  1  0.727824  0.075671  0.048656  1
  Dy  Dy9  1  0.284861  0.927510  0.953456  1
  B  B10  1  0.464158  0.819843  0.876371  1
  B  B11  1  0.530188  0.177608  0.121564  1
  Br  Br12  1  0.005250  0.996951  0.997794  1
  Br  Br13  1  0.635791  0.881994  0.583669  1
  Br  Br14  1  0.362232  0.117091  0.416505  1
  Br  Br15  1  0.882317  0.298346  0.527120  1
  Br  Br16  1  0.115438  0.700276  0.470846  1
  Br  Br17  1  0.282052  0.765617  0.169967  1
  Br  Br18  1  0.711235  0.237494  0.819853  1
  Br  Br19  1  0.056348  0.344074  0.226966  1
  Br  Br20  1  0.160342  0.050708  0.711518  1
  Br  Br21  1  0.838404  0.943413  0.297434  1
  Br  Br22  1  0.228999  0.409373  0.943662  1
  Br  Br23  1  0.769585  0.589788  0.055739  1
  Br  Br24  1  0.407285  0.462291  0.658545  1
  Br  Br25  1  0.591174  0.537098  0.341171  1
  Br  Br26  1  0.957310  0.669345  0.782549  1
