# generated using pymatgen
data_GdEr3Hf4F28
_symmetry_space_group_name_H-M   'P 1'
_cell_length_a   5.71392339
_cell_length_b   9.04232273
_cell_length_c   12.14451500
_cell_angle_alpha   62.36940257
_cell_angle_beta   89.97882214
_cell_angle_gamma   90.02063744
_symmetry_Int_Tables_number   1
_chemical_formula_structural   GdEr3Hf4F28
_chemical_formula_sum   'Gd1 Er3 Hf4 F28'
_cell_volume   555.91277961
_cell_formula_units_Z   1
loop_
 _symmetry_equiv_pos_site_id
 _symmetry_equiv_pos_as_xyz
  1  'x, y, z'
loop_
 _atom_site_type_symbol
 _atom_site_label
 _atom_site_symmetry_multiplicity
 _atom_site_fract_x
 _atom_site_fract_y
 _atom_site_fract_z
 _atom_site_occupancy
  Gd  Gd0  1  0.756581  0.816167  0.766409  1
  Er  Er1  1  0.743831  0.816340  0.266327  1
  Er  Er2  1  0.243724  0.185379  0.233696  1
  Er  Er3  1  0.257116  0.188468  0.733329  1
  Hf  Hf4  1  0.743638  0.276571  0.453238  1
  Hf  Hf5  1  0.244211  0.725891  0.048425  1
  Hf  Hf6  1  0.254916  0.726015  0.541557  1
  Hf  Hf7  1  0.755611  0.270701  0.956608  1
  F  F8  1  0.461524  0.709365  0.925307  1
  F  F9  1  0.965399  0.289274  0.576595  1
  F  F10  1  0.533367  0.287423  0.078068  1
  F  F11  1  0.033326  0.710083  0.419661  1
  F  F12  1  0.455935  0.281606  0.548636  1
  F  F13  1  0.955625  0.716821  0.956299  1
  F  F14  1  0.545651  0.719014  0.448954  1
  F  F15  1  0.043489  0.278829  0.050790  1
  F  F16  1  0.769640  0.519409  0.860145  1
  F  F17  1  0.267480  0.475920  0.639460  1
  F  F18  1  0.234764  0.475567  0.143340  1
  F  F19  1  0.732974  0.525775  0.357008  1
  F  F20  1  0.759204  0.021721  0.058370  1
  F  F21  1  0.258834  0.975082  0.441168  1
  F  F22  1  0.240659  0.974345  0.943669  1
  F  F23  1  0.739739  0.027508  0.554016  1
  F  F24  1  0.985229  0.731842  0.644857  1
  F  F25  1  0.486274  0.266258  0.851549  1
  F  F26  1  0.010401  0.265804  0.349074  1
  F  F27  1  0.512432  0.734761  0.152162  1
  F  F28  1  0.033722  0.746793  0.174529  1
  F  F29  1  0.531519  0.254642  0.327726  1
  F  F30  1  0.966562  0.251375  0.829362  1
  F  F31  1  0.459947  0.743819  0.670225  1
  F  F32  1  0.432225  0.975523  0.235540  1
  F  F33  1  0.932609  0.025510  0.264620  1
  F  F34  1  0.570680  0.033938  0.765748  1
  F  F35  1  0.081162  0.976458  0.733530  1
