# generated using pymatgen
data_Yb4Al3FeO10
_symmetry_space_group_name_H-M   'P 1'
_cell_length_a   5.27745300
_cell_length_b   5.52218064
_cell_length_c   15.22804300
_cell_angle_alpha   68.87476834
_cell_angle_beta   90.00000000
_cell_angle_gamma   90.00000000
_symmetry_Int_Tables_number   1
_chemical_formula_structural   Yb4Al3FeO10
_chemical_formula_sum   'Yb8 Al6 Fe2 O20'
_cell_volume   413.96654618
_cell_formula_units_Z   2
loop_
 _symmetry_equiv_pos_site_id
 _symmetry_equiv_pos_as_xyz
  1  'x, y, z'
loop_
 _atom_site_type_symbol
 _atom_site_label
 _atom_site_symmetry_multiplicity
 _atom_site_fract_x
 _atom_site_fract_y
 _atom_site_fract_z
 _atom_site_occupancy
  Yb  Yb0  1  0.007356  0.634769  0.893594  1
  Yb  Yb1  1  0.507356  0.365231  0.606406  1
  Yb  Yb2  1  0.990482  0.076901  0.393095  1
  Yb  Yb3  1  0.490482  0.923099  0.106905  1
  Yb  Yb4  1  0.992644  0.365231  0.106406  1
  Yb  Yb5  1  0.492644  0.634769  0.393594  1
  Yb  Yb6  1  0.009518  0.923099  0.606905  1
  Yb  Yb7  1  0.509518  0.076901  0.893095  1
  Al  Al8  1  0.548854  0.672486  0.752357  1
  Al  Al9  1  0.048854  0.327514  0.747643  1
  Al  Al10  1  0.451146  0.327514  0.247643  1
  Al  Al11  1  0.951146  0.672486  0.252357  1
  Al  Al12  1  0.500000  0.500000  0.000000  1
  Al  Al13  1  0.000000  0.500000  0.500000  1
  Fe  Fe14  1  0.500000  0.000000  0.500000  1
  Fe  Fe15  1  0.000000  0.000000  0.000000  1
  O  O16  1  0.255594  0.729147  0.013543  1
  O  O17  1  0.755594  0.270853  0.486457  1
  O  O18  1  0.755589  0.730053  0.513096  1
  O  O19  1  0.255589  0.269947  0.986904  1
  O  O20  1  0.744406  0.270853  0.986457  1
  O  O21  1  0.244406  0.729147  0.513543  1
  O  O22  1  0.244411  0.269947  0.486904  1
  O  O23  1  0.744411  0.730053  0.013096  1
  O  O24  1  0.885373  0.611486  0.749749  1
  O  O25  1  0.385373  0.388514  0.750251  1
  O  O26  1  0.114627  0.388514  0.250251  1
  O  O27  1  0.614627  0.611486  0.249749  1
  O  O28  1  0.483677  0.703689  0.860533  1
  O  O29  1  0.983677  0.296311  0.639467  1
  O  O30  1  0.524125  0.073085  0.352971  1
  O  O31  1  0.024125  0.926915  0.147029  1
  O  O32  1  0.516323  0.296311  0.139467  1
  O  O33  1  0.016323  0.703689  0.360533  1
  O  O34  1  0.475875  0.926915  0.647029  1
  O  O35  1  0.975875  0.073085  0.852971  1
