# generated using pymatgen
data_Y5SiPb3
_symmetry_space_group_name_H-M   'P 1'
_cell_length_a   9.35036000
_cell_length_b   9.35035974
_cell_length_c   6.55639300
_cell_angle_alpha   90.00000000
_cell_angle_beta   90.00000000
_cell_angle_gamma   120.00000090
_symmetry_Int_Tables_number   1
_chemical_formula_structural   Y5SiPb3
_chemical_formula_sum   'Y10 Si2 Pb6'
_cell_volume   496.42341510
_cell_formula_units_Z   2
loop_
 _symmetry_equiv_pos_site_id
 _symmetry_equiv_pos_as_xyz
  1  'x, y, z'
loop_
 _atom_site_type_symbol
 _atom_site_label
 _atom_site_symmetry_multiplicity
 _atom_site_fract_x
 _atom_site_fract_y
 _atom_site_fract_z
 _atom_site_occupancy
  Y  Y0  1  0.666667  0.333333  0.500000  1
  Y  Y1  1  0.333333  0.666667  0.500000  1
  Y  Y2  1  0.333333  0.666667  0.000000  1
  Y  Y3  1  0.666667  0.333333  0.000000  1
  Y  Y4  1  0.751115  0.751115  0.250000  1
  Y  Y5  1  0.248885  0.000000  0.250000  1
  Y  Y6  1  0.000000  0.248885  0.250000  1
  Y  Y7  1  0.248885  0.248885  0.750000  1
  Y  Y8  1  0.751115  0.000000  0.750000  1
  Y  Y9  1  0.000000  0.751115  0.750000  1
  Si  Si10  1  0.000000  0.000000  0.500000  1
  Si  Si11  1  0.000000  0.000000  0.000000  1
  Pb  Pb12  1  0.392801  0.392801  0.250000  1
  Pb  Pb13  1  0.607199  0.000000  0.250000  1
  Pb  Pb14  1  0.000000  0.607199  0.250000  1
  Pb  Pb15  1  0.607199  0.607199  0.750000  1
  Pb  Pb16  1  0.392801  0.000000  0.750000  1
  Pb  Pb17  1  0.000000  0.392801  0.750000  1
