# generated using pymatgen
data_Ca12Tm3Ge12Mo5O48
_symmetry_space_group_name_H-M   'P 1'
_cell_length_a   11.07100987
_cell_length_b   11.06839559
_cell_length_c   11.06436714
_cell_angle_alpha   109.45611112
_cell_angle_beta   109.47676783
_cell_angle_gamma   109.45877307
_symmetry_Int_Tables_number   1
_chemical_formula_structural   Ca12Tm3Ge12Mo5O48
_chemical_formula_sum   'Ca12 Tm3 Ge12 Mo5 O48'
_cell_volume   1043.98557396
_cell_formula_units_Z   1
loop_
 _symmetry_equiv_pos_site_id
 _symmetry_equiv_pos_as_xyz
  1  'x, y, z'
loop_
 _atom_site_type_symbol
 _atom_site_label
 _atom_site_symmetry_multiplicity
 _atom_site_fract_x
 _atom_site_fract_y
 _atom_site_fract_z
 _atom_site_occupancy
  Ca  Ca0  1  0.250514  0.873434  0.626229  1
  Ca  Ca1  1  0.743794  0.621656  0.872287  1
  Ca  Ca2  1  0.622492  0.874162  0.747222  1
  Ca  Ca3  1  0.873590  0.623755  0.249372  1
  Ca  Ca4  1  0.621802  0.247123  0.874489  1
  Ca  Ca5  1  0.871538  0.743642  0.622225  1
  Ca  Ca6  1  0.749486  0.126566  0.373771  1
  Ca  Ca7  1  0.256206  0.378344  0.127713  1
  Ca  Ca8  1  0.377508  0.125838  0.252778  1
  Ca  Ca9  1  0.126410  0.376245  0.750628  1
  Ca  Ca10  1  0.378198  0.752877  0.125511  1
  Ca  Ca11  1  0.128462  0.256358  0.377775  1
  Tm  Tm12  1  0.000000  0.000000  0.500000  1
  Tm  Tm13  1  0.000000  0.500000  0.000000  1
  Tm  Tm14  1  0.000000  0.000000  0.000000  1
  Ge  Ge15  1  0.126550  0.748676  0.871800  1
  Ge  Ge16  1  0.873450  0.251324  0.128200  1
  Ge  Ge17  1  0.625075  0.375016  0.249898  1
  Ge  Ge18  1  0.745412  0.873119  0.121775  1
  Ge  Ge19  1  0.872455  0.124131  0.746977  1
  Ge  Ge20  1  0.252924  0.625919  0.377496  1
  Ge  Ge21  1  0.747076  0.374081  0.622504  1
  Ge  Ge22  1  0.254588  0.126881  0.878225  1
  Ge  Ge23  1  0.127545  0.875869  0.253023  1
  Ge  Ge24  1  0.374925  0.624984  0.750102  1
  Ge  Ge25  1  0.622597  0.747160  0.374230  1
  Ge  Ge26  1  0.377403  0.252840  0.625770  1
  Mo  Mo27  1  0.500000  0.500000  0.500000  1
  Mo  Mo28  1  0.500000  0.000000  0.500000  1
  Mo  Mo29  1  0.000000  0.500000  0.500000  1
  Mo  Mo30  1  0.500000  0.500000  0.000000  1
  Mo  Mo31  1  0.500000  0.000000  0.000000  1
  O  O32  1  0.412001  0.808268  0.789607  1
  O  O33  1  0.873625  0.395987  0.090151  1
  O  O34  1  0.107164  0.982976  0.696889  1
  O  O35  1  0.517820  0.621387  0.709683  1
  O  O36  1  0.690363  0.089575  0.711715  1
  O  O37  1  0.620062  0.709908  0.519112  1
  O  O38  1  0.621650  0.411919  0.103562  1
  O  O39  1  0.710104  0.519626  0.621035  1
  O  O40  1  0.808594  0.518530  0.395988  1
  O  O41  1  0.982033  0.785747  0.874490  1
  O  O42  1  0.783577  0.873183  0.977311  1
  O  O43  1  0.709541  0.691398  0.088829  1
  O  O44  1  0.412160  0.104976  0.621961  1
  O  O45  1  0.397773  0.809842  0.521812  1
  O  O46  1  0.089659  0.711570  0.689008  1
  O  O47  1  0.104863  0.621078  0.412013  1
  O  O48  1  0.521063  0.397857  0.809766  1
  O  O49  1  0.091459  0.874890  0.398414  1
  O  O50  1  0.981052  0.695475  0.105006  1
  O  O51  1  0.191406  0.481470  0.604012  1
  O  O52  1  0.692070  0.102524  0.982161  1
  O  O53  1  0.785401  0.410387  0.804548  1
  O  O54  1  0.400290  0.089727  0.877624  1
  O  O55  1  0.873883  0.979235  0.784082  1
  O  O56  1  0.587999  0.191732  0.210393  1
  O  O57  1  0.126375  0.604013  0.909849  1
  O  O58  1  0.892836  0.017024  0.303111  1
  O  O59  1  0.482180  0.378613  0.290317  1
  O  O60  1  0.309637  0.910425  0.288285  1
  O  O61  1  0.379938  0.290092  0.480888  1
  O  O62  1  0.378350  0.588081  0.896438  1
  O  O63  1  0.289896  0.480374  0.378965  1
  O  O64  1  0.126117  0.020765  0.215918  1
  O  O65  1  0.599710  0.910273  0.122376  1
  O  O66  1  0.214599  0.589613  0.195452  1
  O  O67  1  0.195168  0.215024  0.589052  1
  O  O68  1  0.307930  0.897476  0.017839  1
  O  O69  1  0.018948  0.304525  0.894994  1
  O  O70  1  0.908541  0.125110  0.601586  1
  O  O71  1  0.478937  0.602143  0.190234  1
  O  O72  1  0.895137  0.378922  0.587987  1
  O  O73  1  0.910341  0.288430  0.310992  1
  O  O74  1  0.602227  0.190158  0.478188  1
  O  O75  1  0.587840  0.895024  0.378039  1
  O  O76  1  0.290459  0.308602  0.911171  1
  O  O77  1  0.216423  0.126817  0.022689  1
  O  O78  1  0.017967  0.214253  0.125510  1
  O  O79  1  0.804832  0.784976  0.410948  1
