# generated using pymatgen
data_Na2LiAlAs2
_symmetry_space_group_name_H-M   'P 1'
_cell_length_a   9.25830664
_cell_length_b   9.25830606
_cell_length_c   5.96484400
_cell_angle_alpha   90.00000000
_cell_angle_beta   90.00000000
_cell_angle_gamma   99.22726325
_symmetry_Int_Tables_number   1
_chemical_formula_structural   Na2LiAlAs2
_chemical_formula_sum   'Na8 Li4 Al4 As8'
_cell_volume   504.66800338
_cell_formula_units_Z   4
loop_
 _symmetry_equiv_pos_site_id
 _symmetry_equiv_pos_as_xyz
  1  'x, y, z'
loop_
 _atom_site_type_symbol
 _atom_site_label
 _atom_site_symmetry_multiplicity
 _atom_site_fract_x
 _atom_site_fract_y
 _atom_site_fract_z
 _atom_site_occupancy
  Na  Na0  1  0.428601  0.071399  0.250000  1
  Na  Na1  1  0.071399  0.428601  0.750000  1
  Na  Na2  1  0.571399  0.928601  0.750000  1
  Na  Na3  1  0.323559  0.676441  0.280227  1
  Na  Na4  1  0.823559  0.176441  0.219773  1
  Na  Na5  1  0.676441  0.323559  0.719773  1
  Na  Na6  1  0.176441  0.823559  0.780227  1
  Na  Na7  1  0.928601  0.571399  0.250000  1
  Li  Li8  1  0.380516  0.380516  0.500000  1
  Li  Li9  1  0.119484  0.119484  0.000000  1
  Li  Li10  1  0.619484  0.619484  0.500000  1
  Li  Li11  1  0.880516  0.880516  0.000000  1
  Al  Al12  1  0.870671  0.870671  0.500000  1
  Al  Al13  1  0.129329  0.129329  0.500000  1
  Al  Al14  1  0.629329  0.629329  0.000000  1
  Al  Al15  1  0.370671  0.370671  0.000000  1
  As  As16  1  0.106506  0.893494  0.282113  1
  As  As17  1  0.606506  0.393494  0.217887  1
  As  As18  1  0.893494  0.106506  0.717887  1
  As  As19  1  0.393494  0.606506  0.782113  1
  As  As20  1  0.145398  0.354602  0.250000  1
  As  As21  1  0.354602  0.145398  0.750000  1
  As  As22  1  0.854602  0.645398  0.750000  1
  As  As23  1  0.645398  0.854602  0.250000  1
