# generated using pymatgen
data_La3EuH11
_symmetry_space_group_name_H-M   'P 1'
_cell_length_a   6.83808217
_cell_length_b   6.83808123
_cell_length_c   6.83808100
_cell_angle_alpha   131.16577637
_cell_angle_beta   131.16576952
_cell_angle_gamma   71.54983619
_symmetry_Int_Tables_number   1
_chemical_formula_structural   La3EuH11
_chemical_formula_sum   'La3 Eu1 H11'
_cell_volume   177.31533086
_cell_formula_units_Z   1
loop_
 _symmetry_equiv_pos_site_id
 _symmetry_equiv_pos_as_xyz
  1  'x, y, z'
loop_
 _atom_site_type_symbol
 _atom_site_label
 _atom_site_symmetry_multiplicity
 _atom_site_fract_x
 _atom_site_fract_y
 _atom_site_fract_z
 _atom_site_occupancy
  La  La0  1  0.497235  0.997235  0.500000  1
  La  La1  1  0.997235  0.497235  0.500000  1
  La  La2  1  0.739577  0.739577  0.000000  1
  Eu  Eu3  1  0.257743  0.257743  0.000000  1
  H  H4  1  0.657168  0.106547  0.000000  1
  H  H5  1  0.354497  0.354497  0.471810  1
  H  H6  1  0.106547  0.657168  0.000000  1
  H  H7  1  0.882688  0.882688  0.528190  1
  H  H8  1  0.882688  0.354497  0.000000  1
  H  H9  1  0.657168  0.657168  0.550620  1
  H  H10  1  0.354497  0.882688  0.000000  1
  H  H11  1  0.106547  0.106547  0.449380  1
  H  H12  1  0.754652  0.254652  0.500000  1
  H  H13  1  0.497105  0.497105  0.000000  1
  H  H14  1  0.254652  0.754652  0.500000  1
