# generated using pymatgen
data_RbNb10O18
_symmetry_space_group_name_H-M   'P 1'
_cell_length_a   9.45812100
_cell_length_b   7.93633508
_cell_length_c   10.42199800
_cell_angle_alpha   69.54929807
_cell_angle_beta   90.00000000
_cell_angle_gamma   90.00000000
_symmetry_Int_Tables_number   1
_chemical_formula_structural   RbNb10O18
_chemical_formula_sum   'Rb2 Nb20 O36'
_cell_volume   732.99835508
_cell_formula_units_Z   2
loop_
 _symmetry_equiv_pos_site_id
 _symmetry_equiv_pos_as_xyz
  1  'x, y, z'
loop_
 _atom_site_type_symbol
 _atom_site_label
 _atom_site_symmetry_multiplicity
 _atom_site_fract_x
 _atom_site_fract_y
 _atom_site_fract_z
 _atom_site_occupancy
  Rb  Rb0  1  0.500000  0.000000  0.500000  1
  Rb  Rb1  1  0.000000  0.000000  0.000000  1
  Nb  Nb2  1  0.883375  0.996408  0.667487  1
  Nb  Nb3  1  0.626082  0.802771  0.981374  1
  Nb  Nb4  1  0.129092  0.819824  0.622793  1
  Nb  Nb5  1  0.616625  0.996408  0.167487  1
  Nb  Nb6  1  0.128467  0.602018  0.937402  1
  Nb  Nb7  1  0.873918  0.802771  0.481374  1
  Nb  Nb8  1  0.614264  0.602286  0.773114  1
  Nb  Nb9  1  0.370908  0.819824  0.122793  1
  Nb  Nb10  1  0.371533  0.602018  0.437402  1
  Nb  Nb11  1  0.114264  0.397714  0.726886  1
  Nb  Nb12  1  0.885736  0.602286  0.273114  1
  Nb  Nb13  1  0.628467  0.397982  0.562598  1
  Nb  Nb14  1  0.629092  0.180176  0.877207  1
  Nb  Nb15  1  0.385736  0.397714  0.226886  1
  Nb  Nb16  1  0.126082  0.197229  0.518626  1
  Nb  Nb17  1  0.871533  0.397982  0.062598  1
  Nb  Nb18  1  0.383375  0.003592  0.832513  1
  Nb  Nb19  1  0.870908  0.180176  0.377207  1
  Nb  Nb20  1  0.373918  0.197229  0.018626  1
  Nb  Nb21  1  0.116625  0.003592  0.332513  1
  O  O22  1  0.755067  0.989979  0.844406  1
  O  O23  1  0.250174  0.800798  0.961071  1
  O  O24  1  0.011367  0.799155  0.803356  1
  O  O25  1  0.504951  0.799112  0.803939  1
  O  O26  1  0.744933  0.989979  0.344406  1
  O  O27  1  0.749524  0.794519  0.647053  1
  O  O28  1  0.249826  0.800798  0.461071  1
  O  O29  1  0.744086  0.582915  0.932609  1
  O  O30  1  0.236691  0.589911  0.772592  1
  O  O31  1  0.488633  0.799155  0.303356  1
  O  O32  1  0.995049  0.799112  0.303939  1
  O  O33  1  0.002422  0.599721  0.607271  1
  O  O34  1  0.507717  0.602548  0.599533  1
  O  O35  1  0.750476  0.794519  0.147053  1
  O  O36  1  0.007717  0.397452  0.900467  1
  O  O37  1  0.502422  0.400279  0.892729  1
  O  O38  1  0.755914  0.582915  0.432609  1
  O  O39  1  0.736691  0.410089  0.727408  1
  O  O40  1  0.263309  0.589911  0.272592  1
  O  O41  1  0.244086  0.417085  0.567391  1
  O  O42  1  0.497578  0.599721  0.107271  1
  O  O43  1  0.992283  0.602548  0.099533  1
  O  O44  1  0.249524  0.205481  0.852947  1
  O  O45  1  0.492283  0.397452  0.400467  1
  O  O46  1  0.997578  0.400279  0.392729  1
  O  O47  1  0.004951  0.200888  0.696061  1
  O  O48  1  0.511367  0.200845  0.696644  1
  O  O49  1  0.763309  0.410089  0.227408  1
  O  O50  1  0.255914  0.417085  0.067391  1
  O  O51  1  0.750174  0.199202  0.538929  1
  O  O52  1  0.250476  0.205481  0.352947  1
  O  O53  1  0.255067  0.010021  0.655594  1
  O  O54  1  0.495049  0.200888  0.196061  1
  O  O55  1  0.988633  0.200845  0.196644  1
  O  O56  1  0.749826  0.199202  0.038929  1
  O  O57  1  0.244933  0.010021  0.155594  1
