# generated using pymatgen
data_NaLu3Ir8
_symmetry_space_group_name_H-M   'P 1'
_cell_length_a   5.30366800
_cell_length_b   5.30366781
_cell_length_c   8.61503200
_cell_angle_alpha   90.00000000
_cell_angle_beta   90.00000000
_cell_angle_gamma   120.00000120
_symmetry_Int_Tables_number   1
_chemical_formula_structural   NaLu3Ir8
_chemical_formula_sum   'Na1 Lu3 Ir8'
_cell_volume   209.86507272
_cell_formula_units_Z   1
loop_
 _symmetry_equiv_pos_site_id
 _symmetry_equiv_pos_as_xyz
  1  'x, y, z'
loop_
 _atom_site_type_symbol
 _atom_site_label
 _atom_site_symmetry_multiplicity
 _atom_site_fract_x
 _atom_site_fract_y
 _atom_site_fract_z
 _atom_site_occupancy
  Na  Na0  1  0.666667  0.333334  0.063609  1
  Lu  Lu1  1  0.666667  0.333334  0.417006  1
  Lu  Lu2  1  0.333333  0.666666  0.569320  1
  Lu  Lu3  1  0.333333  0.666666  0.943310  1
  Ir  Ir4  1  0.000000  0.000000  0.001008  1
  Ir  Ir5  1  0.169763  0.339526  0.252358  1
  Ir  Ir6  1  0.169763  0.830236  0.252358  1
  Ir  Ir7  1  0.660473  0.830236  0.252358  1
  Ir  Ir8  1  0.000000  0.000000  0.501375  1
  Ir  Ir9  1  0.342143  0.171072  0.749100  1
  Ir  Ir10  1  0.828929  0.171072  0.749100  1
  Ir  Ir11  1  0.828929  0.657858  0.749100  1
