# generated using pymatgen
data_Th2Ga3Ge(IrPt)2
_symmetry_space_group_name_H-M   'P 1'
_cell_length_a   4.27741900
_cell_length_b   4.27741900
_cell_length_c   10.41618500
_cell_angle_alpha   90.00000000
_cell_angle_beta   90.00000000
_cell_angle_gamma   90.00000000
_symmetry_Int_Tables_number   1
_chemical_formula_structural   Th2Ga3Ge(IrPt)2
_chemical_formula_sum   'Th2 Ga3 Ge1 Ir2 Pt2'
_cell_volume   190.57778417
_cell_formula_units_Z   1
loop_
 _symmetry_equiv_pos_site_id
 _symmetry_equiv_pos_as_xyz
  1  'x, y, z'
loop_
 _atom_site_type_symbol
 _atom_site_label
 _atom_site_symmetry_multiplicity
 _atom_site_fract_x
 _atom_site_fract_y
 _atom_site_fract_z
 _atom_site_occupancy
  Th  Th0  1  0.000000  0.500000  0.242610  1
  Th  Th1  1  0.500000  0.000000  0.754865  1
  Ga  Ga2  1  0.000000  0.000000  0.498831  1
  Ga  Ga3  1  0.500000  0.500000  0.498831  1
  Ga  Ga4  1  0.000000  0.500000  0.873150  1
  Ge  Ge5  1  0.500000  0.000000  0.126997  1
  Ir  Ir6  1  0.000000  0.000000  0.003076  1
  Ir  Ir7  1  0.500000  0.500000  0.003076  1
  Pt  Pt8  1  0.000000  0.500000  0.635562  1
  Pt  Pt9  1  0.500000  0.000000  0.363001  1
