# generated using pymatgen
data_CaTb6IrCl12
_symmetry_space_group_name_H-M   'P 1'
_cell_length_a   8.99867934
_cell_length_b   8.98033391
_cell_length_c   8.99459682
_cell_angle_alpha   107.19883034
_cell_angle_beta   107.13515281
_cell_angle_gamma   107.20468650
_symmetry_Int_Tables_number   1
_chemical_formula_structural   CaTb6IrCl12
_chemical_formula_sum   'Ca1 Tb6 Ir1 Cl12'
_cell_volume   602.34920437
_cell_formula_units_Z   1
loop_
 _symmetry_equiv_pos_site_id
 _symmetry_equiv_pos_as_xyz
  1  'x, y, z'
loop_
 _atom_site_type_symbol
 _atom_site_label
 _atom_site_symmetry_multiplicity
 _atom_site_fract_x
 _atom_site_fract_y
 _atom_site_fract_z
 _atom_site_occupancy
  Ca  Ca0  1  0.500000  0.500000  0.500000  1
  Tb  Tb1  1  0.108775  0.320278  0.020760  1
  Tb  Tb2  1  0.321460  0.020946  0.109402  1
  Tb  Tb3  1  0.021168  0.108837  0.321152  1
  Tb  Tb4  1  0.978833  0.891163  0.678849  1
  Tb  Tb5  1  0.678540  0.979055  0.890598  1
  Tb  Tb6  1  0.891225  0.679722  0.979240  1
  Ir  Ir7  1  0.000000  0.000000  0.000000  1
  Cl  Cl8  1  0.214097  0.679944  0.072505  1
  Cl  Cl9  1  0.452598  0.371720  0.163461  1
  Cl  Cl10  1  0.680185  0.072504  0.214210  1
  Cl  Cl11  1  0.927479  0.785626  0.319965  1
  Cl  Cl12  1  0.163424  0.452365  0.371702  1
  Cl  Cl13  1  0.372053  0.163467  0.452771  1
  Cl  Cl14  1  0.627947  0.836533  0.547230  1
  Cl  Cl15  1  0.836577  0.547635  0.628298  1
  Cl  Cl16  1  0.072522  0.214374  0.680036  1
  Cl  Cl17  1  0.319816  0.927497  0.785790  1
  Cl  Cl18  1  0.547402  0.628280  0.836540  1
  Cl  Cl19  1  0.785903  0.320056  0.927495  1
