# generated using pymatgen
data_LaGa2GeAu
_symmetry_space_group_name_H-M   'P 1'
_cell_length_a   6.16694938
_cell_length_b   6.16694911
_cell_length_c   6.16694873
_cell_angle_alpha   137.27860759
_cell_angle_beta   137.27860627
_cell_angle_gamma   62.00966114
_symmetry_Int_Tables_number   1
_chemical_formula_structural   LaGa2GeAu
_chemical_formula_sum   'La1 Ga2 Ge1 Au1'
_cell_volume   106.68054299
_cell_formula_units_Z   1
loop_
 _symmetry_equiv_pos_site_id
 _symmetry_equiv_pos_as_xyz
  1  'x, y, z'
loop_
 _atom_site_type_symbol
 _atom_site_label
 _atom_site_symmetry_multiplicity
 _atom_site_fract_x
 _atom_site_fract_y
 _atom_site_fract_z
 _atom_site_occupancy
  La  La0  1  0.989662  0.989662  0.000000  1
  Ga  Ga1  1  0.251355  0.751355  0.500000  1
  Ga  Ga2  1  0.751355  0.251355  0.500000  1
  Ge  Ge3  1  0.391854  0.391854  0.000000  1
  Au  Au4  1  0.631774  0.631774  0.000000  1
