# generated using pymatgen
data_Gd2TcB6Mo
_symmetry_space_group_name_H-M   'P 1'
_cell_length_a   3.16330600
_cell_length_b   5.48148541
_cell_length_c   6.86584911
_cell_angle_alpha   77.16912661
_cell_angle_beta   90.00000000
_cell_angle_gamma   90.00000000
_symmetry_Int_Tables_number   1
_chemical_formula_structural   Gd2TcB6Mo
_chemical_formula_sum   'Gd2 Tc1 B6 Mo1'
_cell_volume   116.07845698
_cell_formula_units_Z   1
loop_
 _symmetry_equiv_pos_site_id
 _symmetry_equiv_pos_as_xyz
  1  'x, y, z'
loop_
 _atom_site_type_symbol
 _atom_site_label
 _atom_site_symmetry_multiplicity
 _atom_site_fract_x
 _atom_site_fract_y
 _atom_site_fract_z
 _atom_site_occupancy
  Gd  Gd0  1  0.750000  0.827386  0.708592  1
  Gd  Gd1  1  0.250000  0.170395  0.293310  1
  Tc  Tc2  1  0.750000  0.685625  0.218602  1
  B  B3  1  0.250000  0.581529  0.471962  1
  B  B4  1  0.750000  0.426219  0.523736  1
  B  B5  1  0.250000  0.587163  0.995944  1
  B  B6  1  0.750000  0.410466  0.005113  1
  B  B7  1  0.250000  0.915551  0.993903  1
  B  B8  1  0.750000  0.082337  0.007620  1
  Mo  Mo9  1  0.250000  0.313329  0.781218  1
