# generated using pymatgen
data_Tb5Pr5(In3Br)2
_symmetry_space_group_name_H-M   'P 1'
_cell_length_a   9.49611100
_cell_length_b   9.48674208
_cell_length_c   6.81794300
_cell_angle_alpha   90.00000000
_cell_angle_beta   90.00000000
_cell_angle_gamma   120.03267775
_symmetry_Int_Tables_number   1
_chemical_formula_structural   Tb5Pr5(In3Br)2
_chemical_formula_sum   'Tb5 Pr5 In6 Br2'
_cell_volume   531.74543956
_cell_formula_units_Z   1
loop_
 _symmetry_equiv_pos_site_id
 _symmetry_equiv_pos_as_xyz
  1  'x, y, z'
loop_
 _atom_site_type_symbol
 _atom_site_label
 _atom_site_symmetry_multiplicity
 _atom_site_fract_x
 _atom_site_fract_y
 _atom_site_fract_z
 _atom_site_occupancy
  Tb  Tb0  1  0.332983  0.669437  0.499390  1
  Tb  Tb1  1  0.663548  0.330563  0.499390  1
  Tb  Tb2  1  0.266301  0.000000  0.250000  1
  Tb  Tb3  1  0.332983  0.669437  0.000610  1
  Tb  Tb4  1  0.663548  0.330563  0.000610  1
  Pr  Pr5  1  0.731173  0.731836  0.250000  1
  Pr  Pr6  1  0.000595  0.732328  0.750000  1
  Pr  Pr7  1  0.735643  0.000000  0.750000  1
  Pr  Pr8  1  0.268268  0.267672  0.750000  1
  Pr  Pr9  1  0.999337  0.268164  0.250000  1
  In  In10  1  0.395308  0.000000  0.750000  1
  In  In11  1  0.004053  0.609703  0.250000  1
  In  In12  1  0.599649  0.000000  0.250000  1
  In  In13  1  0.999714  0.394756  0.750000  1
  In  In14  1  0.394350  0.390297  0.250000  1
  In  In15  1  0.604958  0.605244  0.750000  1
  Br  Br16  1  0.003794  0.000000  0.496730  1
  Br  Br17  1  0.003794  0.000000  0.003270  1
