# generated using pymatgen
data_Pa7(PSe3)2
_symmetry_space_group_name_H-M   'P 1'
_cell_length_a   8.04985462
_cell_length_b   6.93802468
_cell_length_c   8.03481783
_cell_angle_alpha   89.99520587
_cell_angle_beta   60.07427342
_cell_angle_gamma   72.98702586
_symmetry_Int_Tables_number   1
_chemical_formula_structural   Pa7(PSe3)2
_chemical_formula_sum   'Pa7 P2 Se6'
_cell_volume   366.08880740
_cell_formula_units_Z   1
loop_
 _symmetry_equiv_pos_site_id
 _symmetry_equiv_pos_as_xyz
  1  'x, y, z'
loop_
 _atom_site_type_symbol
 _atom_site_label
 _atom_site_symmetry_multiplicity
 _atom_site_fract_x
 _atom_site_fract_y
 _atom_site_fract_z
 _atom_site_occupancy
  Pa  Pa0  1  0.160033  0.688135  0.980175  1
  Pa  Pa1  1  0.660104  0.188195  0.748811  1
  Pa  Pa2  1  0.145795  0.183839  0.737708  1
  Pa  Pa3  1  0.659708  0.688634  0.980686  1
  Pa  Pa4  1  0.160142  0.688184  0.480080  1
  Pa  Pa5  1  0.660067  0.188233  0.211481  1
  Pa  Pa6  1  0.173416  0.193690  0.223773  1
  P  P7  1  0.406381  0.449817  0.106958  1
  P  P8  1  0.913912  0.926556  0.853187  1
  Se  Se9  1  0.421733  0.926924  0.363809  1
  Se  Se10  1  0.897380  0.450614  0.597677  1
  Se  Se11  1  0.897201  0.450727  0.126308  1
  Se  Se12  1  0.419462  0.433736  0.600415  1
  Se  Se13  1  0.900804  0.942823  0.359830  1
  Se  Se14  1  0.421795  0.926831  0.835521  1
