# generated using pymatgen
data_Eu5GePt2
_symmetry_space_group_name_H-M   'P 1'
_cell_length_a   9.13281257
_cell_length_b   9.13281222
_cell_length_c   9.13281255
_cell_angle_alpha   128.23213466
_cell_angle_beta   128.23213715
_cell_angle_gamma   76.24927974
_symmetry_Int_Tables_number   1
_chemical_formula_structural   Eu5GePt2
_chemical_formula_sum   'Eu10 Ge2 Pt4'
_cell_volume   456.80722493
_cell_formula_units_Z   2
loop_
 _symmetry_equiv_pos_site_id
 _symmetry_equiv_pos_as_xyz
  1  'x, y, z'
loop_
 _atom_site_type_symbol
 _atom_site_label
 _atom_site_symmetry_multiplicity
 _atom_site_fract_x
 _atom_site_fract_y
 _atom_site_fract_z
 _atom_site_occupancy
  Eu  Eu0  1  0.529952  0.029952  0.840236  1
  Eu  Eu1  1  0.189717  0.689717  0.159764  1
  Eu  Eu2  1  0.029952  0.189717  0.500000  1
  Eu  Eu3  1  0.689717  0.529952  0.500000  1
  Eu  Eu4  1  0.470048  0.970048  0.159764  1
  Eu  Eu5  1  0.810283  0.310283  0.840236  1
  Eu  Eu6  1  0.970048  0.810283  0.500000  1
  Eu  Eu7  1  0.310283  0.470048  0.500000  1
  Eu  Eu8  1  0.500000  0.500000  0.000000  1
  Eu  Eu9  1  0.000000  0.000000  0.000000  1
  Ge  Ge10  1  0.250000  0.250000  0.000000  1
  Ge  Ge11  1  0.750000  0.750000  0.000000  1
  Pt  Pt12  1  0.873823  0.373823  0.247646  1
  Pt  Pt13  1  0.126177  0.626177  0.752354  1
  Pt  Pt14  1  0.373823  0.126177  0.500000  1
  Pt  Pt15  1  0.626177  0.873823  0.500000  1
