# generated using pymatgen
data_La2Pr4FeBr10
_symmetry_space_group_name_H-M   'P 1'
_cell_length_a   7.76195973
_cell_length_b   9.36532582
_cell_length_c   9.81297745
_cell_angle_alpha   108.47979319
_cell_angle_beta   97.49259874
_cell_angle_gamma   105.09021063
_symmetry_Int_Tables_number   1
_chemical_formula_structural   La2Pr4FeBr10
_chemical_formula_sum   'La2 Pr4 Fe1 Br10'
_cell_volume   635.32256516
_cell_formula_units_Z   1
loop_
 _symmetry_equiv_pos_site_id
 _symmetry_equiv_pos_as_xyz
  1  'x, y, z'
loop_
 _atom_site_type_symbol
 _atom_site_label
 _atom_site_symmetry_multiplicity
 _atom_site_fract_x
 _atom_site_fract_y
 _atom_site_fract_z
 _atom_site_occupancy
  La  La0  1  0.533448  0.229185  0.419865  1
  La  La1  1  0.466552  0.770815  0.580135  1
  Pr  Pr2  1  0.131722  0.357906  0.314550  1
  Pr  Pr3  1  0.868278  0.642094  0.685450  1
  Pr  Pr4  1  0.627422  0.550471  0.250884  1
  Pr  Pr5  1  0.372578  0.449529  0.749116  1
  Fe  Fe6  1  0.500000  0.500000  0.500000  1
  Br  Br7  1  0.152882  0.042473  0.229841  1
  Br  Br8  1  0.847118  0.957527  0.770159  1
  Br  Br9  1  0.250453  0.415841  0.050621  1
  Br  Br10  1  0.749547  0.584159  0.949379  1
  Br  Br11  1  0.703392  0.244623  0.155698  1
  Br  Br12  1  0.296608  0.755377  0.844302  1
  Br  Br13  1  0.043773  0.674827  0.420482  1
  Br  Br14  1  0.956227  0.325173  0.579518  1
  Br  Br15  1  0.413473  0.130817  0.671522  1
  Br  Br16  1  0.586527  0.869183  0.328478  1
