# generated using pymatgen
data_Eu20(CdPt3)3
_symmetry_space_group_name_H-M   'P 1'
_cell_length_a   8.02895000
_cell_length_b   8.02895000
_cell_length_c   14.89709300
_cell_angle_alpha   90.00000000
_cell_angle_beta   90.00000000
_cell_angle_gamma   90.00000000
_symmetry_Int_Tables_number   1
_chemical_formula_structural   Eu20(CdPt3)3
_chemical_formula_sum   'Eu20 Cd3 Pt9'
_cell_volume   960.32677077
_cell_formula_units_Z   1
loop_
 _symmetry_equiv_pos_site_id
 _symmetry_equiv_pos_as_xyz
  1  'x, y, z'
loop_
 _atom_site_type_symbol
 _atom_site_label
 _atom_site_symmetry_multiplicity
 _atom_site_fract_x
 _atom_site_fract_y
 _atom_site_fract_z
 _atom_site_occupancy
  Eu  Eu0  1  0.680992  0.156746  0.110993  1
  Eu  Eu1  1  0.167491  0.666177  0.619437  1
  Eu  Eu2  1  0.319008  0.843254  0.110993  1
  Eu  Eu3  1  0.832509  0.333823  0.619437  1
  Eu  Eu4  1  0.843254  0.680992  0.110993  1
  Eu  Eu5  1  0.333823  0.167491  0.619437  1
  Eu  Eu6  1  0.156746  0.319008  0.110993  1
  Eu  Eu7  1  0.666177  0.832509  0.619437  1
  Eu  Eu8  1  0.843254  0.319008  0.889007  1
  Eu  Eu9  1  0.333823  0.832509  0.380563  1
  Eu  Eu10  1  0.156746  0.680992  0.889007  1
  Eu  Eu11  1  0.666177  0.167491  0.380563  1
  Eu  Eu12  1  0.680992  0.843254  0.889007  1
  Eu  Eu13  1  0.167491  0.333823  0.380563  1
  Eu  Eu14  1  0.319008  0.156746  0.889007  1
  Eu  Eu15  1  0.832509  0.666177  0.380563  1
  Eu  Eu16  1  0.500000  0.500000  0.759197  1
  Eu  Eu17  1  0.000000  0.000000  0.249861  1
  Eu  Eu18  1  0.000000  0.000000  0.750139  1
  Eu  Eu19  1  0.500000  0.500000  0.240803  1
  Cd  Cd20  1  0.500000  0.500000  0.500000  1
  Cd  Cd21  1  0.500000  0.500000  0.000000  1
  Cd  Cd22  1  0.000000  0.000000  0.500000  1
  Pt  Pt23  1  0.629831  0.131168  0.752835  1
  Pt  Pt24  1  0.131168  0.629831  0.247165  1
  Pt  Pt25  1  0.868832  0.370169  0.247165  1
  Pt  Pt26  1  0.370169  0.868832  0.752835  1
  Pt  Pt27  1  0.868832  0.629831  0.752835  1
  Pt  Pt28  1  0.370169  0.131168  0.247165  1
  Pt  Pt29  1  0.131168  0.370169  0.752835  1
  Pt  Pt30  1  0.629831  0.868832  0.247165  1
  Pt  Pt31  1  0.000000  0.000000  0.000000  1
