# generated using pymatgen
data_Tm2Lu2B12OsRu
_symmetry_space_group_name_H-M   'P 1'
_cell_length_a   3.60180400
_cell_length_b   9.03879834
_cell_length_c   11.40894200
_cell_angle_alpha   89.93334633
_cell_angle_beta   90.00000000
_cell_angle_gamma   90.00000000
_symmetry_Int_Tables_number   1
_chemical_formula_structural   Tm2Lu2B12OsRu
_chemical_formula_sum   'Tm4 Lu4 B24 Os2 Ru2'
_cell_volume   371.42903652
_cell_formula_units_Z   2
loop_
 _symmetry_equiv_pos_site_id
 _symmetry_equiv_pos_as_xyz
  1  'x, y, z'
loop_
 _atom_site_type_symbol
 _atom_site_label
 _atom_site_symmetry_multiplicity
 _atom_site_fract_x
 _atom_site_fract_y
 _atom_site_fract_z
 _atom_site_occupancy
  Tm  Tm0  1  0.000000  0.321190  0.414228  1
  Tm  Tm1  1  0.000000  0.678810  0.585772  1
  Tm  Tm2  1  0.000000  0.821103  0.086174  1
  Tm  Tm3  1  0.000000  0.178897  0.913826  1
  Lu  Lu4  1  0.000000  0.944230  0.372829  1
  Lu  Lu5  1  0.000000  0.055770  0.627171  1
  Lu  Lu6  1  0.000000  0.443558  0.126910  1
  Lu  Lu7  1  0.000000  0.556442  0.873090  1
  B  B8  1  0.500000  0.553759  0.433573  1
  B  B9  1  0.500000  0.446241  0.566427  1
  B  B10  1  0.500000  0.053904  0.066375  1
  B  B11  1  0.500000  0.946096  0.933625  1
  B  B12  1  0.500000  0.749334  0.420182  1
  B  B13  1  0.500000  0.250666  0.579818  1
  B  B14  1  0.500000  0.248982  0.079606  1
  B  B15  1  0.500000  0.751018  0.920394  1
  B  B16  1  0.500000  0.792124  0.265748  1
  B  B17  1  0.500000  0.207876  0.734252  1
  B  B18  1  0.500000  0.291789  0.234082  1
  B  B19  1  0.500000  0.708211  0.765918  1
  B  B20  1  0.500000  0.630901  0.184466  1
  B  B21  1  0.500000  0.369099  0.815534  1
  B  B22  1  0.500000  0.131088  0.315615  1
  B  B23  1  0.500000  0.868912  0.684385  1
  B  B24  1  0.500000  0.982134  0.213099  1
  B  B25  1  0.500000  0.017866  0.786901  1
  B  B26  1  0.500000  0.481742  0.286766  1
  B  B27  1  0.500000  0.518258  0.713234  1
  B  B28  1  0.500000  0.605718  0.029216  1
  B  B29  1  0.500000  0.394282  0.970784  1
  B  B30  1  0.500000  0.105591  0.470835  1
  B  B31  1  0.500000  0.894409  0.529165  1
  Os  Os32  1  0.000000  0.637706  0.321019  1
  Os  Os33  1  0.000000  0.362294  0.678981  1
  Ru  Ru34  1  0.000000  0.137829  0.179280  1
  Ru  Ru35  1  0.000000  0.862171  0.820720  1
