# generated using pymatgen
data_Yb6Ag16N
_symmetry_space_group_name_H-M   'P 1'
_cell_length_a   8.51380691
_cell_length_b   8.51380681
_cell_length_c   8.51380600
_cell_angle_alpha   109.47122347
_cell_angle_beta   109.47122324
_cell_angle_gamma   109.47121826
_symmetry_Int_Tables_number   1
_chemical_formula_structural   Yb6Ag16N
_chemical_formula_sum   'Yb6 Ag16 N1'
_cell_volume   475.06105627
_cell_formula_units_Z   1
loop_
 _symmetry_equiv_pos_site_id
 _symmetry_equiv_pos_as_xyz
  1  'x, y, z'
loop_
 _atom_site_type_symbol
 _atom_site_label
 _atom_site_symmetry_multiplicity
 _atom_site_fract_x
 _atom_site_fract_y
 _atom_site_fract_z
 _atom_site_occupancy
  Yb  Yb0  1  0.256206  0.256206  0.000000  1
  Yb  Yb1  1  0.743794  0.743794  0.000000  1
  Yb  Yb2  1  0.256206  0.000000  0.256206  1
  Yb  Yb3  1  0.000000  0.256206  0.256206  1
  Yb  Yb4  1  0.743794  0.000000  0.743794  1
  Yb  Yb5  1  0.000000  0.743794  0.743794  1
  Ag  Ag6  1  0.500000  0.000000  0.000000  1
  Ag  Ag7  1  0.652063  0.347937  0.000000  1
  Ag  Ag8  1  0.000000  0.500000  0.000000  1
  Ag  Ag9  1  0.347937  0.652063  0.000000  1
  Ag  Ag10  1  0.652063  0.652063  0.304126  1
  Ag  Ag11  1  0.695872  0.347936  0.347936  1
  Ag  Ag12  1  0.347936  0.695872  0.347936  1
  Ag  Ag13  1  0.652063  0.000000  0.347937  1
  Ag  Ag14  1  0.000000  0.652063  0.347937  1
  Ag  Ag15  1  0.000000  0.000000  0.500000  1
  Ag  Ag16  1  0.500000  0.500000  0.500000  1
  Ag  Ag17  1  0.347937  0.000000  0.652063  1
  Ag  Ag18  1  0.652063  0.304126  0.652063  1
  Ag  Ag19  1  0.000000  0.347937  0.652063  1
  Ag  Ag20  1  0.304126  0.652063  0.652063  1
  Ag  Ag21  1  0.347936  0.347936  0.695872  1
  N  N22  1  0.000000  0.000000  0.000000  1
