# generated using pymatgen
data_Nd2Cu7P4Pd
_symmetry_space_group_name_H-M   'P 1'
_cell_length_a   7.37907204
_cell_length_b   7.41504628
_cell_length_c   3.86788700
_cell_angle_alpha   90.00000000
_cell_angle_beta   90.00000000
_cell_angle_gamma   90.15044479
_symmetry_Int_Tables_number   1
_chemical_formula_structural   Nd2Cu7P4Pd
_chemical_formula_sum   'Nd2 Cu7 P4 Pd1'
_cell_volume   211.63519695
_cell_formula_units_Z   1
loop_
 _symmetry_equiv_pos_site_id
 _symmetry_equiv_pos_as_xyz
  1  'x, y, z'
loop_
 _atom_site_type_symbol
 _atom_site_label
 _atom_site_symmetry_multiplicity
 _atom_site_fract_x
 _atom_site_fract_y
 _atom_site_fract_z
 _atom_site_occupancy
  Nd  Nd0  1  0.997922  0.000062  0.000000  1
  Nd  Nd1  1  0.500264  0.500559  0.500000  1
  Cu  Cu2  1  0.161938  0.582545  0.000000  1
  Cu  Cu3  1  0.409110  0.835947  0.000000  1
  Cu  Cu4  1  0.922819  0.655360  0.500000  1
  Cu  Cu5  1  0.837376  0.416782  0.000000  1
  Cu  Cu6  1  0.583034  0.165680  0.000000  1
  Cu  Cu7  1  0.085109  0.336402  0.500000  1
  Cu  Cu8  1  0.333035  0.086816  0.500000  1
  P  P9  1  0.284113  0.284676  0.000000  1
  P  P10  1  0.717811  0.710919  0.000000  1
  P  P11  1  0.786205  0.224648  0.500000  1
  P  P12  1  0.216893  0.785902  0.500000  1
  Pd  Pd13  1  0.664372  0.913701  0.500000  1
