# generated using pymatgen
data_Sc5ZnB4(Ir4Ru)2
_symmetry_space_group_name_H-M   'P 1'
_cell_length_a   3.04506200
_cell_length_b   9.52700300
_cell_length_c   9.52700300
_cell_angle_alpha   90.00000000
_cell_angle_beta   90.00000000
_cell_angle_gamma   90.00000000
_symmetry_Int_Tables_number   1
_chemical_formula_structural   Sc5ZnB4(Ir4Ru)2
_chemical_formula_sum   'Sc5 Zn1 B4 Ir8 Ru2'
_cell_volume   276.38135622
_cell_formula_units_Z   1
loop_
 _symmetry_equiv_pos_site_id
 _symmetry_equiv_pos_as_xyz
  1  'x, y, z'
loop_
 _atom_site_type_symbol
 _atom_site_label
 _atom_site_symmetry_multiplicity
 _atom_site_fract_x
 _atom_site_fract_y
 _atom_site_fract_z
 _atom_site_occupancy
  Sc  Sc0  1  0.000000  0.173547  0.674793  1
  Sc  Sc1  1  0.000000  0.826453  0.325207  1
  Sc  Sc2  1  0.000000  0.325207  0.173547  1
  Sc  Sc3  1  0.000000  0.674793  0.826453  1
  Sc  Sc4  1  0.000000  0.500000  0.500000  1
  Zn  Zn5  1  0.000000  0.000000  0.000000  1
  B  B6  1  0.000000  0.626333  0.117106  1
  B  B7  1  0.000000  0.373667  0.882894  1
  B  B8  1  0.000000  0.882894  0.626333  1
  B  B9  1  0.000000  0.117106  0.373667  1
  Ir  Ir10  1  0.500000  0.068142  0.215528  1
  Ir  Ir11  1  0.500000  0.931858  0.784472  1
  Ir  Ir12  1  0.500000  0.784472  0.068142  1
  Ir  Ir13  1  0.500000  0.425420  0.722721  1
  Ir  Ir14  1  0.500000  0.215528  0.931858  1
  Ir  Ir15  1  0.500000  0.574580  0.277279  1
  Ir  Ir16  1  0.500000  0.722721  0.574580  1
  Ir  Ir17  1  0.500000  0.277279  0.425420  1
  Ru  Ru18  1  0.500000  0.000000  0.500000  1
  Ru  Ru19  1  0.500000  0.500000  0.000000  1
