# generated using pymatgen
data_Tb9Lu(PPb3)2
_symmetry_space_group_name_H-M   'P 1'
_cell_length_a   9.18648000
_cell_length_b   9.18648082
_cell_length_c   6.80615400
_cell_angle_alpha   90.00000000
_cell_angle_beta   90.00000000
_cell_angle_gamma   119.99999704
_symmetry_Int_Tables_number   1
_chemical_formula_structural   Tb9Lu(PPb3)2
_chemical_formula_sum   'Tb9 Lu1 P2 Pb6'
_cell_volume   497.42856675
_cell_formula_units_Z   1
loop_
 _symmetry_equiv_pos_site_id
 _symmetry_equiv_pos_as_xyz
  1  'x, y, z'
loop_
 _atom_site_type_symbol
 _atom_site_label
 _atom_site_symmetry_multiplicity
 _atom_site_fract_x
 _atom_site_fract_y
 _atom_site_fract_z
 _atom_site_occupancy
  Tb  Tb0  1  0.237589  0.999497  0.249624  1
  Tb  Tb1  1  0.761908  0.999497  0.750376  1
  Tb  Tb2  1  0.000503  0.238092  0.249624  1
  Tb  Tb3  1  0.333333  0.666667  0.500000  1
  Tb  Tb4  1  0.666667  0.333333  0.500000  1
  Tb  Tb5  1  0.666667  0.333333  0.000000  1
  Tb  Tb6  1  0.000503  0.762411  0.750376  1
  Tb  Tb7  1  0.237589  0.238092  0.750376  1
  Tb  Tb8  1  0.761908  0.762411  0.249624  1
  Lu  Lu9  1  0.333333  0.666667  0.000000  1
  P  P10  1  0.000000  0.000000  0.000000  1
  P  P11  1  0.000000  0.000000  0.500000  1
  Pb  Pb12  1  0.399798  0.998974  0.750846  1
  Pb  Pb13  1  0.001026  0.400824  0.750846  1
  Pb  Pb14  1  0.399798  0.400824  0.249154  1
  Pb  Pb15  1  0.599176  0.998974  0.249154  1
  Pb  Pb16  1  0.001026  0.600202  0.249154  1
  Pb  Pb17  1  0.599176  0.600202  0.750846  1
