# generated using pymatgen
data_Nb4Fe4Si3P
_symmetry_space_group_name_H-M   'P 1'
_cell_length_a   3.69174700
_cell_length_b   6.21173209
_cell_length_c   7.01469907
_cell_angle_alpha   89.98188934
_cell_angle_beta   90.00000000
_cell_angle_gamma   90.00000000
_symmetry_Int_Tables_number   1
_chemical_formula_structural   Nb4Fe4Si3P
_chemical_formula_sum   'Nb4 Fe4 Si3 P1'
_cell_volume   160.86207641
_cell_formula_units_Z   1
loop_
 _symmetry_equiv_pos_site_id
 _symmetry_equiv_pos_as_xyz
  1  'x, y, z'
loop_
 _atom_site_type_symbol
 _atom_site_label
 _atom_site_symmetry_multiplicity
 _atom_site_fract_x
 _atom_site_fract_y
 _atom_site_fract_z
 _atom_site_occupancy
  Nb  Nb0  1  0.250000  0.518609  0.181250  1
  Nb  Nb1  1  0.750000  0.484933  0.817770  1
  Nb  Nb2  1  0.750000  0.981773  0.685322  1
  Nb  Nb3  1  0.250000  0.019529  0.317539  1
  Fe  Fe4  1  0.250000  0.649097  0.569419  1
  Fe  Fe5  1  0.750000  0.354174  0.435712  1
  Fe  Fe6  1  0.750000  0.850802  0.057266  1
  Fe  Fe7  1  0.250000  0.139623  0.935614  1
  Si  Si8  1  0.750000  0.220285  0.115263  1
  Si  Si9  1  0.750000  0.722090  0.381994  1
  Si  Si10  1  0.250000  0.279574  0.617678  1
  P  P11  1  0.250000  0.779510  0.885173  1
