# generated using pymatgen
data_DyTm3Cu3Sb8
_symmetry_space_group_name_H-M   'P 1'
_cell_length_a   10.53080157
_cell_length_b   10.53707046
_cell_length_c   10.53381812
_cell_angle_alpha   146.49605772
_cell_angle_beta   146.48579060
_cell_angle_gamma   48.11957915
_symmetry_Int_Tables_number   1
_chemical_formula_structural   DyTm3Cu3Sb8
_chemical_formula_sum   'Dy1 Tm3 Cu3 Sb8'
_cell_volume   354.78108795
_cell_formula_units_Z   1
loop_
 _symmetry_equiv_pos_site_id
 _symmetry_equiv_pos_as_xyz
  1  'x, y, z'
loop_
 _atom_site_type_symbol
 _atom_site_label
 _atom_site_symmetry_multiplicity
 _atom_site_fract_x
 _atom_site_fract_y
 _atom_site_fract_z
 _atom_site_occupancy
  Dy  Dy0  1  0.874960  0.366365  0.000000  1
  Tm  Tm1  1  0.634337  0.634344  0.509295  1
  Tm  Tm2  1  0.125043  0.125049  0.490705  1
  Tm  Tm3  1  0.365738  0.874809  0.000000  1
  Cu  Cu4  1  0.000311  0.998897  0.000000  1
  Cu  Cu5  1  0.000102  0.500385  0.501122  1
  Cu  Cu6  1  0.498981  0.999263  0.498878  1
  Sb  Sb7  1  0.335106  0.335570  0.516782  1
  Sb  Sb8  1  0.818325  0.818788  0.483218  1
  Sb  Sb9  1  0.664088  0.181386  0.000000  1
  Sb  Sb10  1  0.181404  0.663784  0.000000  1
  Sb  Sb11  1  0.250919  0.249942  0.000000  1
  Sb  Sb12  1  0.749802  0.750687  0.000000  1
  Sb  Sb13  1  0.749920  0.249843  0.498956  1
  Sb  Sb14  1  0.250964  0.750887  0.501044  1
