# generated using pymatgen
data_Cs2Te(PSe3)2
_symmetry_space_group_name_H-M   'P 1'
_cell_length_a   12.94928800
_cell_length_b   7.87651990
_cell_length_c   10.34670709
_cell_angle_alpha   51.02319074
_cell_angle_beta   90.00000000
_cell_angle_gamma   90.00000000
_symmetry_Int_Tables_number   1
_chemical_formula_structural   Cs2Te(PSe3)2
_chemical_formula_sum   'Cs4 Te2 P4 Se12'
_cell_volume   820.40311554
_cell_formula_units_Z   2
loop_
 _symmetry_equiv_pos_site_id
 _symmetry_equiv_pos_as_xyz
  1  'x, y, z'
loop_
 _atom_site_type_symbol
 _atom_site_label
 _atom_site_symmetry_multiplicity
 _atom_site_fract_x
 _atom_site_fract_y
 _atom_site_fract_z
 _atom_site_occupancy
  Cs  Cs0  1  0.658638  0.248622  0.505387  1
  Cs  Cs1  1  0.158638  0.751378  0.994613  1
  Cs  Cs2  1  0.341362  0.751378  0.494613  1
  Cs  Cs3  1  0.841362  0.248622  0.005387  1
  Te  Te4  1  0.000000  0.500000  0.500000  1
  Te  Te5  1  0.500000  0.500000  0.000000  1
  P  P6  1  0.039667  0.161964  0.395315  1
  P  P7  1  0.539667  0.838036  0.104685  1
  P  P8  1  0.960333  0.838036  0.604685  1
  P  P9  1  0.460333  0.161964  0.895315  1
  Se  Se10  1  0.155800  0.224112  0.521674  1
  Se  Se11  1  0.655800  0.775888  0.978326  1
  Se  Se12  1  0.844200  0.775888  0.478326  1
  Se  Se13  1  0.344200  0.224112  0.021674  1
  Se  Se14  1  0.916426  0.418548  0.286982  1
  Se  Se15  1  0.416426  0.581452  0.213018  1
  Se  Se16  1  0.083574  0.581452  0.713018  1
  Se  Se17  1  0.583574  0.418548  0.786982  1
  Se  Se18  1  0.107063  0.142711  0.215019  1
  Se  Se19  1  0.607063  0.857289  0.284981  1
  Se  Se20  1  0.892937  0.857289  0.784981  1
  Se  Se21  1  0.392937  0.142711  0.715019  1
