# generated using pymatgen
data_Pr4Pa(BN3)2
_symmetry_space_group_name_H-M   'P 1'
_cell_length_a   6.44125253
_cell_length_b   6.44125190
_cell_length_c   8.82718815
_cell_angle_alpha   74.26067197
_cell_angle_beta   74.26067534
_cell_angle_gamma   32.53046695
_symmetry_Int_Tables_number   1
_chemical_formula_structural   Pr4Pa(BN3)2
_chemical_formula_sum   'Pr4 Pa1 B2 N6'
_cell_volume   188.91740946
_cell_formula_units_Z   1
loop_
 _symmetry_equiv_pos_site_id
 _symmetry_equiv_pos_as_xyz
  1  'x, y, z'
loop_
 _atom_site_type_symbol
 _atom_site_label
 _atom_site_symmetry_multiplicity
 _atom_site_fract_x
 _atom_site_fract_y
 _atom_site_fract_z
 _atom_site_occupancy
  Pr  Pr0  1  0.623087  0.623087  0.622778  1
  Pr  Pr1  1  0.310487  0.310487  0.813054  1
  Pr  Pr2  1  0.689513  0.689513  0.186946  1
  Pr  Pr3  1  0.376913  0.376913  0.377222  1
  Pa  Pa4  1  0.000000  0.000000  0.000000  1
  B  B5  1  0.054451  0.054451  0.408709  1
  B  B6  1  0.945549  0.945549  0.591291  1
  N  N7  1  0.027070  0.027070  0.251358  1
  N  N8  1  0.368760  0.368760  0.073483  1
  N  N9  1  0.825006  0.825006  0.594916  1
  N  N10  1  0.972930  0.972930  0.748642  1
  N  N11  1  0.631240  0.631240  0.926517  1
  N  N12  1  0.174994  0.174994  0.405084  1
