# generated using pymatgen
data_Sr3Ga4(NiIr)2
_symmetry_space_group_name_H-M   'P 1'
_cell_length_a   6.73017980
_cell_length_b   6.73017958
_cell_length_c   6.59106668
_cell_angle_alpha   109.45615181
_cell_angle_beta   109.45614964
_cell_angle_gamma   110.34053018
_symmetry_Int_Tables_number   1
_chemical_formula_structural   Sr3Ga4(NiIr)2
_chemical_formula_sum   'Sr3 Ga4 Ni2 Ir2'
_cell_volume   227.39485382
_cell_formula_units_Z   1
loop_
 _symmetry_equiv_pos_site_id
 _symmetry_equiv_pos_as_xyz
  1  'x, y, z'
loop_
 _atom_site_type_symbol
 _atom_site_label
 _atom_site_symmetry_multiplicity
 _atom_site_fract_x
 _atom_site_fract_y
 _atom_site_fract_z
 _atom_site_occupancy
  Sr  Sr0  1  0.003301  0.503301  0.500000  1
  Sr  Sr1  1  0.503301  0.003301  0.500000  1
  Sr  Sr2  1  0.498536  0.498536  0.000000  1
  Ga  Ga3  1  0.606979  0.606979  0.602519  1
  Ga  Ga4  1  0.004460  0.004460  0.397481  1
  Ga  Ga5  1  0.004864  0.384849  0.000000  1
  Ga  Ga6  1  0.384849  0.004864  0.000000  1
  Ni  Ni7  1  0.242916  0.242916  0.241159  1
  Ni  Ni8  1  0.001756  0.001756  0.758841  1
  Ir  Ir9  1  0.001346  0.747691  0.000000  1
  Ir  Ir10  1  0.747691  0.001346  0.000000  1
