# generated using pymatgen
data_Gd16Ho3ZnIr12
_symmetry_space_group_name_H-M   'P 1'
_cell_length_a   10.93340500
_cell_length_b   10.93340500
_cell_length_c   6.32970100
_cell_angle_alpha   90.00000000
_cell_angle_beta   90.00000000
_cell_angle_gamma   90.00000000
_symmetry_Int_Tables_number   1
_chemical_formula_structural   Gd16Ho3ZnIr12
_chemical_formula_sum   'Gd16 Ho3 Zn1 Ir12'
_cell_volume   756.64831092
_cell_formula_units_Z   1
loop_
 _symmetry_equiv_pos_site_id
 _symmetry_equiv_pos_as_xyz
  1  'x, y, z'
loop_
 _atom_site_type_symbol
 _atom_site_label
 _atom_site_symmetry_multiplicity
 _atom_site_fract_x
 _atom_site_fract_y
 _atom_site_fract_z
 _atom_site_occupancy
  Gd  Gd0  1  0.280219  0.084040  0.380571  1
  Gd  Gd1  1  0.290499  0.911295  0.879342  1
  Gd  Gd2  1  0.709501  0.088705  0.879342  1
  Gd  Gd3  1  0.719781  0.915960  0.380571  1
  Gd  Gd4  1  0.589180  0.790661  0.880956  1
  Gd  Gd5  1  0.587435  0.209146  0.377780  1
  Gd  Gd6  1  0.412565  0.790854  0.377780  1
  Gd  Gd7  1  0.410820  0.209339  0.880956  1
  Gd  Gd8  1  0.209146  0.412565  0.622220  1
  Gd  Gd9  1  0.209339  0.589180  0.119044  1
  Gd  Gd10  1  0.790661  0.410820  0.119044  1
  Gd  Gd11  1  0.790854  0.587435  0.622220  1
  Gd  Gd12  1  0.911295  0.709501  0.120658  1
  Gd  Gd13  1  0.915960  0.280219  0.619429  1
  Gd  Gd14  1  0.084040  0.719781  0.619429  1
  Gd  Gd15  1  0.088705  0.290499  0.120658  1
  Ho  Ho16  1  0.000000  0.000000  0.000000  1
  Ho  Ho17  1  0.500000  0.500000  0.000000  1
  Ho  Ho18  1  0.500000  0.500000  0.500000  1
  Zn  Zn19  1  0.000000  0.000000  0.500000  1
  Ir  Ir20  1  0.847050  0.154400  0.244571  1
  Ir  Ir21  1  0.845600  0.847050  0.755429  1
  Ir  Ir22  1  0.154400  0.152950  0.755429  1
  Ir  Ir23  1  0.152950  0.845600  0.244571  1
  Ir  Ir24  1  0.653714  0.347522  0.746678  1
  Ir  Ir25  1  0.652478  0.653714  0.253322  1
  Ir  Ir26  1  0.347522  0.346286  0.253322  1
  Ir  Ir27  1  0.346286  0.652478  0.746678  1
  Ir  Ir28  1  0.500000  0.000000  0.125168  1
  Ir  Ir29  1  0.500000  0.000000  0.619940  1
  Ir  Ir30  1  0.000000  0.500000  0.874832  1
  Ir  Ir31  1  0.000000  0.500000  0.380060  1
