# generated using pymatgen
data_V3Co2SiN
_symmetry_space_group_name_H-M   'P 1'
_cell_length_a   7.56353700
_cell_length_b   7.56353729
_cell_length_c   7.56353700
_cell_angle_alpha   120.00000312
_cell_angle_beta   90.00000000
_cell_angle_gamma   120.00000312
_symmetry_Int_Tables_number   1
_chemical_formula_structural   V3Co2SiN
_chemical_formula_sum   'V12 Co8 Si4 N4'
_cell_volume   305.95657097
_cell_formula_units_Z   4
loop_
 _symmetry_equiv_pos_site_id
 _symmetry_equiv_pos_as_xyz
  1  'x, y, z'
loop_
 _atom_site_type_symbol
 _atom_site_label
 _atom_site_symmetry_multiplicity
 _atom_site_fract_x
 _atom_site_fract_y
 _atom_site_fract_z
 _atom_site_occupancy
  V  V0  1  0.314325  0.750000  0.185675  1
  V  V1  1  0.935675  0.371351  0.185675  1
  V  V2  1  0.935675  0.750000  0.185675  1
  V  V3  1  0.685675  0.250000  0.435675  1
  V  V4  1  0.685675  0.871351  0.435675  1
  V  V5  1  0.064325  0.250000  0.435675  1
  V  V6  1  0.935675  0.750000  0.564325  1
  V  V7  1  0.314325  0.128649  0.564325  1
  V  V8  1  0.314325  0.750000  0.564325  1
  V  V9  1  0.064324  0.628647  0.814324  1
  V  V10  1  0.064324  0.250000  0.814324  1
  V  V11  1  0.685675  0.250000  0.814325  1
  Co  Co12  1  0.709240  0.918480  0.127720  1
  Co  Co13  1  0.290760  0.081520  0.209240  1
  Co  Co14  1  0.290760  0.418480  0.209240  1
  Co  Co15  1  0.627720  0.418480  0.209240  1
  Co  Co16  1  0.709240  0.581520  0.790760  1
  Co  Co17  1  0.709240  0.918480  0.790760  1
  Co  Co18  1  0.372280  0.581520  0.790760  1
  Co  Co19  1  0.290760  0.081520  0.872280  1
  Si  Si20  1  0.000000  0.000000  0.000000  1
  Si  Si21  1  0.500000  0.000000  0.000000  1
  Si  Si22  1  0.500000  0.500000  0.000000  1
  Si  Si23  1  0.500000  0.500000  0.500000  1
  N  N24  1  0.000000  0.500000  0.000000  1
  N  N25  1  0.000000  0.000000  0.500000  1
  N  N26  1  0.500000  0.000000  0.500000  1
  N  N27  1  0.000000  0.500000  0.500000  1
