# generated using pymatgen
data_Tm4TaSi8Tc5
_symmetry_space_group_name_H-M   'P 1'
_cell_length_a   6.81215793
_cell_length_b   6.69444504
_cell_length_c   6.80282402
_cell_angle_alpha   70.67025396
_cell_angle_beta   90.01431774
_cell_angle_gamma   90.03857964
_symmetry_Int_Tables_number   1
_chemical_formula_structural   Tm4TaSi8Tc5
_chemical_formula_sum   'Tm4 Ta1 Si8 Tc5'
_cell_volume   292.74522026
_cell_formula_units_Z   1
loop_
 _symmetry_equiv_pos_site_id
 _symmetry_equiv_pos_as_xyz
  1  'x, y, z'
loop_
 _atom_site_type_symbol
 _atom_site_label
 _atom_site_symmetry_multiplicity
 _atom_site_fract_x
 _atom_site_fract_y
 _atom_site_fract_z
 _atom_site_occupancy
  Tm  Tm0  1  0.330082  0.561014  0.805683  1
  Tm  Tm1  1  0.831751  0.940985  0.186767  1
  Tm  Tm2  1  0.668088  0.439742  0.191786  1
  Tm  Tm3  1  0.169864  0.060677  0.805797  1
  Ta  Ta4  1  0.660546  0.254199  0.751715  1
  Si  Si5  1  0.546426  0.865877  0.908604  1
  Si  Si6  1  0.049618  0.619586  0.104716  1
  Si  Si7  1  0.450928  0.126003  0.101260  1
  Si  Si8  1  0.959515  0.374479  0.908391  1
  Si  Si9  1  0.137581  0.866473  0.491092  1
  Si  Si10  1  0.635807  0.642566  0.506123  1
  Si  Si11  1  0.870129  0.124715  0.501962  1
  Si  Si12  1  0.355985  0.376860  0.484493  1
  Tc  Tc13  1  0.500652  0.005730  0.504739  1
  Tc  Tc14  1  0.995630  0.499505  0.499444  1
  Tc  Tc15  1  0.844225  0.752065  0.768557  1
  Tc  Tc16  1  0.340601  0.750914  0.235530  1
  Tc  Tc17  1  0.152571  0.238609  0.243339  1
