# generated using pymatgen
data_LiY16Cd3Co4
_symmetry_space_group_name_H-M   'P 1'
_cell_length_a   9.46511671
_cell_length_b   9.46395972
_cell_length_c   9.48390670
_cell_angle_alpha   60.07269553
_cell_angle_beta   60.07334839
_cell_angle_gamma   60.00357889
_symmetry_Int_Tables_number   1
_chemical_formula_structural   LiY16Cd3Co4
_chemical_formula_sum   'Li1 Y16 Cd3 Co4'
_cell_volume   601.39714817
_cell_formula_units_Z   1
loop_
 _symmetry_equiv_pos_site_id
 _symmetry_equiv_pos_as_xyz
  1  'x, y, z'
loop_
 _atom_site_type_symbol
 _atom_site_label
 _atom_site_symmetry_multiplicity
 _atom_site_fract_x
 _atom_site_fract_y
 _atom_site_fract_z
 _atom_site_occupancy
  Li  Li0  1  0.821494  0.821499  0.535514  1
  Y  Y1  1  0.438957  0.438941  0.060153  1
  Y  Y2  1  0.595230  0.595316  0.598345  1
  Y  Y3  1  0.186400  0.813768  0.813418  1
  Y  Y4  1  0.063848  0.063750  0.436119  1
  Y  Y5  1  0.438959  0.061932  0.060165  1
  Y  Y6  1  0.813768  0.186418  0.813409  1
  Y  Y7  1  0.436283  0.063785  0.436106  1
  Y  Y8  1  0.595232  0.211109  0.598359  1
  Y  Y9  1  0.812602  0.812595  0.187540  1
  Y  Y10  1  0.211160  0.595293  0.598310  1
  Y  Y11  1  0.812587  0.187277  0.187551  1
  Y  Y12  1  0.063832  0.436255  0.436120  1
  Y  Y13  1  0.187274  0.812605  0.187520  1
  Y  Y14  1  0.598532  0.598627  0.204235  1
  Y  Y15  1  0.186393  0.186407  0.813442  1
  Y  Y16  1  0.061982  0.438943  0.060123  1
  Cd  Cd17  1  0.831485  0.831463  0.826860  1
  Cd  Cd18  1  0.510177  0.831472  0.826870  1
  Cd  Cd19  1  0.831484  0.510177  0.826867  1
  Co  Co20  1  0.392489  0.392497  0.388708  1
  Co  Co21  1  0.826320  0.392488  0.388702  1
  Co  Co22  1  0.392479  0.826314  0.388723  1
  Co  Co23  1  0.391033  0.391073  0.826843  1
