# generated using pymatgen
data_Pu4U4Re3B24W
_symmetry_space_group_name_H-M   'P 1'
_cell_length_a   3.65292300
_cell_length_b   9.32459535
_cell_length_c   11.40867043
_cell_angle_alpha   89.96853714
_cell_angle_beta   90.00000000
_cell_angle_gamma   90.00000000
_symmetry_Int_Tables_number   1
_chemical_formula_structural   Pu4U4Re3B24W
_chemical_formula_sum   'Pu4 U4 Re3 B24 W1'
_cell_volume   388.60240245
_cell_formula_units_Z   1
loop_
 _symmetry_equiv_pos_site_id
 _symmetry_equiv_pos_as_xyz
  1  'x, y, z'
loop_
 _atom_site_type_symbol
 _atom_site_label
 _atom_site_symmetry_multiplicity
 _atom_site_fract_x
 _atom_site_fract_y
 _atom_site_fract_z
 _atom_site_occupancy
  Pu  Pu0  1  0.000000  0.336135  0.406666  1
  Pu  Pu1  1  0.000000  0.664373  0.592500  1
  Pu  Pu2  1  0.000000  0.835347  0.092914  1
  Pu  Pu3  1  0.000000  0.163887  0.907535  1
  U  U4  1  0.000000  0.956611  0.395712  1
  U  U5  1  0.000000  0.044563  0.604839  1
  U  U6  1  0.000000  0.456170  0.104498  1
  U  U7  1  0.000000  0.543375  0.894827  1
  Re  Re8  1  0.000000  0.353691  0.681367  1
  Re  Re9  1  0.000000  0.145800  0.180982  1
  Re  Re10  1  0.000000  0.853845  0.819021  1
  B  B11  1  0.500000  0.551007  0.432990  1
  B  B12  1  0.500000  0.447962  0.568721  1
  B  B13  1  0.500000  0.051714  0.068427  1
  B  B14  1  0.500000  0.948027  0.931601  1
  B  B15  1  0.500000  0.744531  0.424391  1
  B  B16  1  0.500000  0.256776  0.576900  1
  B  B17  1  0.500000  0.243021  0.076657  1
  B  B18  1  0.500000  0.756379  0.922948  1
  B  B19  1  0.500000  0.804489  0.273755  1
  B  B20  1  0.500000  0.196919  0.726084  1
  B  B21  1  0.500000  0.302641  0.225527  1
  B  B22  1  0.500000  0.696961  0.773919  1
  B  B23  1  0.500000  0.644143  0.186876  1
  B  B24  1  0.500000  0.355712  0.811872  1
  B  B25  1  0.500000  0.144468  0.311604  1
  B  B26  1  0.500000  0.856201  0.688302  1
  B  B27  1  0.500000  0.988851  0.219271  1
  B  B28  1  0.500000  0.011646  0.780975  1
  B  B29  1  0.500000  0.486675  0.279969  1
  B  B30  1  0.500000  0.511476  0.719259  1
  B  B31  1  0.500000  0.640668  0.038223  1
  B  B32  1  0.500000  0.358554  0.960860  1
  B  B33  1  0.500000  0.141637  0.460924  1
  B  B34  1  0.500000  0.860015  0.539613  1
  W  W35  1  0.000000  0.645731  0.319472  1
