# generated using pymatgen
data_HoTm3V2O10
_symmetry_space_group_name_H-M   'P 1'
_cell_length_a   3.68301700
_cell_length_b   10.26088425
_cell_length_c   11.18047027
_cell_angle_alpha   89.97467137
_cell_angle_beta   90.00000000
_cell_angle_gamma   90.00000000
_symmetry_Int_Tables_number   1
_chemical_formula_structural   HoTm3V2O10
_chemical_formula_sum   'Ho2 Tm6 V4 O20'
_cell_volume   422.52123525
_cell_formula_units_Z   2
loop_
 _symmetry_equiv_pos_site_id
 _symmetry_equiv_pos_as_xyz
  1  'x, y, z'
loop_
 _atom_site_type_symbol
 _atom_site_label
 _atom_site_symmetry_multiplicity
 _atom_site_fract_x
 _atom_site_fract_y
 _atom_site_fract_z
 _atom_site_occupancy
  Ho  Ho0  1  0.250000  0.122502  0.772969  1
  Ho  Ho1  1  0.250000  0.135573  0.443541  1
  Tm  Tm2  1  0.750000  0.364204  0.945076  1
  Tm  Tm3  1  0.750000  0.377511  0.271640  1
  Tm  Tm4  1  0.250000  0.623382  0.727950  1
  Tm  Tm5  1  0.250000  0.636278  0.055342  1
  Tm  Tm6  1  0.750000  0.861649  0.554918  1
  Tm  Tm7  1  0.750000  0.876000  0.227307  1
  V  V8  1  0.250000  0.167645  0.116398  1
  V  V9  1  0.750000  0.333842  0.615991  1
  V  V10  1  0.250000  0.666889  0.383336  1
  V  V11  1  0.750000  0.832016  0.884192  1
  O  O12  1  0.250000  0.993111  0.605533  1
  O  O13  1  0.250000  0.002522  0.153601  1
  O  O14  1  0.750000  0.234375  0.113712  1
  O  O15  1  0.750000  0.247889  0.768983  1
  O  O16  1  0.250000  0.229009  0.955219  1
  O  O17  1  0.750000  0.274895  0.453663  1
  O  O18  1  0.250000  0.256100  0.267228  1
  O  O19  1  0.250000  0.266499  0.613446  1
  O  O20  1  0.750000  0.498668  0.652529  1
  O  O21  1  0.750000  0.504670  0.105473  1
  O  O22  1  0.250000  0.496240  0.894419  1
  O  O23  1  0.250000  0.502168  0.346697  1
  O  O24  1  0.750000  0.733611  0.385982  1
  O  O25  1  0.750000  0.745757  0.731546  1
  O  O26  1  0.250000  0.725821  0.545693  1
  O  O27  1  0.750000  0.772104  0.045934  1
  O  O28  1  0.250000  0.754084  0.231184  1
  O  O29  1  0.250000  0.765218  0.886512  1
  O  O30  1  0.750000  0.997424  0.850204  1
  O  O31  1  0.750000  0.002343  0.393783  1
