# generated using pymatgen
data_CaLaCd2(Ru2O7)2
_symmetry_space_group_name_H-M   'P 1'
_cell_length_a   7.39823348
_cell_length_b   7.29698440
_cell_length_c   7.29698521
_cell_angle_alpha   59.58942811
_cell_angle_beta   59.79138011
_cell_angle_gamma   59.79138310
_symmetry_Int_Tables_number   1
_chemical_formula_structural   CaLaCd2(Ru2O7)2
_chemical_formula_sum   'Ca1 La1 Cd2 Ru4 O14'
_cell_volume   276.79996954
_cell_formula_units_Z   1
loop_
 _symmetry_equiv_pos_site_id
 _symmetry_equiv_pos_as_xyz
  1  'x, y, z'
loop_
 _atom_site_type_symbol
 _atom_site_label
 _atom_site_symmetry_multiplicity
 _atom_site_fract_x
 _atom_site_fract_y
 _atom_site_fract_z
 _atom_site_occupancy
  Ca  Ca0  1  0.625000  0.125000  0.125000  1
  La  La1  1  0.125000  0.125000  0.125000  1
  Cd  Cd2  1  0.125000  0.625000  0.125000  1
  Cd  Cd3  1  0.125000  0.125000  0.625000  1
  Ru  Ru4  1  0.625000  0.125000  0.625000  1
  Ru  Ru5  1  0.625000  0.625000  0.125000  1
  Ru  Ru6  1  0.125000  0.625000  0.625000  1
  Ru  Ru7  1  0.625000  0.625000  0.625000  1
  O  O8  1  0.688175  0.692900  0.307296  1
  O  O9  1  0.939830  0.561484  0.561484  1
  O  O10  1  0.550505  0.953927  0.953927  1
  O  O11  1  0.948365  0.949934  0.554272  1
  O  O12  1  0.948365  0.554272  0.949934  1
  O  O13  1  0.561825  0.942704  0.557100  1
  O  O14  1  0.301635  0.695728  0.300066  1
  O  O15  1  0.310170  0.688516  0.688516  1
  O  O16  1  0.699495  0.296073  0.296073  1
  O  O17  1  0.688175  0.307296  0.692900  1
  O  O18  1  0.561825  0.557100  0.942704  1
  O  O19  1  0.301635  0.300066  0.695728  1
  O  O20  1  0.245539  0.260390  0.260390  1
  O  O21  1  0.004461  0.989610  0.989610  1
