# generated using pymatgen
data_Eu3CoP6Rh5
_symmetry_space_group_name_H-M   'P 1'
_cell_length_a   6.71013179
_cell_length_b   6.73585575
_cell_length_c   6.97686900
_cell_angle_alpha   89.97759496
_cell_angle_beta   90.89617275
_cell_angle_gamma   120.11345871
_symmetry_Int_Tables_number   1
_chemical_formula_structural   Eu3CoP6Rh5
_chemical_formula_sum   'Eu3 Co1 P6 Rh5'
_cell_volume   272.73954160
_cell_formula_units_Z   1
loop_
 _symmetry_equiv_pos_site_id
 _symmetry_equiv_pos_as_xyz
  1  'x, y, z'
loop_
 _atom_site_type_symbol
 _atom_site_label
 _atom_site_symmetry_multiplicity
 _atom_site_fract_x
 _atom_site_fract_y
 _atom_site_fract_z
 _atom_site_occupancy
  Eu  Eu0  1  0.397468  0.399484  0.500365  1
  Eu  Eu1  1  0.602530  0.002014  0.166275  1
  Eu  Eu2  1  0.000002  0.600310  0.833325  1
  Co  Co3  1  0.000003  0.124148  0.833280  1
  P  P4  1  0.898937  0.228873  0.552424  1
  P  P5  1  0.229127  0.889289  0.456836  1
  P  P6  1  0.101039  0.329900  0.114202  1
  P  P7  1  0.770880  0.660223  0.209868  1
  P  P8  1  0.325556  0.109069  0.868375  1
  P  P9  1  0.674456  0.783503  0.798303  1
  Rh  Rh10  1  0.876088  0.874063  0.504516  1
  Rh  Rh11  1  0.123848  0.998035  0.162212  1
  Rh  Rh12  1  0.470343  0.475640  0.996741  1
  Rh  Rh13  1  0.000119  0.520026  0.333345  1
  Rh  Rh14  1  0.529603  0.005425  0.669937  1
