# generated using pymatgen
data_Tm6Lu4NiIrPb6
_symmetry_space_group_name_H-M   'P 1'
_cell_length_a   9.05382323
_cell_length_b   9.05303027
_cell_length_c   6.68041523
_cell_angle_alpha   89.99756239
_cell_angle_beta   89.97504476
_cell_angle_gamma   120.00857626
_symmetry_Int_Tables_number   1
_chemical_formula_structural   Tm6Lu4NiIrPb6
_chemical_formula_sum   'Tm6 Lu4 Ni1 Ir1 Pb6'
_cell_volume   474.15733525
_cell_formula_units_Z   1
loop_
 _symmetry_equiv_pos_site_id
 _symmetry_equiv_pos_as_xyz
  1  'x, y, z'
loop_
 _atom_site_type_symbol
 _atom_site_label
 _atom_site_symmetry_multiplicity
 _atom_site_fract_x
 _atom_site_fract_y
 _atom_site_fract_z
 _atom_site_occupancy
  Tm  Tm0  1  0.236942  0.999988  0.250864  1
  Tm  Tm1  1  0.763069  0.999892  0.749325  1
  Tm  Tm2  1  0.000141  0.236881  0.250516  1
  Tm  Tm3  1  0.333332  0.666724  0.500094  1
  Tm  Tm4  1  0.666672  0.333475  0.500098  1
  Tm  Tm5  1  0.666679  0.333572  0.999966  1
  Lu  Lu6  1  0.999951  0.763804  0.749112  1
  Lu  Lu7  1  0.235981  0.236089  0.749415  1
  Lu  Lu8  1  0.333326  0.666622  0.999966  1
  Lu  Lu9  1  0.763897  0.763930  0.250744  1
  Ni  Ni10  1  0.999965  0.999589  0.500371  1
  Ir  Ir11  1  0.000013  0.999028  0.999215  1
  Pb  Pb12  1  0.401550  0.999560  0.748522  1
  Pb  Pb13  1  0.000742  0.403238  0.748603  1
  Pb  Pb14  1  0.403209  0.403543  0.251603  1
  Pb  Pb15  1  0.597488  0.999237  0.251531  1
  Pb  Pb16  1  0.000072  0.597830  0.251700  1
  Pb  Pb17  1  0.596973  0.597001  0.748354  1
