# generated using pymatgen
data_Nd4Zn10SiGe
_symmetry_space_group_name_H-M   'P 1'
_cell_length_a   8.38565909
_cell_length_b   8.38565851
_cell_length_c   8.88063700
_cell_angle_alpha   90.00000000
_cell_angle_beta   90.00000000
_cell_angle_gamma   149.28361098
_symmetry_Int_Tables_number   1
_chemical_formula_structural   Nd4Zn10SiGe
_chemical_formula_sum   'Nd4 Zn10 Si1 Ge1'
_cell_volume   318.97739218
_cell_formula_units_Z   1
loop_
 _symmetry_equiv_pos_site_id
 _symmetry_equiv_pos_as_xyz
  1  'x, y, z'
loop_
 _atom_site_type_symbol
 _atom_site_label
 _atom_site_symmetry_multiplicity
 _atom_site_fract_x
 _atom_site_fract_y
 _atom_site_fract_z
 _atom_site_occupancy
  Nd  Nd0  1  0.203212  0.796788  0.250000  1
  Nd  Nd1  1  0.796365  0.203635  0.750000  1
  Nd  Nd2  1  0.000041  0.999959  0.496386  1
  Nd  Nd3  1  0.000041  0.999959  0.003614  1
  Zn  Zn4  1  0.814259  0.185741  0.392341  1
  Zn  Zn5  1  0.185355  0.814645  0.607187  1
  Zn  Zn6  1  0.814259  0.185741  0.107659  1
  Zn  Zn7  1  0.185355  0.814645  0.892813  1
  Zn  Zn8  1  0.649905  0.350095  0.476155  1
  Zn  Zn9  1  0.348208  0.651792  0.520339  1
  Zn  Zn10  1  0.649905  0.350095  0.023845  1
  Zn  Zn11  1  0.348208  0.651792  0.979661  1
  Zn  Zn12  1  0.406500  0.593500  0.250000  1
  Zn  Zn13  1  0.597195  0.402805  0.750000  1
  Si  Si14  1  0.558457  0.441543  0.250000  1
  Ge  Ge15  1  0.442735  0.557265  0.750000  1
