# generated using pymatgen
data_Dy4Sc4PtAu3
_symmetry_space_group_name_H-M   'P 1'
_cell_length_a   4.74012500
_cell_length_b   7.06142081
_cell_length_c   8.50675789
_cell_angle_alpha   89.71220934
_cell_angle_beta   90.00000000
_cell_angle_gamma   90.00000000
_symmetry_Int_Tables_number   1
_chemical_formula_structural   Dy4Sc4PtAu3
_chemical_formula_sum   'Dy4 Sc4 Pt1 Au3'
_cell_volume   284.73475541
_cell_formula_units_Z   1
loop_
 _symmetry_equiv_pos_site_id
 _symmetry_equiv_pos_as_xyz
  1  'x, y, z'
loop_
 _atom_site_type_symbol
 _atom_site_label
 _atom_site_symmetry_multiplicity
 _atom_site_fract_x
 _atom_site_fract_y
 _atom_site_fract_z
 _atom_site_occupancy
  Dy  Dy0  1  0.250000  0.983920  0.326139  1
  Dy  Dy1  1  0.250000  0.474577  0.179995  1
  Dy  Dy2  1  0.750000  0.028050  0.673272  1
  Dy  Dy3  1  0.750000  0.522138  0.820085  1
  Sc  Sc4  1  0.250000  0.355753  0.567686  1
  Sc  Sc5  1  0.250000  0.858387  0.926741  1
  Sc  Sc6  1  0.750000  0.634838  0.424614  1
  Sc  Sc7  1  0.750000  0.143684  0.079283  1
  Pt  Pt8  1  0.750000  0.256143  0.396685  1
  Au  Au9  1  0.250000  0.245164  0.891483  1
  Au  Au10  1  0.250000  0.743349  0.608166  1
  Au  Au11  1  0.750000  0.753999  0.105850  1
