# generated using pymatgen
data_Tb2YTmIn4
_symmetry_space_group_name_H-M   'P 1'
_cell_length_a   6.50601245
_cell_length_b   6.50601340
_cell_length_c   10.33881800
_cell_angle_alpha   90.00000000
_cell_angle_beta   90.00000000
_cell_angle_gamma   104.01104146
_symmetry_Int_Tables_number   1
_chemical_formula_structural   Tb2YTmIn4
_chemical_formula_sum   'Tb4 Y2 Tm2 In8'
_cell_volume   424.60389807
_cell_formula_units_Z   2
loop_
 _symmetry_equiv_pos_site_id
 _symmetry_equiv_pos_as_xyz
  1  'x, y, z'
loop_
 _atom_site_type_symbol
 _atom_site_label
 _atom_site_symmetry_multiplicity
 _atom_site_fract_x
 _atom_site_fract_y
 _atom_site_fract_z
 _atom_site_occupancy
  Tb  Tb0  1  0.247769  0.752231  0.500000  1
  Tb  Tb1  1  0.247769  0.752231  0.000000  1
  Tb  Tb2  1  0.752231  0.247769  0.500000  1
  Tb  Tb3  1  0.752231  0.247769  0.000000  1
  Y  Y4  1  0.524181  0.524181  0.250000  1
  Y  Y5  1  0.475819  0.475819  0.750000  1
  Tm  Tm6  1  0.982281  0.982281  0.250000  1
  Tm  Tm7  1  0.017719  0.017719  0.750000  1
  In  In8  1  0.250609  0.250609  0.013308  1
  In  In9  1  0.749391  0.749391  0.986692  1
  In  In10  1  0.250609  0.250609  0.486692  1
  In  In11  1  0.749391  0.749391  0.513308  1
  In  In12  1  0.486621  0.014605  0.250000  1
  In  In13  1  0.985395  0.513379  0.750000  1
  In  In14  1  0.513379  0.985395  0.750000  1
  In  In15  1  0.014605  0.486621  0.250000  1
