# generated using pymatgen
data_Ta2Nb2FeTe4
_symmetry_space_group_name_H-M   'P 1'
_cell_length_a   4.87401300
_cell_length_b   10.96353800
_cell_length_c   19.18940300
_cell_angle_alpha   90.00000000
_cell_angle_beta   90.00000000
_cell_angle_gamma   90.00000000
_symmetry_Int_Tables_number   1
_chemical_formula_structural   Ta2Nb2FeTe4
_chemical_formula_sum   'Ta8 Nb8 Fe4 Te16'
_cell_volume   1025.41312756
_cell_formula_units_Z   4
loop_
 _symmetry_equiv_pos_site_id
 _symmetry_equiv_pos_as_xyz
  1  'x, y, z'
loop_
 _atom_site_type_symbol
 _atom_site_label
 _atom_site_symmetry_multiplicity
 _atom_site_fract_x
 _atom_site_fract_y
 _atom_site_fract_z
 _atom_site_occupancy
  Ta  Ta0  1  0.500000  0.563158  0.385880  1
  Ta  Ta1  1  0.500000  0.436842  0.614120  1
  Ta  Ta2  1  0.500000  0.063158  0.114120  1
  Ta  Ta3  1  0.500000  0.936842  0.885880  1
  Ta  Ta4  1  0.500000  0.700467  0.536051  1
  Ta  Ta5  1  0.500000  0.299533  0.463949  1
  Ta  Ta6  1  0.500000  0.200467  0.963949  1
  Ta  Ta7  1  0.500000  0.799533  0.036051  1
  Nb  Nb8  1  0.000000  0.687466  0.444217  1
  Nb  Nb9  1  0.000000  0.312534  0.555783  1
  Nb  Nb10  1  0.000000  0.187466  0.055783  1
  Nb  Nb11  1  0.000000  0.812534  0.944217  1
  Nb  Nb12  1  0.000000  0.402666  0.393262  1
  Nb  Nb13  1  0.000000  0.597334  0.606738  1
  Nb  Nb14  1  0.000000  0.902666  0.106738  1
  Nb  Nb15  1  0.000000  0.097334  0.893262  1
  Fe  Fe16  1  0.251792  0.500000  0.500000  1
  Fe  Fe17  1  0.748208  0.000000  0.000000  1
  Fe  Fe18  1  0.748208  0.500000  0.500000  1
  Fe  Fe19  1  0.251792  0.000000  0.000000  1
  Te  Te20  1  0.000000  0.846203  0.562485  1
  Te  Te21  1  0.000000  0.153797  0.437515  1
  Te  Te22  1  0.000000  0.346203  0.937515  1
  Te  Te23  1  0.000000  0.653797  0.062485  1
  Te  Te24  1  0.500000  0.333031  0.316871  1
  Te  Te25  1  0.500000  0.666969  0.683129  1
  Te  Te26  1  0.500000  0.833031  0.183129  1
  Te  Te27  1  0.500000  0.166969  0.816871  1
  Te  Te28  1  0.500000  0.821436  0.404576  1
  Te  Te29  1  0.500000  0.178564  0.595424  1
  Te  Te30  1  0.500000  0.321436  0.095424  1
  Te  Te31  1  0.500000  0.678564  0.904576  1
  Te  Te32  1  0.000000  0.608893  0.302358  1
  Te  Te33  1  0.000000  0.391107  0.697642  1
  Te  Te34  1  0.000000  0.108893  0.197642  1
  Te  Te35  1  0.000000  0.891107  0.802358  1
