# generated using pymatgen
data_Er12In2Si3Ru
_symmetry_space_group_name_H-M   'P 1'
_cell_length_a   8.46422599
_cell_length_b   8.46422538
_cell_length_c   8.46422585
_cell_angle_alpha   113.43061560
_cell_angle_beta   111.74170692
_cell_angle_gamma   103.41123730
_symmetry_Int_Tables_number   1
_chemical_formula_structural   Er12In2Si3Ru
_chemical_formula_sum   'Er12 In2 Si3 Ru1'
_cell_volume   462.83669526
_cell_formula_units_Z   1
loop_
 _symmetry_equiv_pos_site_id
 _symmetry_equiv_pos_as_xyz
  1  'x, y, z'
loop_
 _atom_site_type_symbol
 _atom_site_label
 _atom_site_symmetry_multiplicity
 _atom_site_fract_x
 _atom_site_fract_y
 _atom_site_fract_z
 _atom_site_occupancy
  Er  Er0  1  0.186508  0.289973  0.471458  1
  Er  Er1  1  0.818515  0.715050  0.528542  1
  Er  Er2  1  0.186508  0.715050  0.896534  1
  Er  Er3  1  0.818515  0.289973  0.103466  1
  Er  Er4  1  0.313884  0.619330  0.305446  1
  Er  Er5  1  0.679135  0.381687  0.702552  1
  Er  Er6  1  0.313884  0.008437  0.694554  1
  Er  Er7  1  0.679135  0.976584  0.297448  1
  Er  Er8  1  0.446782  0.241599  0.205184  1
  Er  Er9  1  0.551259  0.760465  0.790793  1
  Er  Er10  1  0.036415  0.241599  0.794816  1
  Er  Er11  1  0.969672  0.760465  0.209207  1
  In  In12  1  0.501285  0.501285  0.000000  1
  In  In13  1  0.995248  0.995248  0.000000  1
  Si  Si14  1  0.876882  0.376882  0.500000  1
  Si  Si15  1  0.363524  0.003601  0.359923  1
  Si  Si16  1  0.643677  0.003601  0.640077  1
  Ru  Ru17  1  0.119172  0.619172  0.500000  1
