# generated using pymatgen
data_Tb4DyPb4
_symmetry_space_group_name_H-M   'P 1'
_cell_length_a   8.23068000
_cell_length_b   8.31889864
_cell_length_c   15.70806200
_cell_angle_alpha   90.00359524
_cell_angle_beta   89.99912288
_cell_angle_gamma   90.03574579
_symmetry_Int_Tables_number   1
_chemical_formula_structural   Tb4DyPb4
_chemical_formula_sum   'Tb16 Dy4 Pb16'
_cell_volume   1075.53381940
_cell_formula_units_Z   4
loop_
 _symmetry_equiv_pos_site_id
 _symmetry_equiv_pos_as_xyz
  1  'x, y, z'
loop_
 _atom_site_type_symbol
 _atom_site_label
 _atom_site_symmetry_multiplicity
 _atom_site_fract_x
 _atom_site_fract_y
 _atom_site_fract_z
 _atom_site_occupancy
  Tb  Tb0  1  0.877399  0.659211  0.620460  1
  Tb  Tb1  1  0.622436  0.159118  0.379500  1
  Tb  Tb2  1  0.122651  0.340782  0.120439  1
  Tb  Tb3  1  0.622518  0.159140  0.120530  1
  Tb  Tb4  1  0.122625  0.340783  0.379528  1
  Tb  Tb5  1  0.377433  0.840774  0.620359  1
  Tb  Tb6  1  0.877472  0.659206  0.879597  1
  Tb  Tb7  1  0.534516  0.323277  0.899845  1
  Tb  Tb8  1  0.034532  0.176597  0.600112  1
  Tb  Tb9  1  0.465428  0.676793  0.399805  1
  Tb  Tb10  1  0.965471  0.823381  0.100191  1
  Tb  Tb11  1  0.465395  0.676845  0.100117  1
  Tb  Tb12  1  0.965529  0.823468  0.399817  1
  Tb  Tb13  1  0.534523  0.323366  0.600202  1
  Tb  Tb14  1  0.034589  0.176551  0.899893  1
  Tb  Tb15  1  0.290868  0.003715  0.249895  1
  Dy  Dy16  1  0.377339  0.840870  0.879594  1
  Dy  Dy17  1  0.209271  0.503815  0.750080  1
  Dy  Dy18  1  0.709077  0.996272  0.750069  1
  Dy  Dy19  1  0.790834  0.496317  0.250011  1
  Pb  Pb20  1  0.281264  0.032613  0.042809  1
  Pb  Pb21  1  0.781089  0.467011  0.457165  1
  Pb  Pb22  1  0.718943  0.966912  0.542712  1
  Pb  Pb23  1  0.219034  0.533440  0.957227  1
  Pb  Pb24  1  0.718485  0.966834  0.957263  1
  Pb  Pb25  1  0.218898  0.533117  0.542690  1
  Pb  Pb26  1  0.281112  0.032815  0.456964  1
  Pb  Pb27  1  0.781106  0.466985  0.042833  1
  Pb  Pb28  1  0.572922  0.625962  0.750120  1
  Pb  Pb29  1  0.073315  0.874284  0.750116  1
  Pb  Pb30  1  0.426739  0.374198  0.249992  1
  Pb  Pb31  1  0.927136  0.125317  0.249988  1
  Pb  Pb32  1  0.345945  0.152025  0.750100  1
  Pb  Pb33  1  0.846018  0.347561  0.750031  1
  Pb  Pb34  1  0.653921  0.847845  0.249979  1
  Pb  Pb35  1  0.154171  0.652801  0.249966  1
