# generated using pymatgen
data_Ho2Al16OsPt8
_symmetry_space_group_name_H-M   'P 1'
_cell_length_a   11.12275411
_cell_length_b   11.12275525
_cell_length_c   11.12275600
_cell_angle_alpha   158.43021331
_cell_angle_beta   116.49558779
_cell_angle_gamma   67.90772510
_symmetry_Int_Tables_number   1
_chemical_formula_structural   Ho2Al16OsPt8
_chemical_formula_sum   'Ho2 Al16 Os1 Pt8'
_cell_volume   449.59550180
_cell_formula_units_Z   1
loop_
 _symmetry_equiv_pos_site_id
 _symmetry_equiv_pos_as_xyz
  1  'x, y, z'
loop_
 _atom_site_type_symbol
 _atom_site_label
 _atom_site_symmetry_multiplicity
 _atom_site_fract_x
 _atom_site_fract_y
 _atom_site_fract_z
 _atom_site_occupancy
  Ho  Ho0  1  0.229816  0.229699  0.000118  1
  Ho  Ho1  1  0.770419  0.770301  0.000118  1
  Al  Al2  1  0.274200  0.390749  0.883452  1
  Al  Al3  1  0.088769  0.923751  0.165018  1
  Al  Al4  1  0.507002  0.201400  0.305604  1
  Al  Al5  1  0.241266  0.076249  0.165018  1
  Al  Al6  1  0.908882  0.415600  0.493282  1
  Al  Al7  1  0.726444  0.601796  0.124648  1
  Al  Al8  1  0.900660  0.208754  0.691906  1
  Al  Al9  1  0.483154  0.791246  0.691906  1
  Al  Al10  1  0.389088  0.000000  0.389088  1
  Al  Al11  1  0.627139  0.000000  0.627139  1
  Al  Al12  1  0.492704  0.609251  0.883452  1
  Al  Al13  1  0.104205  0.798600  0.305604  1
  Al  Al14  1  0.905718  0.085017  0.820700  1
  Al  Al15  1  0.735682  0.914983  0.820700  1
  Al  Al16  1  0.522853  0.398204  0.124648  1
  Al  Al17  1  0.077683  0.584400  0.493282  1
  Os  Os18  1  0.776182  0.500000  0.276182  1
  Pt  Pt19  1  0.023590  0.342949  0.680641  1
  Pt  Pt20  1  0.630207  0.126820  0.503387  1
  Pt  Pt21  1  0.255843  0.500000  0.755843  1
  Pt  Pt22  1  0.376568  0.873180  0.503387  1
  Pt  Pt23  1  0.984321  0.000000  0.984321  1
  Pt  Pt24  1  0.650358  0.335401  0.314957  1
  Pt  Pt25  1  0.337694  0.657051  0.680641  1
  Pt  Pt26  1  0.979556  0.664599  0.314957  1
