# generated using pymatgen
data_Hf2Co12Ge2P5
_symmetry_space_group_name_H-M   'P 1'
_cell_length_a   9.05059382
_cell_length_b   9.07444235
_cell_length_c   3.54787400
_cell_angle_alpha   90.00000000
_cell_angle_beta   90.00000000
_cell_angle_gamma   120.35728533
_symmetry_Int_Tables_number   1
_chemical_formula_structural   Hf2Co12Ge2P5
_chemical_formula_sum   'Hf2 Co12 Ge2 P5'
_cell_volume   251.43225400
_cell_formula_units_Z   1
loop_
 _symmetry_equiv_pos_site_id
 _symmetry_equiv_pos_as_xyz
  1  'x, y, z'
loop_
 _atom_site_type_symbol
 _atom_site_label
 _atom_site_symmetry_multiplicity
 _atom_site_fract_x
 _atom_site_fract_y
 _atom_site_fract_z
 _atom_site_occupancy
  Hf  Hf0  1  0.334275  0.667221  0.000000  1
  Hf  Hf1  1  0.675167  0.333381  0.500000  1
  Co  Co2  1  0.440445  0.051714  0.000000  1
  Co  Co3  1  0.932828  0.377259  0.000000  1
  Co  Co4  1  0.632077  0.569614  0.000000  1
  Co  Co5  1  0.384034  0.451663  0.500000  1
  Co  Co6  1  0.557869  0.940523  0.500000  1
  Co  Co7  1  0.054712  0.612412  0.500000  1
  Co  Co8  1  0.155277  0.292031  0.000000  1
  Co  Co9  1  0.712963  0.876962  0.000000  1
  Co  Co10  1  0.126000  0.833074  0.000000  1
  Co  Co11  1  0.234565  0.094204  0.500000  1
  Co  Co12  1  0.887638  0.144829  0.500000  1
  Co  Co13  1  0.864868  0.755196  0.500000  1
  Ge  Ge14  1  0.002764  0.001205  0.000000  1
  Ge  Ge15  1  0.409852  0.288692  0.000000  1
  P  P16  1  0.116904  0.410259  0.500000  1
  P  P17  1  0.596222  0.711867  0.500000  1
  P  P18  1  0.290681  0.880428  0.500000  1
  P  P19  1  0.707893  0.116321  0.000000  1
  P  P20  1  0.882964  0.591148  0.000000  1
