# generated using pymatgen
data_Tb6YSn23Os6
_symmetry_space_group_name_H-M   'P 1'
_cell_length_a   9.87493500
_cell_length_b   9.87493612
_cell_length_c   10.15427900
_cell_angle_alpha   90.00000000
_cell_angle_beta   90.00000000
_cell_angle_gamma   120.00000629
_symmetry_Int_Tables_number   1
_chemical_formula_structural   Tb6YSn23Os6
_chemical_formula_sum   'Tb6 Y1 Sn23 Os6'
_cell_volume   857.52785626
_cell_formula_units_Z   1
loop_
 _symmetry_equiv_pos_site_id
 _symmetry_equiv_pos_as_xyz
  1  'x, y, z'
loop_
 _atom_site_type_symbol
 _atom_site_label
 _atom_site_symmetry_multiplicity
 _atom_site_fract_x
 _atom_site_fract_y
 _atom_site_fract_z
 _atom_site_occupancy
  Tb  Tb0  1  0.030619  0.515310  0.302077  1
  Tb  Tb1  1  0.484690  0.969381  0.302077  1
  Tb  Tb2  1  0.484690  0.515310  0.302077  1
  Tb  Tb3  1  0.969381  0.484690  0.697923  1
  Tb  Tb4  1  0.515310  0.030619  0.697923  1
  Tb  Tb5  1  0.515310  0.484690  0.697923  1
  Y  Y6  1  0.000000  0.000000  0.000000  1
  Sn  Sn7  1  0.000000  0.000000  0.500000  1
  Sn  Sn8  1  0.117291  0.882709  0.275441  1
  Sn  Sn9  1  0.765417  0.882709  0.275441  1
  Sn  Sn10  1  0.117291  0.234583  0.275441  1
  Sn  Sn11  1  0.882709  0.117291  0.724559  1
  Sn  Sn12  1  0.234583  0.117291  0.724559  1
  Sn  Sn13  1  0.882709  0.765417  0.724559  1
  Sn  Sn14  1  0.349560  0.000000  0.000000  1
  Sn  Sn15  1  0.650440  0.650440  0.000000  1
  Sn  Sn16  1  0.000000  0.349560  0.000000  1
  Sn  Sn17  1  0.349560  0.349560  0.000000  1
  Sn  Sn18  1  0.000000  0.650440  0.000000  1
  Sn  Sn19  1  0.650440  0.000000  0.000000  1
  Sn  Sn20  1  0.780552  0.561104  0.462319  1
  Sn  Sn21  1  0.780552  0.219448  0.462319  1
  Sn  Sn22  1  0.438896  0.219448  0.462319  1
  Sn  Sn23  1  0.219448  0.438896  0.537681  1
  Sn  Sn24  1  0.219448  0.780552  0.537681  1
  Sn  Sn25  1  0.561104  0.780552  0.537681  1
  Sn  Sn26  1  0.666667  0.333333  0.175485  1
  Sn  Sn27  1  0.333333  0.666667  0.824515  1
  Sn  Sn28  1  0.666667  0.333333  0.871926  1
  Sn  Sn29  1  0.333333  0.666667  0.128074  1
  Os  Os30  1  0.170060  0.829940  0.798121  1
  Os  Os31  1  0.659880  0.829940  0.798121  1
  Os  Os32  1  0.170060  0.340120  0.798121  1
  Os  Os33  1  0.829940  0.170060  0.201879  1
  Os  Os34  1  0.340120  0.170060  0.201879  1
  Os  Os35  1  0.829940  0.659880  0.201879  1
