# generated using pymatgen
data_Cs4(GaAu3)5
_symmetry_space_group_name_H-M   'P 1'
_cell_length_a   5.83719311
_cell_length_b   7.31700986
_cell_length_c   13.79020726
_cell_angle_alpha   89.28735906
_cell_angle_beta   89.46209159
_cell_angle_gamma   90.12589743
_symmetry_Int_Tables_number   1
_chemical_formula_structural   Cs4(GaAu3)5
_chemical_formula_sum   'Cs4 Ga5 Au15'
_cell_volume   588.91768786
_cell_formula_units_Z   1
loop_
 _symmetry_equiv_pos_site_id
 _symmetry_equiv_pos_as_xyz
  1  'x, y, z'
loop_
 _atom_site_type_symbol
 _atom_site_label
 _atom_site_symmetry_multiplicity
 _atom_site_fract_x
 _atom_site_fract_y
 _atom_site_fract_z
 _atom_site_occupancy
  Cs  Cs0  1  0.244418  0.105605  0.073706  1
  Cs  Cs1  1  0.265785  0.400693  0.576884  1
  Cs  Cs2  1  0.740877  0.893920  0.924254  1
  Cs  Cs3  1  0.752809  0.600722  0.426789  1
  Ga  Ga4  1  0.997315  0.897540  0.650774  1
  Ga  Ga5  1  0.501211  0.607041  0.156180  1
  Ga  Ga6  1  0.494689  0.102569  0.349478  1
  Ga  Ga7  1  0.004365  0.391422  0.847950  1
  Ga  Ga8  1  0.992898  0.106693  0.342866  1
  Au  Au9  1  0.505197  0.385397  0.843671  1
  Au  Au10  1  0.499039  0.893072  0.651569  1
  Au  Au11  1  0.000828  0.610937  0.155618  1
  Au  Au12  1  0.219855  0.099599  0.785321  1
  Au  Au13  1  0.255211  0.385199  0.289142  1
  Au  Au14  1  0.729534  0.898581  0.221453  1
  Au  Au15  1  0.780636  0.603346  0.712277  1
  Au  Au16  1  0.234163  0.702888  0.793777  1
  Au  Au17  1  0.253388  0.801032  0.292757  1
  Au  Au18  1  0.731983  0.296641  0.211034  1
  Au  Au19  1  0.770730  0.205613  0.702548  1
  Au  Au20  1  0.278189  0.582418  0.991496  1
  Au  Au21  1  0.224156  0.923223  0.486595  1
  Au  Au22  1  0.771824  0.418392  0.010534  1
  Au  Au23  1  0.750899  0.087456  0.503327  1
