# generated using pymatgen
data_Y2HoCo8TcP6
_symmetry_space_group_name_H-M   'P 1'
_cell_length_a   3.71293900
_cell_length_b   10.52488100
_cell_length_c   12.24595700
_cell_angle_alpha   90.00000000
_cell_angle_beta   90.00000000
_cell_angle_gamma   90.00000000
_symmetry_Int_Tables_number   1
_chemical_formula_structural   Y2HoCo8TcP6
_chemical_formula_sum   'Y4 Ho2 Co16 Tc2 P12'
_cell_volume   478.55046058
_cell_formula_units_Z   2
loop_
 _symmetry_equiv_pos_site_id
 _symmetry_equiv_pos_as_xyz
  1  'x, y, z'
loop_
 _atom_site_type_symbol
 _atom_site_label
 _atom_site_symmetry_multiplicity
 _atom_site_fract_x
 _atom_site_fract_y
 _atom_site_fract_z
 _atom_site_occupancy
  Y  Y0  1  0.000000  0.500000  0.523559  1
  Y  Y1  1  0.500000  0.000000  0.476306  1
  Y  Y2  1  0.000000  0.682409  0.794096  1
  Y  Y3  1  0.000000  0.317591  0.794096  1
  Ho  Ho4  1  0.500000  0.817771  0.205976  1
  Ho  Ho5  1  0.500000  0.182229  0.205976  1
  Co  Co6  1  0.500000  0.500000  0.702808  1
  Co  Co7  1  0.000000  0.000000  0.296732  1
  Co  Co8  1  0.000000  0.500000  0.987441  1
  Co  Co9  1  0.500000  0.000000  0.013114  1
  Co  Co10  1  0.500000  0.332088  0.990238  1
  Co  Co11  1  0.500000  0.667912  0.990238  1
  Co  Co12  1  0.000000  0.167652  0.010375  1
  Co  Co13  1  0.000000  0.832348  0.010375  1
  Co  Co14  1  0.500000  0.296536  0.430817  1
  Co  Co15  1  0.500000  0.703464  0.430817  1
  Co  Co16  1  0.000000  0.203301  0.568760  1
  Co  Co17  1  0.000000  0.796699  0.568760  1
  Co  Co18  1  0.500000  0.879258  0.707929  1
  Co  Co19  1  0.500000  0.120742  0.707929  1
  Co  Co20  1  0.000000  0.621103  0.291817  1
  Co  Co21  1  0.000000  0.378897  0.291817  1
  Tc  Tc22  1  0.500000  0.500000  0.156437  1
  Tc  Tc23  1  0.000000  0.000000  0.843677  1
  P  P24  1  0.500000  0.500000  0.881418  1
  P  P25  1  0.000000  0.000000  0.119027  1
  P  P26  1  0.500000  0.500000  0.347994  1
  P  P27  1  0.000000  0.000000  0.651967  1
  P  P28  1  0.500000  0.311370  0.615846  1
  P  P29  1  0.500000  0.688630  0.615846  1
  P  P30  1  0.000000  0.188556  0.383569  1
  P  P31  1  0.000000  0.811444  0.383569  1
  P  P32  1  0.500000  0.846492  0.893068  1
  P  P33  1  0.500000  0.153508  0.893068  1
  P  P34  1  0.000000  0.653994  0.107269  1
  P  P35  1  0.000000  0.346006  0.107269  1
