# generated using pymatgen
data_Ti2Be8ReIr
_symmetry_space_group_name_H-M   'P 1'
_cell_length_a   4.40230400
_cell_length_b   4.40230305
_cell_length_c   7.26721500
_cell_angle_alpha   90.00000000
_cell_angle_beta   90.00000000
_cell_angle_gamma   120.00000715
_symmetry_Int_Tables_number   1
_chemical_formula_structural   Ti2Be8ReIr
_chemical_formula_sum   'Ti2 Be8 Re1 Ir1'
_cell_volume   121.97155880
_cell_formula_units_Z   1
loop_
 _symmetry_equiv_pos_site_id
 _symmetry_equiv_pos_as_xyz
  1  'x, y, z'
loop_
 _atom_site_type_symbol
 _atom_site_label
 _atom_site_symmetry_multiplicity
 _atom_site_fract_x
 _atom_site_fract_y
 _atom_site_fract_z
 _atom_site_occupancy
  Ti  Ti0  1  0.333333  0.666667  0.064489  1
  Ti  Ti1  1  0.666667  0.333333  0.562946  1
  Be  Be2  1  0.000000  0.000000  0.996979  1
  Be  Be3  1  0.000000  0.000000  0.502051  1
  Be  Be4  1  0.832060  0.664120  0.252501  1
  Be  Be5  1  0.169136  0.830864  0.749318  1
  Be  Be6  1  0.661728  0.830864  0.749318  1
  Be  Be7  1  0.335880  0.167940  0.252501  1
  Be  Be8  1  0.832060  0.167940  0.252501  1
  Be  Be9  1  0.169136  0.338272  0.749318  1
  Re  Re10  1  0.333333  0.666667  0.434742  1
  Ir  Ir11  1  0.666667  0.333333  0.933334  1
