# generated using pymatgen
data_Rb2PuF5
_symmetry_space_group_name_H-M   'P 1'
_cell_length_a   7.00389900
_cell_length_b   7.81968700
_cell_length_c   11.58914600
_cell_angle_alpha   90.00000000
_cell_angle_beta   90.00000000
_cell_angle_gamma   90.00000000
_symmetry_Int_Tables_number   1
_chemical_formula_structural   Rb2PuF5
_chemical_formula_sum   'Rb8 Pu4 F20'
_cell_volume   634.71780123
_cell_formula_units_Z   4
loop_
 _symmetry_equiv_pos_site_id
 _symmetry_equiv_pos_as_xyz
  1  'x, y, z'
loop_
 _atom_site_type_symbol
 _atom_site_label
 _atom_site_symmetry_multiplicity
 _atom_site_fract_x
 _atom_site_fract_y
 _atom_site_fract_z
 _atom_site_occupancy
  Rb  Rb0  1  0.532422  0.021852  0.169738  1
  Rb  Rb1  1  0.467578  0.521852  0.830262  1
  Rb  Rb2  1  0.967578  0.021852  0.669738  1
  Rb  Rb3  1  0.032422  0.521852  0.330262  1
  Rb  Rb4  1  0.031551  0.016685  0.330096  1
  Rb  Rb5  1  0.968449  0.516685  0.669904  1
  Rb  Rb6  1  0.468449  0.016685  0.830096  1
  Rb  Rb7  1  0.531551  0.516685  0.169904  1
  Pu  Pu8  1  0.445619  0.268445  0.499835  1
  Pu  Pu9  1  0.554381  0.768445  0.500165  1
  Pu  Pu10  1  0.054381  0.268445  0.999835  1
  Pu  Pu11  1  0.945619  0.768445  0.000165  1
  F  F12  1  0.145139  0.988083  0.074870  1
  F  F13  1  0.854861  0.488083  0.925130  1
  F  F14  1  0.354861  0.988083  0.574870  1
  F  F15  1  0.645139  0.488083  0.425130  1
  F  F16  1  0.388234  0.269250  0.012801  1
  F  F17  1  0.611766  0.769250  0.987199  1
  F  F18  1  0.111766  0.269250  0.512801  1
  F  F19  1  0.888234  0.769250  0.487199  1
  F  F20  1  0.143074  0.548086  0.075635  1
  F  F21  1  0.856926  0.048086  0.924365  1
  F  F22  1  0.356926  0.548086  0.575635  1
  F  F23  1  0.643074  0.048086  0.424365  1
  F  F24  1  0.341132  0.268866  0.312008  1
  F  F25  1  0.658868  0.768866  0.687992  1
  F  F26  1  0.158868  0.268866  0.812008  1
  F  F27  1  0.841132  0.768866  0.187992  1
  F  F28  1  0.373034  0.765735  0.335474  1
  F  F29  1  0.626966  0.265735  0.664526  1
  F  F30  1  0.126966  0.765735  0.835474  1
  F  F31  1  0.873034  0.265735  0.164526  1
