# generated using pymatgen
data_Tb5TmZr2(Co4P3)4
_symmetry_space_group_name_H-M   'P 1'
_cell_length_a   3.73024200
_cell_length_b   10.71891501
_cell_length_c   12.44731701
_cell_angle_alpha   90.00414461
_cell_angle_beta   90.00000000
_cell_angle_gamma   90.00000000
_symmetry_Int_Tables_number   1
_chemical_formula_structural   Tb5TmZr2(Co4P3)4
_chemical_formula_sum   'Tb5 Tm1 Zr2 Co16 P12'
_cell_volume   497.69535113
_cell_formula_units_Z   1
loop_
 _symmetry_equiv_pos_site_id
 _symmetry_equiv_pos_as_xyz
  1  'x, y, z'
loop_
 _atom_site_type_symbol
 _atom_site_label
 _atom_site_symmetry_multiplicity
 _atom_site_fract_x
 _atom_site_fract_y
 _atom_site_fract_z
 _atom_site_occupancy
  Tb  Tb0  1  0.000000  0.500072  0.529255  1
  Tb  Tb1  1  0.500000  0.999791  0.470314  1
  Tb  Tb2  1  0.500000  0.178058  0.204813  1
  Tb  Tb3  1  0.000000  0.678458  0.795192  1
  Tb  Tb4  1  0.000000  0.321575  0.795366  1
  Tm  Tm5  1  0.500000  0.821530  0.204381  1
  Zr  Zr6  1  0.500000  0.500697  0.157994  1
  Zr  Zr7  1  0.000000  0.999854  0.842253  1
  Co  Co8  1  0.500000  0.500126  0.703432  1
  Co  Co9  1  0.000000  0.997965  0.295781  1
  Co  Co10  1  0.000000  0.500654  0.986450  1
  Co  Co11  1  0.500000  0.999275  0.014794  1
  Co  Co12  1  0.500000  0.332075  0.993173  1
  Co  Co13  1  0.500000  0.668595  0.993731  1
  Co  Co14  1  0.000000  0.167315  0.007480  1
  Co  Co15  1  0.000000  0.832008  0.008013  1
  Co  Co16  1  0.500000  0.295016  0.433394  1
  Co  Co17  1  0.500000  0.705231  0.432468  1
  Co  Co18  1  0.000000  0.204760  0.566318  1
  Co  Co19  1  0.000000  0.795169  0.565704  1
  Co  Co20  1  0.500000  0.877937  0.700907  1
  Co  Co21  1  0.500000  0.122108  0.701102  1
  Co  Co22  1  0.000000  0.623565  0.297702  1
  Co  Co23  1  0.000000  0.378198  0.299058  1
  P  P24  1  0.500000  0.500297  0.884398  1
  P  P25  1  0.000000  0.998575  0.116725  1
  P  P26  1  0.500000  0.499805  0.362649  1
  P  P27  1  0.000000  0.999941  0.637254  1
  P  P28  1  0.500000  0.309378  0.615384  1
  P  P29  1  0.500000  0.690890  0.614883  1
  P  P30  1  0.000000  0.190272  0.384495  1
  P  P31  1  0.000000  0.809750  0.382958  1
  P  P32  1  0.500000  0.838377  0.894567  1
  P  P33  1  0.500000  0.161320  0.894973  1
  P  P34  1  0.000000  0.662797  0.107152  1
  P  P35  1  0.000000  0.338563  0.105487  1
