# generated using pymatgen
data_Er4Al4IrPt3
_symmetry_space_group_name_H-M   'P 1'
_cell_length_a   4.39720500
_cell_length_b   6.78212362
_cell_length_c   7.75856272
_cell_angle_alpha   90.04914679
_cell_angle_beta   90.00000000
_cell_angle_gamma   90.00000000
_symmetry_Int_Tables_number   1
_chemical_formula_structural   Er4Al4IrPt3
_chemical_formula_sum   'Er4 Al4 Ir1 Pt3'
_cell_volume   231.37878174
_cell_formula_units_Z   1
loop_
 _symmetry_equiv_pos_site_id
 _symmetry_equiv_pos_as_xyz
  1  'x, y, z'
loop_
 _atom_site_type_symbol
 _atom_site_label
 _atom_site_symmetry_multiplicity
 _atom_site_fract_x
 _atom_site_fract_y
 _atom_site_fract_z
 _atom_site_occupancy
  Er  Er0  1  0.250000  0.471850  0.181529  1
  Er  Er1  1  0.750000  0.529579  0.816359  1
  Er  Er2  1  0.750000  0.022953  0.681196  1
  Er  Er3  1  0.250000  0.969205  0.320377  1
  Al  Al4  1  0.250000  0.852236  0.935357  1
  Al  Al5  1  0.750000  0.146555  0.062404  1
  Al  Al6  1  0.750000  0.646241  0.438062  1
  Al  Al7  1  0.250000  0.359023  0.563772  1
  Ir  Ir8  1  0.250000  0.732817  0.616649  1
  Pt  Pt9  1  0.750000  0.270038  0.383270  1
  Pt  Pt10  1  0.750000  0.771113  0.116964  1
  Pt  Pt11  1  0.250000  0.228389  0.884060  1
