# generated using pymatgen
data_Sm2Si7Ir12
_symmetry_space_group_name_H-M   'P 1'
_cell_length_a   9.77101300
_cell_length_b   9.77101220
_cell_length_c   3.88849900
_cell_angle_alpha   90.00000000
_cell_angle_beta   90.00000000
_cell_angle_gamma   119.99998578
_symmetry_Int_Tables_number   1
_chemical_formula_structural   Sm2Si7Ir12
_chemical_formula_sum   'Sm2 Si7 Ir12'
_cell_volume   321.50803585
_cell_formula_units_Z   1
loop_
 _symmetry_equiv_pos_site_id
 _symmetry_equiv_pos_as_xyz
  1  'x, y, z'
loop_
 _atom_site_type_symbol
 _atom_site_label
 _atom_site_symmetry_multiplicity
 _atom_site_fract_x
 _atom_site_fract_y
 _atom_site_fract_z
 _atom_site_occupancy
  Sm  Sm0  1  0.333333  0.666667  0.749643  1
  Sm  Sm1  1  0.666667  0.333333  0.250357  1
  Si  Si2  1  0.000000  0.000000  0.500000  1
  Si  Si3  1  0.403981  0.289961  0.751766  1
  Si  Si4  1  0.710039  0.114019  0.751766  1
  Si  Si5  1  0.885981  0.596019  0.751766  1
  Si  Si6  1  0.596019  0.710039  0.248234  1
  Si  Si7  1  0.289961  0.885981  0.248234  1
  Si  Si8  1  0.114019  0.403981  0.248234  1
  Ir  Ir9  1  0.442678  0.061428  0.751153  1
  Ir  Ir10  1  0.938572  0.381250  0.751153  1
  Ir  Ir11  1  0.618750  0.557322  0.751153  1
  Ir  Ir12  1  0.557322  0.938572  0.248847  1
  Ir  Ir13  1  0.061428  0.618750  0.248847  1
  Ir  Ir14  1  0.381250  0.442678  0.248847  1
  Ir  Ir15  1  0.144753  0.261522  0.746145  1
  Ir  Ir16  1  0.738478  0.883231  0.746145  1
  Ir  Ir17  1  0.116769  0.855247  0.746145  1
  Ir  Ir18  1  0.855247  0.738478  0.253855  1
  Ir  Ir19  1  0.261522  0.116769  0.253855  1
  Ir  Ir20  1  0.883231  0.144753  0.253855  1
