# generated using pymatgen
data_NpPdRh2F24
_symmetry_space_group_name_H-M   'P 1'
_cell_length_a   5.36148742
_cell_length_b   9.66939500
_cell_length_c   10.43486479
_cell_angle_alpha   90.00000000
_cell_angle_beta   87.47550321
_cell_angle_gamma   90.00000000
_symmetry_Int_Tables_number   1
_chemical_formula_structural   NpPdRh2F24
_chemical_formula_sum   'Np1 Pd1 Rh2 F24'
_cell_volume   540.44278441
_cell_formula_units_Z   1
loop_
 _symmetry_equiv_pos_site_id
 _symmetry_equiv_pos_as_xyz
  1  'x, y, z'
loop_
 _atom_site_type_symbol
 _atom_site_label
 _atom_site_symmetry_multiplicity
 _atom_site_fract_x
 _atom_site_fract_y
 _atom_site_fract_z
 _atom_site_occupancy
  Np  Np0  1  0.083245  0.250000  0.370474  1
  Pd  Pd1  1  0.916280  0.750000  0.630100  1
  Rh  Rh2  1  0.418973  0.250000  0.869872  1
  Rh  Rh3  1  0.581304  0.750000  0.129593  1
  F  F4  1  0.211471  0.750000  0.521920  1
  F  F5  1  0.774043  0.250000  0.484708  1
  F  F6  1  0.695147  0.250000  0.973855  1
  F  F7  1  0.304465  0.750000  0.026757  1
  F  F8  1  0.620636  0.750000  0.737757  1
  F  F9  1  0.392546  0.250000  0.255982  1
  F  F10  1  0.142534  0.250000  0.766120  1
  F  F11  1  0.857897  0.750000  0.233017  1
  F  F12  1  0.776940  0.611334  0.526337  1
  F  F13  1  0.233381  0.394722  0.478318  1
  F  F14  1  0.267867  0.386646  0.974436  1
  F  F15  1  0.233381  0.105278  0.478318  1
  F  F16  1  0.731714  0.612601  0.026017  1
  F  F17  1  0.776940  0.888666  0.526337  1
  F  F18  1  0.731714  0.887399  0.026017  1
  F  F19  1  0.267867  0.113354  0.974436  1
  F  F20  1  0.055722  0.611353  0.733331  1
  F  F21  1  0.934905  0.395089  0.261842  1
  F  F22  1  0.569179  0.386827  0.765992  1
  F  F23  1  0.934905  0.104911  0.261842  1
  F  F24  1  0.431020  0.612512  0.233650  1
  F  F25  1  0.055722  0.888647  0.733331  1
  F  F26  1  0.431020  0.887488  0.233650  1
  F  F27  1  0.569179  0.113173  0.765992  1
