# generated using pymatgen
data_Sc2Al10Re3
_symmetry_space_group_name_H-M   'P 1'
_cell_length_a   9.06599700
_cell_length_b   9.06599700
_cell_length_c   6.10957400
_cell_angle_alpha   90.00000000
_cell_angle_beta   90.00000000
_cell_angle_gamma   90.00000000
_symmetry_Int_Tables_number   1
_chemical_formula_structural   Sc2Al10Re3
_chemical_formula_sum   'Sc4 Al20 Re6'
_cell_volume   502.15994888
_cell_formula_units_Z   2
loop_
 _symmetry_equiv_pos_site_id
 _symmetry_equiv_pos_as_xyz
  1  'x, y, z'
loop_
 _atom_site_type_symbol
 _atom_site_label
 _atom_site_symmetry_multiplicity
 _atom_site_fract_x
 _atom_site_fract_y
 _atom_site_fract_z
 _atom_site_occupancy
  Sc  Sc0  1  0.183259  0.683259  0.000000  1
  Sc  Sc1  1  0.816741  0.316741  0.000000  1
  Sc  Sc2  1  0.683259  0.816741  0.000000  1
  Sc  Sc3  1  0.316741  0.183259  0.000000  1
  Al  Al4  1  0.059960  0.204298  0.716783  1
  Al  Al5  1  0.940040  0.795702  0.716783  1
  Al  Al6  1  0.559960  0.295702  0.716783  1
  Al  Al7  1  0.440040  0.704298  0.716783  1
  Al  Al8  1  0.795702  0.059960  0.716783  1
  Al  Al9  1  0.204298  0.940040  0.716783  1
  Al  Al10  1  0.704298  0.559960  0.716783  1
  Al  Al11  1  0.295702  0.440040  0.716783  1
  Al  Al12  1  0.940040  0.795702  0.283217  1
  Al  Al13  1  0.059960  0.204298  0.283217  1
  Al  Al14  1  0.440040  0.704298  0.283217  1
  Al  Al15  1  0.559960  0.295702  0.283217  1
  Al  Al16  1  0.204298  0.940040  0.283217  1
  Al  Al17  1  0.795702  0.059960  0.283217  1
  Al  Al18  1  0.295702  0.440040  0.283217  1
  Al  Al19  1  0.704298  0.559960  0.283217  1
  Al  Al20  1  0.000000  0.500000  0.717016  1
  Al  Al21  1  0.500000  0.000000  0.717016  1
  Al  Al22  1  0.000000  0.500000  0.282984  1
  Al  Al23  1  0.500000  0.000000  0.282984  1
  Re  Re24  1  0.177960  0.677960  0.500000  1
  Re  Re25  1  0.822040  0.322040  0.500000  1
  Re  Re26  1  0.677960  0.822040  0.500000  1
  Re  Re27  1  0.322040  0.177960  0.500000  1
  Re  Re28  1  0.000000  0.000000  0.000000  1
  Re  Re29  1  0.500000  0.500000  0.000000  1
