# generated using pymatgen
data_Tb2Pr4CoBr10
_symmetry_space_group_name_H-M   'P 1'
_cell_length_a   7.53262702
_cell_length_b   9.41837639
_cell_length_c   9.55904254
_cell_angle_alpha   108.95541411
_cell_angle_beta   96.24075031
_cell_angle_gamma   105.44269501
_symmetry_Int_Tables_number   1
_chemical_formula_structural   Tb2Pr4CoBr10
_chemical_formula_sum   'Tb2 Pr4 Co1 Br10'
_cell_volume   603.89646403
_cell_formula_units_Z   1
loop_
 _symmetry_equiv_pos_site_id
 _symmetry_equiv_pos_as_xyz
  1  'x, y, z'
loop_
 _atom_site_type_symbol
 _atom_site_label
 _atom_site_symmetry_multiplicity
 _atom_site_fract_x
 _atom_site_fract_y
 _atom_site_fract_z
 _atom_site_occupancy
  Tb  Tb0  1  0.355990  0.132402  0.674996  1
  Tb  Tb1  1  0.644010  0.867598  0.325004  1
  Pr  Pr2  1  0.029197  0.711083  0.408001  1
  Pr  Pr3  1  0.970803  0.288917  0.591999  1
  Pr  Pr4  1  0.872470  0.953842  0.748594  1
  Pr  Pr5  1  0.127530  0.046158  0.251406  1
  Co  Co6  1  0.000000  0.000000  0.500000  1
  Br  Br7  1  0.452030  0.828297  0.579402  1
  Br  Br8  1  0.547970  0.171703  0.420598  1
  Br  Br9  1  0.913708  0.631113  0.673393  1
  Br  Br10  1  0.086292  0.368887  0.326607  1
  Br  Br11  1  0.260507  0.087176  0.947752  1
  Br  Br12  1  0.739493  0.912824  0.052248  1
  Br  Br13  1  0.361201  0.447202  0.771207  1
  Br  Br14  1  0.638799  0.552798  0.228793  1
  Br  Br15  1  0.772791  0.255565  0.845786  1
  Br  Br16  1  0.227209  0.744435  0.154214  1
