# generated using pymatgen
data_Cs2SbF7
_symmetry_space_group_name_H-M   'P 1'
_cell_length_a   6.27584400
_cell_length_b   6.24770900
_cell_length_c   11.26086900
_cell_angle_alpha   90.00000000
_cell_angle_beta   90.00000000
_cell_angle_gamma   90.00000000
_symmetry_Int_Tables_number   1
_chemical_formula_structural   Cs2SbF7
_chemical_formula_sum   'Cs4 Sb2 F14'
_cell_volume   441.53469887
_cell_formula_units_Z   2
loop_
 _symmetry_equiv_pos_site_id
 _symmetry_equiv_pos_as_xyz
  1  'x, y, z'
loop_
 _atom_site_type_symbol
 _atom_site_label
 _atom_site_symmetry_multiplicity
 _atom_site_fract_x
 _atom_site_fract_y
 _atom_site_fract_z
 _atom_site_occupancy
  Cs  Cs0  1  0.000000  0.500000  0.367316  1
  Cs  Cs1  1  0.500000  0.000000  0.632684  1
  Cs  Cs2  1  0.500000  0.500000  0.997207  1
  Cs  Cs3  1  0.000000  0.000000  0.002793  1
  Sb  Sb4  1  0.000000  0.500000  0.758610  1
  Sb  Sb5  1  0.500000  0.000000  0.241390  1
  F  F6  1  0.205736  0.269129  0.794234  1
  F  F7  1  0.294264  0.230871  0.205766  1
  F  F8  1  0.705736  0.769129  0.205766  1
  F  F9  1  0.794264  0.730871  0.794234  1
  F  F10  1  0.205736  0.730871  0.794234  1
  F  F11  1  0.705736  0.230871  0.205766  1
  F  F12  1  0.294264  0.769129  0.205766  1
  F  F13  1  0.794264  0.269129  0.794234  1
  F  F14  1  0.000000  0.500000  0.938719  1
  F  F15  1  0.500000  0.000000  0.061281  1
  F  F16  1  0.190858  0.500000  0.616390  1
  F  F17  1  0.809142  0.500000  0.616390  1
  F  F18  1  0.309142  0.000000  0.383610  1
  F  F19  1  0.690858  0.000000  0.383610  1
