# generated using pymatgen
data_Nd8Si12AgIr3
_symmetry_space_group_name_H-M   'P 1'
_cell_length_a   8.27530300
_cell_length_b   8.27530221
_cell_length_c   8.51826200
_cell_angle_alpha   90.00000000
_cell_angle_beta   90.00000000
_cell_angle_gamma   119.99999916
_symmetry_Int_Tables_number   1
_chemical_formula_structural   Nd8Si12AgIr3
_chemical_formula_sum   'Nd8 Si12 Ag1 Ir3'
_cell_volume   505.18377816
_cell_formula_units_Z   1
loop_
 _symmetry_equiv_pos_site_id
 _symmetry_equiv_pos_as_xyz
  1  'x, y, z'
loop_
 _atom_site_type_symbol
 _atom_site_label
 _atom_site_symmetry_multiplicity
 _atom_site_fract_x
 _atom_site_fract_y
 _atom_site_fract_z
 _atom_site_occupancy
  Nd  Nd0  1  0.000000  0.000000  0.750071  1
  Nd  Nd1  1  0.000000  0.000000  0.250781  1
  Nd  Nd2  1  0.495191  0.504809  0.744959  1
  Nd  Nd3  1  0.495191  0.990385  0.744959  1
  Nd  Nd4  1  0.009615  0.504809  0.744959  1
  Nd  Nd5  1  0.498028  0.501972  0.254752  1
  Nd  Nd6  1  0.003946  0.501972  0.254752  1
  Nd  Nd7  1  0.498028  0.996054  0.254752  1
  Si  Si8  1  0.839601  0.160399  0.001045  1
  Si  Si9  1  0.839601  0.679202  0.001045  1
  Si  Si10  1  0.320798  0.160399  0.001045  1
  Si  Si11  1  0.832295  0.167705  0.499399  1
  Si  Si12  1  0.832295  0.664592  0.499399  1
  Si  Si13  1  0.335408  0.167705  0.499399  1
  Si  Si14  1  0.166439  0.833561  0.500676  1
  Si  Si15  1  0.667123  0.833561  0.500676  1
  Si  Si16  1  0.166439  0.332877  0.500676  1
  Si  Si17  1  0.167966  0.832034  0.999335  1
  Si  Si18  1  0.664068  0.832034  0.999335  1
  Si  Si19  1  0.167966  0.335932  0.999335  1
  Ag  Ag20  1  0.666667  0.333333  0.993532  1
  Ir  Ir21  1  0.666667  0.333333  0.505817  1
  Ir  Ir22  1  0.333333  0.666667  0.494629  1
  Ir  Ir23  1  0.333333  0.666667  0.004671  1
