# generated using pymatgen
data_Li2Al5Cu6
_symmetry_space_group_name_H-M   'P 1'
_cell_length_a   8.22046000
_cell_length_b   8.22046000
_cell_length_c   8.22046000
_cell_angle_alpha   90.00000000
_cell_angle_beta   90.00000000
_cell_angle_gamma   90.00000000
_symmetry_Int_Tables_number   1
_chemical_formula_structural   Li2Al5Cu6
_chemical_formula_sum   'Li6 Al15 Cu18'
_cell_volume   555.50549761
_cell_formula_units_Z   3
loop_
 _symmetry_equiv_pos_site_id
 _symmetry_equiv_pos_as_xyz
  1  'x, y, z'
loop_
 _atom_site_type_symbol
 _atom_site_label
 _atom_site_symmetry_multiplicity
 _atom_site_fract_x
 _atom_site_fract_y
 _atom_site_fract_z
 _atom_site_occupancy
  Li  Li0  1  0.500001  0.320582  0.000000  1
  Li  Li1  1  0.500001  0.679418  0.000000  1
  Li  Li2  1  0.000000  0.500001  0.320582  1
  Li  Li3  1  0.320582  0.000000  0.500001  1
  Li  Li4  1  0.679418  0.000000  0.500001  1
  Li  Li5  1  0.000000  0.500001  0.679418  1
  Al  Al6  1  0.165885  0.500001  0.000000  1
  Al  Al7  1  0.834115  0.500001  0.000000  1
  Al  Al8  1  0.500001  0.000000  0.165885  1
  Al  Al9  1  0.217714  0.217714  0.217714  1
  Al  Al10  1  0.782286  0.217714  0.217714  1
  Al  Al11  1  0.217714  0.782286  0.217714  1
  Al  Al12  1  0.782286  0.782286  0.217714  1
  Al  Al13  1  0.000000  0.165885  0.500001  1
  Al  Al14  1  0.500001  0.500001  0.500001  1
  Al  Al15  1  0.000000  0.834115  0.500001  1
  Al  Al16  1  0.217714  0.217714  0.782286  1
  Al  Al17  1  0.782286  0.217714  0.782286  1
  Al  Al18  1  0.217714  0.782286  0.782286  1
  Al  Al19  1  0.782286  0.782286  0.782286  1
  Al  Al20  1  0.500001  0.000000  0.834115  1
  Cu  Cu21  1  0.228320  0.000000  0.000000  1
  Cu  Cu22  1  0.771680  0.000000  0.000000  1
  Cu  Cu23  1  0.000000  0.228320  0.000000  1
  Cu  Cu24  1  0.000000  0.771680  0.000000  1
  Cu  Cu25  1  0.000000  0.000000  0.228320  1
  Cu  Cu26  1  0.334757  0.500001  0.244305  1
  Cu  Cu27  1  0.665243  0.500001  0.244305  1
  Cu  Cu28  1  0.500001  0.244305  0.334757  1
  Cu  Cu29  1  0.500001  0.755695  0.334757  1
  Cu  Cu30  1  0.244305  0.334757  0.500001  1
  Cu  Cu31  1  0.755695  0.334757  0.500001  1
  Cu  Cu32  1  0.244305  0.665243  0.500001  1
  Cu  Cu33  1  0.755695  0.665243  0.500001  1
  Cu  Cu34  1  0.500001  0.244305  0.665243  1
  Cu  Cu35  1  0.500001  0.755695  0.665243  1
  Cu  Cu36  1  0.334757  0.500001  0.755695  1
  Cu  Cu37  1  0.665243  0.500001  0.755695  1
  Cu  Cu38  1  0.000000  0.000000  0.771680  1
