# generated using pymatgen
data_TbTm2Ni9
_symmetry_space_group_name_H-M   'P 1'
_cell_length_a   4.94120178
_cell_length_b   4.94120240
_cell_length_c   8.57481518
_cell_angle_alpha   73.25437764
_cell_angle_beta   73.25437801
_cell_angle_gamma   60.00000561
_symmetry_Int_Tables_number   1
_chemical_formula_structural   TbTm2Ni9
_chemical_formula_sum   'Tb1 Tm2 Ni9'
_cell_volume   170.98109078
_cell_formula_units_Z   1
loop_
 _symmetry_equiv_pos_site_id
 _symmetry_equiv_pos_as_xyz
  1  'x, y, z'
loop_
 _atom_site_type_symbol
 _atom_site_label
 _atom_site_symmetry_multiplicity
 _atom_site_fract_x
 _atom_site_fract_y
 _atom_site_fract_z
 _atom_site_occupancy
  Tb  Tb0  1  0.000000  0.000000  0.000000  1
  Tm  Tm1  1  0.139459  0.139459  0.581625  1
  Tm  Tm2  1  0.860541  0.860541  0.418375  1
  Ni  Ni3  1  0.081735  0.583489  0.751287  1
  Ni  Ni4  1  0.583489  0.583489  0.751287  1
  Ni  Ni5  1  0.583489  0.081735  0.751287  1
  Ni  Ni6  1  0.918265  0.416511  0.248713  1
  Ni  Ni7  1  0.416511  0.416511  0.248713  1
  Ni  Ni8  1  0.416511  0.918265  0.248713  1
  Ni  Ni9  1  0.333095  0.333095  0.000714  1
  Ni  Ni10  1  0.666905  0.666905  0.999286  1
  Ni  Ni11  1  0.500000  0.500000  0.500000  1
