# generated using pymatgen
data_PrDy7(SiO5)4
_symmetry_space_group_name_H-M   'P 1'
_cell_length_a   6.81659846
_cell_length_b   8.07430482
_cell_length_c   9.72971571
_cell_angle_alpha   90.19241573
_cell_angle_beta   110.41834429
_cell_angle_gamma   115.43973617
_symmetry_Int_Tables_number   1
_chemical_formula_structural   PrDy7(SiO5)4
_chemical_formula_sum   'Pr1 Dy7 Si4 O20'
_cell_volume   445.71826220
_cell_formula_units_Z   1
loop_
 _symmetry_equiv_pos_site_id
 _symmetry_equiv_pos_as_xyz
  1  'x, y, z'
loop_
 _atom_site_type_symbol
 _atom_site_label
 _atom_site_symmetry_multiplicity
 _atom_site_fract_x
 _atom_site_fract_y
 _atom_site_fract_z
 _atom_site_occupancy
  Pr  Pr0  1  0.831790  0.117269  0.036865  1
  Dy  Dy1  1  0.676528  0.448742  0.166550  1
  Dy  Dy2  1  0.574212  0.053697  0.336884  1
  Dy  Dy3  1  0.173557  0.396414  0.467448  1
  Dy  Dy4  1  0.825744  0.607154  0.533098  1
  Dy  Dy5  1  0.428421  0.945040  0.663157  1
  Dy  Dy6  1  0.306920  0.548655  0.835073  1
  Dy  Dy7  1  0.192060  0.892494  0.968154  1
  Si  Si8  1  0.285322  0.559480  0.195183  1
  Si  Si9  1  0.039968  0.943769  0.310741  1
  Si  Si10  1  0.966452  0.052177  0.688280  1
  Si  Si11  1  0.708881  0.445041  0.804761  1
  O  O12  1  0.315167  0.455732  0.062633  1
  O  O13  1  0.523662  0.141740  0.105575  1
  O  O14  1  0.059182  0.955274  0.146403  1
  O  O15  1  0.343638  0.773734  0.175906  1
  O  O16  1  0.013889  0.435811  0.188311  1
  O  O17  1  0.924183  0.085317  0.323372  1
  O  O18  1  0.878750  0.731798  0.326558  1
  O  O19  1  0.445556  0.534246  0.357278  1
  O  O20  1  0.783029  0.361969  0.397674  1
  O  O21  1  0.309028  0.031832  0.438256  1
  O  O22  1  0.695371  0.963841  0.562352  1
  O  O23  1  0.211519  0.635092  0.604367  1
  O  O24  1  0.554392  0.470234  0.640631  1
  O  O25  1  0.118171  0.267784  0.673777  1
  O  O26  1  0.083789  0.915830  0.668917  1
  O  O27  1  0.985099  0.584032  0.824517  1
  O  O28  1  0.667958  0.231311  0.813614  1
  O  O29  1  0.958296  0.031096  0.854826  1
  O  O30  1  0.467917  0.859009  0.894173  1
  O  O31  1  0.651552  0.524391  0.934663  1
