# generated using pymatgen
data_SmLu7(Si4W3)4
_symmetry_space_group_name_H-M   'P 1'
_cell_length_a   6.71879812
_cell_length_b   6.89853619
_cell_length_c   12.83981405
_cell_angle_alpha   90.08952321
_cell_angle_beta   90.01668971
_cell_angle_gamma   90.06406560
_symmetry_Int_Tables_number   1
_chemical_formula_structural   SmLu7(Si4W3)4
_chemical_formula_sum   'Sm1 Lu7 Si16 W12'
_cell_volume   595.12261335
_cell_formula_units_Z   1
loop_
 _symmetry_equiv_pos_site_id
 _symmetry_equiv_pos_as_xyz
  1  'x, y, z'
loop_
 _atom_site_type_symbol
 _atom_site_label
 _atom_site_symmetry_multiplicity
 _atom_site_fract_x
 _atom_site_fract_y
 _atom_site_fract_z
 _atom_site_occupancy
  Sm  Sm0  1  0.496531  0.667179  0.592112  1
  Lu  Lu1  1  0.994673  0.831578  0.907861  1
  Lu  Lu2  1  0.505301  0.331341  0.093027  1
  Lu  Lu3  1  0.005621  0.167975  0.406339  1
  Lu  Lu4  1  0.505767  0.331235  0.405962  1
  Lu  Lu5  1  0.005343  0.168690  0.093089  1
  Lu  Lu6  1  0.494658  0.668571  0.906891  1
  Lu  Lu7  1  0.994687  0.831849  0.592973  1
  Si  Si8  1  0.663906  0.961504  0.452120  1
  Si  Si9  1  0.163421  0.540032  0.046691  1
  Si  Si10  1  0.336532  0.040016  0.953804  1
  Si  Si11  1  0.840880  0.457313  0.545895  1
  Si  Si12  1  0.335338  0.043742  0.545927  1
  Si  Si13  1  0.836249  0.460019  0.954072  1
  Si  Si14  1  0.663420  0.959743  0.046648  1
  Si  Si15  1  0.161839  0.539652  0.451985  1
  Si  Si16  1  0.463953  0.370655  0.751449  1
  Si  Si17  1  0.964420  0.126346  0.750616  1
  Si  Si18  1  0.535146  0.627050  0.249928  1
  Si  Si19  1  0.034820  0.873537  0.249396  1
  Si  Si20  1  0.699264  0.865443  0.751751  1
  Si  Si21  1  0.194534  0.636341  0.751427  1
  Si  Si22  1  0.302679  0.137224  0.249364  1
  Si  Si23  1  0.803191  0.363367  0.249694  1
  W  W24  1  0.669024  0.163236  0.625121  1
  W  W25  1  0.168112  0.336261  0.875718  1
  W  W26  1  0.331244  0.836909  0.124817  1
  W  W27  1  0.832129  0.663585  0.374217  1
  W  W28  1  0.330113  0.838382  0.373648  1
  W  W29  1  0.830906  0.663474  0.124952  1
  W  W30  1  0.669015  0.163149  0.875687  1
  W  W31  1  0.166739  0.334961  0.625789  1
  W  W32  1  0.833662  0.500504  0.751121  1
  W  W33  1  0.332218  0.998840  0.750865  1
  W  W34  1  0.167487  0.497844  0.249465  1
  W  W35  1  0.667181  0.002454  0.249579  1
