# generated using pymatgen
data_Li4Dy2Ho2Sn3Sb
_symmetry_space_group_name_H-M   'P 1'
_cell_length_a   9.37624546
_cell_length_b   9.37983574
_cell_length_c   7.22148462
_cell_angle_alpha   90.00123206
_cell_angle_beta   90.08277164
_cell_angle_gamma   120.01042883
_symmetry_Int_Tables_number   1
_chemical_formula_structural   Li4Dy2Ho2Sn3Sb
_chemical_formula_sum   'Li8 Dy4 Ho4 Sn6 Sb2'
_cell_volume   549.96501230
_cell_formula_units_Z   2
loop_
 _symmetry_equiv_pos_site_id
 _symmetry_equiv_pos_as_xyz
  1  'x, y, z'
loop_
 _atom_site_type_symbol
 _atom_site_label
 _atom_site_symmetry_multiplicity
 _atom_site_fract_x
 _atom_site_fract_y
 _atom_site_fract_z
 _atom_site_occupancy
  Li  Li0  1  0.167240  0.333938  0.285389  1
  Li  Li1  1  0.167195  0.833274  0.285401  1
  Li  Li2  1  0.666138  0.833030  0.285565  1
  Li  Li3  1  0.832212  0.665995  0.786113  1
  Li  Li4  1  0.832291  0.166251  0.786070  1
  Li  Li5  1  0.334302  0.167214  0.787240  1
  Li  Li6  1  0.334286  0.667117  0.673809  1
  Li  Li7  1  0.666566  0.333353  0.175728  1
  Dy  Dy8  1  0.513750  0.023831  0.492027  1
  Dy  Dy9  1  0.513737  0.489925  0.492027  1
  Dy  Dy10  1  0.975573  0.487782  0.490853  1
  Dy  Dy11  1  0.490355  0.978282  0.995199  1
  Ho  Ho12  1  0.490387  0.512082  0.995252  1
  Ho  Ho13  1  0.019927  0.509961  0.996499  1
  Ho  Ho14  1  0.998076  0.999041  0.496908  1
  Ho  Ho15  1  0.998001  0.998996  0.002700  1
  Sn  Sn16  1  0.667024  0.833402  0.732151  1
  Sn  Sn17  1  0.833997  0.666906  0.231859  1
  Sn  Sn18  1  0.834169  0.167156  0.232020  1
  Sn  Sn19  1  0.333031  0.166635  0.231830  1
  Sn  Sn20  1  0.332498  0.666111  0.259507  1
  Sn  Sn21  1  0.667296  0.333761  0.760605  1
  Sb  Sb22  1  0.166050  0.333166  0.733691  1
  Sb  Sb23  1  0.165898  0.832790  0.733525  1
