# generated using pymatgen
data_Ti4Bi2H
_symmetry_space_group_name_H-M   'P 1'
_cell_length_a   7.68308472
_cell_length_b   4.21097324
_cell_length_c   4.21097400
_cell_angle_alpha   90.00000000
_cell_angle_beta   105.90492476
_cell_angle_gamma   105.90491814
_symmetry_Int_Tables_number   1
_chemical_formula_structural   Ti4Bi2H
_chemical_formula_sum   'Ti4 Bi2 H1'
_cell_volume   125.59130617
_cell_formula_units_Z   1
loop_
 _symmetry_equiv_pos_site_id
 _symmetry_equiv_pos_as_xyz
  1  'x, y, z'
loop_
 _atom_site_type_symbol
 _atom_site_label
 _atom_site_symmetry_multiplicity
 _atom_site_fract_x
 _atom_site_fract_y
 _atom_site_fract_z
 _atom_site_occupancy
  Ti  Ti0  1  0.000000  0.499999  0.000000  1
  Ti  Ti1  1  0.716601  0.358301  0.358301  1
  Ti  Ti2  1  0.000000  0.000000  0.499999  1
  Ti  Ti3  1  0.283399  0.641698  0.641698  1
  Bi  Bi4  1  0.298253  0.149126  0.149126  1
  Bi  Bi5  1  0.701746  0.850872  0.850872  1
  H  H6  1  0.000000  0.499999  0.499999  1
