# generated using pymatgen
data_Ti8MnCr(B2P)2
_symmetry_space_group_name_H-M   'P 1'
_cell_length_a   7.02585928
_cell_length_b   7.02586065
_cell_length_c   7.02585957
_cell_angle_alpha   130.65902183
_cell_angle_beta   130.65902633
_cell_angle_gamma   72.35537991
_symmetry_Int_Tables_number   1
_chemical_formula_structural   Ti8MnCr(B2P)2
_chemical_formula_sum   'Ti8 Mn1 Cr1 B4 P2'
_cell_volume   195.09101363
_cell_formula_units_Z   1
loop_
 _symmetry_equiv_pos_site_id
 _symmetry_equiv_pos_as_xyz
  1  'x, y, z'
loop_
 _atom_site_type_symbol
 _atom_site_label
 _atom_site_symmetry_multiplicity
 _atom_site_fract_x
 _atom_site_fract_y
 _atom_site_fract_z
 _atom_site_occupancy
  Ti  Ti0  1  0.189774  0.692114  0.148886  1
  Ti  Ti1  1  0.456772  0.959114  0.148886  1
  Ti  Ti2  1  0.543228  0.040886  0.851114  1
  Ti  Ti3  1  0.040886  0.189774  0.497660  1
  Ti  Ti4  1  0.692114  0.543228  0.502340  1
  Ti  Ti5  1  0.959114  0.810226  0.502340  1
  Ti  Ti6  1  0.307886  0.456772  0.497660  1
  Ti  Ti7  1  0.810226  0.307886  0.851114  1
  Mn  Mn8  1  0.000000  0.000000  0.000000  1
  Cr  Cr9  1  0.500000  0.500000  0.000000  1
  B  B10  1  0.886391  0.386880  0.273270  1
  B  B11  1  0.386880  0.113609  0.500489  1
  B  B12  1  0.613120  0.886391  0.499511  1
  B  B13  1  0.113609  0.613120  0.726730  1
  P  P14  1  0.746916  0.746916  0.000000  1
  P  P15  1  0.253084  0.253084  0.000000  1
