# generated using pymatgen
data_SrCe2S5
_symmetry_space_group_name_H-M   'P 1'
_cell_length_a   7.52073500
_cell_length_b   8.34394882
_cell_length_c   11.83254540
_cell_angle_alpha   89.79570025
_cell_angle_beta   90.00000000
_cell_angle_gamma   90.00000000
_symmetry_Int_Tables_number   1
_chemical_formula_structural   SrCe2S5
_chemical_formula_sum   'Sr4 Ce8 S20'
_cell_volume   742.51859878
_cell_formula_units_Z   4
loop_
 _symmetry_equiv_pos_site_id
 _symmetry_equiv_pos_as_xyz
  1  'x, y, z'
loop_
 _atom_site_type_symbol
 _atom_site_label
 _atom_site_symmetry_multiplicity
 _atom_site_fract_x
 _atom_site_fract_y
 _atom_site_fract_z
 _atom_site_occupancy
  Sr  Sr0  1  0.046144  0.491819  0.328879  1
  Sr  Sr1  1  0.546144  0.508181  0.171121  1
  Sr  Sr2  1  0.953856  0.508181  0.671121  1
  Sr  Sr3  1  0.453856  0.491819  0.828879  1
  Ce  Ce4  1  0.020159  0.999409  0.320617  1
  Ce  Ce5  1  0.520159  0.000591  0.179383  1
  Ce  Ce6  1  0.979841  0.000591  0.679383  1
  Ce  Ce7  1  0.479841  0.999409  0.820617  1
  Ce  Ce8  1  0.070728  0.749787  0.009761  1
  Ce  Ce9  1  0.570728  0.250213  0.490239  1
  Ce  Ce10  1  0.929272  0.250213  0.990239  1
  Ce  Ce11  1  0.429272  0.749787  0.509761  1
  S  S12  1  0.660878  0.956539  0.400257  1
  S  S13  1  0.160878  0.043461  0.099743  1
  S  S14  1  0.339122  0.043461  0.599743  1
  S  S15  1  0.839122  0.956539  0.900257  1
  S  S16  1  0.456292  0.783658  0.001784  1
  S  S17  1  0.956292  0.216342  0.498216  1
  S  S18  1  0.543708  0.216342  0.998216  1
  S  S19  1  0.043708  0.783658  0.501784  1
  S  S20  1  0.834677  0.775614  0.189628  1
  S  S21  1  0.334677  0.224386  0.310372  1
  S  S22  1  0.165323  0.224386  0.810372  1
  S  S23  1  0.665323  0.775614  0.689628  1
  S  S24  1  0.307659  0.766120  0.282925  1
  S  S25  1  0.807659  0.233880  0.217075  1
  S  S26  1  0.692341  0.233880  0.717075  1
  S  S27  1  0.192341  0.766120  0.782925  1
  S  S28  1  0.178214  0.459463  0.079644  1
  S  S29  1  0.678214  0.540537  0.420356  1
  S  S30  1  0.821786  0.540537  0.920356  1
  S  S31  1  0.321786  0.459463  0.579644  1
