# generated using pymatgen
data_Zr2Co9Tc3As7
_symmetry_space_group_name_H-M   'P 1'
_cell_length_a   3.78974600
_cell_length_b   9.30150061
_cell_length_c   9.30150100
_cell_angle_alpha   120.00000398
_cell_angle_beta   90.00000000
_cell_angle_gamma   90.00000000
_symmetry_Int_Tables_number   1
_chemical_formula_structural   Zr2Co9Tc3As7
_chemical_formula_sum   'Zr2 Co9 Tc3 As7'
_cell_volume   283.95320410
_cell_formula_units_Z   1
loop_
 _symmetry_equiv_pos_site_id
 _symmetry_equiv_pos_as_xyz
  1  'x, y, z'
loop_
 _atom_site_type_symbol
 _atom_site_label
 _atom_site_symmetry_multiplicity
 _atom_site_fract_x
 _atom_site_fract_y
 _atom_site_fract_z
 _atom_site_occupancy
  Zr  Zr0  1  0.000000  0.666667  0.333333  1
  Zr  Zr1  1  0.500000  0.333333  0.666667  1
  Co  Co2  1  0.000000  0.565936  0.936640  1
  Co  Co3  1  0.000000  0.370704  0.434064  1
  Co  Co4  1  0.000000  0.063360  0.629296  1
  Co  Co5  1  0.000000  0.874458  0.160020  1
  Co  Co6  1  0.000000  0.285561  0.125542  1
  Co  Co7  1  0.000000  0.839980  0.714439  1
  Co  Co8  1  0.500000  0.945133  0.383969  1
  Co  Co9  1  0.500000  0.438835  0.054867  1
  Co  Co10  1  0.500000  0.616031  0.561165  1
  Tc  Tc11  1  0.500000  0.782339  0.900471  1
  Tc  Tc12  1  0.500000  0.118132  0.217661  1
  Tc  Tc13  1  0.500000  0.099529  0.881868  1
  As  As14  1  0.000000  0.000000  0.000000  1
  As  As15  1  0.500000  0.708432  0.120360  1
  As  As16  1  0.500000  0.411929  0.291568  1
  As  As17  1  0.500000  0.879640  0.588071  1
  As  As18  1  0.000000  0.585105  0.701218  1
  As  As19  1  0.000000  0.116113  0.414895  1
  As  As20  1  0.000000  0.298782  0.883887  1
