# generated using pymatgen
data_Ca4Pr(Nd5Ga4)3
_symmetry_space_group_name_H-M   'P 1'
_cell_length_a   7.93814170
_cell_length_b   7.94044992
_cell_length_c   14.71298000
_cell_angle_alpha   89.97946416
_cell_angle_beta   89.71139575
_cell_angle_gamma   89.93952368
_symmetry_Int_Tables_number   1
_chemical_formula_structural   Ca4Pr(Nd5Ga4)3
_chemical_formula_sum   'Ca4 Pr1 Nd15 Ga12'
_cell_volume   927.38234602
_cell_formula_units_Z   1
loop_
 _symmetry_equiv_pos_site_id
 _symmetry_equiv_pos_as_xyz
  1  'x, y, z'
loop_
 _atom_site_type_symbol
 _atom_site_label
 _atom_site_symmetry_multiplicity
 _atom_site_fract_x
 _atom_site_fract_y
 _atom_site_fract_z
 _atom_site_occupancy
  Ca  Ca0  1  0.999930  0.501762  0.745305  1
  Ca  Ca1  1  0.999240  0.499574  0.244830  1
  Ca  Ca2  1  0.499013  0.999160  0.253242  1
  Ca  Ca3  1  0.501241  0.999538  0.755961  1
  Pr  Pr4  1  0.827084  0.831781  0.602816  1
  Nd  Nd5  1  0.172672  0.830135  0.101771  1
  Nd  Nd6  1  0.169029  0.825589  0.397585  1
  Nd  Nd7  1  0.828858  0.173541  0.397337  1
  Nd  Nd8  1  0.672656  0.669215  0.397622  1
  Nd  Nd9  1  0.671381  0.324853  0.601990  1
  Nd  Nd10  1  0.330418  0.675163  0.602019  1
  Nd  Nd11  1  0.670141  0.674327  0.101528  1
  Nd  Nd12  1  0.674985  0.330004  0.898628  1
  Nd  Nd13  1  0.830614  0.825619  0.898085  1
  Nd  Nd14  1  0.324503  0.328702  0.397560  1
  Nd  Nd15  1  0.176140  0.171380  0.603184  1
  Nd  Nd16  1  0.826074  0.168935  0.101785  1
  Nd  Nd17  1  0.326150  0.669868  0.898675  1
  Nd  Nd18  1  0.329045  0.325061  0.101561  1
  Nd  Nd19  1  0.171321  0.176093  0.897728  1
  Ga  Ga20  1  0.615897  0.382434  0.249054  1
  Ga  Ga21  1  0.118833  0.884223  0.751124  1
  Ga  Ga22  1  0.384305  0.383874  0.750161  1
  Ga  Ga23  1  0.382106  0.616213  0.249162  1
  Ga  Ga24  1  0.882276  0.882664  0.250000  1
  Ga  Ga25  1  0.616933  0.616414  0.750248  1
  Ga  Ga26  1  0.999295  0.500430  0.501600  1
  Ga  Ga27  1  0.884446  0.118643  0.751329  1
  Ga  Ga28  1  0.499952  0.999116  0.497586  1
  Ga  Ga29  1  0.499899  0.999451  0.998145  1
  Ga  Ga30  1  0.116009  0.116280  0.249733  1
  Ga  Ga31  1  0.999549  0.499955  0.002647  1
