# generated using pymatgen
data_Hf8Co3TcOs4
_symmetry_space_group_name_H-M   'P 1'
_cell_length_a   6.46101100
_cell_length_b   4.56574100
_cell_length_c   9.12355000
_cell_angle_alpha   90.00000000
_cell_angle_beta   90.00005800
_cell_angle_gamma   90.00000000
_symmetry_Int_Tables_number   1
_chemical_formula_structural   Hf8Co3TcOs4
_chemical_formula_sum   'Hf8 Co3 Tc1 Os4'
_cell_volume   269.13836428
_cell_formula_units_Z   1
loop_
 _symmetry_equiv_pos_site_id
 _symmetry_equiv_pos_as_xyz
  1  'x, y, z'
loop_
 _atom_site_type_symbol
 _atom_site_label
 _atom_site_symmetry_multiplicity
 _atom_site_fract_x
 _atom_site_fract_y
 _atom_site_fract_z
 _atom_site_occupancy
  Hf  Hf0  1  0.999820  0.750001  0.126045  1
  Hf  Hf1  1  0.500260  0.750001  0.126048  1
  Hf  Hf2  1  0.000189  0.250001  0.374996  1
  Hf  Hf3  1  0.499875  0.250001  0.375007  1
  Hf  Hf4  1  0.500175  0.750001  0.623977  1
  Hf  Hf5  1  0.999714  0.750001  0.623982  1
  Hf  Hf6  1  0.500783  0.250001  0.874981  1
  Hf  Hf7  1  0.999128  0.250001  0.874989  1
  Co  Co8  1  0.750036  0.250001  0.125305  1
  Co  Co9  1  0.250035  0.750001  0.374990  1
  Co  Co10  1  0.749950  0.250001  0.624683  1
  Tc  Tc11  1  0.249966  0.750001  0.874998  1
  Os  Os12  1  0.250025  0.250001  0.128054  1
  Os  Os13  1  0.750018  0.750001  0.375003  1
  Os  Os14  1  0.249960  0.250001  0.621936  1
  Os  Os15  1  0.749966  0.750001  0.875004  1
