# generated using pymatgen
data_SmDy2UN4
_symmetry_space_group_name_H-M   'P 1'
_cell_length_a   6.99647885
_cell_length_b   9.22526824
_cell_length_c   6.01289019
_cell_angle_alpha   29.26115841
_cell_angle_beta   54.42345398
_cell_angle_gamma   40.67631566
_symmetry_Int_Tables_number   1
_chemical_formula_structural   SmDy2UN4
_chemical_formula_sum   'Sm1 Dy2 U1 N4'
_cell_volume   119.69719936
_cell_formula_units_Z   1
loop_
 _symmetry_equiv_pos_site_id
 _symmetry_equiv_pos_as_xyz
  1  'x, y, z'
loop_
 _atom_site_type_symbol
 _atom_site_label
 _atom_site_symmetry_multiplicity
 _atom_site_fract_x
 _atom_site_fract_y
 _atom_site_fract_z
 _atom_site_occupancy
  Sm  Sm0  1  0.500000  0.000000  0.000000  1
  Dy  Dy1  1  0.250000  0.500000  0.000000  1
  Dy  Dy2  1  0.750000  0.500000  0.000000  1
  U  U3  1  0.000000  0.000000  0.000000  1
  N  N4  1  0.500000  0.500000  0.500000  1
  N  N5  1  0.227675  0.000000  0.544649  1
  N  N6  1  0.000000  0.500000  0.500000  1
  N  N7  1  0.772325  0.000000  0.455351  1
