# generated using pymatgen
data_NaLi3LuNi9As7
_symmetry_space_group_name_H-M   'P 1'
_cell_length_a   9.43664600
_cell_length_b   9.43664586
_cell_length_c   3.84721700
_cell_angle_alpha   90.00000000
_cell_angle_beta   90.00000000
_cell_angle_gamma   120.00000049
_symmetry_Int_Tables_number   1
_chemical_formula_structural   NaLi3LuNi9As7
_chemical_formula_sum   'Na1 Li3 Lu1 Ni9 As7'
_cell_volume   296.69664351
_cell_formula_units_Z   1
loop_
 _symmetry_equiv_pos_site_id
 _symmetry_equiv_pos_as_xyz
  1  'x, y, z'
loop_
 _atom_site_type_symbol
 _atom_site_label
 _atom_site_symmetry_multiplicity
 _atom_site_fract_x
 _atom_site_fract_y
 _atom_site_fract_z
 _atom_site_occupancy
  Na  Na0  1  0.666667  0.333333  0.500000  1
  Li  Li1  1  0.211743  0.105414  0.500000  1
  Li  Li2  1  0.894586  0.106329  0.500000  1
  Li  Li3  1  0.893671  0.788257  0.500000  1
  Lu  Lu4  1  0.333333  0.666667  0.000000  1
  Ni  Ni5  1  0.121741  0.289502  0.000000  1
  Ni  Ni6  1  0.710498  0.832239  0.000000  1
  Ni  Ni7  1  0.167761  0.878259  0.000000  1
  Ni  Ni8  1  0.427539  0.378721  0.000000  1
  Ni  Ni9  1  0.621279  0.048819  0.000000  1
  Ni  Ni10  1  0.951181  0.572461  0.000000  1
  Ni  Ni11  1  0.047048  0.435611  0.500000  1
  Ni  Ni12  1  0.564389  0.611437  0.500000  1
  Ni  Ni13  1  0.388563  0.952952  0.500000  1
  As  As14  1  0.287790  0.409057  0.500000  1
  As  As15  1  0.590943  0.878732  0.500000  1
  As  As16  1  0.121268  0.712210  0.500000  1
  As  As17  1  0.417494  0.120581  0.000000  1
  As  As18  1  0.879419  0.296913  0.000000  1
  As  As19  1  0.703087  0.582506  0.000000  1
  As  As20  1  0.000000  0.000000  0.000000  1
