# generated using pymatgen
data_DyY6FeI12
_symmetry_space_group_name_H-M   'P 1'
_cell_length_a   9.78100120
_cell_length_b   9.78988405
_cell_length_c   9.74554678
_cell_angle_alpha   106.99289561
_cell_angle_beta   106.89327456
_cell_angle_gamma   107.02295653
_symmetry_Int_Tables_number   1
_chemical_formula_structural   DyY6FeI12
_chemical_formula_sum   'Dy1 Y6 Fe1 I12'
_cell_volume   777.80462266
_cell_formula_units_Z   1
loop_
 _symmetry_equiv_pos_site_id
 _symmetry_equiv_pos_as_xyz
  1  'x, y, z'
loop_
 _atom_site_type_symbol
 _atom_site_label
 _atom_site_symmetry_multiplicity
 _atom_site_fract_x
 _atom_site_fract_y
 _atom_site_fract_z
 _atom_site_occupancy
  Dy  Dy0  1  0.709318  0.978090  0.908324  1
  Y  Y1  1  0.979729  0.911659  0.720070  1
  Y  Y2  1  0.499994  0.500128  0.500079  1
  Y  Y3  1  0.093599  0.293080  0.021259  1
  Y  Y4  1  0.291889  0.022239  0.091914  1
  Y  Y5  1  0.906080  0.706562  0.978783  1
  Y  Y6  1  0.020441  0.088222  0.279783  1
  Fe  Fe7  1  0.000136  0.000333  0.000105  1
  I  I8  1  0.070840  0.223555  0.678939  1
  I  I9  1  0.383740  0.159881  0.461551  1
  I  I10  1  0.616227  0.839797  0.538808  1
  I  I11  1  0.225233  0.678539  0.072047  1
  I  I12  1  0.774623  0.321156  0.928076  1
  I  I13  1  0.680240  0.072840  0.225969  1
  I  I14  1  0.536955  0.614754  0.839894  1
  I  I15  1  0.840425  0.539887  0.615136  1
  I  I16  1  0.928804  0.776561  0.321004  1
  I  I17  1  0.319233  0.926867  0.773654  1
  I  I18  1  0.463168  0.385802  0.159711  1
  I  I19  1  0.159327  0.460046  0.384893  1
