# generated using pymatgen
data_Y16InAg3IrRh3
_symmetry_space_group_name_H-M   'P 1'
_cell_length_a   9.57615064
_cell_length_b   9.64737546
_cell_length_c   9.65254911
_cell_angle_alpha   60.06307370
_cell_angle_beta   59.76581330
_cell_angle_gamma   59.70355287
_symmetry_Int_Tables_number   1
_chemical_formula_structural   Y16InAg3IrRh3
_chemical_formula_sum   'Y16 In1 Ag3 Ir1 Rh3'
_cell_volume   628.31655270
_cell_formula_units_Z   1
loop_
 _symmetry_equiv_pos_site_id
 _symmetry_equiv_pos_as_xyz
  1  'x, y, z'
loop_
 _atom_site_type_symbol
 _atom_site_label
 _atom_site_symmetry_multiplicity
 _atom_site_fract_x
 _atom_site_fract_y
 _atom_site_fract_z
 _atom_site_occupancy
  Y  Y0  1  0.811535  0.186073  0.809976  1
  Y  Y1  1  0.930932  0.564790  0.565074  1
  Y  Y2  1  0.560438  0.938893  0.564324  1
  Y  Y3  1  0.810571  0.188900  0.188673  1
  Y  Y4  1  0.188100  0.809863  0.192107  1
  Y  Y5  1  0.350965  0.946893  0.350938  1
  Y  Y6  1  0.932871  0.939016  0.562654  1
  Y  Y7  1  0.558906  0.938626  0.938422  1
  Y  Y8  1  0.189329  0.808462  0.808376  1
  Y  Y9  1  0.350926  0.351003  0.947044  1
  Y  Y10  1  0.560361  0.564379  0.938976  1
  Y  Y11  1  0.351746  0.352075  0.351903  1
  Y  Y12  1  0.188146  0.191991  0.809868  1
  Y  Y13  1  0.811485  0.810002  0.186309  1
  Y  Y14  1  0.932753  0.562907  0.939100  1
  Y  Y15  1  0.947334  0.351273  0.351054  1
  In  In16  1  0.261864  0.578987  0.580138  1
  Ag  Ag17  1  0.584282  0.581448  0.581333  1
  Ag  Ag18  1  0.585319  0.252458  0.581704  1
  Ag  Ag19  1  0.585129  0.582019  0.252330  1
  Ir  Ir20  1  0.143892  0.141104  0.141199  1
  Rh  Rh21  1  0.145168  0.143058  0.572483  1
  Rh  Rh22  1  0.572627  0.143144  0.143054  1
  Rh  Rh23  1  0.145320  0.572638  0.142963  1
