# generated using pymatgen
data_Th2Nb3P7Ir9
_symmetry_space_group_name_H-M   'P 1'
_cell_length_a   9.67235300
_cell_length_b   9.67235239
_cell_length_c   4.06331300
_cell_angle_alpha   90.00000000
_cell_angle_beta   90.00000000
_cell_angle_gamma   119.99999866
_symmetry_Int_Tables_number   1
_chemical_formula_structural   Th2Nb3P7Ir9
_chemical_formula_sum   'Th2 Nb3 P7 Ir9'
_cell_volume   329.21162622
_cell_formula_units_Z   1
loop_
 _symmetry_equiv_pos_site_id
 _symmetry_equiv_pos_as_xyz
  1  'x, y, z'
loop_
 _atom_site_type_symbol
 _atom_site_label
 _atom_site_symmetry_multiplicity
 _atom_site_fract_x
 _atom_site_fract_y
 _atom_site_fract_z
 _atom_site_occupancy
  Th  Th0  1  0.333333  0.666667  0.000000  1
  Th  Th1  1  0.000000  0.000000  0.500000  1
  Nb  Nb2  1  0.794871  0.240303  0.500000  1
  Nb  Nb3  1  0.759697  0.554569  0.500000  1
  Nb  Nb4  1  0.445431  0.205129  0.500000  1
  P  P5  1  0.781589  0.036612  0.000000  1
  P  P6  1  0.963388  0.744977  0.000000  1
  P  P7  1  0.255023  0.218411  0.000000  1
  P  P8  1  0.379685  0.928590  0.500000  1
  P  P9  1  0.071410  0.451095  0.500000  1
  P  P10  1  0.548905  0.620315  0.500000  1
  P  P11  1  0.666667  0.333333  0.000000  1
  Ir  Ir12  1  0.034882  0.260245  0.000000  1
  Ir  Ir13  1  0.739755  0.774637  0.000000  1
  Ir  Ir14  1  0.225363  0.965118  0.000000  1
  Ir  Ir15  1  0.553988  0.059646  0.000000  1
  Ir  Ir16  1  0.940354  0.494342  0.000000  1
  Ir  Ir17  1  0.505658  0.446012  0.000000  1
  Ir  Ir18  1  0.609026  0.888250  0.500000  1
  Ir  Ir19  1  0.111750  0.720774  0.500000  1
  Ir  Ir20  1  0.279226  0.390974  0.500000  1
