# generated using pymatgen
data_Yb(GdH3)3
_symmetry_space_group_name_H-M   'P 1'
_cell_length_a   6.45999298
_cell_length_b   6.45999297
_cell_length_c   6.45999286
_cell_angle_alpha   131.41032084
_cell_angle_beta   131.81393249
_cell_angle_gamma   70.84282612
_symmetry_Int_Tables_number   1
_chemical_formula_structural   Yb(GdH3)3
_chemical_formula_sum   'Yb1 Gd3 H9'
_cell_volume   147.59053231
_cell_formula_units_Z   1
loop_
 _symmetry_equiv_pos_site_id
 _symmetry_equiv_pos_as_xyz
  1  'x, y, z'
loop_
 _atom_site_type_symbol
 _atom_site_label
 _atom_site_symmetry_multiplicity
 _atom_site_fract_x
 _atom_site_fract_y
 _atom_site_fract_z
 _atom_site_occupancy
  Yb  Yb0  1  0.000000  0.500000  0.500000  1
  Gd  Gd1  1  0.760497  0.760497  0.000000  1
  Gd  Gd2  1  0.239503  0.239503  0.000000  1
  Gd  Gd3  1  0.500000  0.000000  0.500000  1
  H  H4  1  0.135327  0.127044  0.521186  1
  H  H5  1  0.605858  0.614141  0.478814  1
  H  H6  1  0.135327  0.614141  0.008283  1
  H  H7  1  0.605858  0.127044  0.991717  1
  H  H8  1  0.864673  0.872956  0.478814  1
  H  H9  1  0.394142  0.385859  0.521186  1
  H  H10  1  0.864673  0.385859  0.991717  1
  H  H11  1  0.394142  0.872956  0.008283  1
  H  H12  1  0.000000  0.000000  0.000000  1
