# generated using pymatgen
data_NdEr9In8(PtRh)2
_symmetry_space_group_name_H-M   'P 1'
_cell_length_a   3.60615800
_cell_length_b   8.10789402
_cell_length_c   18.25779877
_cell_angle_alpha   90.29398516
_cell_angle_beta   90.00000000
_cell_angle_gamma   90.00000000
_symmetry_Int_Tables_number   1
_chemical_formula_structural   NdEr9In8(PtRh)2
_chemical_formula_sum   'Nd1 Er9 In8 Pt2 Rh2'
_cell_volume   533.82082649
_cell_formula_units_Z   1
loop_
 _symmetry_equiv_pos_site_id
 _symmetry_equiv_pos_as_xyz
  1  'x, y, z'
loop_
 _atom_site_type_symbol
 _atom_site_label
 _atom_site_symmetry_multiplicity
 _atom_site_fract_x
 _atom_site_fract_y
 _atom_site_fract_z
 _atom_site_occupancy
  Nd  Nd0  1  0.000000  0.500000  0.500000  1
  Er  Er1  1  0.000000  0.116259  0.411593  1
  Er  Er2  1  0.000000  0.883741  0.588407  1
  Er  Er3  1  0.000000  0.383310  0.913555  1
  Er  Er4  1  0.000000  0.616690  0.086445  1
  Er  Er5  1  0.000000  0.238218  0.221335  1
  Er  Er6  1  0.000000  0.761782  0.778665  1
  Er  Er7  1  0.000000  0.250952  0.720799  1
  Er  Er8  1  0.000000  0.749048  0.279201  1
  Er  Er9  1  0.000000  0.000000  0.000000  1
  In  In10  1  0.500000  0.421961  0.349210  1
  In  In11  1  0.500000  0.578039  0.650790  1
  In  In12  1  0.500000  0.073269  0.850521  1
  In  In13  1  0.500000  0.926731  0.149479  1
  In  In14  1  0.500000  0.292237  0.065990  1
  In  In15  1  0.500000  0.707763  0.934010  1
  In  In16  1  0.500000  0.202044  0.569249  1
  In  In17  1  0.500000  0.797956  0.430751  1
  Pt  Pt18  1  0.500000  0.478250  0.803684  1
  Pt  Pt19  1  0.500000  0.521750  0.196316  1
  Rh  Rh20  1  0.500000  0.021872  0.304386  1
  Rh  Rh21  1  0.500000  0.978128  0.695614  1
