# generated using pymatgen
data_Pr4Gd2RuCl10
_symmetry_space_group_name_H-M   'P 1'
_cell_length_a   7.47987266
_cell_length_b   9.13537142
_cell_length_c   9.47021400
_cell_angle_alpha   109.45197791
_cell_angle_beta   96.59838646
_cell_angle_gamma   106.82771443
_symmetry_Int_Tables_number   1
_chemical_formula_structural   Pr4Gd2RuCl10
_chemical_formula_sum   'Pr4 Gd2 Ru1 Cl10'
_cell_volume   567.81457669
_cell_formula_units_Z   1
loop_
 _symmetry_equiv_pos_site_id
 _symmetry_equiv_pos_as_xyz
  1  'x, y, z'
loop_
 _atom_site_type_symbol
 _atom_site_label
 _atom_site_symmetry_multiplicity
 _atom_site_fract_x
 _atom_site_fract_y
 _atom_site_fract_z
 _atom_site_occupancy
  Pr  Pr0  1  0.852628  0.936288  0.249169  1
  Pr  Pr1  1  0.029538  0.703617  0.902299  1
  Pr  Pr2  1  0.377896  0.154331  0.200241  1
  Pr  Pr3  1  0.967340  0.293694  0.090769  1
  Gd  Gd4  1  0.140610  0.058485  0.752150  1
  Gd  Gd5  1  0.626441  0.851639  0.802843  1
  Ru  Ru6  1  0.999886  0.999141  0.000428  1
  Cl  Cl7  1  0.216381  0.762674  0.661583  1
  Cl  Cl8  1  0.645686  0.549050  0.723810  1
  Cl  Cl9  1  0.232872  0.076912  0.450903  1
  Cl  Cl10  1  0.797202  0.247024  0.343129  1
  Cl  Cl11  1  0.548740  0.163586  0.923680  1
  Cl  Cl12  1  0.770000  0.922220  0.562365  1
  Cl  Cl13  1  0.907117  0.627385  0.157789  1
  Cl  Cl14  1  0.348729  0.460681  0.274685  1
  Cl  Cl15  1  0.092101  0.362547  0.834252  1
  Cl  Cl16  1  0.446830  0.830722  0.069904  1
