# generated using pymatgen
data_Er3ScAl2Rh3
_symmetry_space_group_name_H-M   'P 1'
_cell_length_a   7.06852500
_cell_length_b   7.05895678
_cell_length_c   4.10298900
_cell_angle_alpha   90.00000000
_cell_angle_beta   90.00000000
_cell_angle_gamma   120.04485350
_symmetry_Int_Tables_number   1
_chemical_formula_structural   Er3ScAl2Rh3
_chemical_formula_sum   'Er3 Sc1 Al2 Rh3'
_cell_volume   177.21637074
_cell_formula_units_Z   1
loop_
 _symmetry_equiv_pos_site_id
 _symmetry_equiv_pos_as_xyz
  1  'x, y, z'
loop_
 _atom_site_type_symbol
 _atom_site_label
 _atom_site_symmetry_multiplicity
 _atom_site_fract_x
 _atom_site_fract_y
 _atom_site_fract_z
 _atom_site_occupancy
  Er  Er0  1  0.607072  0.000000  0.500000  1
  Er  Er1  1  0.416168  0.433099  0.500000  1
  Er  Er2  1  0.983068  0.566901  0.500000  1
  Sc  Sc3  1  0.238788  0.000000  0.000000  1
  Al  Al4  1  0.999771  0.244436  0.000000  1
  Al  Al5  1  0.755335  0.755564  0.000000  1
  Rh  Rh6  1  0.669556  0.332741  0.000000  1
  Rh  Rh7  1  0.336815  0.667259  0.000000  1
  Rh  Rh8  1  0.993427  0.000000  0.500000  1
