# generated using pymatgen
data_La2Y5Tm13Si15Os
_symmetry_space_group_name_H-M   'P 1'
_cell_length_a   7.36267004
_cell_length_b   7.71707650
_cell_length_c   14.50738806
_cell_angle_alpha   89.65948065
_cell_angle_beta   90.00494476
_cell_angle_gamma   89.95570536
_symmetry_Int_Tables_number   1
_chemical_formula_structural   La2Y5Tm13Si15Os
_chemical_formula_sum   'La2 Y5 Tm13 Si15 Os1'
_cell_volume   824.27014536
_cell_formula_units_Z   1
loop_
 _symmetry_equiv_pos_site_id
 _symmetry_equiv_pos_as_xyz
  1  'x, y, z'
loop_
 _atom_site_type_symbol
 _atom_site_label
 _atom_site_symmetry_multiplicity
 _atom_site_fract_x
 _atom_site_fract_y
 _atom_site_fract_z
 _atom_site_occupancy
  La  La0  1  0.520652  0.570551  0.342239  1
  La  La1  1  0.023097  0.427231  0.658163  1
  Y  Y2  1  0.975667  0.068198  0.151287  1
  Y  Y3  1  0.477890  0.923932  0.150872  1
  Y  Y4  1  0.974327  0.068940  0.849118  1
  Y  Y5  1  0.526084  0.566796  0.653021  1
  Y  Y6  1  0.024619  0.431236  0.346948  1
  Tm  Tm7  1  0.804704  0.578560  0.877790  1
  Tm  Tm8  1  0.326501  0.432912  0.122009  1
  Tm  Tm9  1  0.182967  0.926812  0.373505  1
  Tm  Tm10  1  0.681829  0.069702  0.626538  1
  Tm  Tm11  1  0.182919  0.925911  0.627941  1
  Tm  Tm12  1  0.681542  0.070858  0.372679  1
  Tm  Tm13  1  0.808465  0.575491  0.122361  1
  Tm  Tm14  1  0.329053  0.437360  0.876346  1
  Tm  Tm15  1  0.643688  0.242262  0.999159  1
  Tm  Tm16  1  0.159021  0.759413  0.000072  1
  Tm  Tm17  1  0.350184  0.261830  0.500057  1
  Tm  Tm18  1  0.848904  0.736293  0.499896  1
  Tm  Tm19  1  0.478937  0.922641  0.850297  1
  Si  Si20  1  0.018099  0.353333  0.999506  1
  Si  Si21  1  0.477132  0.862601  0.501272  1
  Si  Si22  1  0.979622  0.136167  0.498891  1
  Si  Si23  1  0.653294  0.274296  0.789999  1
  Si  Si24  1  0.147668  0.720160  0.209692  1
  Si  Si25  1  0.350382  0.214124  0.286533  1
  Si  Si26  1  0.849192  0.785250  0.712725  1
  Si  Si27  1  0.360060  0.215883  0.712578  1
  Si  Si28  1  0.857363  0.782209  0.288359  1
  Si  Si29  1  0.650907  0.269092  0.207689  1
  Si  Si30  1  0.144653  0.727955  0.792810  1
  Si  Si31  1  0.769510  0.883906  0.999900  1
  Si  Si32  1  0.261403  0.125616  0.999159  1
  Si  Si33  1  0.229490  0.625411  0.502020  1
  Si  Si34  1  0.731152  0.373948  0.499114  1
  Os  Os35  1  0.519022  0.653121  0.999451  1
