# generated using pymatgen
data_Tb8Zn2CoSi12Pd
_symmetry_space_group_name_H-M   'P 1'
_cell_length_a   8.08793000
_cell_length_b   8.08792927
_cell_length_c   8.16894400
_cell_angle_alpha   90.00000000
_cell_angle_beta   90.00000000
_cell_angle_gamma   120.00000299
_symmetry_Int_Tables_number   1
_chemical_formula_structural   Tb8Zn2CoSi12Pd
_chemical_formula_sum   'Tb8 Zn2 Co1 Si12 Pd1'
_cell_volume   462.77646670
_cell_formula_units_Z   1
loop_
 _symmetry_equiv_pos_site_id
 _symmetry_equiv_pos_as_xyz
  1  'x, y, z'
loop_
 _atom_site_type_symbol
 _atom_site_label
 _atom_site_symmetry_multiplicity
 _atom_site_fract_x
 _atom_site_fract_y
 _atom_site_fract_z
 _atom_site_occupancy
  Tb  Tb0  1  0.497591  0.995181  0.246237  1
  Tb  Tb1  1  0.496810  0.993621  0.753058  1
  Tb  Tb2  1  0.004819  0.502409  0.246237  1
  Tb  Tb3  1  0.006379  0.503190  0.753058  1
  Tb  Tb4  1  0.497591  0.502409  0.246237  1
  Tb  Tb5  1  0.496810  0.503190  0.753058  1
  Tb  Tb6  1  0.000000  0.000000  0.249827  1
  Tb  Tb7  1  0.000000  0.000000  0.751220  1
  Zn  Zn8  1  0.666667  0.333333  0.995777  1
  Zn  Zn9  1  0.666667  0.333333  0.499969  1
  Co  Co10  1  0.333333  0.666667  0.003725  1
  Si  Si11  1  0.175115  0.350231  0.998748  1
  Si  Si12  1  0.836733  0.673466  0.001691  1
  Si  Si13  1  0.649769  0.824885  0.998748  1
  Si  Si14  1  0.834947  0.669893  0.501754  1
  Si  Si15  1  0.326534  0.163267  0.001691  1
  Si  Si16  1  0.166936  0.333871  0.498611  1
  Si  Si17  1  0.175115  0.824885  0.998748  1
  Si  Si18  1  0.330107  0.165053  0.501754  1
  Si  Si19  1  0.836733  0.163267  0.001691  1
  Si  Si20  1  0.666129  0.833064  0.498611  1
  Si  Si21  1  0.834947  0.165053  0.501754  1
  Si  Si22  1  0.166936  0.833064  0.498611  1
  Pd  Pd23  1  0.333333  0.666667  0.499191  1
