# generated using pymatgen
data_Eu4Al18Ir5Rh
_symmetry_space_group_name_H-M   'P 1'
_cell_length_a   7.63280303
_cell_length_b   7.63280675
_cell_length_c   9.64515200
_cell_angle_alpha   89.99534596
_cell_angle_beta   89.99523336
_cell_angle_gamma   119.29084400
_symmetry_Int_Tables_number   1
_chemical_formula_structural   Eu4Al18Ir5Rh
_chemical_formula_sum   'Eu4 Al18 Ir5 Rh1'
_cell_volume   490.08037936
_cell_formula_units_Z   1
loop_
 _symmetry_equiv_pos_site_id
 _symmetry_equiv_pos_as_xyz
  1  'x, y, z'
loop_
 _atom_site_type_symbol
 _atom_site_label
 _atom_site_symmetry_multiplicity
 _atom_site_fract_x
 _atom_site_fract_y
 _atom_site_fract_z
 _atom_site_occupancy
  Eu  Eu0  1  0.995116  0.670639  0.250362  1
  Eu  Eu1  1  0.004884  0.329361  0.749638  1
  Eu  Eu2  1  0.670640  0.995115  0.250362  1
  Eu  Eu3  1  0.329360  0.004885  0.749638  1
  Al  Al4  1  0.129998  0.129997  0.249747  1
  Al  Al5  1  0.870002  0.870003  0.750253  1
  Al  Al6  1  0.002590  0.335351  0.071521  1
  Al  Al7  1  0.997410  0.664649  0.928479  1
  Al  Al8  1  0.997506  0.664813  0.571348  1
  Al  Al9  1  0.335187  0.002494  0.428652  1
  Al  Al10  1  0.002494  0.335187  0.428652  1
  Al  Al11  1  0.664813  0.997506  0.571348  1
  Al  Al12  1  0.664650  0.997410  0.928479  1
  Al  Al13  1  0.335350  0.002590  0.071521  1
  Al  Al14  1  0.334075  0.334075  0.545452  1
  Al  Al15  1  0.665925  0.665925  0.454548  1
  Al  Al16  1  0.665459  0.665459  0.045870  1
  Al  Al17  1  0.334541  0.334541  0.954130  1
  Al  Al18  1  0.338037  0.546164  0.249903  1
  Al  Al19  1  0.661963  0.453836  0.750097  1
  Al  Al20  1  0.546164  0.338037  0.249903  1
  Al  Al21  1  0.453836  0.661963  0.750097  1
  Ir  Ir22  1  0.670970  0.329027  0.000000  1
  Ir  Ir23  1  0.329030  0.670973  0.000000  1
  Ir  Ir24  1  0.329361  0.670637  0.499999  1
  Ir  Ir25  1  0.670639  0.329363  0.500001  1
  Ir  Ir26  1  0.000000  0.000000  0.500000  1
  Rh  Rh27  1  0.000000  0.000000  0.000000  1
