# generated using pymatgen
data_Pr4Al14Ga(SiIr2)3
_symmetry_space_group_name_H-M   'P 1'
_cell_length_a   7.59930336
_cell_length_b   7.57646011
_cell_length_c   9.54655575
_cell_angle_alpha   89.97613165
_cell_angle_beta   89.85999774
_cell_angle_gamma   119.74157722
_symmetry_Int_Tables_number   1
_chemical_formula_structural   Pr4Al14Ga(SiIr2)3
_chemical_formula_sum   'Pr4 Al14 Ga1 Si3 Ir6'
_cell_volume   477.24396739
_cell_formula_units_Z   1
loop_
 _symmetry_equiv_pos_site_id
 _symmetry_equiv_pos_as_xyz
  1  'x, y, z'
loop_
 _atom_site_type_symbol
 _atom_site_label
 _atom_site_symmetry_multiplicity
 _atom_site_fract_x
 _atom_site_fract_y
 _atom_site_fract_z
 _atom_site_occupancy
  Pr  Pr0  1  0.993515  0.669058  0.245421  1
  Pr  Pr1  1  0.004664  0.332876  0.754301  1
  Pr  Pr2  1  0.677147  0.998115  0.248124  1
  Pr  Pr3  1  0.324997  0.999902  0.752161  1
  Al  Al4  1  0.996925  0.665687  0.566102  1
  Al  Al5  1  0.337094  0.001413  0.427611  1
  Al  Al6  1  0.002642  0.336156  0.431798  1
  Al  Al7  1  0.665093  0.998460  0.571382  1
  Al  Al8  1  0.661361  0.993399  0.925239  1
  Al  Al9  1  0.340718  0.006775  0.075633  1
  Al  Al10  1  0.334643  0.333776  0.553272  1
  Al  Al11  1  0.662807  0.663742  0.448877  1
  Al  Al12  1  0.659494  0.663049  0.052595  1
  Al  Al13  1  0.337794  0.334800  0.944636  1
  Al  Al14  1  0.334699  0.545238  0.250235  1
  Al  Al15  1  0.662191  0.453939  0.749779  1
  Al  Al16  1  0.545701  0.338008  0.251154  1
  Al  Al17  1  0.454251  0.660272  0.749245  1
  Ga  Ga18  1  0.866469  0.869577  0.748854  1
  Si  Si19  1  0.136440  0.130838  0.251258  1
  Si  Si20  1  0.004090  0.332377  0.073544  1
  Si  Si21  1  0.995522  0.669925  0.928020  1
  Ir  Ir22  1  0.685379  0.336992  0.001417  1
  Ir  Ir23  1  0.312808  0.661566  0.999504  1
  Ir  Ir24  1  0.328019  0.669057  0.499770  1
  Ir  Ir25  1  0.670658  0.329560  0.499788  1
  Ir  Ir26  1  0.002600  0.003400  0.009492  1
  Ir  Ir27  1  0.002281  0.002045  0.490785  1
