# generated using pymatgen
data_Tb3DyTl4
_symmetry_space_group_name_H-M   'P 1'
_cell_length_a   6.57433860
_cell_length_b   6.57433815
_cell_length_c   10.96481900
_cell_angle_alpha   90.00000000
_cell_angle_beta   90.00000000
_cell_angle_gamma   109.97049944
_symmetry_Int_Tables_number   1
_chemical_formula_structural   Tb3DyTl4
_chemical_formula_sum   'Tb6 Dy2 Tl8'
_cell_volume   445.42307468
_cell_formula_units_Z   2
loop_
 _symmetry_equiv_pos_site_id
 _symmetry_equiv_pos_as_xyz
  1  'x, y, z'
loop_
 _atom_site_type_symbol
 _atom_site_label
 _atom_site_symmetry_multiplicity
 _atom_site_fract_x
 _atom_site_fract_y
 _atom_site_fract_z
 _atom_site_occupancy
  Tb  Tb0  1  0.507447  0.507447  0.250000  1
  Tb  Tb1  1  0.492553  0.492553  0.750000  1
  Tb  Tb2  1  0.248935  0.751065  0.500000  1
  Tb  Tb3  1  0.248935  0.751065  0.000000  1
  Tb  Tb4  1  0.751065  0.248935  0.500000  1
  Tb  Tb5  1  0.751065  0.248935  0.000000  1
  Dy  Dy6  1  0.994640  0.994640  0.250000  1
  Dy  Dy7  1  0.005360  0.005360  0.750000  1
  Tl  Tl8  1  0.250528  0.250528  0.003985  1
  Tl  Tl9  1  0.749472  0.749472  0.996015  1
  Tl  Tl10  1  0.250528  0.250528  0.496015  1
  Tl  Tl11  1  0.749472  0.749472  0.503985  1
  Tl  Tl12  1  0.496984  0.004061  0.250000  1
  Tl  Tl13  1  0.995939  0.503016  0.750000  1
  Tl  Tl14  1  0.503016  0.995939  0.750000  1
  Tl  Tl15  1  0.004061  0.496984  0.250000  1
