# generated using pymatgen
data_Dy5HoAl20(SiRu2)4
_symmetry_space_group_name_H-M   'P 1'
_cell_length_a   8.68797100
_cell_length_b   8.68797108
_cell_length_c   9.63017200
_cell_angle_alpha   90.00000000
_cell_angle_beta   90.00000000
_cell_angle_gamma   120.00323363
_symmetry_Int_Tables_number   1
_chemical_formula_structural   Dy5HoAl20(SiRu2)4
_chemical_formula_sum   'Dy5 Ho1 Al20 Si4 Ru8'
_cell_volume   629.48770668
_cell_formula_units_Z   1
loop_
 _symmetry_equiv_pos_site_id
 _symmetry_equiv_pos_as_xyz
  1  'x, y, z'
loop_
 _atom_site_type_symbol
 _atom_site_label
 _atom_site_symmetry_multiplicity
 _atom_site_fract_x
 _atom_site_fract_y
 _atom_site_fract_z
 _atom_site_occupancy
  Dy  Dy0  1  0.195224  0.390454  0.250000  1
  Dy  Dy1  1  0.804788  0.609503  0.750000  1
  Dy  Dy2  1  0.609546  0.804776  0.250000  1
  Dy  Dy3  1  0.390497  0.195212  0.750000  1
  Dy  Dy4  1  0.195228  0.804772  0.250000  1
  Ho  Ho5  1  0.804638  0.195362  0.750000  1
  Al  Al6  1  0.164842  0.329766  0.577289  1
  Al  Al7  1  0.835122  0.670221  0.422731  1
  Al  Al8  1  0.670234  0.835158  0.577289  1
  Al  Al9  1  0.835122  0.670221  0.077269  1
  Al  Al10  1  0.329779  0.164878  0.422731  1
  Al  Al11  1  0.164842  0.329766  0.922711  1
  Al  Al12  1  0.164892  0.835108  0.577269  1
  Al  Al13  1  0.329779  0.164878  0.077269  1
  Al  Al14  1  0.835102  0.164898  0.422768  1
  Al  Al15  1  0.670234  0.835158  0.922711  1
  Al  Al16  1  0.835102  0.164898  0.077232  1
  Al  Al17  1  0.164892  0.835108  0.922731  1
  Al  Al18  1  0.563488  0.126971  0.250000  1
  Al  Al19  1  0.436602  0.873111  0.750000  1
  Al  Al20  1  0.873029  0.436512  0.250000  1
  Al  Al21  1  0.126889  0.563398  0.750000  1
  Al  Al22  1  0.563492  0.436508  0.250000  1
  Al  Al23  1  0.436502  0.563498  0.750000  1
  Al  Al24  1  0.000002  0.999998  0.250000  1
  Al  Al25  1  0.999964  0.000036  0.750000  1
  Si  Si26  1  0.333332  0.666668  0.037031  1
  Si  Si27  1  0.666726  0.333274  0.962899  1
  Si  Si28  1  0.666726  0.333274  0.537101  1
  Si  Si29  1  0.333332  0.666668  0.462969  1
  Ru  Ru30  1  0.500057  0.000029  0.999965  1
  Ru  Ru31  1  0.999971  0.499943  0.999965  1
  Ru  Ru32  1  0.500057  0.000029  0.500035  1
  Ru  Ru33  1  0.500008  0.499992  0.999998  1
  Ru  Ru34  1  0.999971  0.499943  0.500035  1
  Ru  Ru35  1  0.500008  0.499992  0.500002  1
  Ru  Ru36  1  0.999991  0.000009  0.999992  1
  Ru  Ru37  1  0.999991  0.000009  0.500008  1
