# generated using pymatgen
data_Tm5InPb2Cl
_symmetry_space_group_name_H-M   'P 1'
_cell_length_a   9.09085100
_cell_length_b   9.09085020
_cell_length_c   6.60677300
_cell_angle_alpha   90.00000000
_cell_angle_beta   90.00000000
_cell_angle_gamma   119.90282549
_symmetry_Int_Tables_number   1
_chemical_formula_structural   Tm5InPb2Cl
_chemical_formula_sum   'Tm10 In2 Pb4 Cl2'
_cell_volume   473.31850582
_cell_formula_units_Z   2
loop_
 _symmetry_equiv_pos_site_id
 _symmetry_equiv_pos_as_xyz
  1  'x, y, z'
loop_
 _atom_site_type_symbol
 _atom_site_label
 _atom_site_symmetry_multiplicity
 _atom_site_fract_x
 _atom_site_fract_y
 _atom_site_fract_z
 _atom_site_occupancy
  Tm  Tm0  1  0.736598  0.736598  0.250000  1
  Tm  Tm1  1  0.995432  0.738570  0.750000  1
  Tm  Tm2  1  0.738570  0.995432  0.750000  1
  Tm  Tm3  1  0.336270  0.663730  0.500000  1
  Tm  Tm4  1  0.263402  0.263402  0.750000  1
  Tm  Tm5  1  0.004568  0.261430  0.250000  1
  Tm  Tm6  1  0.663730  0.336270  0.500000  1
  Tm  Tm7  1  0.261430  0.004568  0.250000  1
  Tm  Tm8  1  0.336270  0.663730  0.000000  1
  Tm  Tm9  1  0.663730  0.336270  0.000000  1
  In  In10  1  0.392232  0.392232  0.250000  1
  In  In11  1  0.607768  0.607768  0.750000  1
  Pb  Pb12  1  0.388483  0.998095  0.750000  1
  Pb  Pb13  1  0.001905  0.611517  0.250000  1
  Pb  Pb14  1  0.611517  0.001905  0.250000  1
  Pb  Pb15  1  0.998095  0.388483  0.750000  1
  Cl  Cl16  1  0.000000  0.000000  0.500000  1
  Cl  Cl17  1  0.000000  0.000000  0.000000  1
