# generated using pymatgen
data_EuCdSn2Pd
_symmetry_space_group_name_H-M   'P 1'
_cell_length_a   4.61792300
_cell_length_b   4.61792300
_cell_length_c   11.85291300
_cell_angle_alpha   90.00000000
_cell_angle_beta   90.00000000
_cell_angle_gamma   90.00000000
_symmetry_Int_Tables_number   1
_chemical_formula_structural   EuCdSn2Pd
_chemical_formula_sum   'Eu2 Cd2 Sn4 Pd2'
_cell_volume   252.76589243
_cell_formula_units_Z   2
loop_
 _symmetry_equiv_pos_site_id
 _symmetry_equiv_pos_as_xyz
  1  'x, y, z'
loop_
 _atom_site_type_symbol
 _atom_site_label
 _atom_site_symmetry_multiplicity
 _atom_site_fract_x
 _atom_site_fract_y
 _atom_site_fract_z
 _atom_site_occupancy
  Eu  Eu0  1  0.000000  0.500000  0.264134  1
  Eu  Eu1  1  0.500000  0.000000  0.735866  1
  Cd  Cd2  1  0.000000  0.000000  0.000000  1
  Cd  Cd3  1  0.500000  0.500000  0.000000  1
  Sn  Sn4  1  0.000000  0.000000  0.500000  1
  Sn  Sn5  1  0.500000  0.500000  0.500000  1
  Sn  Sn6  1  0.000000  0.500000  0.843435  1
  Sn  Sn7  1  0.500000  0.000000  0.156565  1
  Pd  Pd8  1  0.000000  0.500000  0.622682  1
  Pd  Pd9  1  0.500000  0.000000  0.377318  1
