# generated using pymatgen
data_Er3TmLu4In3Pd
_symmetry_space_group_name_H-M   'P 1'
_cell_length_a   10.34994600
_cell_length_b   10.34994586
_cell_length_c   6.89571000
_cell_angle_alpha   90.00000000
_cell_angle_beta   90.00000000
_cell_angle_gamma   120.00000045
_symmetry_Int_Tables_number   1
_chemical_formula_structural   Er3TmLu4In3Pd
_chemical_formula_sum   'Er6 Tm2 Lu8 In6 Pd2'
_cell_volume   639.71388981
_cell_formula_units_Z   2
loop_
 _symmetry_equiv_pos_site_id
 _symmetry_equiv_pos_as_xyz
  1  'x, y, z'
loop_
 _atom_site_type_symbol
 _atom_site_label
 _atom_site_symmetry_multiplicity
 _atom_site_fract_x
 _atom_site_fract_y
 _atom_site_fract_z
 _atom_site_occupancy
  Er  Er0  1  0.529219  0.058440  0.518834  1
  Er  Er1  1  0.941560  0.470781  0.518834  1
  Er  Er2  1  0.529219  0.470781  0.518834  1
  Er  Er3  1  0.470781  0.941560  0.018834  1
  Er  Er4  1  0.058440  0.529219  0.018834  1
  Er  Er5  1  0.470781  0.529219  0.018834  1
  Tm  Tm6  1  0.000000  0.000000  0.497214  1
  Tm  Tm7  1  0.000000  0.000000  0.997214  1
  Lu  Lu8  1  0.175023  0.350047  0.723451  1
  Lu  Lu9  1  0.649953  0.824977  0.723451  1
  Lu  Lu10  1  0.175023  0.824977  0.723451  1
  Lu  Lu11  1  0.824977  0.649953  0.223451  1
  Lu  Lu12  1  0.350047  0.175023  0.223451  1
  Lu  Lu13  1  0.824977  0.175023  0.223451  1
  Lu  Lu14  1  0.666667  0.333333  0.890746  1
  Lu  Lu15  1  0.333333  0.666667  0.390746  1
  In  In16  1  0.836756  0.673513  0.760106  1
  In  In17  1  0.326487  0.163244  0.760106  1
  In  In18  1  0.836756  0.163244  0.760106  1
  In  In19  1  0.163244  0.326487  0.260106  1
  In  In20  1  0.673513  0.836756  0.260106  1
  In  In21  1  0.163244  0.836756  0.260106  1
  Pd  Pd22  1  0.666667  0.333333  0.283868  1
  Pd  Pd23  1  0.333333  0.666667  0.783868  1
