# generated using pymatgen
data_HfScP7Ru12
_symmetry_space_group_name_H-M   'P 1'
_cell_length_a   9.36512800
_cell_length_b   9.36512771
_cell_length_c   3.90619500
_cell_angle_alpha   90.00000000
_cell_angle_beta   90.00000000
_cell_angle_gamma   119.99999396
_symmetry_Int_Tables_number   1
_chemical_formula_structural   HfScP7Ru12
_chemical_formula_sum   'Hf1 Sc1 P7 Ru12'
_cell_volume   296.69621063
_cell_formula_units_Z   1
loop_
 _symmetry_equiv_pos_site_id
 _symmetry_equiv_pos_as_xyz
  1  'x, y, z'
loop_
 _atom_site_type_symbol
 _atom_site_label
 _atom_site_symmetry_multiplicity
 _atom_site_fract_x
 _atom_site_fract_y
 _atom_site_fract_z
 _atom_site_occupancy
  Hf  Hf0  1  0.666667  0.333333  0.500000  1
  Sc  Sc1  1  0.333333  0.666667  0.000000  1
  P  P2  1  0.596178  0.719096  0.500000  1
  P  P3  1  0.000000  0.000000  0.000000  1
  P  P4  1  0.280904  0.877083  0.500000  1
  P  P5  1  0.122917  0.403822  0.500000  1
  P  P6  1  0.884348  0.574184  0.000000  1
  P  P7  1  0.425816  0.310164  0.000000  1
  P  P8  1  0.689836  0.115652  0.000000  1
  Ru  Ru9  1  0.553958  0.949091  0.500000  1
  Ru  Ru10  1  0.395134  0.446042  0.500000  1
  Ru  Ru11  1  0.913358  0.124097  0.500000  1
  Ru  Ru12  1  0.210739  0.086642  0.500000  1
  Ru  Ru13  1  0.875903  0.789261  0.500000  1
  Ru  Ru14  1  0.725511  0.889291  0.000000  1
  Ru  Ru15  1  0.110709  0.836218  0.000000  1
  Ru  Ru16  1  0.163782  0.274489  0.000000  1
  Ru  Ru17  1  0.429653  0.073198  0.000000  1
  Ru  Ru18  1  0.926802  0.356456  0.000000  1
  Ru  Ru19  1  0.643544  0.570347  0.000000  1
  Ru  Ru20  1  0.050909  0.604866  0.500000  1
