# generated using pymatgen
data_PrScP7Ru11Rh
_symmetry_space_group_name_H-M   'P 1'
_cell_length_a   9.40269680
_cell_length_b   9.45376294
_cell_length_c   3.93627300
_cell_angle_alpha   90.00000000
_cell_angle_beta   90.00000000
_cell_angle_gamma   119.73080253
_symmetry_Int_Tables_number   1
_chemical_formula_structural   PrScP7Ru11Rh
_chemical_formula_sum   'Pr1 Sc1 P7 Ru11 Rh1'
_cell_volume   303.83980994
_cell_formula_units_Z   1
loop_
 _symmetry_equiv_pos_site_id
 _symmetry_equiv_pos_as_xyz
  1  'x, y, z'
loop_
 _atom_site_type_symbol
 _atom_site_label
 _atom_site_symmetry_multiplicity
 _atom_site_fract_x
 _atom_site_fract_y
 _atom_site_fract_z
 _atom_site_occupancy
  Pr  Pr0  1  0.331844  0.663271  0.000000  1
  Sc  Sc1  1  0.668944  0.335122  0.500000  1
  P  P2  1  0.604344  0.712942  0.500000  1
  P  P3  1  0.997775  0.999630  0.000000  1
  P  P4  1  0.278264  0.884764  0.500000  1
  P  P5  1  0.113374  0.395536  0.500000  1
  P  P6  1  0.885376  0.572915  0.000000  1
  P  P7  1  0.430427  0.312598  0.000000  1
  P  P8  1  0.692358  0.120867  0.000000  1
  Ru  Ru9  1  0.395184  0.437142  0.500000  1
  Ru  Ru10  1  0.912031  0.121926  0.500000  1
  Ru  Ru11  1  0.207407  0.086371  0.500000  1
  Ru  Ru12  1  0.880074  0.796366  0.500000  1
  Ru  Ru13  1  0.724877  0.891802  0.000000  1
  Ru  Ru14  1  0.109267  0.837832  0.000000  1
  Ru  Ru15  1  0.163460  0.270124  0.000000  1
  Ru  Ru16  1  0.428924  0.072049  0.000000  1
  Ru  Ru17  1  0.930537  0.356889  0.000000  1
  Ru  Ru18  1  0.646035  0.574880  0.000000  1
  Ru  Ru19  1  0.043863  0.604764  0.500000  1
  Rh  Rh20  1  0.555633  0.952209  0.500000  1
