# generated using pymatgen
data_Tb2Ho2Mg3ZnIr4
_symmetry_space_group_name_H-M   'P 1'
_cell_length_a   4.08961300
_cell_length_b   7.05339113
_cell_length_c   8.45717436
_cell_angle_alpha   89.88334882
_cell_angle_beta   90.00000000
_cell_angle_gamma   90.00000000
_symmetry_Int_Tables_number   1
_chemical_formula_structural   Tb2Ho2Mg3ZnIr4
_chemical_formula_sum   'Tb2 Ho2 Mg3 Zn1 Ir4'
_cell_volume   243.95210195
_cell_formula_units_Z   1
loop_
 _symmetry_equiv_pos_site_id
 _symmetry_equiv_pos_as_xyz
  1  'x, y, z'
loop_
 _atom_site_type_symbol
 _atom_site_label
 _atom_site_symmetry_multiplicity
 _atom_site_fract_x
 _atom_site_fract_y
 _atom_site_fract_z
 _atom_site_occupancy
  Tb  Tb0  1  0.250000  0.535848  0.180760  1
  Tb  Tb1  1  0.250000  0.046989  0.328642  1
  Ho  Ho2  1  0.750000  0.458405  0.821809  1
  Ho  Ho3  1  0.750000  0.962497  0.673952  1
  Mg  Mg4  1  0.250000  0.135618  0.938294  1
  Mg  Mg5  1  0.750000  0.863897  0.060432  1
  Mg  Mg6  1  0.250000  0.631140  0.557327  1
  Zn  Zn7  1  0.750000  0.365855  0.438660  1
  Ir  Ir8  1  0.750000  0.747337  0.372897  1
  Ir  Ir9  1  0.250000  0.254734  0.626087  1
  Ir  Ir10  1  0.750000  0.248427  0.131827  1
  Ir  Ir11  1  0.250000  0.749252  0.869314  1
