# generated using pymatgen
data_TbHoPd2F14
_symmetry_space_group_name_H-M   'P 1'
_cell_length_a   5.52016400
_cell_length_b   8.84129066
_cell_length_c   11.93116300
_cell_angle_alpha   62.45840603
_cell_angle_beta   90.00000000
_cell_angle_gamma   90.00000000
_symmetry_Int_Tables_number   1
_chemical_formula_structural   TbHoPd2F14
_chemical_formula_sum   'Tb2 Ho2 Pd4 F28'
_cell_volume   516.31540593
_cell_formula_units_Z   2
loop_
 _symmetry_equiv_pos_site_id
 _symmetry_equiv_pos_as_xyz
  1  'x, y, z'
loop_
 _atom_site_type_symbol
 _atom_site_label
 _atom_site_symmetry_multiplicity
 _atom_site_fract_x
 _atom_site_fract_y
 _atom_site_fract_z
 _atom_site_occupancy
  Tb  Tb0  1  0.761202  0.812496  0.764863  1
  Tb  Tb1  1  0.261202  0.187504  0.735137  1
  Ho  Ho2  1  0.238536  0.185866  0.235549  1
  Ho  Ho3  1  0.738536  0.814134  0.264451  1
  Pd  Pd4  1  0.758464  0.271553  0.958240  1
  Pd  Pd5  1  0.258464  0.728447  0.541760  1
  Pd  Pd6  1  0.241254  0.726913  0.044219  1
  Pd  Pd7  1  0.741254  0.273087  0.455781  1
  F  F8  1  0.434053  0.701770  0.917254  1
  F  F9  1  0.934053  0.298230  0.582746  1
  F  F10  1  0.564251  0.297428  0.084481  1
  F  F11  1  0.064251  0.702572  0.415519  1
  F  F12  1  0.441104  0.279520  0.539889  1
  F  F13  1  0.941104  0.720480  0.960111  1
  F  F14  1  0.559769  0.722073  0.457870  1
  F  F15  1  0.059769  0.277927  0.042130  1
  F  F16  1  0.775240  0.518610  0.859531  1
  F  F17  1  0.275240  0.481390  0.640469  1
  F  F18  1  0.225170  0.479127  0.141779  1
  F  F19  1  0.725170  0.520873  0.358221  1
  F  F20  1  0.753962  0.023760  0.049875  1
  F  F21  1  0.253962  0.976240  0.450125  1
  F  F22  1  0.245654  0.974609  0.951977  1
  F  F23  1  0.745654  0.025391  0.548023  1
  F  F24  1  0.966510  0.724018  0.634486  1
  F  F25  1  0.466510  0.275982  0.865514  1
  F  F26  1  0.033773  0.275438  0.363723  1
  F  F27  1  0.533773  0.724562  0.136277  1
  F  F28  1  0.052920  0.745365  0.175858  1
  F  F29  1  0.552920  0.254635  0.324142  1
  F  F30  1  0.944693  0.254809  0.825551  1
  F  F31  1  0.444693  0.745191  0.674449  1
  F  F32  1  0.414952  0.970027  0.232293  1
  F  F33  1  0.914952  0.029973  0.267707  1
  F  F34  1  0.588491  0.031612  0.768342  1
  F  F35  1  0.088491  0.968388  0.731658  1
