# generated using pymatgen
data_Tb3Nd2Nb3(Co4P3)4
_symmetry_space_group_name_H-M   'P 1'
_cell_length_a   12.28767600
_cell_length_b   12.28767637
_cell_length_c   3.73295200
_cell_angle_alpha   90.00000000
_cell_angle_beta   90.00000000
_cell_angle_gamma   119.99999900
_symmetry_Int_Tables_number   1
_chemical_formula_structural   Tb3Nd2Nb3(Co4P3)4
_chemical_formula_sum   'Tb3 Nd2 Nb3 Co16 P12'
_cell_volume   488.11545380
_cell_formula_units_Z   1
loop_
 _symmetry_equiv_pos_site_id
 _symmetry_equiv_pos_as_xyz
  1  'x, y, z'
loop_
 _atom_site_type_symbol
 _atom_site_label
 _atom_site_symmetry_multiplicity
 _atom_site_fract_x
 _atom_site_fract_y
 _atom_site_fract_z
 _atom_site_occupancy
  Tb  Tb0  1  0.815929  0.000000  0.500000  1
  Tb  Tb1  1  0.000000  0.815929  0.500000  1
  Tb  Tb2  1  0.184071  0.184071  0.500000  1
  Nd  Nd3  1  0.333333  0.666667  0.000000  1
  Nd  Nd4  1  0.666667  0.333333  0.000000  1
  Nb  Nb5  1  0.443457  0.000000  0.000000  1
  Nb  Nb6  1  0.000000  0.443457  0.000000  1
  Nb  Nb7  1  0.556543  0.556543  0.000000  1
  Co  Co8  1  0.277896  0.000000  0.500000  1
  Co  Co9  1  0.000000  0.277896  0.500000  1
  Co  Co10  1  0.722104  0.722104  0.500000  1
  Co  Co11  1  0.627964  0.804002  0.000000  1
  Co  Co12  1  0.195998  0.823962  0.000000  1
  Co  Co13  1  0.176038  0.372036  0.000000  1
  Co  Co14  1  0.372036  0.176038  0.000000  1
  Co  Co15  1  0.804002  0.627964  0.000000  1
  Co  Co16  1  0.823962  0.195998  0.000000  1
  Co  Co17  1  0.521855  0.875424  0.500000  1
  Co  Co18  1  0.124576  0.646431  0.500000  1
  Co  Co19  1  0.353569  0.478145  0.500000  1
  Co  Co20  1  0.478145  0.353569  0.500000  1
  Co  Co21  1  0.875424  0.521855  0.500000  1
  Co  Co22  1  0.646431  0.124576  0.500000  1
  Co  Co23  1  0.000000  0.000000  0.000000  1
  P  P24  1  0.177946  0.000000  0.000000  1
  P  P25  1  0.000000  0.177946  0.000000  1
  P  P26  1  0.822054  0.822054  0.000000  1
  P  P27  1  0.524951  0.690436  0.500000  1
  P  P28  1  0.309564  0.834515  0.500000  1
  P  P29  1  0.165485  0.475049  0.500000  1
  P  P30  1  0.475049  0.165485  0.500000  1
  P  P31  1  0.690436  0.524951  0.500000  1
  P  P32  1  0.834515  0.309564  0.500000  1
  P  P33  1  0.642726  0.000000  0.000000  1
  P  P34  1  0.000000  0.642726  0.000000  1
  P  P35  1  0.357274  0.357274  0.000000  1
