# generated using pymatgen
data_NpZnAsN
_symmetry_space_group_name_H-M   'P 1'
_cell_length_a   3.91185723
_cell_length_b   3.91185723
_cell_length_c   8.88755495
_cell_angle_alpha   89.96202220
_cell_angle_beta   89.96202220
_cell_angle_gamma   90.00617441
_symmetry_Int_Tables_number   1
_chemical_formula_structural   NpZnAsN
_chemical_formula_sum   'Np2 Zn2 As2 N2'
_cell_volume   136.00287744
_cell_formula_units_Z   2
loop_
 _symmetry_equiv_pos_site_id
 _symmetry_equiv_pos_as_xyz
  1  'x, y, z'
loop_
 _atom_site_type_symbol
 _atom_site_label
 _atom_site_symmetry_multiplicity
 _atom_site_fract_x
 _atom_site_fract_y
 _atom_site_fract_z
 _atom_site_occupancy
  Np  Np0  1  0.249386  0.249386  0.125671  1
  Np  Np1  1  0.749702  0.749702  0.873710  1
  Zn  Zn2  1  0.750175  0.250125  0.500121  1
  Zn  Zn3  1  0.250125  0.750175  0.500121  1
  As  As4  1  0.749759  0.749759  0.311464  1
  As  As5  1  0.250187  0.250187  0.689062  1
  N  N6  1  0.750241  0.250437  0.999924  1
  N  N7  1  0.250437  0.750241  0.999924  1
