# generated using pymatgen
data_Hf17ScRe6(BW)2
_symmetry_space_group_name_H-M   'P 1'
_cell_length_a   8.51340413
_cell_length_b   8.51340431
_cell_length_c   8.49692200
_cell_angle_alpha   90.00000000
_cell_angle_beta   90.00000000
_cell_angle_gamma   120.01965577
_symmetry_Int_Tables_number   1
_chemical_formula_structural   Hf17ScRe6(BW)2
_chemical_formula_sum   'Hf17 Sc1 Re6 B2 W2'
_cell_volume   533.22772117
_cell_formula_units_Z   1
loop_
 _symmetry_equiv_pos_site_id
 _symmetry_equiv_pos_as_xyz
  1  'x, y, z'
loop_
 _atom_site_type_symbol
 _atom_site_label
 _atom_site_symmetry_multiplicity
 _atom_site_fract_x
 _atom_site_fract_y
 _atom_site_fract_z
 _atom_site_occupancy
  Hf  Hf0  1  0.201814  0.798186  0.444272  1
  Hf  Hf1  1  0.202158  0.403602  0.444091  1
  Hf  Hf2  1  0.596398  0.797842  0.444091  1
  Hf  Hf3  1  0.798111  0.201889  0.555184  1
  Hf  Hf4  1  0.798206  0.596609  0.555781  1
  Hf  Hf5  1  0.403391  0.201794  0.555781  1
  Hf  Hf6  1  0.798111  0.201889  0.944816  1
  Hf  Hf7  1  0.798206  0.596609  0.944219  1
  Hf  Hf8  1  0.403391  0.201794  0.944219  1
  Hf  Hf9  1  0.201814  0.798186  0.055728  1
  Hf  Hf10  1  0.202158  0.403602  0.055909  1
  Hf  Hf11  1  0.596398  0.797842  0.055909  1
  Hf  Hf12  1  0.540012  0.080272  0.250000  1
  Hf  Hf13  1  0.919728  0.459988  0.250000  1
  Hf  Hf14  1  0.459570  0.540430  0.750000  1
  Hf  Hf15  1  0.459820  0.919633  0.750000  1
  Hf  Hf16  1  0.080367  0.540180  0.750000  1
  Sc  Sc17  1  0.540944  0.459056  0.250000  1
  Re  Re18  1  0.888440  0.111560  0.250000  1
  Re  Re19  1  0.888523  0.776731  0.250000  1
  Re  Re20  1  0.223269  0.111477  0.250000  1
  Re  Re21  1  0.111591  0.888409  0.750000  1
  Re  Re22  1  0.111235  0.222822  0.750000  1
  Re  Re23  1  0.777178  0.888765  0.750000  1
  B  B24  1  0.331905  0.668095  0.250000  1
  B  B25  1  0.666935  0.333065  0.750000  1
  W  W26  1  0.000165  0.999835  0.499158  1
  W  W27  1  0.000165  0.999835  0.000842  1
