# generated using pymatgen
data_NdYTm2(MoN3)4
_symmetry_space_group_name_H-M   'P 1'
_cell_length_a   7.30474151
_cell_length_b   7.30474098
_cell_length_c   6.23138322
_cell_angle_alpha   74.35858232
_cell_angle_beta   74.35858344
_cell_angle_gamma   82.35009945
_symmetry_Int_Tables_number   1
_chemical_formula_structural   NdYTm2(MoN3)4
_chemical_formula_sum   'Nd1 Y1 Tm2 Mo4 N12'
_cell_volume   307.67608109
_cell_formula_units_Z   1
loop_
 _symmetry_equiv_pos_site_id
 _symmetry_equiv_pos_as_xyz
  1  'x, y, z'
loop_
 _atom_site_type_symbol
 _atom_site_label
 _atom_site_symmetry_multiplicity
 _atom_site_fract_x
 _atom_site_fract_y
 _atom_site_fract_z
 _atom_site_occupancy
  Nd  Nd0  1  0.701453  0.298547  0.250000  1
  Y  Y1  1  0.295655  0.704345  0.750000  1
  Tm  Tm2  1  0.916833  0.083167  0.750000  1
  Tm  Tm3  1  0.088121  0.911879  0.250000  1
  Mo  Mo4  1  0.801642  0.620398  0.757939  1
  Mo  Mo5  1  0.197942  0.381447  0.238362  1
  Mo  Mo6  1  0.618553  0.802058  0.261638  1
  Mo  Mo7  1  0.379602  0.198358  0.742061  1
  N  N8  1  0.216276  0.998449  0.853030  1
  N  N9  1  0.356770  0.352796  0.452835  1
  N  N10  1  0.634782  0.646690  0.552884  1
  N  N11  1  0.622414  0.110393  0.673809  1
  N  N12  1  0.001551  0.783724  0.646970  1
  N  N13  1  0.789462  0.994171  0.146462  1
  N  N14  1  0.106215  0.623221  0.167017  1
  N  N15  1  0.889607  0.377586  0.826191  1
  N  N16  1  0.005829  0.210538  0.353538  1
  N  N17  1  0.353310  0.365218  0.947116  1
  N  N18  1  0.647204  0.643230  0.047165  1
  N  N19  1  0.376779  0.893785  0.332983  1
