# generated using pymatgen
data_LiMn4Cl7O
_symmetry_space_group_name_H-M   'P 1'
_cell_length_a   7.46004768
_cell_length_b   7.44147128
_cell_length_c   7.44036463
_cell_angle_alpha   58.28274384
_cell_angle_beta   58.02257803
_cell_angle_gamma   58.11384475
_symmetry_Int_Tables_number   1
_chemical_formula_structural   LiMn4Cl7O
_chemical_formula_sum   'Li1 Mn4 Cl7 O1'
_cell_volume   279.60817891
_cell_formula_units_Z   1
loop_
 _symmetry_equiv_pos_site_id
 _symmetry_equiv_pos_as_xyz
  1  'x, y, z'
loop_
 _atom_site_type_symbol
 _atom_site_label
 _atom_site_symmetry_multiplicity
 _atom_site_fract_x
 _atom_site_fract_y
 _atom_site_fract_z
 _atom_site_occupancy
  Li  Li0  1  0.046910  0.049200  0.049413  1
  Mn  Mn1  1  0.372505  0.371945  0.372668  1
  Mn  Mn2  1  0.351082  0.352146  0.888739  1
  Mn  Mn3  1  0.351616  0.888897  0.350413  1
  Mn  Mn4  1  0.888475  0.351257  0.351967  1
  Cl  Cl5  1  0.602717  0.601600  0.600813  1
  Cl  Cl6  1  0.618752  0.616685  0.122188  1
  Cl  Cl7  1  0.617269  0.121798  0.617903  1
  Cl  Cl8  1  0.123094  0.617653  0.617948  1
  Cl  Cl9  1  0.622261  0.127090  0.126447  1
  Cl  Cl10  1  0.126050  0.125728  0.623028  1
  Cl  Cl11  1  0.127107  0.623346  0.126163  1
  O  O12  1  0.152160  0.152655  0.152308  1
