# generated using pymatgen
data_Ca12Hg5Ru
_symmetry_space_group_name_H-M   'P 1'
_cell_length_a   9.59156374
_cell_length_b   9.59156463
_cell_length_c   9.59156281
_cell_angle_alpha   124.24006829
_cell_angle_beta   80.30545912
_cell_angle_gamma   127.28166446
_symmetry_Int_Tables_number   1
_chemical_formula_structural   Ca12Hg5Ru
_chemical_formula_sum   'Ca12 Hg5 Ru1'
_cell_volume   560.12084609
_cell_formula_units_Z   1
loop_
 _symmetry_equiv_pos_site_id
 _symmetry_equiv_pos_as_xyz
  1  'x, y, z'
loop_
 _atom_site_type_symbol
 _atom_site_label
 _atom_site_symmetry_multiplicity
 _atom_site_fract_x
 _atom_site_fract_y
 _atom_site_fract_z
 _atom_site_occupancy
  Ca  Ca0  1  0.616014  0.616014  0.000000  1
  Ca  Ca1  1  0.754471  0.112687  0.111713  1
  Ca  Ca2  1  0.400512  0.194603  0.205910  1
  Ca  Ca3  1  0.246077  0.465318  0.219241  1
  Ca  Ca4  1  0.008681  0.704613  0.304068  1
  Ca  Ca5  1  0.000974  0.112686  0.358216  1
  Ca  Ca6  1  0.582408  0.082407  0.500000  1
  Ca  Ca7  1  0.754471  0.642758  0.641784  1
  Ca  Ca8  1  0.400545  0.704613  0.695932  1
  Ca  Ca9  1  0.246076  0.026835  0.780760  1
  Ca  Ca10  1  0.988692  0.194603  0.794090  1
  Ca  Ca11  1  0.000974  0.642758  0.888287  1
  Hg  Hg12  1  0.332993  0.743612  0.077444  1
  Hg  Hg13  1  0.666169  0.743612  0.410619  1
  Hg  Hg14  1  0.010751  0.510751  0.500000  1
  Hg  Hg15  1  0.332993  0.255549  0.589382  1
  Hg  Hg16  1  0.666169  0.255549  0.922556  1
  Ru  Ru17  1  0.992733  0.992733  0.000000  1
