# generated using pymatgen
data_Ta10GaSi4Sn
_symmetry_space_group_name_H-M   'P 1'
_cell_length_a   7.64259037
_cell_length_b   7.64258987
_cell_length_c   7.64259048
_cell_angle_alpha   128.18213658
_cell_angle_beta   128.18213871
_cell_angle_gamma   76.33015390
_symmetry_Int_Tables_number   1
_chemical_formula_structural   Ta10GaSi4Sn
_chemical_formula_sum   'Ta10 Ga1 Si4 Sn1'
_cell_volume   268.02848752
_cell_formula_units_Z   1
loop_
 _symmetry_equiv_pos_site_id
 _symmetry_equiv_pos_as_xyz
  1  'x, y, z'
loop_
 _atom_site_type_symbol
 _atom_site_label
 _atom_site_symmetry_multiplicity
 _atom_site_fract_x
 _atom_site_fract_y
 _atom_site_fract_z
 _atom_site_occupancy
  Ta  Ta0  1  0.020654  0.197125  0.510802  1
  Ta  Ta1  1  0.686322  0.509853  0.489198  1
  Ta  Ta2  1  0.509853  0.020654  0.823529  1
  Ta  Ta3  1  0.197125  0.686322  0.176471  1
  Ta  Ta4  1  0.990147  0.813678  0.510802  1
  Ta  Ta5  1  0.302875  0.479346  0.489198  1
  Ta  Ta6  1  0.479346  0.990147  0.176471  1
  Ta  Ta7  1  0.813678  0.302875  0.823529  1
  Ta  Ta8  1  0.001073  0.001073  0.000000  1
  Ta  Ta9  1  0.498927  0.498927  0.000000  1
  Ga  Ga10  1  0.250000  0.250000  0.000000  1
  Si  Si11  1  0.368462  0.131538  0.500000  1
  Si  Si12  1  0.631538  0.868462  0.500000  1
  Si  Si13  1  0.868462  0.368462  0.236924  1
  Si  Si14  1  0.131538  0.631538  0.763076  1
  Sn  Sn15  1  0.750000  0.750000  0.000000  1
