# generated using pymatgen
data_Nd2Y4Zn4Pd9Pt4
_symmetry_space_group_name_H-M   'P 1'
_cell_length_a   8.30735095
_cell_length_b   8.30735140
_cell_length_c   8.28843428
_cell_angle_alpha   109.36044186
_cell_angle_beta   109.36043973
_cell_angle_gamma   109.65545743
_symmetry_Int_Tables_number   1
_chemical_formula_structural   Nd2Y4Zn4Pd9Pt4
_chemical_formula_sum   'Nd2 Y4 Zn4 Pd9 Pt4'
_cell_volume   440.52721813
_cell_formula_units_Z   1
loop_
 _symmetry_equiv_pos_site_id
 _symmetry_equiv_pos_as_xyz
  1  'x, y, z'
loop_
 _atom_site_type_symbol
 _atom_site_label
 _atom_site_symmetry_multiplicity
 _atom_site_fract_x
 _atom_site_fract_y
 _atom_site_fract_z
 _atom_site_occupancy
  Nd  Nd0  1  0.703076  0.000284  0.702724  1
  Nd  Nd1  1  0.000284  0.703076  0.702724  1
  Y  Y2  1  0.701345  0.701345  0.003198  1
  Y  Y3  1  0.301271  0.000498  0.303910  1
  Y  Y4  1  0.000498  0.301271  0.303910  1
  Y  Y5  1  0.300736  0.300736  0.999406  1
  Zn  Zn6  1  0.999775  0.999775  0.494782  1
  Zn  Zn7  1  0.999826  0.499597  0.999479  1
  Zn  Zn8  1  0.499597  0.999826  0.999479  1
  Zn  Zn9  1  0.495274  0.495274  0.495167  1
  Pd  Pd10  1  0.664635  0.334931  0.999952  1
  Pd  Pd11  1  0.331128  0.662890  0.330432  1
  Pd  Pd12  1  0.000427  0.332688  0.667242  1
  Pd  Pd13  1  0.334931  0.664635  0.999952  1
  Pd  Pd14  1  0.332688  0.000427  0.667242  1
  Pd  Pd15  1  0.662890  0.331128  0.330432  1
  Pd  Pd16  1  0.662896  0.662896  0.327366  1
  Pd  Pd17  1  0.666013  0.333940  0.666425  1
  Pd  Pd18  1  0.333940  0.666013  0.666425  1
  Pt  Pt19  1  0.334511  0.334511  0.667810  1
  Pt  Pt20  1  0.666993  0.999548  0.329108  1
  Pt  Pt21  1  0.999548  0.666993  0.329108  1
  Pt  Pt22  1  0.007718  0.007718  0.013723  1
