# generated using pymatgen
data_Tb13Ho7(CoSb2)4
_symmetry_space_group_name_H-M   'P 1'
_cell_length_a   7.89577024
_cell_length_b   8.76636423
_cell_length_c   12.22311232
_cell_angle_alpha   90.01721359
_cell_angle_beta   89.98021894
_cell_angle_gamma   90.01995443
_symmetry_Int_Tables_number   1
_chemical_formula_structural   Tb13Ho7(CoSb2)4
_chemical_formula_sum   'Tb13 Ho7 Co4 Sb8'
_cell_volume   846.04944319
_cell_formula_units_Z   1
loop_
 _symmetry_equiv_pos_site_id
 _symmetry_equiv_pos_as_xyz
  1  'x, y, z'
loop_
 _atom_site_type_symbol
 _atom_site_label
 _atom_site_symmetry_multiplicity
 _atom_site_fract_x
 _atom_site_fract_y
 _atom_site_fract_z
 _atom_site_occupancy
  Tb  Tb0  1  0.153349  0.750000  0.202592  1
  Tb  Tb1  1  0.653641  0.249714  0.297071  1
  Tb  Tb2  1  0.846567  0.250017  0.797117  1
  Tb  Tb3  1  0.346479  0.750209  0.702943  1
  Tb  Tb4  1  0.454385  0.750097  0.997687  1
  Tb  Tb5  1  0.953580  0.249741  0.502244  1
  Tb  Tb6  1  0.545542  0.249932  0.002133  1
  Tb  Tb7  1  0.044330  0.750395  0.497875  1
  Tb  Tb8  1  0.622876  0.750399  0.306814  1
  Tb  Tb9  1  0.122450  0.250228  0.192742  1
  Tb  Tb10  1  0.378161  0.249472  0.693150  1
  Tb  Tb11  1  0.877644  0.749996  0.807218  1
  Tb  Tb12  1  0.320290  0.465307  0.435123  1
  Ho  Ho13  1  0.822280  0.965122  0.065110  1
  Ho  Ho14  1  0.322274  0.034663  0.435056  1
  Ho  Ho15  1  0.177813  0.464986  0.934882  1
  Ho  Ho16  1  0.677976  0.535212  0.565296  1
  Ho  Ho17  1  0.177772  0.035004  0.934828  1
  Ho  Ho18  1  0.677818  0.964513  0.565360  1
  Ho  Ho19  1  0.822192  0.534881  0.065033  1
  Co  Co20  1  0.437521  0.750341  0.491373  1
  Co  Co21  1  0.936871  0.249983  0.008560  1
  Co  Co22  1  0.564831  0.249258  0.509081  1
  Co  Co23  1  0.063078  0.750042  0.991339  1
  Sb  Sb24  1  0.928939  0.992222  0.326627  1
  Sb  Sb25  1  0.428654  0.007908  0.173263  1
  Sb  Sb26  1  0.071757  0.492101  0.673148  1
  Sb  Sb27  1  0.571385  0.507947  0.826740  1
  Sb  Sb28  1  0.071422  0.007923  0.673256  1
  Sb  Sb29  1  0.571587  0.992037  0.826932  1
  Sb  Sb30  1  0.927538  0.508129  0.326498  1
  Sb  Sb31  1  0.428997  0.492223  0.172909  1
