# generated using pymatgen
data_Tb8Sb(PdPt11)2
_symmetry_space_group_name_H-M   'P 1'
_cell_length_a   8.43972802
_cell_length_b   8.43972802
_cell_length_c   8.42471500
_cell_angle_alpha   90.00000000
_cell_angle_beta   90.00000000
_cell_angle_gamma   89.99147324
_symmetry_Int_Tables_number   1
_chemical_formula_structural   Tb8Sb(PdPt11)2
_chemical_formula_sum   'Tb8 Sb1 Pd2 Pt22'
_cell_volume   600.08409483
_cell_formula_units_Z   1
loop_
 _symmetry_equiv_pos_site_id
 _symmetry_equiv_pos_as_xyz
  1  'x, y, z'
loop_
 _atom_site_type_symbol
 _atom_site_label
 _atom_site_symmetry_multiplicity
 _atom_site_fract_x
 _atom_site_fract_y
 _atom_site_fract_z
 _atom_site_occupancy
  Tb  Tb0  1  0.745562  0.745562  0.254290  1
  Tb  Tb1  1  0.746410  0.253992  0.746569  1
  Tb  Tb2  1  0.253992  0.746410  0.746569  1
  Tb  Tb3  1  0.745562  0.745562  0.745710  1
  Tb  Tb4  1  0.746410  0.253992  0.253431  1
  Tb  Tb5  1  0.253095  0.253095  0.747426  1
  Tb  Tb6  1  0.253992  0.746410  0.253431  1
  Tb  Tb7  1  0.253095  0.253095  0.252574  1
  Sb  Sb8  1  0.004883  0.004883  0.000000  1
  Pd  Pd9  1  0.998619  0.696930  0.000000  1
  Pd  Pd10  1  0.696930  0.998619  0.000000  1
  Pt  Pt11  1  0.998439  0.998439  0.307551  1
  Pt  Pt12  1  0.733608  0.000199  0.500000  1
  Pt  Pt13  1  0.734572  0.500393  0.000000  1
  Pt  Pt14  1  0.500229  0.000182  0.735481  1
  Pt  Pt15  1  0.000199  0.733608  0.500000  1
  Pt  Pt16  1  0.500229  0.000182  0.264519  1
  Pt  Pt17  1  0.000126  0.264094  0.500000  1
  Pt  Pt18  1  0.500393  0.734572  0.000000  1
  Pt  Pt19  1  0.254380  0.499477  0.500000  1
  Pt  Pt20  1  0.499511  0.499511  0.746013  1
  Pt  Pt21  1  0.499511  0.499511  0.253987  1
  Pt  Pt22  1  0.499477  0.254380  0.500000  1
  Pt  Pt23  1  0.499538  0.745697  0.500000  1
  Pt  Pt24  1  0.745697  0.499538  0.500000  1
  Pt  Pt25  1  0.310532  0.998547  0.000000  1
  Pt  Pt26  1  0.998439  0.998439  0.692449  1
  Pt  Pt27  1  0.000182  0.500229  0.264519  1
  Pt  Pt28  1  0.998547  0.310532  0.000000  1
  Pt  Pt29  1  0.263288  0.500275  0.000000  1
  Pt  Pt30  1  0.264094  0.000126  0.500000  1
  Pt  Pt31  1  0.000182  0.500229  0.735481  1
  Pt  Pt32  1  0.500275  0.263288  0.000000  1
