# generated using pymatgen
data_CrGa2Ru4W
_symmetry_space_group_name_H-M   'P 1'
_cell_length_a   4.31889300
_cell_length_b   6.09573300
_cell_length_c   12.91085701
_cell_angle_alpha   90.00126041
_cell_angle_beta   89.99673954
_cell_angle_gamma   89.99765213
_symmetry_Int_Tables_number   1
_chemical_formula_structural   CrGa2Ru4W
_chemical_formula_sum   'Cr3 Ga6 Ru12 W3'
_cell_volume   339.90178954
_cell_formula_units_Z   3
loop_
 _symmetry_equiv_pos_site_id
 _symmetry_equiv_pos_as_xyz
  1  'x, y, z'
loop_
 _atom_site_type_symbol
 _atom_site_label
 _atom_site_symmetry_multiplicity
 _atom_site_fract_x
 _atom_site_fract_y
 _atom_site_fract_z
 _atom_site_occupancy
  Cr  Cr0  1  0.500367  0.999931  0.503624  1
  Cr  Cr1  1  0.000151  0.500235  0.666567  1
  Cr  Cr2  1  0.499634  0.999613  0.829653  1
  Ga  Ga3  1  0.999933  0.999822  0.995602  1
  Ga  Ga4  1  0.499954  0.500078  0.166680  1
  Ga  Ga5  1  0.000011  0.999934  0.337908  1
  Ga  Ga6  1  0.500053  0.500172  0.506517  1
  Ga  Ga7  1  0.000019  0.999759  0.666675  1
  Ga  Ga8  1  0.499998  0.500152  0.826809  1
  Ru  Ru9  1  0.499938  0.250502  0.000218  1
  Ru  Ru10  1  0.499936  0.749509  0.000233  1
  Ru  Ru11  1  0.999979  0.250026  0.166676  1
  Ru  Ru12  1  0.999979  0.749998  0.166678  1
  Ru  Ru13  1  0.500021  0.250544  0.333103  1
  Ru  Ru14  1  0.500031  0.749543  0.333094  1
  Ru  Ru15  1  0.000101  0.248451  0.500568  1
  Ru  Ru16  1  0.000095  0.751637  0.500546  1
  Ru  Ru17  1  0.500026  0.247752  0.666677  1
  Ru  Ru18  1  0.500021  0.752293  0.666650  1
  Ru  Ru19  1  0.999933  0.248511  0.832776  1
  Ru  Ru20  1  0.999902  0.751506  0.832777  1
  W  W21  1  0.999931  0.499969  0.991870  1
  W  W22  1  0.499964  0.000024  0.166664  1
  W  W23  1  0.000023  0.500043  0.341438  1
