# generated using pymatgen
data_Li12Sm11Dy(WO6)8
_symmetry_space_group_name_H-M   'P 1'
_cell_length_a   10.82836711
_cell_length_b   10.81748130
_cell_length_c   10.82836801
_cell_angle_alpha   109.49365366
_cell_angle_beta   109.46713703
_cell_angle_gamma   109.49364766
_symmetry_Int_Tables_number   1
_chemical_formula_structural   Li12Sm11Dy(WO6)8
_chemical_formula_sum   'Li12 Sm11 Dy1 W8 O48'
_cell_volume   975.91382872
_cell_formula_units_Z   1
loop_
 _symmetry_equiv_pos_site_id
 _symmetry_equiv_pos_as_xyz
  1  'x, y, z'
loop_
 _atom_site_type_symbol
 _atom_site_label
 _atom_site_symmetry_multiplicity
 _atom_site_fract_x
 _atom_site_fract_y
 _atom_site_fract_z
 _atom_site_occupancy
  Li  Li0  1  0.749488  0.374918  0.124909  1
  Li  Li1  1  0.875065  0.750000  0.125065  1
  Li  Li2  1  0.125431  0.374919  0.250009  1
  Li  Li3  1  0.624889  0.874880  0.249920  1
  Li  Li4  1  0.249991  0.125081  0.374569  1
  Li  Li5  1  0.624207  0.250000  0.374206  1
  Li  Li6  1  0.374935  0.750000  0.624935  1
  Li  Li7  1  0.749991  0.874880  0.624961  1
  Li  Li8  1  0.375090  0.125081  0.750512  1
  Li  Li9  1  0.875040  0.625121  0.750009  1
  Li  Li10  1  0.125794  0.249999  0.875794  1
  Li  Li11  1  0.250080  0.625120  0.875111  1
  Sm  Sm12  1  0.250536  0.875995  0.125252  1
  Sm  Sm13  1  0.875073  0.125103  0.250161  1
  Sm  Sm14  1  0.374748  0.624006  0.249463  1
  Sm  Sm15  1  0.125000  0.750000  0.374999  1
  Sm  Sm16  1  0.749257  0.624005  0.374542  1
  Sm  Sm17  1  0.875000  0.250000  0.625000  1
  Sm  Sm18  1  0.249838  0.374897  0.624928  1
  Sm  Sm19  1  0.625059  0.374897  0.749971  1
  Sm  Sm20  1  0.125458  0.875995  0.750743  1
  Sm  Sm21  1  0.750029  0.125103  0.874941  1
  Sm  Sm22  1  0.625001  0.750000  0.875000  1
  Dy  Dy23  1  0.375000  0.250000  0.125000  1
  W  W24  1  0.001787  0.001707  0.001143  1
  W  W25  1  0.000212  0.500162  0.000133  1
  W  W26  1  0.499436  0.498293  0.000080  1
  W  W27  1  0.499920  0.001707  0.000564  1
  W  W28  1  0.499867  0.999838  0.499788  1
  W  W29  1  0.999950  0.500162  0.500029  1
  W  W30  1  0.999971  0.999838  0.500050  1
  W  W31  1  0.498857  0.498293  0.498213  1
  O  O32  1  0.328044  0.405354  0.026849  1
  O  O33  1  0.197940  0.616825  0.024957  1
  O  O34  1  0.698132  0.173315  0.081049  1
  O  O35  1  0.884079  0.908433  0.080987  1
  O  O36  1  0.616257  0.920265  0.092586  1
  O  O37  1  0.975184  0.173316  0.092266  1
  O  O38  1  0.590133  0.416721  0.116975  1
  O  O39  1  0.025159  0.698001  0.117016  1
  O  O40  1  0.200255  0.083280  0.173412  1
  O  O41  1  0.473152  0.094646  0.171956  1
  O  O42  1  0.117042  0.524874  0.197757  1
  O  O43  1  0.580502  0.672166  0.197397  1
  O  O44  1  0.326587  0.416721  0.299745  1
  O  O45  1  0.475044  0.883176  0.302060  1
  O  O46  1  0.907833  0.524874  0.327117  1
  O  O47  1  0.919016  0.801999  0.327158  1
  O  O48  1  0.577309  0.405353  0.378505  1
  O  O49  1  0.302243  0.975126  0.382959  1
  O  O50  1  0.827266  0.024830  0.407986  1
  O  O51  1  0.080791  0.383125  0.407932  1
  O  O52  1  0.826923  0.302071  0.419030  1
  O  O53  1  0.092068  0.116875  0.419210  1
  O  O54  1  0.591664  0.672166  0.474769  1
  O  O55  1  0.382983  0.801999  0.474841  1
  O  O56  1  0.616959  0.197929  0.524852  1
  O  O57  1  0.407733  0.326684  0.524816  1
  O  O58  1  0.172841  0.698001  0.580984  1
  O  O59  1  0.908132  0.883176  0.581115  1
  O  O60  1  0.918884  0.616824  0.591868  1
  O  O61  1  0.172883  0.975126  0.592168  1
  O  O62  1  0.697564  0.024830  0.616844  1
  O  O63  1  0.419014  0.591568  0.615922  1
  O  O64  1  0.080970  0.197929  0.673077  1
  O  O65  1  0.092013  0.475171  0.672735  1
  O  O66  1  0.524806  0.116874  0.697665  1
  O  O67  1  0.672321  0.579734  0.695991  1
  O  O68  1  0.418951  0.326684  0.801868  1
  O  O69  1  0.883157  0.475171  0.802436  1
  O  O70  1  0.804009  0.920265  0.827679  1
  O  O71  1  0.524353  0.908432  0.827446  1
  O  O72  1  0.975147  0.302071  0.883040  1
  O  O73  1  0.407414  0.579735  0.883744  1
  O  O74  1  0.383024  0.083279  0.909867  1
  O  O75  1  0.025232  0.827835  0.908337  1
  O  O76  1  0.121494  0.094646  0.922690  1
  O  O77  1  0.302603  0.827834  0.919498  1
  O  O78  1  0.802335  0.383125  0.975194  1
  O  O79  1  0.672555  0.591568  0.975647  1
