# generated using pymatgen
data_ReIr2Ru4W
_symmetry_space_group_name_H-M   'P 1'
_cell_length_a   5.52235600
_cell_length_b   5.50301377
_cell_length_c   4.37751200
_cell_angle_alpha   90.00000000
_cell_angle_beta   90.00000000
_cell_angle_gamma   120.11633836
_symmetry_Int_Tables_number   1
_chemical_formula_structural   ReIr2Ru4W
_chemical_formula_sum   'Re1 Ir2 Ru4 W1'
_cell_volume   115.07279382
_cell_formula_units_Z   1
loop_
 _symmetry_equiv_pos_site_id
 _symmetry_equiv_pos_as_xyz
  1  'x, y, z'
loop_
 _atom_site_type_symbol
 _atom_site_label
 _atom_site_symmetry_multiplicity
 _atom_site_fract_x
 _atom_site_fract_y
 _atom_site_fract_z
 _atom_site_occupancy
  Re  Re0  1  0.665026  0.330050  0.250000  1
  Ir  Ir1  1  0.165511  0.331023  0.250000  1
  Ir  Ir2  1  0.832450  0.664900  0.750000  1
  Ru  Ru3  1  0.668715  0.835843  0.250000  1
  Ru  Ru4  1  0.167127  0.835843  0.250000  1
  Ru  Ru5  1  0.337129  0.166349  0.750000  1
  Ru  Ru6  1  0.829219  0.166349  0.750000  1
  W  W7  1  0.334822  0.669644  0.750000  1
