# generated using pymatgen
data_Zr8Ta9Nb3Ge16
_symmetry_space_group_name_H-M   'P 1'
_cell_length_a   6.86478815
_cell_length_b   6.97734213
_cell_length_c   13.33658004
_cell_angle_alpha   90.00034510
_cell_angle_beta   90.00833640
_cell_angle_gamma   89.97772258
_symmetry_Int_Tables_number   1
_chemical_formula_structural   Zr8Ta9Nb3Ge16
_chemical_formula_sum   'Zr8 Ta9 Nb3 Ge16'
_cell_volume   638.79512967
_cell_formula_units_Z   1
loop_
 _symmetry_equiv_pos_site_id
 _symmetry_equiv_pos_as_xyz
  1  'x, y, z'
loop_
 _atom_site_type_symbol
 _atom_site_label
 _atom_site_symmetry_multiplicity
 _atom_site_fract_x
 _atom_site_fract_y
 _atom_site_fract_z
 _atom_site_occupancy
  Zr  Zr0  1  0.488859  0.673448  0.591377  1
  Zr  Zr1  1  0.989131  0.826598  0.908567  1
  Zr  Zr2  1  0.510985  0.326706  0.091443  1
  Zr  Zr3  1  0.011056  0.173312  0.408571  1
  Zr  Zr4  1  0.511210  0.326520  0.408293  1
  Zr  Zr5  1  0.010875  0.173712  0.091626  1
  Zr  Zr6  1  0.489067  0.673746  0.908349  1
  Zr  Zr7  1  0.989014  0.826146  0.591400  1
  Ta  Ta8  1  0.840690  0.665232  0.375185  1
  Ta  Ta9  1  0.340520  0.834764  0.375193  1
  Ta  Ta10  1  0.840666  0.665315  0.124881  1
  Ta  Ta11  1  0.659336  0.165316  0.875113  1
  Ta  Ta12  1  0.159305  0.334666  0.624925  1
  Ta  Ta13  1  0.835834  0.490203  0.749926  1
  Ta  Ta14  1  0.335915  0.009851  0.750134  1
  Ta  Ta15  1  0.163778  0.509927  0.250136  1
  Ta  Ta16  1  0.664327  0.989854  0.250293  1
  Nb  Nb17  1  0.659344  0.165008  0.624642  1
  Nb  Nb18  1  0.159391  0.334868  0.875376  1
  Nb  Nb19  1  0.340662  0.834936  0.124685  1
  Ge  Ge20  1  0.681691  0.960914  0.459603  1
  Ge  Ge21  1  0.181355  0.539033  0.040353  1
  Ge  Ge22  1  0.318569  0.038967  0.959591  1
  Ge  Ge23  1  0.818554  0.461021  0.540210  1
  Ge  Ge24  1  0.317933  0.039266  0.540141  1
  Ge  Ge25  1  0.817998  0.460778  0.959885  1
  Ge  Ge26  1  0.681962  0.960707  0.040111  1
  Ge  Ge27  1  0.181883  0.539225  0.459836  1
  Ge  Ge28  1  0.461913  0.386978  0.749927  1
  Ge  Ge29  1  0.961810  0.113076  0.750081  1
  Ge  Ge30  1  0.538109  0.613007  0.249996  1
  Ge  Ge31  1  0.038205  0.886925  0.250101  1
  Ge  Ge32  1  0.692806  0.849756  0.750022  1
  Ge  Ge33  1  0.192800  0.650280  0.749963  1
  Ge  Ge34  1  0.307188  0.150236  0.250038  1
  Ge  Ge35  1  0.807262  0.349704  0.250025  1
