# generated using pymatgen
data_RbS8Cl3
_symmetry_space_group_name_H-M   'P 1'
_cell_length_a   8.07736066
_cell_length_b   11.02686476
_cell_length_c   11.19437302
_cell_angle_alpha   106.66387616
_cell_angle_beta   88.66819444
_cell_angle_gamma   113.94880480
_symmetry_Int_Tables_number   1
_chemical_formula_structural   RbS8Cl3
_chemical_formula_sum   'Rb2 S16 Cl6'
_cell_volume   867.99790216
_cell_formula_units_Z   2
loop_
 _symmetry_equiv_pos_site_id
 _symmetry_equiv_pos_as_xyz
  1  'x, y, z'
loop_
 _atom_site_type_symbol
 _atom_site_label
 _atom_site_symmetry_multiplicity
 _atom_site_fract_x
 _atom_site_fract_y
 _atom_site_fract_z
 _atom_site_occupancy
  Rb  Rb0  1  0.803443  0.121845  0.849195  1
  Rb  Rb1  1  0.196557  0.878155  0.150805  1
  S  S2  1  0.805898  0.481994  0.798455  1
  S  S3  1  0.194102  0.518006  0.201545  1
  S  S4  1  0.737218  0.399527  0.607727  1
  S  S5  1  0.262782  0.600473  0.392273  1
  S  S6  1  0.739779  0.204843  0.548977  1
  S  S7  1  0.260221  0.795157  0.451023  1
  S  S8  1  0.983453  0.217558  0.479613  1
  S  S9  1  0.016547  0.782442  0.520387  1
  S  S10  1  0.921817  0.380797  0.169612  1
  S  S11  1  0.078183  0.619203  0.830388  1
  S  S12  1  0.768893  0.480903  0.134319  1
  S  S13  1  0.231107  0.519097  0.865681  1
  S  S14  1  0.670095  0.555961  0.296380  1
  S  S15  1  0.329905  0.444039  0.703620  1
  S  S16  1  0.841559  0.764293  0.378277  1
  S  S17  1  0.158441  0.235707  0.621723  1
  Cl  Cl18  1  0.375674  0.062481  0.814070  1
  Cl  Cl19  1  0.624326  0.937519  0.185930  1
  Cl  Cl20  1  0.673348  0.865897  0.978750  1
  Cl  Cl21  1  0.326652  0.134103  0.021250  1
  Cl  Cl22  1  0.723697  0.797314  0.769405  1
  Cl  Cl23  1  0.276303  0.202686  0.230595  1
