# generated using pymatgen
data_CsP2RhO8
_symmetry_space_group_name_H-M   'P 1'
_cell_length_a   4.92064500
_cell_length_b   4.92064475
_cell_length_c   9.18415400
_cell_angle_alpha   90.00000000
_cell_angle_beta   90.00000000
_cell_angle_gamma   119.99999673
_symmetry_Int_Tables_number   1
_chemical_formula_structural   CsP2RhO8
_chemical_formula_sum   'Cs1 P2 Rh1 O8'
_cell_volume   192.58118273
_cell_formula_units_Z   1
loop_
 _symmetry_equiv_pos_site_id
 _symmetry_equiv_pos_as_xyz
  1  'x, y, z'
loop_
 _atom_site_type_symbol
 _atom_site_label
 _atom_site_symmetry_multiplicity
 _atom_site_fract_x
 _atom_site_fract_y
 _atom_site_fract_z
 _atom_site_occupancy
  Cs  Cs0  1  0.000000  0.000000  0.000000  1
  P  P1  1  0.333333  0.666667  0.682633  1
  P  P2  1  0.666667  0.333333  0.317367  1
  Rh  Rh3  1  0.000000  0.000000  0.500000  1
  O  O4  1  0.666667  0.333333  0.153071  1
  O  O5  1  0.649603  0.948034  0.625197  1
  O  O6  1  0.298432  0.350397  0.625197  1
  O  O7  1  0.333333  0.666667  0.846929  1
  O  O8  1  0.701568  0.649603  0.374803  1
  O  O9  1  0.350397  0.051966  0.374803  1
  O  O10  1  0.948034  0.298432  0.374803  1
  O  O11  1  0.051966  0.701568  0.625197  1
