# generated using pymatgen
data_Na6La7NdAu20
_symmetry_space_group_name_H-M   'P 1'
_cell_length_a   8.92662988
_cell_length_b   8.92663218
_cell_length_c   10.47717513
_cell_angle_alpha   90.01056700
_cell_angle_beta   90.01056637
_cell_angle_gamma   108.68392677
_symmetry_Int_Tables_number   1
_chemical_formula_structural   Na6La7NdAu20
_chemical_formula_sum   'Na6 La7 Nd1 Au20'
_cell_volume   790.87340354
_cell_formula_units_Z   1
loop_
 _symmetry_equiv_pos_site_id
 _symmetry_equiv_pos_as_xyz
  1  'x, y, z'
loop_
 _atom_site_type_symbol
 _atom_site_label
 _atom_site_symmetry_multiplicity
 _atom_site_fract_x
 _atom_site_fract_y
 _atom_site_fract_z
 _atom_site_occupancy
  Na  Na0  1  0.514533  0.014809  0.249722  1
  Na  Na1  1  0.985191  0.485467  0.750278  1
  Na  Na2  1  0.000181  0.999819  0.000000  1
  Na  Na3  1  0.014055  0.514035  0.249748  1
  Na  Na4  1  0.485965  0.985945  0.750252  1
  Na  Na5  1  0.500230  0.499770  0.500000  1
  La  La6  1  0.200725  0.799275  0.500000  1
  La  La7  1  0.800367  0.800551  0.298312  1
  La  La8  1  0.301095  0.300427  0.200894  1
  La  La9  1  0.799127  0.200873  0.500000  1
  La  La10  1  0.298859  0.701141  0.000000  1
  La  La11  1  0.699573  0.698905  0.799106  1
  La  La12  1  0.199449  0.199633  0.701688  1
  Nd  Nd13  1  0.700662  0.299338  0.000000  1
  Au  Au14  1  0.152104  0.430419  0.487602  1
  Au  Au15  1  0.902940  0.903546  0.595128  1
  Au  Au16  1  0.569581  0.847896  0.512398  1
  Au  Au17  1  0.880314  0.162516  0.208683  1
  Au  Au18  1  0.381866  0.661614  0.290200  1
  Au  Au19  1  0.662305  0.380552  0.288298  1
  Au  Au20  1  0.403650  0.402225  0.905827  1
  Au  Au21  1  0.929570  0.649399  0.012183  1
  Au  Au22  1  0.338386  0.618134  0.709800  1
  Au  Au23  1  0.350601  0.070430  0.987817  1
  Au  Au24  1  0.597775  0.596350  0.094173  1
  Au  Au25  1  0.651945  0.932325  0.012320  1
  Au  Au26  1  0.096454  0.097060  0.404872  1
  Au  Au27  1  0.619448  0.337695  0.711702  1
  Au  Au28  1  0.118716  0.838655  0.790649  1
  Au  Au29  1  0.067675  0.348055  0.987680  1
  Au  Au30  1  0.847517  0.569686  0.512255  1
  Au  Au31  1  0.161345  0.881284  0.209351  1
  Au  Au32  1  0.430314  0.152483  0.487745  1
  Au  Au33  1  0.837484  0.119686  0.791317  1
