# generated using pymatgen
data_Y4Al18Ni4IrRh
_symmetry_space_group_name_H-M   'P 1'
_cell_length_a   7.46506615
_cell_length_b   7.46506582
_cell_length_c   9.35787038
_cell_angle_alpha   89.98347951
_cell_angle_beta   89.98347994
_cell_angle_gamma   119.15345437
_symmetry_Int_Tables_number   1
_chemical_formula_structural   Y4Al18Ni4IrRh
_chemical_formula_sum   'Y4 Al18 Ni4 Ir1 Rh1'
_cell_volume   455.42485121
_cell_formula_units_Z   1
loop_
 _symmetry_equiv_pos_site_id
 _symmetry_equiv_pos_as_xyz
  1  'x, y, z'
loop_
 _atom_site_type_symbol
 _atom_site_label
 _atom_site_symmetry_multiplicity
 _atom_site_fract_x
 _atom_site_fract_y
 _atom_site_fract_z
 _atom_site_occupancy
  Y  Y0  1  0.994235  0.671750  0.249812  1
  Y  Y1  1  0.005765  0.328250  0.750188  1
  Y  Y2  1  0.671750  0.994235  0.249812  1
  Y  Y3  1  0.328250  0.005765  0.750188  1
  Al  Al4  1  0.132938  0.132938  0.250690  1
  Al  Al5  1  0.867062  0.867062  0.749310  1
  Al  Al6  1  0.998271  0.337951  0.073230  1
  Al  Al7  1  0.001729  0.662049  0.926770  1
  Al  Al8  1  0.001691  0.662335  0.573175  1
  Al  Al9  1  0.337665  0.998309  0.426825  1
  Al  Al10  1  0.998309  0.337665  0.426825  1
  Al  Al11  1  0.662335  0.001691  0.573175  1
  Al  Al12  1  0.662049  0.001729  0.926770  1
  Al  Al13  1  0.337951  0.998271  0.073230  1
  Al  Al14  1  0.335463  0.335463  0.549948  1
  Al  Al15  1  0.664537  0.664537  0.450052  1
  Al  Al16  1  0.664178  0.664178  0.049983  1
  Al  Al17  1  0.335822  0.335822  0.950017  1
  Al  Al18  1  0.340557  0.554684  0.250029  1
  Al  Al19  1  0.659443  0.445316  0.749971  1
  Al  Al20  1  0.554684  0.340557  0.250029  1
  Al  Al21  1  0.445316  0.659443  0.749971  1
  Ni  Ni22  1  0.670758  0.329242  0.000000  1
  Ni  Ni23  1  0.329242  0.670758  0.000000  1
  Ni  Ni24  1  0.329141  0.670859  0.500000  1
  Ni  Ni25  1  0.670859  0.329141  0.500000  1
  Ir  Ir26  1  0.000000  0.000000  0.000000  1
  Rh  Rh27  1  0.000000  0.000000  0.500000  1
