# generated using pymatgen
data_NaPaNiS3
_symmetry_space_group_name_H-M   'P 1'
_cell_length_a   6.72573500
_cell_length_b   6.72573430
_cell_length_c   10.07754200
_cell_angle_alpha   90.00000000
_cell_angle_beta   90.00000000
_cell_angle_gamma   147.18942370
_symmetry_Int_Tables_number   1
_chemical_formula_structural   NaPaNiS3
_chemical_formula_sum   'Na2 Pa2 Ni2 S6'
_cell_volume   247.01530472
_cell_formula_units_Z   2
loop_
 _symmetry_equiv_pos_site_id
 _symmetry_equiv_pos_as_xyz
  1  'x, y, z'
loop_
 _atom_site_type_symbol
 _atom_site_label
 _atom_site_symmetry_multiplicity
 _atom_site_fract_x
 _atom_site_fract_y
 _atom_site_fract_z
 _atom_site_occupancy
  Na  Na0  1  0.249557  0.750443  0.750000  1
  Na  Na1  1  0.750443  0.249557  0.250000  1
  Pa  Pa2  1  0.000000  0.000000  0.500000  1
  Pa  Pa3  1  0.000000  0.000000  0.000000  1
  Ni  Ni4  1  0.527208  0.472792  0.750000  1
  Ni  Ni5  1  0.472792  0.527208  0.250000  1
  S  S6  1  0.073501  0.926499  0.250000  1
  S  S7  1  0.634924  0.365076  0.926513  1
  S  S8  1  0.926499  0.073501  0.750000  1
  S  S9  1  0.634924  0.365076  0.573487  1
  S  S10  1  0.365076  0.634924  0.073487  1
  S  S11  1  0.365076  0.634924  0.426513  1
