# generated using pymatgen
data_SrLaPa2(NiAs)4
_symmetry_space_group_name_H-M   'P 1'
_cell_length_a   4.14349700
_cell_length_b   4.14349581
_cell_length_c   16.06543600
_cell_angle_alpha   90.00000000
_cell_angle_beta   90.00000000
_cell_angle_gamma   120.00001748
_symmetry_Int_Tables_number   1
_chemical_formula_structural   SrLaPa2(NiAs)4
_chemical_formula_sum   'Sr1 La1 Pa2 Ni4 As4'
_cell_volume   238.86746706
_cell_formula_units_Z   1
loop_
 _symmetry_equiv_pos_site_id
 _symmetry_equiv_pos_as_xyz
  1  'x, y, z'
loop_
 _atom_site_type_symbol
 _atom_site_label
 _atom_site_symmetry_multiplicity
 _atom_site_fract_x
 _atom_site_fract_y
 _atom_site_fract_z
 _atom_site_occupancy
  Sr  Sr0  1  0.000000  0.000000  0.000000  1
  La  La1  1  0.000000  0.000000  0.500000  1
  Pa  Pa2  1  0.000000  0.000000  0.252217  1
  Pa  Pa3  1  0.000000  0.000000  0.747783  1
  Ni  Ni4  1  0.333333  0.666667  0.165674  1
  Ni  Ni5  1  0.666667  0.333333  0.834326  1
  Ni  Ni6  1  0.666667  0.333333  0.654709  1
  Ni  Ni7  1  0.333333  0.666667  0.345291  1
  As  As8  1  0.333333  0.666667  0.623646  1
  As  As9  1  0.666667  0.333333  0.376354  1
  As  As10  1  0.666667  0.333333  0.131420  1
  As  As11  1  0.333333  0.666667  0.868580  1
