# generated using pymatgen
data_DyY2GaCo3
_symmetry_space_group_name_H-M   'P 1'
_cell_length_a   5.38796950
_cell_length_b   5.38796898
_cell_length_c   12.87358400
_cell_angle_alpha   90.00000000
_cell_angle_beta   90.00000000
_cell_angle_gamma   134.90811513
_symmetry_Int_Tables_number   1
_chemical_formula_structural   DyY2GaCo3
_chemical_formula_sum   'Dy2 Y4 Ga2 Co6'
_cell_volume   264.68543750
_cell_formula_units_Z   2
loop_
 _symmetry_equiv_pos_site_id
 _symmetry_equiv_pos_as_xyz
  1  'x, y, z'
loop_
 _atom_site_type_symbol
 _atom_site_label
 _atom_site_symmetry_multiplicity
 _atom_site_fract_x
 _atom_site_fract_y
 _atom_site_fract_z
 _atom_site_occupancy
  Dy  Dy0  1  0.000714  0.999286  0.250000  1
  Dy  Dy1  1  0.999286  0.000714  0.750000  1
  Y  Y2  1  0.708281  0.291719  0.602934  1
  Y  Y3  1  0.291719  0.708281  0.397066  1
  Y  Y4  1  0.291719  0.708281  0.102934  1
  Y  Y5  1  0.708281  0.291719  0.897066  1
  Ga  Ga6  1  0.000000  0.000000  0.000000  1
  Ga  Ga7  1  0.000000  0.000000  0.500000  1
  Co  Co8  1  0.696257  0.303743  0.250000  1
  Co  Co9  1  0.303743  0.696257  0.750000  1
  Co  Co10  1  0.418305  0.581695  0.596021  1
  Co  Co11  1  0.581695  0.418305  0.403979  1
  Co  Co12  1  0.581695  0.418305  0.096021  1
  Co  Co13  1  0.418305  0.581695  0.903979  1
