# generated using pymatgen
data_TmPu(ThH5)6
_symmetry_space_group_name_H-M   'P 1'
_cell_length_a   7.82637290
_cell_length_b   7.82101538
_cell_length_c   7.78439324
_cell_angle_alpha   109.46905773
_cell_angle_beta   109.44973787
_cell_angle_gamma   109.49982512
_symmetry_Int_Tables_number   1
_chemical_formula_structural   TmPu(ThH5)6
_chemical_formula_sum   'Tm1 Pu1 Th6 H30'
_cell_volume   366.77515447
_cell_formula_units_Z   1
loop_
 _symmetry_equiv_pos_site_id
 _symmetry_equiv_pos_as_xyz
  1  'x, y, z'
loop_
 _atom_site_type_symbol
 _atom_site_label
 _atom_site_symmetry_multiplicity
 _atom_site_fract_x
 _atom_site_fract_y
 _atom_site_fract_z
 _atom_site_occupancy
  Tm  Tm0  1  0.499623  0.999957  0.086032  1
  Pu  Pu1  1  0.913893  0.912946  0.915456  1
  Th  Th2  1  0.992862  0.078775  0.493470  1
  Th  Th3  1  0.085391  0.505891  0.001490  1
  Th  Th4  1  0.999170  0.584090  0.504000  1
  Th  Th5  1  0.582630  0.502610  0.999037  1
  Th  Th6  1  0.503583  0.998642  0.587918  1
  Th  Th7  1  0.417381  0.410121  0.411712  1
  H  H8  1  0.649626  0.963135  0.367200  1
  H  H9  1  0.217260  0.317726  0.844172  1
  H  H10  1  0.186456  0.402534  0.533543  1
  H  H11  1  0.096110  0.281930  0.128040  1
  H  H12  1  0.285806  0.123998  0.091830  1
  H  H13  1  0.128880  0.092640  0.278261  1
  H  H14  1  0.475071  0.155514  0.878569  1
  H  H15  1  0.718738  0.349681  0.813691  1
  H  H16  1  0.628314  0.380247  0.251051  1
  H  H17  1  0.251779  0.624972  0.377661  1
  H  H18  1  0.750053  0.873147  0.122811  1
  H  H19  1  0.119912  0.751170  0.875170  1
  H  H20  1  0.374040  0.247410  0.624119  1
  H  H21  1  0.876134  0.128116  0.750904  1
  H  H22  1  0.780486  0.592400  0.630385  1
  H  H23  1  0.319911  0.849269  0.221249  1
  H  H24  1  0.373062  0.662029  0.967045  1
  H  H25  1  0.963745  0.368965  0.651400  1
  H  H26  1  0.537017  0.184103  0.403712  1
  H  H27  1  0.405377  0.537875  0.186904  1
  H  H28  1  0.836197  0.215472  0.310920  1
  H  H29  1  0.904470  0.689263  0.035039  1
  H  H30  1  0.813054  0.717503  0.347409  1
  H  H31  1  0.152150  0.869001  0.465753  1
  H  H32  1  0.685296  0.026274  0.907265  1
  H  H33  1  0.346607  0.819962  0.726228  1
  H  H34  1  0.871338  0.470337  0.153517  1
  H  H35  1  0.633261  0.779609  0.594045  1
  H  H36  1  0.596260  0.628603  0.778204  1
  H  H37  1  0.029056  0.904085  0.684789  1
