# generated using pymatgen
data_YHo11IrOs3
_symmetry_space_group_name_H-M   'P 1'
_cell_length_a   6.35519790
_cell_length_b   7.35751159
_cell_length_c   9.02908100
_cell_angle_alpha   90.00000000
_cell_angle_beta   90.00000000
_cell_angle_gamma   89.89900557
_symmetry_Int_Tables_number   1
_chemical_formula_structural   YHo11IrOs3
_chemical_formula_sum   'Y1 Ho11 Ir1 Os3'
_cell_volume   422.18510624
_cell_formula_units_Z   1
loop_
 _symmetry_equiv_pos_site_id
 _symmetry_equiv_pos_as_xyz
  1  'x, y, z'
loop_
 _atom_site_type_symbol
 _atom_site_label
 _atom_site_symmetry_multiplicity
 _atom_site_fract_x
 _atom_site_fract_y
 _atom_site_fract_z
 _atom_site_occupancy
  Y  Y0  1  0.872170  0.536900  0.250000  1
  Ho  Ho1  1  0.332599  0.674148  0.062003  1
  Ho  Ho2  1  0.170639  0.176159  0.438543  1
  Ho  Ho3  1  0.669383  0.324320  0.563492  1
  Ho  Ho4  1  0.827540  0.824919  0.934904  1
  Ho  Ho5  1  0.669383  0.324320  0.936508  1
  Ho  Ho6  1  0.827540  0.824919  0.565096  1
  Ho  Ho7  1  0.332599  0.674148  0.437997  1
  Ho  Ho8  1  0.170639  0.176159  0.061457  1
  Ho  Ho9  1  0.629409  0.039484  0.250000  1
  Ho  Ho10  1  0.128982  0.461673  0.750000  1
  Ho  Ho11  1  0.369403  0.961266  0.750000  1
  Ir  Ir12  1  0.041353  0.886003  0.250000  1
  Os  Os13  1  0.458497  0.382842  0.250000  1
  Os  Os14  1  0.962807  0.115881  0.750000  1
  Os  Os15  1  0.537059  0.616862  0.750000  1
