# generated using pymatgen
data_La11Y(Zn2Ni)4
_symmetry_space_group_name_H-M   'P 1'
_cell_length_a   13.05300700
_cell_length_b   13.05300804
_cell_length_c   3.78166000
_cell_angle_alpha   90.00000000
_cell_angle_beta   90.00000000
_cell_angle_gamma   113.53891102
_symmetry_Int_Tables_number   1
_chemical_formula_structural   La11Y(Zn2Ni)4
_chemical_formula_sum   'La11 Y1 Zn8 Ni4'
_cell_volume   590.70830879
_cell_formula_units_Z   1
loop_
 _symmetry_equiv_pos_site_id
 _symmetry_equiv_pos_as_xyz
  1  'x, y, z'
loop_
 _atom_site_type_symbol
 _atom_site_label
 _atom_site_symmetry_multiplicity
 _atom_site_fract_x
 _atom_site_fract_y
 _atom_site_fract_z
 _atom_site_occupancy
  La  La0  1  0.285017  0.285017  0.000000  1
  La  La1  1  0.714983  0.714983  0.000000  1
  La  La2  1  0.000000  0.000000  0.000000  1
  La  La3  1  0.078270  0.424978  0.000000  1
  La  La4  1  0.921730  0.575022  0.000000  1
  La  La5  1  0.424978  0.078270  0.000000  1
  La  La6  1  0.575022  0.921730  0.000000  1
  La  La7  1  0.837104  0.162896  0.000000  1
  La  La8  1  0.162896  0.837104  0.000000  1
  La  La9  1  0.643380  0.356620  0.000000  1
  La  La10  1  0.356620  0.643380  0.000000  1
  Y  Y11  1  0.500000  0.500000  0.500000  1
  Zn  Zn12  1  0.842443  0.359986  0.500000  1
  Zn  Zn13  1  0.157557  0.640014  0.500000  1
  Zn  Zn14  1  0.359986  0.842443  0.500000  1
  Zn  Zn15  1  0.640014  0.157557  0.500000  1
  Zn  Zn16  1  0.064327  0.220044  0.500000  1
  Zn  Zn17  1  0.935673  0.779956  0.500000  1
  Zn  Zn18  1  0.220044  0.064327  0.500000  1
  Zn  Zn19  1  0.779956  0.935673  0.500000  1
  Ni  Ni20  1  0.249114  0.448507  0.500000  1
  Ni  Ni21  1  0.750886  0.551493  0.500000  1
  Ni  Ni22  1  0.448507  0.249114  0.500000  1
  Ni  Ni23  1  0.551493  0.750886  0.500000  1
