# generated using pymatgen
data_La3PrDy4(TeO6)4
_symmetry_space_group_name_H-M   'P 1'
_cell_length_a   5.46975612
_cell_length_b   9.34924018
_cell_length_c   10.23082180
_cell_angle_alpha   90.07129916
_cell_angle_beta   90.06849517
_cell_angle_gamma   90.12269253
_symmetry_Int_Tables_number   1
_chemical_formula_structural   La3PrDy4(TeO6)4
_chemical_formula_sum   'La3 Pr1 Dy4 Te4 O24'
_cell_volume   523.18243635
_cell_formula_units_Z   1
loop_
 _symmetry_equiv_pos_site_id
 _symmetry_equiv_pos_as_xyz
  1  'x, y, z'
loop_
 _atom_site_type_symbol
 _atom_site_label
 _atom_site_symmetry_multiplicity
 _atom_site_fract_x
 _atom_site_fract_y
 _atom_site_fract_z
 _atom_site_occupancy
  La  La0  1  0.030757  0.279517  0.643351  1
  La  La1  1  0.469951  0.720610  0.143796  1
  La  La2  1  0.969496  0.780510  0.857070  1
  Pr  Pr3  1  0.533131  0.219542  0.359119  1
  Dy  Dy4  1  0.519481  0.104216  0.955969  1
  Dy  Dy5  1  0.018361  0.396839  0.044336  1
  Dy  Dy6  1  0.481724  0.602808  0.543819  1
  Dy  Dy7  1  0.981169  0.895493  0.455246  1
  Te  Te8  1  0.466824  0.989674  0.641354  1
  Te  Te9  1  0.966912  0.509216  0.357777  1
  Te  Te10  1  0.532577  0.489691  0.858106  1
  Te  Te11  1  0.033666  0.011432  0.142789  1
  O  O12  1  0.305905  0.144686  0.169951  1
  O  O13  1  0.803769  0.356121  0.832691  1
  O  O14  1  0.695822  0.643468  0.333240  1
  O  O15  1  0.194914  0.856471  0.667081  1
  O  O16  1  0.726577  0.107196  0.561622  1
  O  O17  1  0.228496  0.392551  0.435447  1
  O  O18  1  0.271665  0.606585  0.936246  1
  O  O19  1  0.772137  0.894421  0.063479  1
  O  O20  1  0.673798  0.633024  0.743663  1
  O  O21  1  0.172865  0.866768  0.256225  1
  O  O22  1  0.326643  0.133026  0.755944  1
  O  O23  1  0.823855  0.366568  0.243232  1
  O  O24  1  0.665514  0.951076  0.793730  1
  O  O25  1  0.163070  0.550633  0.205422  1
  O  O26  1  0.335872  0.449479  0.705236  1
  O  O27  1  0.835160  0.050121  0.294864  1
  O  O28  1  0.259559  0.073069  0.501958  1
  O  O29  1  0.757851  0.424461  0.496242  1
  O  O30  1  0.740479  0.573771  0.997256  1
  O  O31  1  0.241325  0.927925  0.003515  1
  O  O32  1  0.107337  0.660666  0.466199  1
  O  O33  1  0.607284  0.837880  0.534229  1
  O  O34  1  0.894317  0.162300  0.034262  1
  O  O35  1  0.391737  0.338189  0.965533  1
