# generated using pymatgen
data_Tb4DyInAu4
_symmetry_space_group_name_H-M   'P 1'
_cell_length_a   8.09167100
_cell_length_b   8.09167100
_cell_length_c   3.80930000
_cell_angle_alpha   90.00000000
_cell_angle_beta   90.00000000
_cell_angle_gamma   90.00000000
_symmetry_Int_Tables_number   1
_chemical_formula_structural   Tb4DyInAu4
_chemical_formula_sum   'Tb4 Dy1 In1 Au4'
_cell_volume   249.41444917
_cell_formula_units_Z   1
loop_
 _symmetry_equiv_pos_site_id
 _symmetry_equiv_pos_as_xyz
  1  'x, y, z'
loop_
 _atom_site_type_symbol
 _atom_site_label
 _atom_site_symmetry_multiplicity
 _atom_site_fract_x
 _atom_site_fract_y
 _atom_site_fract_z
 _atom_site_occupancy
  Tb  Tb0  1  0.686967  0.139464  0.500000  1
  Tb  Tb1  1  0.313033  0.860536  0.500000  1
  Tb  Tb2  1  0.139464  0.313033  0.500000  1
  Tb  Tb3  1  0.860536  0.686967  0.500000  1
  Dy  Dy4  1  0.500000  0.500000  0.000000  1
  In  In5  1  0.000000  0.000000  0.000000  1
  Au  Au6  1  0.146008  0.619044  0.000000  1
  Au  Au7  1  0.853992  0.380956  0.000000  1
  Au  Au8  1  0.619044  0.853992  0.000000  1
  Au  Au9  1  0.380956  0.146008  0.000000  1
