# generated using pymatgen
data_Gd5IrPdRh
_symmetry_space_group_name_H-M   'P 1'
_cell_length_a   11.20146700
_cell_length_b   11.20146700
_cell_length_c   6.45548500
_cell_angle_alpha   90.00000000
_cell_angle_beta   90.00000000
_cell_angle_gamma   90.00000000
_symmetry_Int_Tables_number   1
_chemical_formula_structural   Gd5IrPdRh
_chemical_formula_sum   'Gd20 Ir4 Pd4 Rh4'
_cell_volume   809.98818469
_cell_formula_units_Z   4
loop_
 _symmetry_equiv_pos_site_id
 _symmetry_equiv_pos_as_xyz
  1  'x, y, z'
loop_
 _atom_site_type_symbol
 _atom_site_label
 _atom_site_symmetry_multiplicity
 _atom_site_fract_x
 _atom_site_fract_y
 _atom_site_fract_z
 _atom_site_occupancy
  Gd  Gd0  1  0.296997  0.092257  0.371278  1
  Gd  Gd1  1  0.296997  0.907743  0.871278  1
  Gd  Gd2  1  0.703003  0.092257  0.871278  1
  Gd  Gd3  1  0.703003  0.907743  0.371278  1
  Gd  Gd4  1  0.584352  0.788689  0.880558  1
  Gd  Gd5  1  0.584352  0.211311  0.380558  1
  Gd  Gd6  1  0.415648  0.788689  0.380558  1
  Gd  Gd7  1  0.415648  0.211311  0.880558  1
  Gd  Gd8  1  0.211311  0.415648  0.619442  1
  Gd  Gd9  1  0.211311  0.584352  0.119442  1
  Gd  Gd10  1  0.788689  0.415648  0.119442  1
  Gd  Gd11  1  0.788689  0.584352  0.619442  1
  Gd  Gd12  1  0.907743  0.703003  0.128722  1
  Gd  Gd13  1  0.907743  0.296997  0.628722  1
  Gd  Gd14  1  0.092257  0.703003  0.628722  1
  Gd  Gd15  1  0.092257  0.296997  0.128722  1
  Gd  Gd16  1  0.000000  0.000000  0.500000  1
  Gd  Gd17  1  0.000000  0.000000  0.000000  1
  Gd  Gd18  1  0.500000  0.500000  0.000000  1
  Gd  Gd19  1  0.500000  0.500000  0.500000  1
  Ir  Ir20  1  0.654979  0.345021  0.750000  1
  Ir  Ir21  1  0.654979  0.654979  0.250000  1
  Ir  Ir22  1  0.345021  0.345021  0.250000  1
  Ir  Ir23  1  0.345021  0.654979  0.750000  1
  Pd  Pd24  1  0.846003  0.153997  0.250000  1
  Pd  Pd25  1  0.846003  0.846003  0.750000  1
  Pd  Pd26  1  0.153997  0.153997  0.750000  1
  Pd  Pd27  1  0.153997  0.846003  0.250000  1
  Rh  Rh28  1  0.500000  0.000000  0.122236  1
  Rh  Rh29  1  0.500000  0.000000  0.622236  1
  Rh  Rh30  1  0.000000  0.500000  0.877764  1
  Rh  Rh31  1  0.000000  0.500000  0.377764  1
