# generated using pymatgen
data_Yb3Ce(ScIr)4
_symmetry_space_group_name_H-M   'P 1'
_cell_length_a   7.39348938
_cell_length_b   4.23529700
_cell_length_c   8.55950060
_cell_angle_alpha   90.00000000
_cell_angle_beta   91.41311347
_cell_angle_gamma   90.00000000
_symmetry_Int_Tables_number   1
_chemical_formula_structural   Yb3Ce(ScIr)4
_chemical_formula_sum   'Yb3 Ce1 Sc4 Ir4'
_cell_volume   267.94746279
_cell_formula_units_Z   1
loop_
 _symmetry_equiv_pos_site_id
 _symmetry_equiv_pos_as_xyz
  1  'x, y, z'
loop_
 _atom_site_type_symbol
 _atom_site_label
 _atom_site_symmetry_multiplicity
 _atom_site_fract_x
 _atom_site_fract_y
 _atom_site_fract_z
 _atom_site_occupancy
  Yb  Yb0  1  0.975573  0.250000  0.172501  1
  Yb  Yb1  1  0.477126  0.250000  0.325302  1
  Yb  Yb2  1  0.019965  0.750000  0.827595  1
  Ce  Ce3  1  0.523999  0.750000  0.676095  1
  Sc  Sc4  1  0.869850  0.250000  0.563160  1
  Sc  Sc5  1  0.346707  0.250000  0.941248  1
  Sc  Sc6  1  0.143958  0.750000  0.431559  1
  Sc  Sc7  1  0.640186  0.750000  0.067244  1
  Ir  Ir8  1  0.702578  0.250000  0.870463  1
  Ir  Ir9  1  0.242900  0.250000  0.612823  1
  Ir  Ir10  1  0.279604  0.750000  0.120242  1
  Ir  Ir11  1  0.777556  0.750000  0.391770  1
