# generated using pymatgen
data_Nd16Zr4Ir7Rh5
_symmetry_space_group_name_H-M   'P 1'
_cell_length_a   11.15568866
_cell_length_b   11.15568866
_cell_length_c   6.42664946
_cell_angle_alpha   89.92877146
_cell_angle_beta   89.92877146
_cell_angle_gamma   90.05893906
_symmetry_Int_Tables_number   1
_chemical_formula_structural   Nd16Zr4Ir7Rh5
_chemical_formula_sum   'Nd16 Zr4 Ir7 Rh5'
_cell_volume   799.79094036
_cell_formula_units_Z   1
loop_
 _symmetry_equiv_pos_site_id
 _symmetry_equiv_pos_as_xyz
  1  'x, y, z'
loop_
 _atom_site_type_symbol
 _atom_site_label
 _atom_site_symmetry_multiplicity
 _atom_site_fract_x
 _atom_site_fract_y
 _atom_site_fract_z
 _atom_site_occupancy
  Nd  Nd0  1  0.087221  0.286931  0.121498  1
  Nd  Nd1  1  0.786997  0.412651  0.121292  1
  Nd  Nd2  1  0.213434  0.586083  0.120981  1
  Nd  Nd3  1  0.911824  0.712625  0.121111  1
  Nd  Nd4  1  0.413917  0.786566  0.379019  1
  Nd  Nd5  1  0.587349  0.213003  0.378708  1
  Nd  Nd6  1  0.287375  0.088176  0.378889  1
  Nd  Nd7  1  0.713069  0.912779  0.378502  1
  Nd  Nd8  1  0.412858  0.213077  0.878585  1
  Nd  Nd9  1  0.712965  0.087343  0.878310  1
  Nd  Nd10  1  0.287440  0.912909  0.877994  1
  Nd  Nd11  1  0.587180  0.787023  0.878715  1
  Nd  Nd12  1  0.087091  0.712560  0.622006  1
  Nd  Nd13  1  0.912657  0.287035  0.621690  1
  Nd  Nd14  1  0.212977  0.412820  0.621285  1
  Nd  Nd15  1  0.786923  0.587142  0.621415  1
  Zr  Zr16  1  0.999387  0.000535  0.999168  1
  Zr  Zr17  1  0.500069  0.500063  0.000111  1
  Zr  Zr18  1  0.499937  0.499931  0.499889  1
  Zr  Zr19  1  0.999465  0.000613  0.500832  1
  Ir  Ir20  1  0.360070  0.360189  0.249988  1
  Ir  Ir21  1  0.639811  0.639930  0.250012  1
  Ir  Ir22  1  0.860604  0.139396  0.250000  1
  Ir  Ir23  1  0.359955  0.640045  0.750000  1
  Ir  Ir24  1  0.139500  0.138819  0.749925  1
  Ir  Ir25  1  0.861181  0.860500  0.750075  1
  Ir  Ir26  1  0.639684  0.360316  0.750000  1
  Rh  Rh27  1  0.139512  0.860488  0.250000  1
  Rh  Rh28  1  0.000150  0.500474  0.379367  1
  Rh  Rh29  1  0.499526  0.999850  0.120633  1
  Rh  Rh30  1  0.499801  0.999929  0.620576  1
  Rh  Rh31  1  0.000071  0.500199  0.879424  1
