# generated using pymatgen
data_Yb4GaCuPd10
_symmetry_space_group_name_H-M   'P 1'
_cell_length_a   4.16358700
_cell_length_b   5.69190294
_cell_length_c   11.27615285
_cell_angle_alpha   91.85585129
_cell_angle_beta   90.00000000
_cell_angle_gamma   90.00000000
_symmetry_Int_Tables_number   1
_chemical_formula_structural   Yb4GaCuPd10
_chemical_formula_sum   'Yb4 Ga1 Cu1 Pd10'
_cell_volume   267.09036521
_cell_formula_units_Z   1
loop_
 _symmetry_equiv_pos_site_id
 _symmetry_equiv_pos_as_xyz
  1  'x, y, z'
loop_
 _atom_site_type_symbol
 _atom_site_label
 _atom_site_symmetry_multiplicity
 _atom_site_fract_x
 _atom_site_fract_y
 _atom_site_fract_z
 _atom_site_occupancy
  Yb  Yb0  1  0.000000  0.787658  0.631037  1
  Yb  Yb1  1  0.000000  0.309710  0.860719  1
  Yb  Yb2  1  0.000000  0.212342  0.368963  1
  Yb  Yb3  1  0.000000  0.690290  0.139281  1
  Ga  Ga4  1  0.500000  0.000000  0.000000  1
  Cu  Cu5  1  0.500000  0.500000  0.500000  1
  Pd  Pd6  1  0.000000  0.809472  0.893789  1
  Pd  Pd7  1  0.000000  0.710489  0.385400  1
  Pd  Pd8  1  0.000000  0.289511  0.614600  1
  Pd  Pd9  1  0.500000  0.951264  0.242701  1
  Pd  Pd10  1  0.500000  0.451363  0.254371  1
  Pd  Pd11  1  0.500000  0.548637  0.745629  1
  Pd  Pd12  1  0.500000  0.048736  0.757299  1
  Pd  Pd13  1  0.500000  0.500000  0.000000  1
  Pd  Pd14  1  0.500000  0.000000  0.500000  1
  Pd  Pd15  1  0.000000  0.190528  0.106211  1
