# generated using pymatgen
data_Tb16Y4Sn9Bi7
_symmetry_space_group_name_H-M   'P 1'
_cell_length_a   8.20363755
_cell_length_b   8.23426439
_cell_length_c   15.68458600
_cell_angle_alpha   90.06695455
_cell_angle_beta   89.60390177
_cell_angle_gamma   89.91772091
_symmetry_Int_Tables_number   1
_chemical_formula_structural   Tb16Y4Sn9Bi7
_chemical_formula_sum   'Tb16 Y4 Sn9 Bi7'
_cell_volume   1059.48107602
_cell_formula_units_Z   1
loop_
 _symmetry_equiv_pos_site_id
 _symmetry_equiv_pos_as_xyz
  1  'x, y, z'
loop_
 _atom_site_type_symbol
 _atom_site_label
 _atom_site_symmetry_multiplicity
 _atom_site_fract_x
 _atom_site_fract_y
 _atom_site_fract_z
 _atom_site_occupancy
  Tb  Tb0  1  0.394467  0.837716  0.877800  1
  Tb  Tb1  1  0.897915  0.664173  0.621329  1
  Tb  Tb2  1  0.602182  0.162702  0.378102  1
  Tb  Tb3  1  0.101926  0.337858  0.121164  1
  Tb  Tb4  1  0.607259  0.167488  0.121234  1
  Tb  Tb5  1  0.102242  0.336209  0.378172  1
  Tb  Tb6  1  0.396679  0.837999  0.622480  1
  Tb  Tb7  1  0.891948  0.660858  0.880323  1
  Tb  Tb8  1  0.564942  0.333394  0.890240  1
  Tb  Tb9  1  0.065587  0.169531  0.613827  1
  Tb  Tb10  1  0.435061  0.668363  0.386590  1
  Tb  Tb11  1  0.937416  0.823469  0.111279  1
  Tb  Tb12  1  0.446249  0.665725  0.110021  1
  Tb  Tb13  1  0.934534  0.830377  0.386002  1
  Tb  Tb14  1  0.565869  0.331825  0.613441  1
  Tb  Tb15  1  0.056719  0.173910  0.889848  1
  Y  Y16  1  0.228492  0.500257  0.750769  1
  Y  Y17  1  0.728391  0.002095  0.750781  1
  Y  Y18  1  0.771795  0.499605  0.246277  1
  Y  Y19  1  0.271485  0.998080  0.248765  1
  Sn  Sn20  1  0.768687  0.480337  0.044474  1
  Sn  Sn21  1  0.594380  0.629341  0.749806  1
  Sn  Sn22  1  0.092667  0.872349  0.751098  1
  Sn  Sn23  1  0.404756  0.370785  0.250313  1
  Sn  Sn24  1  0.905966  0.126882  0.250001  1
  Sn  Sn25  1  0.366368  0.143392  0.751442  1
  Sn  Sn26  1  0.866754  0.359938  0.750240  1
  Sn  Sn27  1  0.633397  0.858654  0.249444  1
  Sn  Sn28  1  0.135447  0.640235  0.249632  1
  Bi  Bi29  1  0.265252  0.015806  0.044419  1
  Bi  Bi30  1  0.763581  0.486550  0.454152  1
  Bi  Bi31  1  0.736652  0.987443  0.545096  1
  Bi  Bi32  1  0.233307  0.518814  0.955652  1
  Bi  Bi33  1  0.731656  0.981876  0.955773  1
  Bi  Bi34  1  0.237283  0.513527  0.545176  1
  Bi  Bi35  1  0.262687  0.012437  0.454836  1
