# generated using pymatgen
data_Dy5Y3Re3B24Ir
_symmetry_space_group_name_H-M   'P 1'
_cell_length_a   3.68233100
_cell_length_b   9.18386248
_cell_length_c   11.56955205
_cell_angle_alpha   90.14789502
_cell_angle_beta   90.00000000
_cell_angle_gamma   90.00000000
_symmetry_Int_Tables_number   1
_chemical_formula_structural   Dy5Y3Re3B24Ir
_chemical_formula_sum   'Dy5 Y3 Re3 B24 Ir1'
_cell_volume   391.25805639
_cell_formula_units_Z   1
loop_
 _symmetry_equiv_pos_site_id
 _symmetry_equiv_pos_as_xyz
  1  'x, y, z'
loop_
 _atom_site_type_symbol
 _atom_site_label
 _atom_site_symmetry_multiplicity
 _atom_site_fract_x
 _atom_site_fract_y
 _atom_site_fract_z
 _atom_site_occupancy
  Dy  Dy0  1  0.000000  0.177014  0.912445  1
  Dy  Dy1  1  0.000000  0.944144  0.370512  1
  Dy  Dy2  1  0.000000  0.055717  0.628795  1
  Dy  Dy3  1  0.000000  0.441344  0.128481  1
  Dy  Dy4  1  0.000000  0.556570  0.871637  1
  Y  Y5  1  0.000000  0.318169  0.415448  1
  Y  Y6  1  0.000000  0.678646  0.591235  1
  Y  Y7  1  0.000000  0.827115  0.081262  1
  Re  Re8  1  0.000000  0.362623  0.677530  1
  Re  Re9  1  0.000000  0.138196  0.179810  1
  Re  Re10  1  0.000000  0.862089  0.821161  1
  B  B11  1  0.500000  0.553954  0.433572  1
  B  B12  1  0.500000  0.446649  0.566963  1
  B  B13  1  0.500000  0.053600  0.066777  1
  B  B14  1  0.500000  0.947165  0.932350  1
  B  B15  1  0.500000  0.748872  0.420072  1
  B  B16  1  0.500000  0.251074  0.581280  1
  B  B17  1  0.500000  0.248475  0.081310  1
  B  B18  1  0.500000  0.752119  0.918683  1
  B  B19  1  0.500000  0.790874  0.265566  1
  B  B20  1  0.500000  0.208688  0.733856  1
  B  B21  1  0.500000  0.291410  0.234719  1
  B  B22  1  0.500000  0.708382  0.766323  1
  B  B23  1  0.500000  0.631811  0.184558  1
  B  B24  1  0.500000  0.369180  0.813722  1
  B  B25  1  0.500000  0.131050  0.314602  1
  B  B26  1  0.500000  0.868349  0.685978  1
  B  B27  1  0.500000  0.983409  0.211922  1
  B  B28  1  0.500000  0.017082  0.787043  1
  B  B29  1  0.500000  0.483222  0.287758  1
  B  B30  1  0.500000  0.517563  0.712548  1
  B  B31  1  0.500000  0.604690  0.029778  1
  B  B32  1  0.500000  0.396216  0.971638  1
  B  B33  1  0.500000  0.102939  0.470745  1
  B  B34  1  0.500000  0.894121  0.528536  1
  Ir  Ir35  1  0.000000  0.637479  0.321388  1
