# generated using pymatgen
data_Zr2Be8TcRh
_symmetry_space_group_name_H-M   'P 1'
_cell_length_a   4.54967300
_cell_length_b   4.54967427
_cell_length_c   7.45787500
_cell_angle_alpha   90.00000000
_cell_angle_beta   90.00000000
_cell_angle_gamma   120.00001256
_symmetry_Int_Tables_number   1
_chemical_formula_structural   Zr2Be8TcRh
_chemical_formula_sum   'Zr2 Be8 Tc1 Rh1'
_cell_volume   133.69222936
_cell_formula_units_Z   1
loop_
 _symmetry_equiv_pos_site_id
 _symmetry_equiv_pos_as_xyz
  1  'x, y, z'
loop_
 _atom_site_type_symbol
 _atom_site_label
 _atom_site_symmetry_multiplicity
 _atom_site_fract_x
 _atom_site_fract_y
 _atom_site_fract_z
 _atom_site_occupancy
  Zr  Zr0  1  0.666667  0.333333  0.936971  1
  Zr  Zr1  1  0.333333  0.666667  0.435109  1
  Be  Be2  1  0.000000  0.000000  0.005135  1
  Be  Be3  1  0.000000  0.000000  0.498898  1
  Be  Be4  1  0.833262  0.666524  0.251312  1
  Be  Be5  1  0.165919  0.834081  0.744560  1
  Be  Be6  1  0.668161  0.834081  0.744560  1
  Be  Be7  1  0.333476  0.166738  0.251312  1
  Be  Be8  1  0.833262  0.166738  0.251312  1
  Be  Be9  1  0.165919  0.331839  0.744560  1
  Tc  Tc10  1  0.666667  0.333333  0.567684  1
  Rh  Rh11  1  0.333333  0.666667  0.068589  1
