# generated using pymatgen
data_Nd6Cd22SiAg
_symmetry_space_group_name_H-M   'P 1'
_cell_length_a   10.04606072
_cell_length_b   10.08315813
_cell_length_c   10.08315885
_cell_angle_alpha   60.20952332
_cell_angle_beta   60.12163327
_cell_angle_gamma   60.12162892
_symmetry_Int_Tables_number   1
_chemical_formula_structural   Nd6Cd22SiAg
_chemical_formula_sum   'Nd6 Cd22 Si1 Ag1'
_cell_volume   724.69536033
_cell_formula_units_Z   1
loop_
 _symmetry_equiv_pos_site_id
 _symmetry_equiv_pos_as_xyz
  1  'x, y, z'
loop_
 _atom_site_type_symbol
 _atom_site_label
 _atom_site_symmetry_multiplicity
 _atom_site_fract_x
 _atom_site_fract_y
 _atom_site_fract_z
 _atom_site_occupancy
  Nd  Nd0  1  0.793119  0.793514  0.206486  1
  Nd  Nd1  1  0.206881  0.793514  0.206486  1
  Nd  Nd2  1  0.792875  0.207125  0.207125  1
  Nd  Nd3  1  0.206881  0.206486  0.793514  1
  Nd  Nd4  1  0.793119  0.206486  0.793514  1
  Nd  Nd5  1  0.207125  0.792875  0.792875  1
  Cd  Cd6  1  0.836683  0.830306  0.496327  1
  Cd  Cd7  1  0.836683  0.496327  0.830306  1
  Cd  Cd8  1  0.494099  0.835179  0.835179  1
  Cd  Cd9  1  0.835541  0.835179  0.835179  1
  Cd  Cd10  1  0.163317  0.169694  0.503673  1
  Cd  Cd11  1  0.163317  0.503673  0.169694  1
  Cd  Cd12  1  0.505901  0.164821  0.164821  1
  Cd  Cd13  1  0.164459  0.164821  0.164821  1
  Cd  Cd14  1  0.621683  0.622073  0.134562  1
  Cd  Cd15  1  0.621683  0.134562  0.622073  1
  Cd  Cd16  1  0.134419  0.619250  0.619250  1
  Cd  Cd17  1  0.627080  0.619250  0.619250  1
  Cd  Cd18  1  0.378317  0.377927  0.865438  1
  Cd  Cd19  1  0.378317  0.865438  0.377927  1
  Cd  Cd20  1  0.865581  0.380750  0.380750  1
  Cd  Cd21  1  0.372920  0.380750  0.380750  1
  Cd  Cd22  1  0.000000  0.000000  0.500000  1
  Cd  Cd23  1  0.500000  0.000000  0.500000  1
  Cd  Cd24  1  0.500000  0.500000  0.000000  1
  Cd  Cd25  1  0.000000  0.500000  0.000000  1
  Cd  Cd26  1  0.500000  0.000000  0.000000  1
  Cd  Cd27  1  0.500000  0.500000  0.500000  1
  Si  Si28  1  0.000000  0.000000  0.000000  1
  Ag  Ag29  1  0.000000  0.500000  0.500000  1
