# generated using pymatgen
data_Pr3MgOsC6
_symmetry_space_group_name_H-M   'P 1'
_cell_length_a   8.44266300
_cell_length_b   8.44266257
_cell_length_c   5.35663800
_cell_angle_alpha   90.00000000
_cell_angle_beta   90.00000000
_cell_angle_gamma   119.99998994
_symmetry_Int_Tables_number   1
_chemical_formula_structural   Pr3MgOsC6
_chemical_formula_sum   'Pr6 Mg2 Os2 C12'
_cell_volume   330.66015097
_cell_formula_units_Z   2
loop_
 _symmetry_equiv_pos_site_id
 _symmetry_equiv_pos_as_xyz
  1  'x, y, z'
loop_
 _atom_site_type_symbol
 _atom_site_label
 _atom_site_symmetry_multiplicity
 _atom_site_fract_x
 _atom_site_fract_y
 _atom_site_fract_z
 _atom_site_occupancy
  Pr  Pr0  1  0.613897  0.685056  0.750000  1
  Pr  Pr1  1  0.928840  0.613897  0.250000  1
  Pr  Pr2  1  0.685056  0.071160  0.250000  1
  Pr  Pr3  1  0.314944  0.928840  0.750000  1
  Pr  Pr4  1  0.071160  0.386103  0.750000  1
  Pr  Pr5  1  0.386103  0.314944  0.250000  1
  Mg  Mg6  1  0.000000  0.000000  0.500000  1
  Mg  Mg7  1  0.000000  0.000000  0.000000  1
  Os  Os8  1  0.666667  0.333333  0.750000  1
  Os  Os9  1  0.333333  0.666667  0.250000  1
  C  C10  1  0.961348  0.763781  0.750000  1
  C  C11  1  0.197568  0.961348  0.250000  1
  C  C12  1  0.763781  0.802432  0.250000  1
  C  C13  1  0.236219  0.197568  0.750000  1
  C  C14  1  0.802432  0.038652  0.750000  1
  C  C15  1  0.038652  0.236219  0.250000  1
  C  C16  1  0.865988  0.581504  0.750000  1
  C  C17  1  0.284483  0.865988  0.250000  1
  C  C18  1  0.581504  0.715517  0.250000  1
  C  C19  1  0.418496  0.284483  0.750000  1
  C  C20  1  0.134012  0.418496  0.250000  1
  C  C21  1  0.715517  0.134012  0.750000  1
