# generated using pymatgen
data_TmCu2(PdO2)4
_symmetry_space_group_name_H-M   'P 1'
_cell_length_a   6.78482149
_cell_length_b   6.78482162
_cell_length_c   6.69106800
_cell_angle_alpha   60.45604763
_cell_angle_beta   60.45604699
_cell_angle_gamma   59.08789434
_symmetry_Int_Tables_number   1
_chemical_formula_structural   TmCu2(PdO2)4
_chemical_formula_sum   'Tm1 Cu2 Pd4 O8'
_cell_volume   217.71765454
_cell_formula_units_Z   1
loop_
 _symmetry_equiv_pos_site_id
 _symmetry_equiv_pos_as_xyz
  1  'x, y, z'
loop_
 _atom_site_type_symbol
 _atom_site_label
 _atom_site_symmetry_multiplicity
 _atom_site_fract_x
 _atom_site_fract_y
 _atom_site_fract_z
 _atom_site_occupancy
  Tm  Tm0  1  0.000000  0.000000  0.000000  1
  Cu  Cu1  1  0.500000  0.500000  0.000000  1
  Cu  Cu2  1  0.000000  0.000000  0.500000  1
  Pd  Pd3  1  0.500000  0.000000  0.000000  1
  Pd  Pd4  1  0.500000  0.000000  0.500000  1
  Pd  Pd5  1  0.000000  0.500000  0.000000  1
  Pd  Pd6  1  0.000000  0.500000  0.500000  1
  O  O7  1  0.579088  0.152824  0.134043  1
  O  O8  1  0.134043  0.134043  0.152824  1
  O  O9  1  0.152824  0.579088  0.134043  1
  O  O10  1  0.134043  0.134043  0.579088  1
  O  O11  1  0.847176  0.420912  0.865957  1
  O  O12  1  0.865957  0.865957  0.420912  1
  O  O13  1  0.865957  0.865957  0.847176  1
  O  O14  1  0.420912  0.847176  0.865957  1
