# generated using pymatgen
data_Ho8Th4Tc3Ru
_symmetry_space_group_name_H-M   'P 1'
_cell_length_a   6.37078521
_cell_length_b   7.29198661
_cell_length_c   9.48879700
_cell_angle_alpha   90.00000000
_cell_angle_beta   90.00000000
_cell_angle_gamma   89.93668862
_symmetry_Int_Tables_number   1
_chemical_formula_structural   Ho8Th4Tc3Ru
_chemical_formula_sum   'Ho8 Th4 Tc3 Ru1'
_cell_volume   440.80825236
_cell_formula_units_Z   1
loop_
 _symmetry_equiv_pos_site_id
 _symmetry_equiv_pos_as_xyz
  1  'x, y, z'
loop_
 _atom_site_type_symbol
 _atom_site_label
 _atom_site_symmetry_multiplicity
 _atom_site_fract_x
 _atom_site_fract_y
 _atom_site_fract_z
 _atom_site_occupancy
  Ho  Ho0  1  0.331091  0.674561  0.067880  1
  Ho  Ho1  1  0.166215  0.175177  0.433130  1
  Ho  Ho2  1  0.665252  0.326025  0.567025  1
  Ho  Ho3  1  0.834729  0.824846  0.933223  1
  Ho  Ho4  1  0.665252  0.326025  0.932975  1
  Ho  Ho5  1  0.834729  0.824846  0.566777  1
  Ho  Ho6  1  0.331091  0.674561  0.432120  1
  Ho  Ho7  1  0.166215  0.175177  0.066870  1
  Th  Th8  1  0.855406  0.548978  0.250000  1
  Th  Th9  1  0.640864  0.047021  0.250000  1
  Th  Th10  1  0.145874  0.450576  0.750000  1
  Th  Th11  1  0.354454  0.950754  0.750000  1
  Tc  Tc12  1  0.019100  0.870969  0.250000  1
  Tc  Tc13  1  0.481619  0.371265  0.250000  1
  Tc  Tc14  1  0.979539  0.129868  0.750000  1
  Ru  Ru15  1  0.528572  0.629350  0.750000  1
