# generated using pymatgen
data_Ba4GaCu3F20
_symmetry_space_group_name_H-M   'P 1'
_cell_length_a   5.24605514
_cell_length_b   5.74248239
_cell_length_c   14.23476400
_cell_angle_alpha   88.90302350
_cell_angle_beta   89.83734308
_cell_angle_gamma   90.21317846
_symmetry_Int_Tables_number   1
_chemical_formula_structural   Ba4GaCu3F20
_chemical_formula_sum   'Ba4 Ga1 Cu3 F20'
_cell_volume   428.74428606
_cell_formula_units_Z   1
loop_
 _symmetry_equiv_pos_site_id
 _symmetry_equiv_pos_as_xyz
  1  'x, y, z'
loop_
 _atom_site_type_symbol
 _atom_site_label
 _atom_site_symmetry_multiplicity
 _atom_site_fract_x
 _atom_site_fract_y
 _atom_site_fract_z
 _atom_site_occupancy
  Ba  Ba0  1  0.739383  0.654446  0.655498  1
  Ba  Ba1  1  0.239045  0.845711  0.344594  1
  Ba  Ba2  1  0.268450  0.151250  0.845817  1
  Ba  Ba3  1  0.768170  0.346421  0.154563  1
  Ga  Ga4  1  0.311543  0.148561  0.587225  1
  Cu  Cu5  1  0.813274  0.350223  0.413366  1
  Cu  Cu6  1  0.686073  0.647977  0.914439  1
  Cu  Cu7  1  0.186673  0.851641  0.085984  1
  F  F8  1  0.944356  0.616471  0.474610  1
  F  F9  1  0.442012  0.888630  0.524197  1
  F  F10  1  0.057456  0.119375  0.022562  1
  F  F11  1  0.554765  0.381600  0.978593  1
  F  F12  1  0.625313  0.542631  0.327386  1
  F  F13  1  0.123799  0.951938  0.672554  1
  F  F14  1  0.375100  0.045723  0.169660  1
  F  F15  1  0.874666  0.453606  0.831184  1
  F  F16  1  0.191472  0.415477  0.648633  1
  F  F17  1  0.699487  0.083436  0.346709  1
  F  F18  1  0.802291  0.916940  0.847611  1
  F  F19  1  0.301835  0.583355  0.153681  1
  F  F20  1  0.583519  0.141158  0.677865  1
  F  F21  1  0.084512  0.363650  0.322462  1
  F  F22  1  0.417024  0.636290  0.822569  1
  F  F23  1  0.916945  0.861376  0.177872  1
  F  F24  1  0.531758  0.354874  0.507014  1
  F  F25  1  0.034747  0.146095  0.493076  1
  F  F26  1  0.463417  0.845565  0.992183  1
  F  F27  1  0.962915  0.655580  0.008094  1
