# generated using pymatgen
data_Sm2Y4FeCl10
_symmetry_space_group_name_H-M   'P 1'
_cell_length_a   7.16614495
_cell_length_b   8.74484985
_cell_length_c   9.04471299
_cell_angle_alpha   108.85681510
_cell_angle_beta   96.79394156
_cell_angle_gamma   104.96268886
_symmetry_Int_Tables_number   1
_chemical_formula_structural   Sm2Y4FeCl10
_chemical_formula_sum   'Sm2 Y4 Fe1 Cl10'
_cell_volume   505.42203215
_cell_formula_units_Z   1
loop_
 _symmetry_equiv_pos_site_id
 _symmetry_equiv_pos_as_xyz
  1  'x, y, z'
loop_
 _atom_site_type_symbol
 _atom_site_label
 _atom_site_symmetry_multiplicity
 _atom_site_fract_x
 _atom_site_fract_y
 _atom_site_fract_z
 _atom_site_occupancy
  Sm  Sm0  1  0.465431  0.782255  0.586304  1
  Sm  Sm1  1  0.534569  0.217745  0.413696  1
  Y  Y2  1  0.365711  0.446342  0.750288  1
  Y  Y3  1  0.634289  0.553658  0.249712  1
  Y  Y4  1  0.868468  0.642295  0.691054  1
  Y  Y5  1  0.131532  0.357705  0.308946  1
  Fe  Fe6  1  0.500000  0.500000  0.500000  1
  Cl  Cl7  1  0.412314  0.134882  0.670658  1
  Cl  Cl8  1  0.587686  0.865118  0.329342  1
  Cl  Cl9  1  0.048546  0.670161  0.420864  1
  Cl  Cl10  1  0.951454  0.329839  0.579136  1
  Cl  Cl11  1  0.285001  0.746197  0.843105  1
  Cl  Cl12  1  0.714999  0.253803  0.156895  1
  Cl  Cl13  1  0.260304  0.418460  0.048234  1
  Cl  Cl14  1  0.739696  0.581540  0.951766  1
  Cl  Cl15  1  0.845827  0.949788  0.771693  1
  Cl  Cl16  1  0.154173  0.050212  0.228307  1
