# generated using pymatgen
data_Pr3Ho8In9Ir4
_symmetry_space_group_name_H-M   'P 1'
_cell_length_a   13.12242869
_cell_length_b   13.12242930
_cell_length_c   3.76825500
_cell_angle_alpha   90.00000000
_cell_angle_beta   90.00000000
_cell_angle_gamma   111.27452978
_symmetry_Int_Tables_number   1
_chemical_formula_structural   Pr3Ho8In9Ir4
_chemical_formula_sum   'Pr3 Ho8 In9 Ir4'
_cell_volume   604.66659350
_cell_formula_units_Z   1
loop_
 _symmetry_equiv_pos_site_id
 _symmetry_equiv_pos_as_xyz
  1  'x, y, z'
loop_
 _atom_site_type_symbol
 _atom_site_label
 _atom_site_symmetry_multiplicity
 _atom_site_fract_x
 _atom_site_fract_y
 _atom_site_fract_z
 _atom_site_occupancy
  Pr  Pr0  1  0.500000  0.500000  0.500000  1
  Pr  Pr1  1  0.340471  0.659529  0.500000  1
  Pr  Pr2  1  0.659529  0.340471  0.500000  1
  Ho  Ho3  1  0.817560  0.817560  0.500000  1
  Ho  Ho4  1  0.182440  0.182440  0.500000  1
  Ho  Ho5  1  0.583301  0.919006  0.500000  1
  Ho  Ho6  1  0.416699  0.080994  0.500000  1
  Ho  Ho7  1  0.919006  0.583301  0.500000  1
  Ho  Ho8  1  0.080994  0.416699  0.500000  1
  Ho  Ho9  1  0.124852  0.875148  0.500000  1
  Ho  Ho10  1  0.875148  0.124852  0.500000  1
  In  In11  1  0.339258  0.869007  0.000000  1
  In  In12  1  0.660742  0.130993  0.000000  1
  In  In13  1  0.869007  0.339258  0.000000  1
  In  In14  1  0.130993  0.660742  0.000000  1
  In  In15  1  0.583240  0.723843  0.000000  1
  In  In16  1  0.416760  0.276157  0.000000  1
  In  In17  1  0.723843  0.583240  0.000000  1
  In  In18  1  0.276157  0.416760  0.000000  1
  In  In19  1  0.000000  0.000000  0.000000  1
  Ir  Ir20  1  0.747662  0.953299  0.000000  1
  Ir  Ir21  1  0.252338  0.046701  0.000000  1
  Ir  Ir22  1  0.953299  0.747662  0.000000  1
  Ir  Ir23  1  0.046701  0.252338  0.000000  1
