# generated using pymatgen
data_La2Pr(OsO5)2
_symmetry_space_group_name_H-M   'P 1'
_cell_length_a   5.61598107
_cell_length_b   5.61598179
_cell_length_c   7.03383138
_cell_angle_alpha   72.37886482
_cell_angle_beta   72.37886673
_cell_angle_gamma   90.36027242
_symmetry_Int_Tables_number   1
_chemical_formula_structural   La2Pr(OsO5)2
_chemical_formula_sum   'La2 Pr1 Os2 O10'
_cell_volume   200.33764700
_cell_formula_units_Z   1
loop_
 _symmetry_equiv_pos_site_id
 _symmetry_equiv_pos_as_xyz
  1  'x, y, z'
loop_
 _atom_site_type_symbol
 _atom_site_label
 _atom_site_symmetry_multiplicity
 _atom_site_fract_x
 _atom_site_fract_y
 _atom_site_fract_z
 _atom_site_occupancy
  La  La0  1  0.755591  0.244409  0.500000  1
  La  La1  1  0.244409  0.755591  0.500000  1
  Pr  Pr2  1  0.500000  0.500000  0.000000  1
  Os  Os3  1  0.130316  0.130316  0.824272  1
  Os  Os4  1  0.869684  0.869684  0.175728  1
  O  O5  1  0.829087  0.829087  0.472849  1
  O  O6  1  0.170913  0.170913  0.527151  1
  O  O7  1  0.596428  0.596428  0.282719  1
  O  O8  1  0.403572  0.403572  0.717281  1
  O  O9  1  0.377584  0.896849  0.790026  1
  O  O10  1  0.854227  0.854227  0.899086  1
  O  O11  1  0.145773  0.145773  0.100914  1
  O  O12  1  0.896849  0.377584  0.790026  1
  O  O13  1  0.622416  0.103151  0.209974  1
  O  O14  1  0.103151  0.622416  0.209974  1
