# generated using pymatgen
data_HfZr5AlAsN2
_symmetry_space_group_name_H-M   'P 1'
_cell_length_a   5.95136688
_cell_length_b   5.95136621
_cell_length_c   8.71254000
_cell_angle_alpha   90.00000000
_cell_angle_beta   90.00000000
_cell_angle_gamma   146.31804779
_symmetry_Int_Tables_number   1
_chemical_formula_structural   HfZr5AlAsN2
_chemical_formula_sum   'Hf1 Zr5 Al1 As1 N2'
_cell_volume   171.13711991
_cell_formula_units_Z   1
loop_
 _symmetry_equiv_pos_site_id
 _symmetry_equiv_pos_as_xyz
  1  'x, y, z'
loop_
 _atom_site_type_symbol
 _atom_site_label
 _atom_site_symmetry_multiplicity
 _atom_site_fract_x
 _atom_site_fract_y
 _atom_site_fract_z
 _atom_site_occupancy
  Hf  Hf0  1  0.047643  0.952357  0.750000  1
  Zr  Zr1  1  0.630819  0.369181  0.445710  1
  Zr  Zr2  1  0.373006  0.626994  0.546807  1
  Zr  Zr3  1  0.630819  0.369181  0.054290  1
  Zr  Zr4  1  0.373006  0.626994  0.953193  1
  Zr  Zr5  1  0.941360  0.058640  0.250000  1
  Al  Al6  1  0.746138  0.253862  0.750000  1
  As  As7  1  0.254281  0.745719  0.250000  1
  N  N8  1  0.001464  0.998536  0.499208  1
  N  N9  1  0.001464  0.998536  0.000792  1
