# generated using pymatgen
data_HfSc3(Tc2W)4
_symmetry_space_group_name_H-M   'P 1'
_cell_length_a   6.33650200
_cell_length_b   4.50438400
_cell_length_c   8.95995100
_cell_angle_alpha   89.99992347
_cell_angle_beta   90.00074052
_cell_angle_gamma   89.99992567
_symmetry_Int_Tables_number   1
_chemical_formula_structural   HfSc3(Tc2W)4
_chemical_formula_sum   'Hf1 Sc3 Tc8 W4'
_cell_volume   255.73526392
_cell_formula_units_Z   1
loop_
 _symmetry_equiv_pos_site_id
 _symmetry_equiv_pos_as_xyz
  1  'x, y, z'
loop_
 _atom_site_type_symbol
 _atom_site_label
 _atom_site_symmetry_multiplicity
 _atom_site_fract_x
 _atom_site_fract_y
 _atom_site_fract_z
 _atom_site_occupancy
  Hf  Hf0  1  0.250117  0.250000  0.124974  1
  Sc  Sc1  1  0.750125  0.749999  0.375598  1
  Sc  Sc2  1  0.249869  0.250003  0.624993  1
  Sc  Sc3  1  0.749872  0.749998  0.874415  1
  Tc  Tc4  1  0.000585  0.750000  0.124971  1
  Tc  Tc5  1  0.499584  0.749999  0.125016  1
  Tc  Tc6  1  0.999839  0.250000  0.374628  1
  Tc  Tc7  1  0.500327  0.250000  0.374689  1
  Tc  Tc8  1  0.499091  0.750002  0.624966  1
  Tc  Tc9  1  0.000749  0.749999  0.625025  1
  Tc  Tc10  1  0.500160  0.250001  0.875329  1
  Tc  Tc11  1  0.999678  0.249999  0.875377  1
  W  W12  1  0.750117  0.250001  0.125035  1
  W  W13  1  0.250117  0.749999  0.377329  1
  W  W14  1  0.749887  0.250001  0.625032  1
  W  W15  1  0.249886  0.750001  0.872626  1
