# generated using pymatgen
data_Cs4CrTe4
_symmetry_space_group_name_H-M   'P 1'
_cell_length_a   15.39590700
_cell_length_b   15.39590700
_cell_length_c   15.39590700
_cell_angle_alpha   90.00000000
_cell_angle_beta   90.00000000
_cell_angle_gamma   90.00000000
_symmetry_Int_Tables_number   1
_chemical_formula_structural   Cs4CrTe4
_chemical_formula_sum   'Cs32 Cr8 Te32'
_cell_volume   3649.35268626
_cell_formula_units_Z   8
loop_
 _symmetry_equiv_pos_site_id
 _symmetry_equiv_pos_as_xyz
  1  'x, y, z'
loop_
 _atom_site_type_symbol
 _atom_site_label
 _atom_site_symmetry_multiplicity
 _atom_site_fract_x
 _atom_site_fract_y
 _atom_site_fract_z
 _atom_site_occupancy
  Cs  Cs0  1  0.133108  0.912380  0.350349  1
  Cs  Cs1  1  0.412380  0.633108  0.850349  1
  Cs  Cs2  1  0.866892  0.912380  0.649651  1
  Cs  Cs3  1  0.587620  0.633108  0.149651  1
  Cs  Cs4  1  0.587620  0.366892  0.850349  1
  Cs  Cs5  1  0.350349  0.866892  0.087620  1
  Cs  Cs6  1  0.087620  0.350349  0.866892  1
  Cs  Cs7  1  0.650156  0.650156  0.650156  1
  Cs  Cs8  1  0.366892  0.850349  0.587620  1
  Cs  Cs9  1  0.849844  0.849844  0.150156  1
  Cs  Cs10  1  0.633108  0.149651  0.587620  1
  Cs  Cs11  1  0.866892  0.087620  0.350349  1
  Cs  Cs12  1  0.133108  0.087620  0.649651  1
  Cs  Cs13  1  0.850349  0.587620  0.366892  1
  Cs  Cs14  1  0.150156  0.849844  0.849844  1
  Cs  Cs15  1  0.912380  0.649651  0.866892  1
  Cs  Cs16  1  0.649651  0.133108  0.087620  1
  Cs  Cs17  1  0.412380  0.366892  0.149651  1
  Cs  Cs18  1  0.912380  0.350349  0.133108  1
  Cs  Cs19  1  0.350349  0.133108  0.912380  1
  Cs  Cs20  1  0.366892  0.149651  0.412380  1
  Cs  Cs21  1  0.349844  0.650156  0.349844  1
  Cs  Cs22  1  0.850349  0.412380  0.633108  1
  Cs  Cs23  1  0.150156  0.150156  0.150156  1
  Cs  Cs24  1  0.149651  0.587620  0.633108  1
  Cs  Cs25  1  0.149651  0.412380  0.366892  1
  Cs  Cs26  1  0.087620  0.649651  0.133108  1
  Cs  Cs27  1  0.849844  0.150156  0.849844  1
  Cs  Cs28  1  0.633108  0.850349  0.412380  1
  Cs  Cs29  1  0.649651  0.866892  0.912380  1
  Cs  Cs30  1  0.650156  0.349844  0.349844  1
  Cs  Cs31  1  0.349844  0.349844  0.650156  1
  Cr  Cr32  1  0.000000  0.750000  0.500000  1
  Cr  Cr33  1  0.500000  0.000000  0.250000  1
  Cr  Cr34  1  0.750000  0.500000  0.000000  1
  Cr  Cr35  1  0.500000  0.500000  0.500000  1
  Cr  Cr36  1  0.250000  0.500000  0.000000  1
  Cr  Cr37  1  0.000000  0.250000  0.500000  1
  Cr  Cr38  1  0.500000  0.000000  0.750000  1
  Cr  Cr39  1  0.000000  0.000000  0.000000  1
  Te  Te40  1  0.604529  0.907855  0.659453  1
  Te  Te41  1  0.840547  0.592145  0.104529  1
  Te  Te42  1  0.340547  0.395471  0.907855  1
  Te  Te43  1  0.659453  0.395471  0.092145  1
  Te  Te44  1  0.840547  0.407855  0.895471  1
  Te  Te45  1  0.104529  0.840547  0.592145  1
  Te  Te46  1  0.604529  0.092145  0.340547  1
  Te  Te47  1  0.592145  0.895471  0.159453  1
  Te  Te48  1  0.404340  0.404340  0.404340  1
  Te  Te49  1  0.159453  0.592145  0.895471  1
  Te  Te50  1  0.895471  0.840547  0.407855  1
  Te  Te51  1  0.092145  0.340547  0.604529  1
  Te  Te52  1  0.159453  0.407855  0.104529  1
  Te  Te53  1  0.395471  0.092145  0.659453  1
  Te  Te54  1  0.407855  0.895471  0.840547  1
  Te  Te55  1  0.592145  0.104529  0.840547  1
  Te  Te56  1  0.095660  0.095660  0.904340  1
  Te  Te57  1  0.595660  0.404340  0.595660  1
  Te  Te58  1  0.340547  0.604529  0.092145  1
  Te  Te59  1  0.404340  0.595660  0.595660  1
  Te  Te60  1  0.092145  0.659453  0.395471  1
  Te  Te61  1  0.907855  0.340547  0.395471  1
  Te  Te62  1  0.895471  0.159453  0.592145  1
  Te  Te63  1  0.595660  0.595660  0.404340  1
  Te  Te64  1  0.104529  0.159453  0.407855  1
  Te  Te65  1  0.904340  0.904340  0.904340  1
  Te  Te66  1  0.095660  0.904340  0.095660  1
  Te  Te67  1  0.407855  0.104529  0.159453  1
  Te  Te68  1  0.904340  0.095660  0.095660  1
  Te  Te69  1  0.659453  0.604529  0.907855  1
  Te  Te70  1  0.395471  0.907855  0.340547  1
  Te  Te71  1  0.907855  0.659453  0.604529  1
