# generated using pymatgen
data_Sc2AlB2Ir4Ru
_symmetry_space_group_name_H-M   'P 1'
_cell_length_a   9.45040300
_cell_length_b   9.45040300
_cell_length_c   3.01016100
_cell_angle_alpha   90.00000000
_cell_angle_beta   90.00000000
_cell_angle_gamma   90.00000000
_symmetry_Int_Tables_number   1
_chemical_formula_structural   Sc2AlB2Ir4Ru
_chemical_formula_sum   'Sc4 Al2 B4 Ir8 Ru2'
_cell_volume   268.83783068
_cell_formula_units_Z   2
loop_
 _symmetry_equiv_pos_site_id
 _symmetry_equiv_pos_as_xyz
  1  'x, y, z'
loop_
 _atom_site_type_symbol
 _atom_site_label
 _atom_site_symmetry_multiplicity
 _atom_site_fract_x
 _atom_site_fract_y
 _atom_site_fract_z
 _atom_site_occupancy
  Sc  Sc0  1  0.673597  0.173597  0.000000  1
  Sc  Sc1  1  0.326403  0.826403  0.000000  1
  Sc  Sc2  1  0.173597  0.326403  0.000000  1
  Sc  Sc3  1  0.826403  0.673597  0.000000  1
  Al  Al4  1  0.000000  0.000000  0.000000  1
  Al  Al5  1  0.500000  0.500000  0.000000  1
  B  B6  1  0.122755  0.622755  0.000000  1
  B  B7  1  0.877245  0.377245  0.000000  1
  B  B8  1  0.622755  0.877245  0.000000  1
  B  B9  1  0.377245  0.122755  0.000000  1
  Ir  Ir10  1  0.214900  0.071202  0.500000  1
  Ir  Ir11  1  0.785100  0.928798  0.500000  1
  Ir  Ir12  1  0.071202  0.785100  0.500000  1
  Ir  Ir13  1  0.714900  0.428798  0.500000  1
  Ir  Ir14  1  0.928798  0.214900  0.500000  1
  Ir  Ir15  1  0.285100  0.571202  0.500000  1
  Ir  Ir16  1  0.571202  0.714900  0.500000  1
  Ir  Ir17  1  0.428798  0.285100  0.500000  1
  Ru  Ru18  1  0.500000  0.000000  0.500000  1
  Ru  Ru19  1  0.000000  0.500000  0.500000  1
