# generated using pymatgen
data_Tb2Dy2C2Br3
_symmetry_space_group_name_H-M   'P 1'
_cell_length_a   3.69947000
_cell_length_b   10.78003300
_cell_length_c   20.49540900
_cell_angle_alpha   90.00000000
_cell_angle_beta   90.00000000
_cell_angle_gamma   90.00000000
_symmetry_Int_Tables_number   1
_chemical_formula_structural   Tb2Dy2C2Br3
_chemical_formula_sum   'Tb8 Dy8 C8 Br12'
_cell_volume   817.36528704
_cell_formula_units_Z   4
loop_
 _symmetry_equiv_pos_site_id
 _symmetry_equiv_pos_as_xyz
  1  'x, y, z'
loop_
 _atom_site_type_symbol
 _atom_site_label
 _atom_site_symmetry_multiplicity
 _atom_site_fract_x
 _atom_site_fract_y
 _atom_site_fract_z
 _atom_site_occupancy
  Tb  Tb0  1  0.250000  0.864620  0.579443  1
  Tb  Tb1  1  0.750000  0.135380  0.420557  1
  Tb  Tb2  1  0.750000  0.635380  0.079443  1
  Tb  Tb3  1  0.250000  0.364620  0.920557  1
  Tb  Tb4  1  0.250000  0.863706  0.744622  1
  Tb  Tb5  1  0.750000  0.136294  0.255378  1
  Tb  Tb6  1  0.750000  0.636294  0.244622  1
  Tb  Tb7  1  0.250000  0.363706  0.755378  1
  Dy  Dy8  1  0.250000  0.869994  0.168533  1
  Dy  Dy9  1  0.750000  0.130006  0.831467  1
  Dy  Dy10  1  0.750000  0.630006  0.668533  1
  Dy  Dy11  1  0.250000  0.369994  0.331467  1
  Dy  Dy12  1  0.250000  0.901899  0.328222  1
  Dy  Dy13  1  0.750000  0.098101  0.671778  1
  Dy  Dy14  1  0.750000  0.598101  0.828222  1
  Dy  Dy15  1  0.250000  0.401899  0.171778  1
  C  C16  1  0.250000  0.612924  0.750164  1
  C  C17  1  0.750000  0.387076  0.249836  1
  C  C18  1  0.750000  0.887076  0.250164  1
  C  C19  1  0.250000  0.112924  0.749836  1
  C  C20  1  0.250000  0.634776  0.155977  1
  C  C21  1  0.750000  0.365224  0.844023  1
  C  C22  1  0.750000  0.865224  0.655977  1
  C  C23  1  0.250000  0.134776  0.344023  1
  Br  Br24  1  0.250000  0.610818  0.554772  1
  Br  Br25  1  0.750000  0.389182  0.445228  1
  Br  Br26  1  0.750000  0.889182  0.054772  1
  Br  Br27  1  0.250000  0.110818  0.945228  1
  Br  Br28  1  0.250000  0.627315  0.952426  1
  Br  Br29  1  0.750000  0.372685  0.047574  1
  Br  Br30  1  0.750000  0.872685  0.452426  1
  Br  Br31  1  0.250000  0.127315  0.547574  1
  Br  Br32  1  0.250000  0.637769  0.357485  1
  Br  Br33  1  0.750000  0.362231  0.642515  1
  Br  Br34  1  0.750000  0.862231  0.857485  1
  Br  Br35  1  0.250000  0.137769  0.142515  1
