# generated using pymatgen
data_Lu3In3NiAg2
_symmetry_space_group_name_H-M   'P 1'
_cell_length_a   7.84104200
_cell_length_b   7.84104324
_cell_length_c   3.64893500
_cell_angle_alpha   90.00000000
_cell_angle_beta   90.00000000
_cell_angle_gamma   119.99999475
_symmetry_Int_Tables_number   1
_chemical_formula_structural   Lu3In3NiAg2
_chemical_formula_sum   'Lu3 In3 Ni1 Ag2'
_cell_volume   194.28729911
_cell_formula_units_Z   1
loop_
 _symmetry_equiv_pos_site_id
 _symmetry_equiv_pos_as_xyz
  1  'x, y, z'
loop_
 _atom_site_type_symbol
 _atom_site_label
 _atom_site_symmetry_multiplicity
 _atom_site_fract_x
 _atom_site_fract_y
 _atom_site_fract_z
 _atom_site_occupancy
  Lu  Lu0  1  0.610098  0.029213  0.000000  1
  Lu  Lu1  1  0.970787  0.580885  0.000000  1
  Lu  Lu2  1  0.419115  0.389902  0.000000  1
  In  In3  1  0.274330  0.997954  0.500000  1
  In  In4  1  0.002046  0.276375  0.500000  1
  In  In5  1  0.723625  0.725670  0.500000  1
  Ni  Ni6  1  0.666667  0.333333  0.500000  1
  Ag  Ag7  1  0.333333  0.666667  0.500000  1
  Ag  Ag8  1  0.000000  0.000000  0.000000  1
