# generated using pymatgen
data_PrNdNbIr3
_symmetry_space_group_name_H-M   'P 1'
_cell_length_a   5.34351664
_cell_length_b   5.34351542
_cell_length_c   5.34351576
_cell_angle_alpha   65.58909433
_cell_angle_beta   65.58911366
_cell_angle_gamma   65.58910404
_symmetry_Int_Tables_number   1
_chemical_formula_structural   PrNdNbIr3
_chemical_formula_sum   'Pr1 Nd1 Nb1 Ir3'
_cell_volume   120.98468366
_cell_formula_units_Z   1
loop_
 _symmetry_equiv_pos_site_id
 _symmetry_equiv_pos_as_xyz
  1  'x, y, z'
loop_
 _atom_site_type_symbol
 _atom_site_label
 _atom_site_symmetry_multiplicity
 _atom_site_fract_x
 _atom_site_fract_y
 _atom_site_fract_z
 _atom_site_occupancy
  Pr  Pr0  1  0.000271  0.000271  0.000271  1
  Nd  Nd1  1  0.250417  0.250417  0.250417  1
  Nb  Nb2  1  0.624886  0.624886  0.624886  1
  Ir  Ir3  1  0.624691  0.624691  0.125046  1
  Ir  Ir4  1  0.624691  0.125046  0.624691  1
  Ir  Ir5  1  0.125046  0.624691  0.624691  1
