# generated using pymatgen
data_Nd4CdRh
_symmetry_space_group_name_H-M   'P 1'
_cell_length_a   9.93734010
_cell_length_b   9.93733990
_cell_length_c   9.93734000
_cell_angle_alpha   59.99999967
_cell_angle_beta   60.00000033
_cell_angle_gamma   59.99999956
_symmetry_Int_Tables_number   1
_chemical_formula_structural   Nd4CdRh
_chemical_formula_sum   'Nd16 Cd4 Rh4'
_cell_volume   693.89770060
_cell_formula_units_Z   4
loop_
 _symmetry_equiv_pos_site_id
 _symmetry_equiv_pos_as_xyz
  1  'x, y, z'
loop_
 _atom_site_type_symbol
 _atom_site_label
 _atom_site_symmetry_multiplicity
 _atom_site_fract_x
 _atom_site_fract_y
 _atom_site_fract_z
 _atom_site_occupancy
  Nd  Nd0  1  0.187589  0.812411  0.812411  1
  Nd  Nd1  1  0.812411  0.187589  0.812411  1
  Nd  Nd2  1  0.059215  0.440785  0.440785  1
  Nd  Nd3  1  0.440785  0.440785  0.059215  1
  Nd  Nd4  1  0.812411  0.812411  0.187589  1
  Nd  Nd5  1  0.599218  0.599218  0.202347  1
  Nd  Nd6  1  0.187589  0.812411  0.187589  1
  Nd  Nd7  1  0.187589  0.187589  0.812411  1
  Nd  Nd8  1  0.440785  0.059215  0.059215  1
  Nd  Nd9  1  0.440785  0.059215  0.440785  1
  Nd  Nd10  1  0.812411  0.187589  0.187589  1
  Nd  Nd11  1  0.059215  0.440785  0.059215  1
  Nd  Nd12  1  0.599218  0.202347  0.599218  1
  Nd  Nd13  1  0.202347  0.599218  0.599218  1
  Nd  Nd14  1  0.599218  0.599218  0.599218  1
  Nd  Nd15  1  0.059215  0.059215  0.440785  1
  Cd  Cd16  1  0.830418  0.508746  0.830418  1
  Cd  Cd17  1  0.508746  0.830418  0.830418  1
  Cd  Cd18  1  0.830418  0.830418  0.830418  1
  Cd  Cd19  1  0.830418  0.830418  0.508746  1
  Rh  Rh20  1  0.391991  0.824027  0.391991  1
  Rh  Rh21  1  0.391991  0.391991  0.824027  1
  Rh  Rh22  1  0.391991  0.391991  0.391991  1
  Rh  Rh23  1  0.824027  0.391991  0.391991  1
