# generated using pymatgen
data_Y3Tm3MnSb2
_symmetry_space_group_name_H-M   'P 1'
_cell_length_a   8.13063200
_cell_length_b   8.13063262
_cell_length_c   4.25078700
_cell_angle_alpha   90.00000000
_cell_angle_beta   90.00000000
_cell_angle_gamma   120.00000561
_symmetry_Int_Tables_number   1
_chemical_formula_structural   Y3Tm3MnSb2
_chemical_formula_sum   'Y3 Tm3 Mn1 Sb2'
_cell_volume   243.35966220
_cell_formula_units_Z   1
loop_
 _symmetry_equiv_pos_site_id
 _symmetry_equiv_pos_as_xyz
  1  'x, y, z'
loop_
 _atom_site_type_symbol
 _atom_site_label
 _atom_site_symmetry_multiplicity
 _atom_site_fract_x
 _atom_site_fract_y
 _atom_site_fract_z
 _atom_site_occupancy
  Y  Y0  1  0.601765  0.000000  0.000000  1
  Y  Y1  1  0.000000  0.601765  0.000000  1
  Y  Y2  1  0.398235  0.398235  0.000000  1
  Tm  Tm3  1  0.234801  0.000000  0.500000  1
  Tm  Tm4  1  0.000000  0.234801  0.500000  1
  Tm  Tm5  1  0.765199  0.765199  0.500000  1
  Mn  Mn6  1  0.000000  0.000000  0.000000  1
  Sb  Sb7  1  0.333333  0.666667  0.500000  1
  Sb  Sb8  1  0.666667  0.333333  0.500000  1
