# generated using pymatgen
data_HoLuWO6
_symmetry_space_group_name_H-M   'P 1'
_cell_length_a   5.34682100
_cell_length_b   7.62663388
_cell_length_c   11.32208832
_cell_angle_alpha   75.49237504
_cell_angle_beta   90.00000000
_cell_angle_gamma   90.00000000
_symmetry_Int_Tables_number   1
_chemical_formula_structural   HoLuWO6
_chemical_formula_sum   'Ho4 Lu4 W4 O24'
_cell_volume   446.97344464
_cell_formula_units_Z   4
loop_
 _symmetry_equiv_pos_site_id
 _symmetry_equiv_pos_as_xyz
  1  'x, y, z'
loop_
 _atom_site_type_symbol
 _atom_site_label
 _atom_site_symmetry_multiplicity
 _atom_site_fract_x
 _atom_site_fract_y
 _atom_site_fract_z
 _atom_site_occupancy
  Ho  Ho0  1  0.258290  0.000000  0.750000  1
  Ho  Ho1  1  0.741710  0.000000  0.250000  1
  Ho  Ho2  1  0.315162  0.500000  0.750000  1
  Ho  Ho3  1  0.684838  0.500000  0.250000  1
  Lu  Lu4  1  0.182883  0.794103  0.078949  1
  Lu  Lu5  1  0.182883  0.205897  0.421051  1
  Lu  Lu6  1  0.817117  0.205897  0.921051  1
  Lu  Lu7  1  0.817117  0.794103  0.578949  1
  W  W8  1  0.743585  0.723589  0.885909  1
  W  W9  1  0.256415  0.723589  0.385909  1
  W  W10  1  0.743585  0.276411  0.614091  1
  W  W11  1  0.256415  0.276411  0.114091  1
  O  O12  1  0.539691  0.155436  0.067469  1
  O  O13  1  0.046032  0.058094  0.103035  1
  O  O14  1  0.019607  0.711774  0.770149  1
  O  O15  1  0.460309  0.155436  0.567469  1
  O  O16  1  0.359370  0.487154  0.386108  1
  O  O17  1  0.953968  0.058094  0.603035  1
  O  O18  1  0.543804  0.792360  0.725057  1
  O  O19  1  0.456196  0.792360  0.225057  1
  O  O20  1  0.146635  0.634580  0.550072  1
  O  O21  1  0.046032  0.941906  0.396965  1
  O  O22  1  0.460309  0.844564  0.932531  1
  O  O23  1  0.456196  0.207640  0.274943  1
  O  O24  1  0.853365  0.365420  0.449928  1
  O  O25  1  0.640630  0.487154  0.886108  1
  O  O26  1  0.359370  0.512846  0.113892  1
  O  O27  1  0.953968  0.941906  0.896965  1
  O  O28  1  0.539691  0.844564  0.432531  1
  O  O29  1  0.980393  0.288226  0.229851  1
  O  O30  1  0.543804  0.207640  0.774943  1
  O  O31  1  0.853365  0.634580  0.050072  1
  O  O32  1  0.019607  0.288226  0.729851  1
  O  O33  1  0.146635  0.365420  0.949928  1
  O  O34  1  0.980393  0.711774  0.270149  1
  O  O35  1  0.640630  0.512846  0.613892  1
