# generated using pymatgen
data_La2Er15Th3Sn16
_symmetry_space_group_name_H-M   'P 1'
_cell_length_a   8.06628877
_cell_length_b   8.18930627
_cell_length_c   15.44870100
_cell_angle_alpha   90.00415587
_cell_angle_beta   89.46642757
_cell_angle_gamma   89.86649682
_symmetry_Int_Tables_number   1
_chemical_formula_structural   La2Er15Th3Sn16
_chemical_formula_sum   'La2 Er15 Th3 Sn16'
_cell_volume   1020.45259281
_cell_formula_units_Z   1
loop_
 _symmetry_equiv_pos_site_id
 _symmetry_equiv_pos_as_xyz
  1  'x, y, z'
loop_
 _atom_site_type_symbol
 _atom_site_label
 _atom_site_symmetry_multiplicity
 _atom_site_fract_x
 _atom_site_fract_y
 _atom_site_fract_z
 _atom_site_occupancy
  La  La0  1  0.982912  0.821374  0.097092  1
  La  La1  1  0.485376  0.675431  0.094983  1
  Er  Er2  1  0.358289  0.833677  0.875214  1
  Er  Er3  1  0.863123  0.664838  0.622973  1
  Er  Er4  1  0.635711  0.164557  0.378062  1
  Er  Er5  1  0.138313  0.335049  0.124207  1
  Er  Er6  1  0.639354  0.161752  0.124807  1
  Er  Er7  1  0.134417  0.337957  0.378877  1
  Er  Er8  1  0.365775  0.838983  0.623537  1
  Er  Er9  1  0.860413  0.661315  0.874817  1
  Er  Er10  1  0.523763  0.320678  0.900100  1
  Er  Er11  1  0.028923  0.175742  0.601281  1
  Er  Er12  1  0.472083  0.676765  0.400728  1
  Er  Er13  1  0.193101  0.500771  0.749264  1
  Er  Er14  1  0.692926  0.998393  0.749525  1
  Er  Er15  1  0.805539  0.498894  0.251323  1
  Er  Er16  1  0.306504  0.002784  0.250933  1
  Th  Th17  1  0.981850  0.822466  0.403956  1
  Th  Th18  1  0.517035  0.323022  0.596013  1
  Th  Th19  1  0.014507  0.177821  0.903518  1
  Sn  Sn20  1  0.303668  0.044105  0.039404  1
  Sn  Sn21  1  0.790051  0.469845  0.457078  1
  Sn  Sn22  1  0.710340  0.971128  0.544155  1
  Sn  Sn23  1  0.202285  0.529622  0.954425  1
  Sn  Sn24  1  0.693674  0.962141  0.955963  1
  Sn  Sn25  1  0.202193  0.543469  0.541150  1
  Sn  Sn26  1  0.296665  0.041041  0.460523  1
  Sn  Sn27  1  0.802343  0.450410  0.038000  1
  Sn  Sn28  1  0.558785  0.621564  0.748216  1
  Sn  Sn29  1  0.059145  0.877929  0.749969  1
  Sn  Sn30  1  0.439346  0.375712  0.251408  1
  Sn  Sn31  1  0.940158  0.125065  0.253356  1
  Sn  Sn32  1  0.327173  0.146566  0.752191  1
  Sn  Sn33  1  0.827678  0.353318  0.747111  1
  Sn  Sn34  1  0.670007  0.853508  0.254122  1
  Sn  Sn35  1  0.176575  0.642309  0.251716  1
