# generated using pymatgen
data_Pr5Bi2PbBr
_symmetry_space_group_name_H-M   'P 1'
_cell_length_a   9.76971700
_cell_length_b   9.71390809
_cell_length_c   6.80227200
_cell_angle_alpha   90.00000000
_cell_angle_beta   90.00000000
_cell_angle_gamma   120.19023087
_symmetry_Int_Tables_number   1
_chemical_formula_structural   Pr5Bi2PbBr
_chemical_formula_sum   'Pr10 Bi4 Pb2 Br2'
_cell_volume   557.98806260
_cell_formula_units_Z   2
loop_
 _symmetry_equiv_pos_site_id
 _symmetry_equiv_pos_as_xyz
  1  'x, y, z'
loop_
 _atom_site_type_symbol
 _atom_site_label
 _atom_site_symmetry_multiplicity
 _atom_site_fract_x
 _atom_site_fract_y
 _atom_site_fract_z
 _atom_site_occupancy
  Pr  Pr0  1  0.272204  0.000000  0.750000  1
  Pr  Pr1  1  0.727796  0.000000  0.250000  1
  Pr  Pr2  1  0.997746  0.268992  0.750000  1
  Pr  Pr3  1  0.002254  0.731008  0.250000  1
  Pr  Pr4  1  0.728754  0.731008  0.750000  1
  Pr  Pr5  1  0.271246  0.268992  0.250000  1
  Pr  Pr6  1  0.333776  0.667554  0.500000  1
  Pr  Pr7  1  0.666224  0.332446  0.500000  1
  Pr  Pr8  1  0.666224  0.332446  0.000000  1
  Pr  Pr9  1  0.333776  0.667554  0.000000  1
  Bi  Bi10  1  0.999472  0.615814  0.750000  1
  Bi  Bi11  1  0.000528  0.384186  0.250000  1
  Bi  Bi12  1  0.383658  0.384186  0.750000  1
  Bi  Bi13  1  0.616342  0.615814  0.250000  1
  Pb  Pb14  1  0.614468  0.000000  0.750000  1
  Pb  Pb15  1  0.385532  0.000000  0.250000  1
  Br  Br16  1  0.000000  0.000000  0.500000  1
  Br  Br17  1  0.000000  0.000000  0.000000  1
