# generated using pymatgen
data_Ac4MgRu
_symmetry_space_group_name_H-M   'P 1'
_cell_length_a   10.57673681
_cell_length_b   10.57673627
_cell_length_c   10.57673600
_cell_angle_alpha   60.00000084
_cell_angle_beta   60.00000253
_cell_angle_gamma   60.00000000
_symmetry_Int_Tables_number   1
_chemical_formula_structural   Ac4MgRu
_chemical_formula_sum   'Ac16 Mg4 Ru4'
_cell_volume   836.64274695
_cell_formula_units_Z   4
loop_
 _symmetry_equiv_pos_site_id
 _symmetry_equiv_pos_as_xyz
  1  'x, y, z'
loop_
 _atom_site_type_symbol
 _atom_site_label
 _atom_site_symmetry_multiplicity
 _atom_site_fract_x
 _atom_site_fract_y
 _atom_site_fract_z
 _atom_site_occupancy
  Ac  Ac0  1  0.343921  0.343921  0.343921  1
  Ac  Ac1  1  0.343921  0.343921  0.968237  1
  Ac  Ac2  1  0.343921  0.968237  0.343921  1
  Ac  Ac3  1  0.968237  0.343921  0.343921  1
  Ac  Ac4  1  0.812939  0.187061  0.187061  1
  Ac  Ac5  1  0.187061  0.812939  0.812939  1
  Ac  Ac6  1  0.187061  0.812939  0.187061  1
  Ac  Ac7  1  0.812939  0.187061  0.812939  1
  Ac  Ac8  1  0.187061  0.187061  0.812939  1
  Ac  Ac9  1  0.812939  0.812939  0.187061  1
  Ac  Ac10  1  0.938808  0.561192  0.561192  1
  Ac  Ac11  1  0.561192  0.938808  0.938808  1
  Ac  Ac12  1  0.561192  0.938808  0.561192  1
  Ac  Ac13  1  0.938808  0.561192  0.938808  1
  Ac  Ac14  1  0.561192  0.561192  0.938808  1
  Ac  Ac15  1  0.938808  0.938808  0.561192  1
  Mg  Mg16  1  0.577582  0.577582  0.577582  1
  Mg  Mg17  1  0.577582  0.577582  0.267254  1
  Mg  Mg18  1  0.577582  0.267254  0.577582  1
  Mg  Mg19  1  0.267254  0.577582  0.577582  1
  Ru  Ru20  1  0.137791  0.137791  0.137791  1
  Ru  Ru21  1  0.137791  0.137791  0.586629  1
  Ru  Ru22  1  0.137791  0.586629  0.137791  1
  Ru  Ru23  1  0.586629  0.137791  0.137791  1
