# generated using pymatgen
data_Tb3YHo3Co6Sn23
_symmetry_space_group_name_H-M   'P 1'
_cell_length_a   9.70895600
_cell_length_b   9.70895453
_cell_length_c   9.97082400
_cell_angle_alpha   90.00000000
_cell_angle_beta   90.00000000
_cell_angle_gamma   119.99999137
_symmetry_Int_Tables_number   1
_chemical_formula_structural   Tb3YHo3Co6Sn23
_chemical_formula_sum   'Tb3 Y1 Ho3 Co6 Sn23'
_cell_volume   813.96685380
_cell_formula_units_Z   1
loop_
 _symmetry_equiv_pos_site_id
 _symmetry_equiv_pos_as_xyz
  1  'x, y, z'
loop_
 _atom_site_type_symbol
 _atom_site_label
 _atom_site_symmetry_multiplicity
 _atom_site_fract_x
 _atom_site_fract_y
 _atom_site_fract_z
 _atom_site_occupancy
  Tb  Tb0  1  0.521570  0.478430  0.693540  1
  Tb  Tb1  1  0.521570  0.043139  0.693540  1
  Tb  Tb2  1  0.956861  0.478430  0.693540  1
  Y  Y3  1  0.000000  0.000000  0.000061  1
  Ho  Ho4  1  0.042832  0.521416  0.306372  1
  Ho  Ho5  1  0.478584  0.957168  0.306372  1
  Ho  Ho6  1  0.478584  0.521416  0.306372  1
  Co  Co7  1  0.167600  0.832400  0.803031  1
  Co  Co8  1  0.167600  0.335200  0.803031  1
  Co  Co9  1  0.664800  0.832400  0.803031  1
  Co  Co10  1  0.335339  0.167669  0.197153  1
  Co  Co11  1  0.832331  0.664661  0.197153  1
  Co  Co12  1  0.832331  0.167669  0.197153  1
  Sn  Sn13  1  0.666667  0.333333  0.181660  1
  Sn  Sn14  1  0.666667  0.333333  0.882853  1
  Sn  Sn15  1  0.333333  0.666667  0.117960  1
  Sn  Sn16  1  0.346167  0.346155  0.000104  1
  Sn  Sn17  1  0.999988  0.653833  0.000104  1
  Sn  Sn18  1  0.653845  0.000012  0.000104  1
  Sn  Sn19  1  0.653845  0.653833  0.000104  1
  Sn  Sn20  1  0.333333  0.666667  0.818453  1
  Sn  Sn21  1  0.437101  0.218551  0.451346  1
  Sn  Sn22  1  0.218530  0.781470  0.547966  1
  Sn  Sn23  1  0.218530  0.437061  0.547966  1
  Sn  Sn24  1  0.562939  0.781470  0.547966  1
  Sn  Sn25  1  0.118125  0.881875  0.274372  1
  Sn  Sn26  1  0.781449  0.562899  0.451346  1
  Sn  Sn27  1  0.781449  0.218551  0.451346  1
  Sn  Sn28  1  0.346167  0.000012  0.000104  1
  Sn  Sn29  1  0.118125  0.236252  0.274372  1
  Sn  Sn30  1  0.763748  0.881875  0.274372  1
  Sn  Sn31  1  0.235788  0.117894  0.725692  1
  Sn  Sn32  1  0.882106  0.764212  0.725692  1
  Sn  Sn33  1  0.882106  0.117894  0.725692  1
  Sn  Sn34  1  0.000000  0.000000  0.499974  1
  Sn  Sn35  1  0.999988  0.346155  0.000104  1
