# generated using pymatgen
data_Ba4FeMoO8
_symmetry_space_group_name_H-M   'P 1'
_cell_length_a   7.34709444
_cell_length_b   7.34709396
_cell_length_c   5.83581000
_cell_angle_alpha   90.00000000
_cell_angle_beta   90.00000000
_cell_angle_gamma   133.61408147
_symmetry_Int_Tables_number   1
_chemical_formula_structural   Ba4FeMoO8
_chemical_formula_sum   'Ba4 Fe1 Mo1 O8'
_cell_volume   228.07219268
_cell_formula_units_Z   1
loop_
 _symmetry_equiv_pos_site_id
 _symmetry_equiv_pos_as_xyz
  1  'x, y, z'
loop_
 _atom_site_type_symbol
 _atom_site_label
 _atom_site_symmetry_multiplicity
 _atom_site_fract_x
 _atom_site_fract_y
 _atom_site_fract_z
 _atom_site_occupancy
  Ba  Ba0  1  0.353320  0.646680  0.000000  1
  Ba  Ba1  1  0.855474  0.144526  0.500000  1
  Ba  Ba2  1  0.144526  0.855474  0.500000  1
  Ba  Ba3  1  0.646680  0.353320  0.000000  1
  Fe  Fe4  1  0.000000  0.000000  0.000000  1
  Mo  Mo5  1  0.500000  0.500000  0.500000  1
  O  O6  1  0.150861  0.849139  0.000000  1
  O  O7  1  0.653331  0.346669  0.500000  1
  O  O8  1  0.346669  0.653331  0.500000  1
  O  O9  1  0.849139  0.150861  0.000000  1
  O  O10  1  0.258937  0.258937  0.254640  1
  O  O11  1  0.741063  0.741063  0.745360  1
  O  O12  1  0.258937  0.258937  0.745360  1
  O  O13  1  0.741063  0.741063  0.254640  1
