# generated using pymatgen
data_Dy10Pb6AuBr
_symmetry_space_group_name_H-M   'P 1'
_cell_length_a   9.27812400
_cell_length_b   9.27812393
_cell_length_c   6.67981500
_cell_angle_alpha   90.00000000
_cell_angle_beta   90.00000000
_cell_angle_gamma   120.00000026
_symmetry_Int_Tables_number   1
_chemical_formula_structural   Dy10Pb6AuBr
_chemical_formula_sum   'Dy10 Pb6 Au1 Br1'
_cell_volume   497.98402008
_cell_formula_units_Z   1
loop_
 _symmetry_equiv_pos_site_id
 _symmetry_equiv_pos_as_xyz
  1  'x, y, z'
loop_
 _atom_site_type_symbol
 _atom_site_label
 _atom_site_symmetry_multiplicity
 _atom_site_fract_x
 _atom_site_fract_y
 _atom_site_fract_z
 _atom_site_occupancy
  Dy  Dy0  1  0.737172  0.000000  0.748268  1
  Dy  Dy1  1  0.000000  0.262828  0.251732  1
  Dy  Dy2  1  0.737172  0.737172  0.251732  1
  Dy  Dy3  1  0.333333  0.666667  0.500000  1
  Dy  Dy4  1  0.333333  0.666667  0.000000  1
  Dy  Dy5  1  0.666667  0.333333  0.500000  1
  Dy  Dy6  1  0.666667  0.333333  0.000000  1
  Dy  Dy7  1  0.262828  0.000000  0.251732  1
  Dy  Dy8  1  0.262828  0.262828  0.748268  1
  Dy  Dy9  1  0.000000  0.737172  0.748268  1
  Pb  Pb10  1  0.388355  0.000000  0.750854  1
  Pb  Pb11  1  0.611645  0.000000  0.249146  1
  Pb  Pb12  1  0.000000  0.611645  0.249146  1
  Pb  Pb13  1  0.611645  0.611645  0.750854  1
  Pb  Pb14  1  0.000000  0.388355  0.750854  1
  Pb  Pb15  1  0.388355  0.388355  0.249146  1
  Au  Au16  1  0.000000  0.000000  0.500000  1
  Br  Br17  1  0.000000  0.000000  0.000000  1
