# generated using pymatgen
data_Ce(Tc2P)2
_symmetry_space_group_name_H-M   'P 1'
_cell_length_a   7.49033700
_cell_length_b   7.49033700
_cell_length_c   3.93908900
_cell_angle_alpha   90.00000000
_cell_angle_beta   90.00000000
_cell_angle_gamma   90.00000000
_symmetry_Int_Tables_number   1
_chemical_formula_structural   Ce(Tc2P)2
_chemical_formula_sum   'Ce2 Tc8 P4'
_cell_volume   221.00317280
_cell_formula_units_Z   2
loop_
 _symmetry_equiv_pos_site_id
 _symmetry_equiv_pos_as_xyz
  1  'x, y, z'
loop_
 _atom_site_type_symbol
 _atom_site_label
 _atom_site_symmetry_multiplicity
 _atom_site_fract_x
 _atom_site_fract_y
 _atom_site_fract_z
 _atom_site_occupancy
  Ce  Ce0  1  0.500000  0.500000  0.500000  1
  Ce  Ce1  1  0.000000  0.000000  0.000000  1
  Tc  Tc2  1  0.659720  0.918657  0.500000  1
  Tc  Tc3  1  0.340280  0.081343  0.500000  1
  Tc  Tc4  1  0.159720  0.581343  0.000000  1
  Tc  Tc5  1  0.840280  0.418657  0.000000  1
  Tc  Tc6  1  0.918657  0.659720  0.500000  1
  Tc  Tc7  1  0.081343  0.340280  0.500000  1
  Tc  Tc8  1  0.581343  0.159720  0.000000  1
  Tc  Tc9  1  0.418657  0.840280  0.000000  1
  P  P10  1  0.786123  0.213877  0.500000  1
  P  P11  1  0.213877  0.786123  0.500000  1
  P  P12  1  0.286123  0.286123  0.000000  1
  P  P13  1  0.713877  0.713877  0.000000  1
