# generated using pymatgen
data_LiCe3In4Os
_symmetry_space_group_name_H-M   'P 1'
_cell_length_a   8.35126600
_cell_length_b   8.35126642
_cell_length_c   3.67980300
_cell_angle_alpha   90.00000000
_cell_angle_beta   90.00000000
_cell_angle_gamma   119.99999832
_symmetry_Int_Tables_number   1
_chemical_formula_structural   LiCe3In4Os
_chemical_formula_sum   'Li1 Ce3 In4 Os1'
_cell_volume   222.25925992
_cell_formula_units_Z   1
loop_
 _symmetry_equiv_pos_site_id
 _symmetry_equiv_pos_as_xyz
  1  'x, y, z'
loop_
 _atom_site_type_symbol
 _atom_site_label
 _atom_site_symmetry_multiplicity
 _atom_site_fract_x
 _atom_site_fract_y
 _atom_site_fract_z
 _atom_site_occupancy
  Li  Li0  1  0.666667  0.333333  0.500000  1
  Ce  Ce1  1  0.709421  0.953825  0.500000  1
  Ce  Ce2  1  0.244404  0.290579  0.500000  1
  Ce  Ce3  1  0.046175  0.755596  0.500000  1
  In  In4  1  0.933797  0.340297  0.000000  1
  In  In5  1  0.406501  0.066203  0.000000  1
  In  In6  1  0.659703  0.593499  0.000000  1
  In  In7  1  0.333333  0.666667  0.000000  1
  Os  Os8  1  0.000000  0.000000  0.000000  1
