# generated using pymatgen
data_Ac4Zn4GaSn3
_symmetry_space_group_name_H-M   'P 1'
_cell_length_a   4.54189000
_cell_length_b   9.38816279
_cell_length_c   7.94176673
_cell_angle_alpha   90.01213509
_cell_angle_beta   90.00000000
_cell_angle_gamma   90.00000000
_symmetry_Int_Tables_number   1
_chemical_formula_structural   Ac4Zn4GaSn3
_chemical_formula_sum   'Ac4 Zn4 Ga1 Sn3'
_cell_volume   338.63694751
_cell_formula_units_Z   1
loop_
 _symmetry_equiv_pos_site_id
 _symmetry_equiv_pos_as_xyz
  1  'x, y, z'
loop_
 _atom_site_type_symbol
 _atom_site_label
 _atom_site_symmetry_multiplicity
 _atom_site_fract_x
 _atom_site_fract_y
 _atom_site_fract_z
 _atom_site_occupancy
  Ac  Ac0  1  0.250000  0.499155  0.258005  1
  Ac  Ac1  1  0.750000  0.494643  0.743813  1
  Ac  Ac2  1  0.250000  0.007711  0.253105  1
  Ac  Ac3  1  0.750000  0.005901  0.745926  1
  Zn  Zn4  1  0.750000  0.242610  0.427816  1
  Zn  Zn5  1  0.250000  0.248254  0.898409  1
  Zn  Zn6  1  0.750000  0.756668  0.085947  1
  Zn  Zn7  1  0.250000  0.728778  0.586462  1
  Ga  Ga8  1  0.250000  0.250561  0.579455  1
  Sn  Sn9  1  0.750000  0.254950  0.085205  1
  Sn  Sn10  1  0.250000  0.751688  0.918162  1
  Sn  Sn11  1  0.750000  0.759077  0.417694  1
