# generated using pymatgen
data_Tb8Sc12GaSi15
_symmetry_space_group_name_H-M   'P 1'
_cell_length_a   7.12393449
_cell_length_b   7.41233181
_cell_length_c   14.07072211
_cell_angle_alpha   89.95007879
_cell_angle_beta   89.96208839
_cell_angle_gamma   90.01943977
_symmetry_Int_Tables_number   1
_chemical_formula_structural   Tb8Sc12GaSi15
_chemical_formula_sum   'Tb8 Sc12 Ga1 Si15'
_cell_volume   743.00351836
_cell_formula_units_Z   1
loop_
 _symmetry_equiv_pos_site_id
 _symmetry_equiv_pos_as_xyz
  1  'x, y, z'
loop_
 _atom_site_type_symbol
 _atom_site_label
 _atom_site_symmetry_multiplicity
 _atom_site_fract_x
 _atom_site_fract_y
 _atom_site_fract_z
 _atom_site_occupancy
  Tb  Tb0  1  0.011918  0.175091  0.097353  1
  Tb  Tb1  1  0.987937  0.825178  0.902954  1
  Tb  Tb2  1  0.487701  0.675703  0.902799  1
  Tb  Tb3  1  0.987189  0.826880  0.597810  1
  Tb  Tb4  1  0.512217  0.324462  0.097255  1
  Tb  Tb5  1  0.011218  0.173770  0.401520  1
  Tb  Tb6  1  0.512922  0.324087  0.401433  1
  Tb  Tb7  1  0.489856  0.677431  0.597866  1
  Sc  Sc8  1  0.161184  0.502247  0.751443  1
  Sc  Sc9  1  0.838910  0.497831  0.249904  1
  Sc  Sc10  1  0.339018  0.002193  0.249704  1
  Sc  Sc11  1  0.661461  0.997076  0.750050  1
  Sc  Sc12  1  0.332197  0.173958  0.626010  1
  Sc  Sc13  1  0.668772  0.824102  0.374464  1
  Sc  Sc14  1  0.170159  0.677300  0.373578  1
  Sc  Sc15  1  0.670055  0.823961  0.125304  1
  Sc  Sc16  1  0.828154  0.323351  0.625549  1
  Sc  Sc17  1  0.329729  0.175538  0.874907  1
  Sc  Sc18  1  0.830203  0.323398  0.874945  1
  Sc  Sc19  1  0.169461  0.676480  0.125278  1
  Ga  Ga20  1  0.159006  0.462421  0.539279  1
  Si  Si21  1  0.033729  0.119363  0.750592  1
  Si  Si22  1  0.966372  0.881416  0.249748  1
  Si  Si23  1  0.467152  0.618290  0.249976  1
  Si  Si24  1  0.532620  0.382401  0.749775  1
  Si  Si25  1  0.285150  0.874709  0.750254  1
  Si  Si26  1  0.714153  0.125395  0.249697  1
  Si  Si27  1  0.214034  0.374408  0.249617  1
  Si  Si28  1  0.786017  0.625232  0.750585  1
  Si  Si29  1  0.842052  0.536466  0.460453  1
  Si  Si30  1  0.343115  0.964022  0.460427  1
  Si  Si31  1  0.843414  0.535665  0.038834  1
  Si  Si32  1  0.656370  0.035945  0.539037  1
  Si  Si33  1  0.156619  0.464156  0.961457  1
  Si  Si34  1  0.656268  0.035652  0.960711  1
  Si  Si35  1  0.343668  0.964425  0.039429  1
