# generated using pymatgen
data_Hf5Ga6PRu12
_symmetry_space_group_name_H-M   'P 1'
_cell_length_a   4.40733900
_cell_length_b   6.27950500
_cell_length_c   13.13002900
_cell_angle_alpha   90.00000000
_cell_angle_beta   90.00080437
_cell_angle_gamma   90.00000000
_symmetry_Int_Tables_number   1
_chemical_formula_structural   Hf5Ga6PRu12
_chemical_formula_sum   'Hf5 Ga6 P1 Ru12'
_cell_volume   363.38546526
_cell_formula_units_Z   1
loop_
 _symmetry_equiv_pos_site_id
 _symmetry_equiv_pos_as_xyz
  1  'x, y, z'
loop_
 _atom_site_type_symbol
 _atom_site_label
 _atom_site_symmetry_multiplicity
 _atom_site_fract_x
 _atom_site_fract_y
 _atom_site_fract_z
 _atom_site_occupancy
  Hf  Hf0  1  0.499826  0.500000  0.158854  1
  Hf  Hf1  1  0.999748  0.000000  0.332143  1
  Hf  Hf2  1  0.499984  0.500000  0.499949  1
  Hf  Hf3  1  0.000312  0.000000  0.667859  1
  Hf  Hf4  1  0.500223  0.500000  0.841161  1
  Ga  Ga5  1  0.000023  0.500000  0.000037  1
  Ga  Ga6  1  0.499841  0.000000  0.176844  1
  Ga  Ga7  1  0.999713  0.500000  0.327496  1
  Ga  Ga8  1  0.500007  0.000000  0.500036  1
  Ga  Ga9  1  0.000316  0.500000  0.672515  1
  Ga  Ga10  1  0.500173  0.000000  0.823127  1
  P  P11  1  0.999898  0.000000  0.000003  1
  Ru  Ru12  1  0.499924  0.213378  0.000014  1
  Ru  Ru13  1  0.499924  0.786621  0.000014  1
  Ru  Ru14  1  0.999850  0.234248  0.151167  1
  Ru  Ru15  1  0.999850  0.765752  0.151167  1
  Ru  Ru16  1  0.499735  0.253304  0.329805  1
  Ru  Ru17  1  0.499735  0.746695  0.329805  1
  Ru  Ru18  1  0.999995  0.248782  0.499986  1
  Ru  Ru19  1  0.999995  0.751218  0.499986  1
  Ru  Ru20  1  0.500315  0.253367  0.670152  1
  Ru  Ru21  1  0.500315  0.746632  0.670152  1
  Ru  Ru22  1  0.000151  0.234244  0.848867  1
  Ru  Ru23  1  0.000151  0.765756  0.848867  1
