# generated using pymatgen
data_Ta2CdF12
_symmetry_space_group_name_H-M   'P 1'
_cell_length_a   5.39435657
_cell_length_b   5.84684335
_cell_length_c   9.38207149
_cell_angle_alpha   104.77995391
_cell_angle_beta   90.42080809
_cell_angle_gamma   118.32618639
_symmetry_Int_Tables_number   1
_chemical_formula_structural   Ta2CdF12
_chemical_formula_sum   'Ta2 Cd1 F12'
_cell_volume   248.97755035
_cell_formula_units_Z   1
loop_
 _symmetry_equiv_pos_site_id
 _symmetry_equiv_pos_as_xyz
  1  'x, y, z'
loop_
 _atom_site_type_symbol
 _atom_site_label
 _atom_site_symmetry_multiplicity
 _atom_site_fract_x
 _atom_site_fract_y
 _atom_site_fract_z
 _atom_site_occupancy
  Ta  Ta0  1  0.775094  0.509681  0.266950  1
  Ta  Ta1  1  0.224906  0.490319  0.733050  1
  Cd  Cd2  1  0.000000  0.000000  0.000000  1
  F  F3  1  0.828690  0.266498  0.710375  1
  F  F4  1  0.171310  0.733502  0.289625  1
  F  F5  1  0.196430  0.734433  0.918807  1
  F  F6  1  0.713024  0.722092  0.432525  1
  F  F7  1  0.286976  0.277908  0.567475  1
  F  F8  1  0.792314  0.278167  0.368043  1
  F  F9  1  0.207686  0.721833  0.631957  1
  F  F10  1  0.360487  0.273080  0.196359  1
  F  F11  1  0.639513  0.726920  0.803641  1
  F  F12  1  0.747823  0.718946  0.135211  1
  F  F13  1  0.252177  0.281054  0.864789  1
  F  F14  1  0.803570  0.265567  0.081193  1
