# generated using pymatgen
data_La2Bi8(MoO8)3
_symmetry_space_group_name_H-M   'P 1'
_cell_length_a   5.80173500
_cell_length_b   8.87514874
_cell_length_c   12.38493488
_cell_angle_alpha   94.77116545
_cell_angle_beta   104.32229344
_cell_angle_gamma   89.98610032
_symmetry_Int_Tables_number   1
_chemical_formula_structural   La2Bi8(MoO8)3
_chemical_formula_sum   'La2 Bi8 Mo3 O24'
_cell_volume   615.61776941
_cell_formula_units_Z   1
loop_
 _symmetry_equiv_pos_site_id
 _symmetry_equiv_pos_as_xyz
  1  'x, y, z'
loop_
 _atom_site_type_symbol
 _atom_site_label
 _atom_site_symmetry_multiplicity
 _atom_site_fract_x
 _atom_site_fract_y
 _atom_site_fract_z
 _atom_site_occupancy
  La  La0  1  0.548031  0.305375  0.075367  1
  La  La1  1  0.091545  0.603305  0.147804  1
  Bi  Bi2  1  0.182648  0.258254  0.299767  1
  Bi  Bi3  1  0.782778  0.536020  0.379751  1
  Bi  Bi4  1  0.265662  0.809848  0.474531  1
  Bi  Bi5  1  0.805066  0.193785  0.530191  1
  Bi  Bi6  1  0.399762  0.454517  0.610608  1
  Bi  Bi7  1  0.879881  0.749830  0.697387  1
  Bi  Bi8  1  0.933155  0.416642  0.852322  1
  Bi  Bi9  1  0.472545  0.664958  0.922011  1
  Mo  Mo10  1  0.004796  0.997243  0.003715  1
  Mo  Mo11  1  0.664316  0.926471  0.245558  1
  Mo  Mo12  1  0.432674  0.072786  0.751195  1
  O  O13  1  0.283086  0.502066  0.997989  1
  O  O14  1  0.770056  0.503652  0.997383  1
  O  O15  1  0.180043  0.838471  0.056597  1
  O  O16  1  0.865195  0.090559  0.106334  1
  O  O17  1  0.725704  0.788014  0.140535  1
  O  O18  1  0.480710  0.087732  0.204243  1
  O  O19  1  0.357734  0.408948  0.215756  1
  O  O20  1  0.869512  0.407651  0.226760  1
  O  O21  1  0.932915  0.994061  0.345693  1
  O  O22  1  0.094604  0.652470  0.343339  1
  O  O23  1  0.508132  0.820213  0.324480  1
  O  O24  1  0.001290  0.352109  0.455163  1
  O  O25  1  0.483512  0.319786  0.451999  1
  O  O26  1  0.023619  0.691641  0.549676  1
  O  O27  1  0.541485  0.653278  0.550680  1
  O  O28  1  0.207406  0.179081  0.661513  1
  O  O29  1  0.758877  0.353129  0.658312  1
  O  O30  1  0.618218  0.009704  0.658287  1
  O  O31  1  0.645676  0.581720  0.781224  1
  O  O32  1  0.136149  0.588479  0.785999  1
  O  O33  1  0.272686  0.913398  0.780280  1
  O  O34  1  0.571805  0.209610  0.866067  1
  O  O35  1  0.783179  0.922148  0.882935  1
  O  O36  1  0.180544  0.143042  0.968546  1
