# generated using pymatgen
data_Hf5Th4NbGe8
_symmetry_space_group_name_H-M   'P 1'
_cell_length_a   7.33576200
_cell_length_b   7.44570000
_cell_length_c   14.11733000
_cell_angle_alpha   90.00000000
_cell_angle_beta   90.00000000
_cell_angle_gamma   89.99978292
_symmetry_Int_Tables_number   1
_chemical_formula_structural   Hf5Th4NbGe8
_chemical_formula_sum   'Hf10 Th8 Nb2 Ge16'
_cell_volume   771.08691461
_cell_formula_units_Z   2
loop_
 _symmetry_equiv_pos_site_id
 _symmetry_equiv_pos_as_xyz
  1  'x, y, z'
loop_
 _atom_site_type_symbol
 _atom_site_label
 _atom_site_symmetry_multiplicity
 _atom_site_fract_x
 _atom_site_fract_y
 _atom_site_fract_z
 _atom_site_occupancy
  Hf  Hf0  1  0.669057  0.999913  0.750000  1
  Hf  Hf1  1  0.169057  0.500089  0.750000  1
  Hf  Hf2  1  0.837279  0.332306  0.624465  1
  Hf  Hf3  1  0.337279  0.167693  0.875535  1
  Hf  Hf4  1  0.161702  0.668505  0.125647  1
  Hf  Hf5  1  0.661704  0.831495  0.374353  1
  Hf  Hf6  1  0.161702  0.668505  0.374353  1
  Hf  Hf7  1  0.661704  0.831495  0.125647  1
  Hf  Hf8  1  0.837279  0.332306  0.875535  1
  Hf  Hf9  1  0.337279  0.167693  0.624465  1
  Th  Th10  1  0.497411  0.327848  0.097339  1
  Th  Th11  1  0.997409  0.172154  0.402662  1
  Th  Th12  1  0.503047  0.671808  0.595026  1
  Th  Th13  1  0.003046  0.828191  0.904974  1
  Th  Th14  1  0.503047  0.671808  0.904974  1
  Th  Th15  1  0.003046  0.828191  0.595026  1
  Th  Th16  1  0.497411  0.327848  0.402661  1
  Th  Th17  1  0.997409  0.172154  0.097338  1
  Nb  Nb18  1  0.331352  0.996776  0.250000  1
  Nb  Nb19  1  0.831350  0.503224  0.250000  1
  Ge  Ge20  1  0.807452  0.633194  0.750000  1
  Ge  Ge21  1  0.307453  0.866806  0.750000  1
  Ge  Ge22  1  0.192495  0.368531  0.250000  1
  Ge  Ge23  1  0.692496  0.131470  0.250000  1
  Ge  Ge24  1  0.539091  0.366302  0.750000  1
  Ge  Ge25  1  0.039089  0.133697  0.750000  1
  Ge  Ge26  1  0.461736  0.632265  0.250000  1
  Ge  Ge27  1  0.961736  0.867734  0.250000  1
  Ge  Ge28  1  0.674503  0.042480  0.544617  1
  Ge  Ge29  1  0.174504  0.457521  0.955383  1
  Ge  Ge30  1  0.325467  0.957251  0.045478  1
  Ge  Ge31  1  0.825468  0.542749  0.454522  1
  Ge  Ge32  1  0.325467  0.957251  0.454522  1
  Ge  Ge33  1  0.825468  0.542749  0.045478  1
  Ge  Ge34  1  0.674503  0.042480  0.955383  1
  Ge  Ge35  1  0.174504  0.457521  0.544617  1
