# generated using pymatgen
data_Nb6AlGa(IrN)2
_symmetry_space_group_name_H-M   'P 1'
_cell_length_a   7.03999552
_cell_length_b   7.03977300
_cell_length_c   7.03979952
_cell_angle_alpha   90.00000000
_cell_angle_beta   89.87011408
_cell_angle_gamma   90.00000000
_symmetry_Int_Tables_number   1
_chemical_formula_structural   Nb6AlGa(IrN)2
_chemical_formula_sum   'Nb12 Al2 Ga2 Ir4 N4'
_cell_volume   348.89135945
_cell_formula_units_Z   2
loop_
 _symmetry_equiv_pos_site_id
 _symmetry_equiv_pos_as_xyz
  1  'x, y, z'
loop_
 _atom_site_type_symbol
 _atom_site_label
 _atom_site_symmetry_multiplicity
 _atom_site_fract_x
 _atom_site_fract_y
 _atom_site_fract_z
 _atom_site_occupancy
  Nb  Nb0  1  0.794011  0.955235  0.375922  1
  Nb  Nb1  1  0.704614  0.044578  0.876641  1
  Nb  Nb2  1  0.205989  0.455235  0.124078  1
  Nb  Nb3  1  0.295386  0.544578  0.623359  1
  Nb  Nb4  1  0.955160  0.376665  0.794595  1
  Nb  Nb5  1  0.044840  0.876665  0.705405  1
  Nb  Nb6  1  0.455480  0.124169  0.205125  1
  Nb  Nb7  1  0.544520  0.624169  0.294875  1
  Nb  Nb8  1  0.376246  0.794587  0.954881  1
  Nb  Nb9  1  0.876237  0.705180  0.044196  1
  Nb  Nb10  1  0.123763  0.205180  0.455804  1
  Nb  Nb11  1  0.623754  0.294587  0.545119  1
  Al  Al12  1  0.929644  0.570339  0.429303  1
  Al  Al13  1  0.070356  0.070339  0.070697  1
  Ga  Ga14  1  0.569119  0.430856  0.931321  1
  Ga  Ga15  1  0.430881  0.930856  0.568679  1
  Ir  Ir16  1  0.175702  0.821546  0.320663  1
  Ir  Ir17  1  0.319697  0.177379  0.823521  1
  Ir  Ir18  1  0.824298  0.321546  0.179337  1
  Ir  Ir19  1  0.680303  0.677379  0.676479  1
  N  N20  1  0.873605  0.125367  0.625743  1
  N  N21  1  0.624857  0.874099  0.125573  1
  N  N22  1  0.126395  0.625367  0.874257  1
  N  N23  1  0.375143  0.374099  0.374427  1
