# generated using pymatgen
data_Cs4Sb3PPt4
_symmetry_space_group_name_H-M   'P 1'
_cell_length_a   7.21371840
_cell_length_b   7.21371806
_cell_length_c   7.21371771
_cell_angle_alpha   90.08166198
_cell_angle_beta   90.08166146
_cell_angle_gamma   90.08165830
_symmetry_Int_Tables_number   1
_chemical_formula_structural   Cs4Sb3PPt4
_chemical_formula_sum   'Cs4 Sb3 P1 Pt4'
_cell_volume   375.38435416
_cell_formula_units_Z   1
loop_
 _symmetry_equiv_pos_site_id
 _symmetry_equiv_pos_as_xyz
  1  'x, y, z'
loop_
 _atom_site_type_symbol
 _atom_site_label
 _atom_site_symmetry_multiplicity
 _atom_site_fract_x
 _atom_site_fract_y
 _atom_site_fract_z
 _atom_site_occupancy
  Cs  Cs0  1  0.608883  0.388759  0.881657  1
  Cs  Cs1  1  0.388759  0.881657  0.608883  1
  Cs  Cs2  1  0.114473  0.114473  0.114473  1
  Cs  Cs3  1  0.881657  0.608883  0.388759  1
  Sb  Sb4  1  0.592702  0.902458  0.105407  1
  Sb  Sb5  1  0.105407  0.592702  0.902458  1
  Sb  Sb6  1  0.902458  0.105407  0.592702  1
  P  P7  1  0.397576  0.397576  0.397576  1
  Pt  Pt8  1  0.174633  0.357232  0.622822  1
  Pt  Pt9  1  0.622822  0.174633  0.357232  1
  Pt  Pt10  1  0.853398  0.853398  0.853398  1
  Pt  Pt11  1  0.357232  0.622822  0.174633  1
