# generated using pymatgen
data_Ba4LaNd6DyS16
_symmetry_space_group_name_H-M   'P 1'
_cell_length_a   4.19766700
_cell_length_b   12.46898660
_cell_length_c   14.98080246
_cell_angle_alpha   89.53070558
_cell_angle_beta   90.00000000
_cell_angle_gamma   90.00000000
_symmetry_Int_Tables_number   1
_chemical_formula_structural   Ba4LaNd6DyS16
_chemical_formula_sum   'Ba4 La1 Nd6 Dy1 S16'
_cell_volume   784.07868996
_cell_formula_units_Z   1
loop_
 _symmetry_equiv_pos_site_id
 _symmetry_equiv_pos_as_xyz
  1  'x, y, z'
loop_
 _atom_site_type_symbol
 _atom_site_label
 _atom_site_symmetry_multiplicity
 _atom_site_fract_x
 _atom_site_fract_y
 _atom_site_fract_z
 _atom_site_occupancy
  Ba  Ba0  1  0.250000  0.757473  0.340113  1
  Ba  Ba1  1  0.250000  0.255469  0.161375  1
  Ba  Ba2  1  0.750000  0.241475  0.659096  1
  Ba  Ba3  1  0.750000  0.744082  0.838493  1
  La  La4  1  0.250000  0.423308  0.393433  1
  Nd  Nd5  1  0.250000  0.929909  0.110468  1
  Nd  Nd6  1  0.750000  0.572471  0.610360  1
  Nd  Nd7  1  0.750000  0.071209  0.891633  1
  Nd  Nd8  1  0.250000  0.419999  0.897636  1
  Nd  Nd9  1  0.250000  0.923942  0.600311  1
  Nd  Nd10  1  0.750000  0.579458  0.102561  1
  Dy  Dy11  1  0.750000  0.077816  0.395249  1
  S  S12  1  0.250000  0.207268  0.825966  1
  S  S13  1  0.250000  0.710029  0.671972  1
  S  S14  1  0.750000  0.792541  0.173913  1
  S  S15  1  0.750000  0.284433  0.326349  1
  S  S16  1  0.250000  0.130999  0.516060  1
  S  S17  1  0.250000  0.629096  0.974972  1
  S  S18  1  0.750000  0.875944  0.473409  1
  S  S19  1  0.750000  0.370696  0.025005  1
  S  S20  1  0.250000  0.520771  0.216769  1
  S  S21  1  0.250000  0.022872  0.286975  1
  S  S22  1  0.750000  0.478913  0.784350  1
  S  S23  1  0.750000  0.979587  0.715521  1
  S  S24  1  0.250000  0.419134  0.583355  1
  S  S25  1  0.250000  0.918807  0.922568  1
  S  S26  1  0.750000  0.580636  0.423016  1
  S  S27  1  0.750000  0.081663  0.079073  1
