# generated using pymatgen
data_Tb4Y3Ho9(In3Co)2
_symmetry_space_group_name_H-M   'P 1'
_cell_length_a   10.37772302
_cell_length_b   10.37779552
_cell_length_c   7.04901700
_cell_angle_alpha   89.99614415
_cell_angle_beta   90.00384254
_cell_angle_gamma   120.00712246
_symmetry_Int_Tables_number   1
_chemical_formula_structural   Tb4Y3Ho9(In3Co)2
_chemical_formula_sum   'Tb4 Y3 Ho9 In6 Co2'
_cell_volume   657.40832466
_cell_formula_units_Z   1
loop_
 _symmetry_equiv_pos_site_id
 _symmetry_equiv_pos_as_xyz
  1  'x, y, z'
loop_
 _atom_site_type_symbol
 _atom_site_label
 _atom_site_symmetry_multiplicity
 _atom_site_fract_x
 _atom_site_fract_y
 _atom_site_fract_z
 _atom_site_occupancy
  Tb  Tb0  1  0.464138  0.535866  0.482964  1
  Tb  Tb1  1  0.071590  0.535806  0.482885  1
  Tb  Tb2  1  0.464196  0.928409  0.482884  1
  Tb  Tb3  1  0.535627  0.464372  0.983655  1
  Y  Y4  1  0.666774  0.333228  0.592443  1
  Y  Y5  1  0.000023  0.999973  0.495107  1
  Y  Y6  1  0.999990  0.000007  0.995218  1
  Ho  Ho7  1  0.928544  0.464223  0.983443  1
  Ho  Ho8  1  0.535775  0.071457  0.983434  1
  Ho  Ho9  1  0.821611  0.178386  0.275712  1
  Ho  Ho10  1  0.356568  0.178163  0.275875  1
  Ho  Ho11  1  0.821839  0.643435  0.275884  1
  Ho  Ho12  1  0.178320  0.821675  0.776445  1
  Ho  Ho13  1  0.643433  0.821896  0.776306  1
  Ho  Ho14  1  0.178102  0.356569  0.776305  1
  Ho  Ho15  1  0.333246  0.666755  0.090563  1
  In  In16  1  0.162878  0.837117  0.233634  1
  In  In17  1  0.674239  0.837145  0.233745  1
  In  In18  1  0.162852  0.325760  0.233741  1
  In  In19  1  0.837071  0.162928  0.734179  1
  In  In20  1  0.325641  0.162648  0.733981  1
  In  In21  1  0.837355  0.674366  0.733980  1
  Co  Co22  1  0.333334  0.666667  0.707730  1
  Co  Co23  1  0.666853  0.333151  0.204440  1
