# generated using pymatgen
data_Sr3Te(IO2)2
_symmetry_space_group_name_H-M   'P 1'
_cell_length_a   7.63891129
_cell_length_b   7.63891191
_cell_length_c   5.83866900
_cell_angle_alpha   90.00000000
_cell_angle_beta   90.00000000
_cell_angle_gamma   134.93452488
_symmetry_Int_Tables_number   1
_chemical_formula_structural   Sr3Te(IO2)2
_chemical_formula_sum   'Sr3 Te1 I2 O4'
_cell_volume   241.18903057
_cell_formula_units_Z   1
loop_
 _symmetry_equiv_pos_site_id
 _symmetry_equiv_pos_as_xyz
  1  'x, y, z'
loop_
 _atom_site_type_symbol
 _atom_site_label
 _atom_site_symmetry_multiplicity
 _atom_site_fract_x
 _atom_site_fract_y
 _atom_site_fract_z
 _atom_site_occupancy
  Sr  Sr0  1  0.154867  0.845133  0.000000  1
  Sr  Sr1  1  0.656754  0.343246  0.500000  1
  Sr  Sr2  1  0.332330  0.667670  0.500000  1
  Te  Te3  1  0.802147  0.197853  0.000000  1
  I  I4  1  0.500996  0.499004  0.000000  1
  I  I5  1  0.011594  0.988406  0.500000  1
  O  O6  1  0.978007  0.477487  0.771774  1
  O  O7  1  0.522513  0.021993  0.228226  1
  O  O8  1  0.522513  0.021993  0.771774  1
  O  O9  1  0.978007  0.477487  0.228226  1
