# generated using pymatgen
data_SrYb2ReH7
_symmetry_space_group_name_H-M   'P 1'
_cell_length_a   5.13640600
_cell_length_b   5.13640730
_cell_length_c   12.86255900
_cell_angle_alpha   90.00000000
_cell_angle_beta   90.00000000
_cell_angle_gamma   120.00000453
_symmetry_Int_Tables_number   1
_chemical_formula_structural   SrYb2ReH7
_chemical_formula_sum   'Sr2 Yb4 Re2 H14'
_cell_volume   293.88457403
_cell_formula_units_Z   2
loop_
 _symmetry_equiv_pos_site_id
 _symmetry_equiv_pos_as_xyz
  1  'x, y, z'
loop_
 _atom_site_type_symbol
 _atom_site_label
 _atom_site_symmetry_multiplicity
 _atom_site_fract_x
 _atom_site_fract_y
 _atom_site_fract_z
 _atom_site_occupancy
  Sr  Sr0  1  0.000000  0.000000  0.250000  1
  Sr  Sr1  1  0.000000  0.000000  0.750000  1
  Yb  Yb2  1  0.333333  0.666667  0.439376  1
  Yb  Yb3  1  0.666667  0.333333  0.560624  1
  Yb  Yb4  1  0.666667  0.333333  0.939376  1
  Yb  Yb5  1  0.333333  0.666667  0.060624  1
  Re  Re6  1  0.000000  0.000000  0.500000  1
  Re  Re7  1  0.000000  0.000000  0.000000  1
  H  H8  1  0.161185  0.838815  0.916192  1
  H  H9  1  0.161185  0.322369  0.916192  1
  H  H10  1  0.677631  0.838815  0.916192  1
  H  H11  1  0.838815  0.161185  0.083808  1
  H  H12  1  0.838815  0.677631  0.083808  1
  H  H13  1  0.322369  0.161185  0.083808  1
  H  H14  1  0.838815  0.161185  0.416192  1
  H  H15  1  0.838815  0.677631  0.416192  1
  H  H16  1  0.322369  0.161185  0.416192  1
  H  H17  1  0.161185  0.838815  0.583808  1
  H  H18  1  0.161185  0.322369  0.583808  1
  H  H19  1  0.677631  0.838815  0.583808  1
  H  H20  1  0.333333  0.666667  0.250000  1
  H  H21  1  0.666667  0.333333  0.750000  1
