# generated using pymatgen
data_Pr2Nd2Ag3Pt
_symmetry_space_group_name_H-M   'P 1'
_cell_length_a   4.83529100
_cell_length_b   5.92297554
_cell_length_c   7.49118034
_cell_angle_alpha   90.50105812
_cell_angle_beta   90.00000000
_cell_angle_gamma   90.00000000
_symmetry_Int_Tables_number   1
_chemical_formula_structural   Pr2Nd2Ag3Pt
_chemical_formula_sum   'Pr2 Nd2 Ag3 Pt1'
_cell_volume   214.53403464
_cell_formula_units_Z   1
loop_
 _symmetry_equiv_pos_site_id
 _symmetry_equiv_pos_as_xyz
  1  'x, y, z'
loop_
 _atom_site_type_symbol
 _atom_site_label
 _atom_site_symmetry_multiplicity
 _atom_site_fract_x
 _atom_site_fract_y
 _atom_site_fract_z
 _atom_site_occupancy
  Pr  Pr0  1  0.250000  0.357672  0.696288  1
  Pr  Pr1  1  0.750000  0.629509  0.310680  1
  Nd  Nd2  1  0.250000  0.152599  0.168645  1
  Nd  Nd3  1  0.750000  0.863091  0.827690  1
  Ag  Ag4  1  0.250000  0.859759  0.533900  1
  Ag  Ag5  1  0.250000  0.651931  0.041866  1
  Ag  Ag6  1  0.750000  0.132110  0.461585  1
  Pt  Pt7  1  0.750000  0.353328  0.959346  1
