# generated using pymatgen
data_TbErTc2F14
_symmetry_space_group_name_H-M   'P 1'
_cell_length_a   5.59682900
_cell_length_b   8.90539880
_cell_length_c   12.00466857
_cell_angle_alpha   62.58149179
_cell_angle_beta   90.00000000
_cell_angle_gamma   90.00000000
_symmetry_Int_Tables_number   1
_chemical_formula_structural   TbErTc2F14
_chemical_formula_sum   'Tb2 Er2 Tc4 F28'
_cell_volume   531.12348308
_cell_formula_units_Z   2
loop_
 _symmetry_equiv_pos_site_id
 _symmetry_equiv_pos_as_xyz
  1  'x, y, z'
loop_
 _atom_site_type_symbol
 _atom_site_label
 _atom_site_symmetry_multiplicity
 _atom_site_fract_x
 _atom_site_fract_y
 _atom_site_fract_z
 _atom_site_occupancy
  Tb  Tb0  1  0.758978  0.812856  0.764947  1
  Tb  Tb1  1  0.258978  0.187144  0.735053  1
  Er  Er2  1  0.241284  0.185230  0.235435  1
  Er  Er3  1  0.741284  0.814770  0.264565  1
  Tc  Tc4  1  0.757152  0.272149  0.958836  1
  Tc  Tc5  1  0.257152  0.727851  0.541164  1
  Tc  Tc6  1  0.241968  0.725502  0.045613  1
  Tc  Tc7  1  0.741968  0.274498  0.454387  1
  F  F8  1  0.446704  0.706420  0.920449  1
  F  F9  1  0.946704  0.293580  0.579551  1
  F  F10  1  0.551492  0.292849  0.082889  1
  F  F11  1  0.051492  0.707151  0.417111  1
  F  F12  1  0.450631  0.280508  0.544536  1
  F  F13  1  0.950631  0.719492  0.955464  1
  F  F14  1  0.550499  0.722187  0.451564  1
  F  F15  1  0.050499  0.277813  0.048436  1
  F  F16  1  0.772385  0.519516  0.860280  1
  F  F17  1  0.272385  0.480484  0.639720  1
  F  F18  1  0.229133  0.477636  0.142730  1
  F  F19  1  0.729133  0.522364  0.357270  1
  F  F20  1  0.755971  0.025246  0.054401  1
  F  F21  1  0.255971  0.974754  0.445599  1
  F  F22  1  0.242490  0.972256  0.948603  1
  F  F23  1  0.742490  0.027744  0.551397  1
  F  F24  1  0.975800  0.728745  0.638291  1
  F  F25  1  0.475800  0.271255  0.861709  1
  F  F26  1  0.021778  0.270042  0.357113  1
  F  F27  1  0.521778  0.729958  0.142887  1
  F  F28  1  0.040667  0.745723  0.173145  1
  F  F29  1  0.540667  0.254277  0.326855  1
  F  F30  1  0.955142  0.253949  0.829584  1
  F  F31  1  0.455142  0.746051  0.670416  1
  F  F32  1  0.423861  0.973332  0.233077  1
  F  F33  1  0.923861  0.026668  0.266923  1
  F  F34  1  0.584068  0.030433  0.768338  1
  F  F35  1  0.084068  0.969567  0.731662  1
