# generated using pymatgen
data_PrEuZn21Pd
_symmetry_space_group_name_H-M   'P 1'
_cell_length_a   8.29702607
_cell_length_b   8.32155717
_cell_length_c   8.32155600
_cell_angle_alpha   99.66138864
_cell_angle_beta   100.13481167
_cell_angle_gamma   131.19856221
_symmetry_Int_Tables_number   1
_chemical_formula_structural   PrEuZn21Pd
_chemical_formula_sum   'Pr1 Eu1 Zn21 Pd1'
_cell_volume   393.10704383
_cell_formula_units_Z   1
loop_
 _symmetry_equiv_pos_site_id
 _symmetry_equiv_pos_as_xyz
  1  'x, y, z'
loop_
 _atom_site_type_symbol
 _atom_site_label
 _atom_site_symmetry_multiplicity
 _atom_site_fract_x
 _atom_site_fract_y
 _atom_site_fract_z
 _atom_site_occupancy
  Pr  Pr0  1  0.495775  0.500091  0.995686  1
  Eu  Eu1  1  0.751020  0.248531  0.502488  1
  Zn  Zn2  1  0.924115  0.598589  0.917013  1
  Zn  Zn3  1  0.844023  0.431057  0.170527  1
  Zn  Zn4  1  0.257515  0.674098  0.826671  1
  Zn  Zn5  1  0.683866  0.011421  0.084454  1
  Zn  Zn6  1  0.403983  0.076231  0.086644  1
  Zn  Zn7  1  0.990935  0.317084  0.916263  1
  Zn  Zn8  1  0.568633  0.153282  0.829750  1
  Zn  Zn9  1  0.327393  0.742536  0.172445  1
  Zn  Zn10  1  0.327393  0.154948  0.584857  1
  Zn  Zn11  1  0.403983  0.317339  0.327752  1
  Zn  Zn12  1  0.990936  0.074673  0.673852  1
  Zn  Zn13  1  0.568632  0.738883  0.415351  1
  Zn  Zn14  1  0.844024  0.673496  0.412966  1
  Zn  Zn15  1  0.257514  0.430843  0.583416  1
  Zn  Zn16  1  0.683865  0.599412  0.672445  1
  Zn  Zn17  1  0.924116  0.007102  0.325525  1
  Zn  Zn18  1  0.126318  0.376758  0.250447  1
  Zn  Zn19  1  0.126318  0.875871  0.749560  1
  Zn  Zn20  1  0.622402  0.873530  0.748873  1
  Zn  Zn21  1  0.248854  0.754028  0.494827  1
  Zn  Zn22  1  0.001571  0.995612  0.005958  1
  Pd  Pd23  1  0.126814  0.874583  0.252231  1
