# generated using pymatgen
data_Ta4Be11Nb2(SiNi2)4
_symmetry_space_group_name_H-M   'P 1'
_cell_length_a   7.67095367
_cell_length_b   7.66049688
_cell_length_c   7.71584739
_cell_angle_alpha   59.85057978
_cell_angle_beta   59.91486578
_cell_angle_gamma   60.43301124
_symmetry_Int_Tables_number   1
_chemical_formula_structural   Ta4Be11Nb2(SiNi2)4
_chemical_formula_sum   'Ta4 Be11 Nb2 Si4 Ni8'
_cell_volume   321.06910594
_cell_formula_units_Z   1
loop_
 _symmetry_equiv_pos_site_id
 _symmetry_equiv_pos_as_xyz
  1  'x, y, z'
loop_
 _atom_site_type_symbol
 _atom_site_label
 _atom_site_symmetry_multiplicity
 _atom_site_fract_x
 _atom_site_fract_y
 _atom_site_fract_z
 _atom_site_occupancy
  Ta  Ta0  1  0.702183  0.295565  0.297817  1
  Ta  Ta1  1  0.297817  0.704435  0.702183  1
  Ta  Ta2  1  0.299322  0.700678  0.299322  1
  Ta  Ta3  1  0.700678  0.299322  0.700678  1
  Be  Be4  1  0.336922  0.321768  0.322612  1
  Be  Be5  1  0.663078  0.678232  0.677388  1
  Be  Be6  1  0.333006  0.331635  0.020640  1
  Be  Be7  1  0.322612  0.018699  0.336922  1
  Be  Be8  1  0.666994  0.668365  0.979360  1
  Be  Be9  1  0.677388  0.981301  0.663078  1
  Be  Be10  1  0.020640  0.314719  0.333006  1
  Be  Be11  1  0.979360  0.685281  0.666994  1
  Be  Be12  1  0.500000  0.000000  0.500000  1
  Be  Be13  1  0.000000  0.000000  0.500000  1
  Be  Be14  1  0.500000  0.500000  0.000000  1
  Nb  Nb15  1  0.318102  0.316373  0.681898  1
  Nb  Nb16  1  0.681898  0.683627  0.318102  1
  Si  Si17  1  0.500000  0.000000  0.000000  1
  Si  Si18  1  0.000000  0.500000  0.500000  1
  Si  Si19  1  0.000000  0.500000  0.000000  1
  Si  Si20  1  0.000000  0.000000  0.000000  1
  Ni  Ni21  1  0.125289  0.123006  0.125129  1
  Ni  Ni22  1  0.874711  0.876994  0.874871  1
  Ni  Ni23  1  0.125812  0.122067  0.629340  1
  Ni  Ni24  1  0.125129  0.626575  0.125289  1
  Ni  Ni25  1  0.874188  0.877933  0.370660  1
  Ni  Ni26  1  0.874871  0.373425  0.874711  1
  Ni  Ni27  1  0.629340  0.122780  0.125812  1
  Ni  Ni28  1  0.370660  0.877220  0.874188  1
