# generated using pymatgen
data_ErTm9(SiPb3)2
_symmetry_space_group_name_H-M   'P 1'
_cell_length_a   9.22101201
_cell_length_b   9.22101231
_cell_length_c   6.43750000
_cell_angle_alpha   90.00000000
_cell_angle_beta   90.00000000
_cell_angle_gamma   119.99442516
_symmetry_Int_Tables_number   1
_chemical_formula_structural   ErTm9(SiPb3)2
_chemical_formula_sum   'Er1 Tm9 Si2 Pb6'
_cell_volume   474.05579231
_cell_formula_units_Z   1
loop_
 _symmetry_equiv_pos_site_id
 _symmetry_equiv_pos_as_xyz
  1  'x, y, z'
loop_
 _atom_site_type_symbol
 _atom_site_label
 _atom_site_symmetry_multiplicity
 _atom_site_fract_x
 _atom_site_fract_y
 _atom_site_fract_z
 _atom_site_occupancy
  Er  Er0  1  0.750035  0.750035  0.250000  1
  Tm  Tm1  1  0.666669  0.333305  0.499956  1
  Tm  Tm2  1  0.333305  0.666669  0.499956  1
  Tm  Tm3  1  0.333305  0.666669  0.000044  1
  Tm  Tm4  1  0.666669  0.333305  0.000044  1
  Tm  Tm5  1  0.249643  0.999983  0.250000  1
  Tm  Tm6  1  0.999983  0.249643  0.250000  1
  Tm  Tm7  1  0.249663  0.249663  0.750000  1
  Tm  Tm8  1  0.750318  0.000023  0.750000  1
  Tm  Tm9  1  0.000023  0.750318  0.750000  1
  Si  Si10  1  0.000185  0.000185  0.500125  1
  Si  Si11  1  0.000185  0.000185  0.999875  1
  Pb  Pb12  1  0.392706  0.392706  0.250000  1
  Pb  Pb13  1  0.607187  0.000099  0.250000  1
  Pb  Pb14  1  0.000099  0.607187  0.250000  1
  Pb  Pb15  1  0.607203  0.607203  0.750000  1
  Pb  Pb16  1  0.392796  0.000026  0.750000  1
  Pb  Pb17  1  0.000026  0.392796  0.750000  1
