# generated using pymatgen
data_Ho3Er5Ti9Si16Tc3
_symmetry_space_group_name_H-M   'P 1'
_cell_length_a   6.95548387
_cell_length_b   6.95586466
_cell_length_c   12.77121379
_cell_angle_alpha   90.05005564
_cell_angle_beta   89.94972600
_cell_angle_gamma   89.99511323
_symmetry_Int_Tables_number   1
_chemical_formula_structural   Ho3Er5Ti9Si16Tc3
_chemical_formula_sum   'Ho3 Er5 Ti9 Si16 Tc3'
_cell_volume   617.88878378
_cell_formula_units_Z   1
loop_
 _symmetry_equiv_pos_site_id
 _symmetry_equiv_pos_as_xyz
  1  'x, y, z'
loop_
 _atom_site_type_symbol
 _atom_site_label
 _atom_site_symmetry_multiplicity
 _atom_site_fract_x
 _atom_site_fract_y
 _atom_site_fract_z
 _atom_site_occupancy
  Ho  Ho0  1  0.658779  0.999375  0.968434  1
  Ho  Ho1  1  0.001641  0.340645  0.532675  1
  Ho  Ho2  1  0.999363  0.658795  0.031565  1
  Er  Er3  1  0.340817  0.001284  0.467364  1
  Er  Er4  1  0.498839  0.841831  0.719406  1
  Er  Er5  1  0.499983  0.158523  0.217802  1
  Er  Er6  1  0.841820  0.498934  0.280558  1
  Er  Er7  1  0.158621  0.499981  0.782108  1
  Ti  Ti8  1  0.673831  0.674032  0.499981  1
  Ti  Ti9  1  0.152147  0.005321  0.877072  1
  Ti  Ti10  1  0.494678  0.653383  0.124651  1
  Ti  Ti11  1  0.504686  0.348059  0.627669  1
  Ti  Ti12  1  0.653371  0.494696  0.875355  1
  Ti  Ti13  1  0.348122  0.504759  0.372302  1
  Ti  Ti14  1  0.847204  0.992493  0.375967  1
  Ti  Ti15  1  0.005372  0.152120  0.122898  1
  Ti  Ti16  1  0.992548  0.847201  0.624017  1
  Si  Si17  1  0.200409  0.129533  0.683837  1
  Si  Si18  1  0.370192  0.700503  0.932687  1
  Si  Si19  1  0.631427  0.296975  0.434039  1
  Si  Si20  1  0.700507  0.370197  0.067302  1
  Si  Si21  1  0.297210  0.631919  0.565913  1
  Si  Si22  1  0.798848  0.869892  0.183637  1
  Si  Si23  1  0.129771  0.200148  0.316205  1
  Si  Si24  1  0.869902  0.798871  0.816368  1
  Si  Si25  1  0.290898  0.952261  0.066907  1
  Si  Si26  1  0.547156  0.790809  0.315861  1
  Si  Si27  1  0.451970  0.210224  0.816688  1
  Si  Si28  1  0.790618  0.547344  0.684264  1
  Si  Si29  1  0.210262  0.451947  0.183314  1
  Si  Si30  1  0.707290  0.049004  0.567551  1
  Si  Si31  1  0.952247  0.290891  0.933073  1
  Si  Si32  1  0.049244  0.707791  0.432395  1
  Tc  Tc33  1  0.328015  0.328001  0.000019  1
  Tc  Tc34  1  0.173975  0.828305  0.248737  1
  Tc  Tc35  1  0.828236  0.173953  0.751379  1
