# generated using pymatgen
data_CaCd2TeO6
_symmetry_space_group_name_H-M   'P 1'
_cell_length_a   6.58895083
_cell_length_b   6.59833789
_cell_length_c   6.59935488
_cell_angle_alpha   90.54245667
_cell_angle_beta   90.79338388
_cell_angle_gamma   90.78135670
_symmetry_Int_Tables_number   1
_chemical_formula_structural   CaCd2TeO6
_chemical_formula_sum   'Ca2 Cd4 Te2 O12'
_cell_volume   286.84680799
_cell_formula_units_Z   2
loop_
 _symmetry_equiv_pos_site_id
 _symmetry_equiv_pos_as_xyz
  1  'x, y, z'
loop_
 _atom_site_type_symbol
 _atom_site_label
 _atom_site_symmetry_multiplicity
 _atom_site_fract_x
 _atom_site_fract_y
 _atom_site_fract_z
 _atom_site_occupancy
  Ca  Ca0  1  0.944131  0.437038  0.249401  1
  Ca  Ca1  1  0.250241  0.943284  0.437016  1
  Cd  Cd2  1  0.435463  0.251603  0.949236  1
  Cd  Cd3  1  0.052321  0.563286  0.749143  1
  Cd  Cd4  1  0.747927  0.054041  0.562498  1
  Cd  Cd5  1  0.563100  0.749390  0.053670  1
  Te  Te6  1  0.501570  0.499258  0.503031  1
  Te  Te7  1  0.998770  0.000614  0.997189  1
  O  O8  1  0.217652  0.564611  0.438347  1
  O  O9  1  0.435740  0.215477  0.563266  1
  O  O10  1  0.566963  0.437511  0.217411  1
  O  O11  1  0.785402  0.432463  0.565501  1
  O  O12  1  0.566805  0.782743  0.435351  1
  O  O13  1  0.435253  0.562795  0.787629  1
  O  O14  1  0.956209  0.078349  0.281114  1
  O  O15  1  0.284228  0.956247  0.075901  1
  O  O16  1  0.077390  0.284800  0.953477  1
  O  O17  1  0.042793  0.925540  0.713885  1
  O  O18  1  0.712185  0.044300  0.922478  1
  O  O19  1  0.925858  0.716650  0.044455  1
