# generated using pymatgen
data_Ba2InBiTe5
_symmetry_space_group_name_H-M   'P 1'
_cell_length_a   10.65660602
_cell_length_b   10.65660603
_cell_length_c   14.12592700
_cell_angle_alpha   90.00000000
_cell_angle_beta   90.00000000
_cell_angle_gamma   154.62252833
_symmetry_Int_Tables_number   1
_chemical_formula_structural   Ba2InBiTe5
_chemical_formula_sum   'Ba4 In2 Bi2 Te10'
_cell_volume   687.52198835
_cell_formula_units_Z   2
loop_
 _symmetry_equiv_pos_site_id
 _symmetry_equiv_pos_as_xyz
  1  'x, y, z'
loop_
 _atom_site_type_symbol
 _atom_site_label
 _atom_site_symmetry_multiplicity
 _atom_site_fract_x
 _atom_site_fract_y
 _atom_site_fract_z
 _atom_site_occupancy
  Ba  Ba0  1  0.386960  0.613040  0.146789  1
  Ba  Ba1  1  0.613040  0.386960  0.646789  1
  Ba  Ba2  1  0.628070  0.371930  0.019171  1
  Ba  Ba3  1  0.371930  0.628070  0.519171  1
  In  In4  1  0.938458  0.061542  0.888578  1
  In  In5  1  0.061542  0.938458  0.388578  1
  Bi  Bi6  1  0.285642  0.714358  0.808667  1
  Bi  Bi7  1  0.714358  0.285642  0.308667  1
  Te  Te8  1  0.782087  0.217913  0.660941  1
  Te  Te9  1  0.217913  0.782087  0.160941  1
  Te  Te10  1  0.003972  0.996028  0.061543  1
  Te  Te11  1  0.996028  0.003972  0.561543  1
  Te  Te12  1  0.451532  0.548468  0.771727  1
  Te  Te13  1  0.548468  0.451532  0.271727  1
  Te  Te14  1  0.143053  0.856947  0.830524  1
  Te  Te15  1  0.856947  0.143053  0.330524  1
  Te  Te16  1  0.809344  0.190656  0.966478  1
  Te  Te17  1  0.190656  0.809344  0.466478  1
