# generated using pymatgen
data_Er8Tm7Sc5Sn16
_symmetry_space_group_name_H-M   'P 1'
_cell_length_a   7.86045049
_cell_length_b   8.02425834
_cell_length_c   15.19624900
_cell_angle_alpha   90.05483053
_cell_angle_beta   89.82303442
_cell_angle_gamma   90.05493536
_symmetry_Int_Tables_number   1
_chemical_formula_structural   Er8Tm7Sc5Sn16
_chemical_formula_sum   'Er8 Tm7 Sc5 Sn16'
_cell_volume   958.48709821
_cell_formula_units_Z   1
loop_
 _symmetry_equiv_pos_site_id
 _symmetry_equiv_pos_as_xyz
  1  'x, y, z'
loop_
 _atom_site_type_symbol
 _atom_site_label
 _atom_site_symmetry_multiplicity
 _atom_site_fract_x
 _atom_site_fract_y
 _atom_site_fract_z
 _atom_site_occupancy
  Er  Er0  1  0.519548  0.320659  0.904647  1
  Er  Er1  1  0.021368  0.178536  0.596746  1
  Er  Er2  1  0.479382  0.679044  0.404611  1
  Er  Er3  1  0.979252  0.820919  0.094905  1
  Er  Er4  1  0.480765  0.679989  0.093818  1
  Er  Er5  1  0.979214  0.820728  0.404235  1
  Er  Er6  1  0.520373  0.320882  0.597121  1
  Er  Er7  1  0.018974  0.178200  0.904215  1
  Tm  Tm8  1  0.862485  0.661330  0.626048  1
  Tm  Tm9  1  0.637213  0.160831  0.375507  1
  Tm  Tm10  1  0.140284  0.338755  0.122089  1
  Tm  Tm11  1  0.638032  0.160930  0.124391  1
  Tm  Tm12  1  0.137234  0.338965  0.375635  1
  Tm  Tm13  1  0.363421  0.839266  0.625078  1
  Tm  Tm14  1  0.862719  0.660078  0.876187  1
  Sc  Sc15  1  0.360620  0.839825  0.873015  1
  Sc  Sc16  1  0.193345  0.504650  0.750589  1
  Sc  Sc17  1  0.691947  0.994331  0.750816  1
  Sc  Sc18  1  0.807868  0.495146  0.250093  1
  Sc  Sc19  1  0.307332  0.004209  0.249500  1
  Sn  Sn20  1  0.299406  0.034568  0.039090  1
  Sn  Sn21  1  0.796400  0.462953  0.457586  1
  Sn  Sn22  1  0.704643  0.963222  0.543867  1
  Sn  Sn23  1  0.207279  0.544546  0.955016  1
  Sn  Sn24  1  0.693323  0.960795  0.955427  1
  Sn  Sn25  1  0.203220  0.536882  0.544288  1
  Sn  Sn26  1  0.296114  0.037108  0.456886  1
  Sn  Sn27  1  0.797895  0.462167  0.043405  1
  Sn  Sn28  1  0.552487  0.621105  0.752794  1
  Sn  Sn29  1  0.057194  0.881892  0.752476  1
  Sn  Sn30  1  0.445486  0.383314  0.249799  1
  Sn  Sn31  1  0.946253  0.117265  0.249011  1
  Sn  Sn32  1  0.329982  0.152436  0.751495  1
  Sn  Sn33  1  0.828717  0.345465  0.750728  1
  Sn  Sn34  1  0.670033  0.844655  0.249600  1
  Sn  Sn35  1  0.170189  0.654352  0.249287  1
