# generated using pymatgen
data_Ho12Bi3Pb7
_symmetry_space_group_name_H-M   'P 1'
_cell_length_a   11.83107092
_cell_length_b   11.82007210
_cell_length_c   11.82007194
_cell_angle_alpha   147.98757054
_cell_angle_beta   132.68044901
_cell_angle_gamma   58.26552680
_symmetry_Int_Tables_number   1
_chemical_formula_structural   Ho12Bi3Pb7
_chemical_formula_sum   'Ho12 Bi3 Pb7'
_cell_volume   639.08834574
_cell_formula_units_Z   1
loop_
 _symmetry_equiv_pos_site_id
 _symmetry_equiv_pos_as_xyz
  1  'x, y, z'
loop_
 _atom_site_type_symbol
 _atom_site_label
 _atom_site_symmetry_multiplicity
 _atom_site_fract_x
 _atom_site_fract_y
 _atom_site_fract_z
 _atom_site_occupancy
  Ho  Ho0  1  0.698397  0.948725  0.251816  1
  Ho  Ho1  1  0.240364  0.637198  0.603165  1
  Ho  Ho2  1  0.674913  0.943927  0.730984  1
  Ho  Ho3  1  0.032298  0.139399  0.892899  1
  Ho  Ho4  1  0.976818  0.861910  0.114908  1
  Ho  Ho5  1  0.786357  0.556774  0.229583  1
  Ho  Ho6  1  0.212917  0.442673  0.770244  1
  Ho  Ho7  1  0.299675  0.053653  0.748833  1
  Ho  Ho8  1  0.326702  0.056594  0.270109  1
  Ho  Ho9  1  0.299675  0.550842  0.246022  1
  Ho  Ho10  1  0.749931  0.360545  0.389386  1
  Ho  Ho11  1  0.698397  0.446581  0.749672  1
  Bi  Bi12  1  0.473089  0.578196  0.894894  1
  Bi  Bi13  1  0.606499  0.798618  0.807881  1
  Bi  Bi14  1  0.681956  0.077984  0.603973  1
  Pb  Pb15  1  0.998982  0.749125  0.750530  1
  Pb  Pb16  1  0.990697  0.297248  0.693449  1
  Pb  Pb17  1  0.524451  0.422420  0.102030  1
  Pb  Pb18  1  0.006573  0.703433  0.303140  1
  Pb  Pb19  1  0.398440  0.202925  0.195516  1
  Pb  Pb20  1  0.323887  0.922779  0.401108  1
  Pb  Pb21  1  0.998982  0.248452  0.249857  1
