# generated using pymatgen
data_LiDy3Tl(SiAg)2
_symmetry_space_group_name_H-M   'P 1'
_cell_length_a   7.30469951
_cell_length_b   7.30469889
_cell_length_c   4.21854200
_cell_angle_alpha   90.00000000
_cell_angle_beta   90.00000000
_cell_angle_gamma   121.04710894
_symmetry_Int_Tables_number   1
_chemical_formula_structural   LiDy3Tl(SiAg)2
_chemical_formula_sum   'Li1 Dy3 Tl1 Si2 Ag2'
_cell_volume   192.84922200
_cell_formula_units_Z   1
loop_
 _symmetry_equiv_pos_site_id
 _symmetry_equiv_pos_as_xyz
  1  'x, y, z'
loop_
 _atom_site_type_symbol
 _atom_site_label
 _atom_site_symmetry_multiplicity
 _atom_site_fract_x
 _atom_site_fract_y
 _atom_site_fract_z
 _atom_site_occupancy
  Li  Li0  1  0.746572  0.746572  0.000000  1
  Dy  Dy1  1  0.429637  0.429637  0.500000  1
  Dy  Dy2  1  0.567764  0.001556  0.500000  1
  Dy  Dy3  1  0.001556  0.567764  0.500000  1
  Tl  Tl4  1  0.983006  0.983006  0.500000  1
  Si  Si5  1  0.666047  0.340526  0.000000  1
  Si  Si6  1  0.340526  0.666047  0.000000  1
  Ag  Ag7  1  0.267139  0.997753  0.000000  1
  Ag  Ag8  1  0.997753  0.267139  0.000000  1
