# generated using pymatgen
data_Ho5ThNi18
_symmetry_space_group_name_H-M   'P 1'
_cell_length_a   4.97349600
_cell_length_b   4.97349610
_cell_length_c   16.21937800
_cell_angle_alpha   90.00000000
_cell_angle_beta   90.00000000
_cell_angle_gamma   119.99999932
_symmetry_Int_Tables_number   1
_chemical_formula_structural   Ho5ThNi18
_chemical_formula_sum   'Ho5 Th1 Ni18'
_cell_volume   347.44685504
_cell_formula_units_Z   1
loop_
 _symmetry_equiv_pos_site_id
 _symmetry_equiv_pos_as_xyz
  1  'x, y, z'
loop_
 _atom_site_type_symbol
 _atom_site_label
 _atom_site_symmetry_multiplicity
 _atom_site_fract_x
 _atom_site_fract_y
 _atom_site_fract_z
 _atom_site_occupancy
  Ho  Ho0  1  0.333333  0.666667  0.457349  1
  Ho  Ho1  1  0.666667  0.333333  0.961042  1
  Ho  Ho2  1  0.666667  0.333333  0.538958  1
  Ho  Ho3  1  0.333333  0.666667  0.042651  1
  Ho  Ho4  1  0.333333  0.666667  0.250000  1
  Th  Th5  1  0.666667  0.333333  0.750000  1
  Ni  Ni6  1  0.832947  0.167053  0.373069  1
  Ni  Ni7  1  0.167031  0.832969  0.875085  1
  Ni  Ni8  1  0.832947  0.665893  0.126931  1
  Ni  Ni9  1  0.167031  0.334062  0.624915  1
  Ni  Ni10  1  0.000000  0.000000  0.499192  1
  Ni  Ni11  1  0.665938  0.832969  0.875085  1
  Ni  Ni12  1  0.832947  0.665893  0.373069  1
  Ni  Ni13  1  0.167031  0.334062  0.875085  1
  Ni  Ni14  1  0.334107  0.167053  0.126931  1
  Ni  Ni15  1  0.666667  0.333333  0.250000  1
  Ni  Ni16  1  0.832947  0.167053  0.126931  1
  Ni  Ni17  1  0.000000  0.000000  0.750000  1
  Ni  Ni18  1  0.665938  0.832969  0.624915  1
  Ni  Ni19  1  0.334107  0.167053  0.373069  1
  Ni  Ni20  1  0.000000  0.000000  0.000808  1
  Ni  Ni21  1  0.167031  0.832969  0.624915  1
  Ni  Ni22  1  0.333333  0.666667  0.750000  1
  Ni  Ni23  1  0.000000  0.000000  0.250000  1
