# generated using pymatgen
data_Gd2B4Ir5
_symmetry_space_group_name_H-M   'P 1'
_cell_length_a   7.58728973
_cell_length_b   6.32991666
_cell_length_c   5.74468900
_cell_angle_alpha   77.69253840
_cell_angle_beta   54.59842589
_cell_angle_gamma   47.71136216
_symmetry_Int_Tables_number   1
_chemical_formula_structural   Gd2B4Ir5
_chemical_formula_sum   'Gd2 B4 Ir5'
_cell_volume   159.06704273
_cell_formula_units_Z   1
loop_
 _symmetry_equiv_pos_site_id
 _symmetry_equiv_pos_as_xyz
  1  'x, y, z'
loop_
 _atom_site_type_symbol
 _atom_site_label
 _atom_site_symmetry_multiplicity
 _atom_site_fract_x
 _atom_site_fract_y
 _atom_site_fract_z
 _atom_site_occupancy
  Gd  Gd0  1  0.856973  0.857990  0.143498  1
  Gd  Gd1  1  0.143024  0.142008  0.856503  1
  B  B2  1  0.473767  0.790089  0.210126  1
  B  B3  1  0.209722  0.526568  0.473813  1
  B  B4  1  0.790276  0.473434  0.526189  1
  B  B5  1  0.526232  0.209911  0.789877  1
  Ir  Ir6  1  0.500000  0.500001  0.000001  1
  Ir  Ir7  1  0.250436  0.249756  0.249612  1
  Ir  Ir8  1  0.000000  0.000001  0.500001  1
  Ir  Ir9  1  0.500001  0.500002  0.499999  1
  Ir  Ir10  1  0.749564  0.750246  0.750389  1
