# generated using pymatgen
data_Sr3Sn4IrRh3
_symmetry_space_group_name_H-M   'P 1'
_cell_length_a   7.11993913
_cell_length_b   7.07828954
_cell_length_c   7.07828833
_cell_angle_alpha   109.35171243
_cell_angle_beta   109.59046163
_cell_angle_gamma   109.59046924
_symmetry_Int_Tables_number   1
_chemical_formula_structural   Sr3Sn4IrRh3
_chemical_formula_sum   'Sr3 Sn4 Ir1 Rh3'
_cell_volume   274.20143492
_cell_formula_units_Z   1
loop_
 _symmetry_equiv_pos_site_id
 _symmetry_equiv_pos_as_xyz
  1  'x, y, z'
loop_
 _atom_site_type_symbol
 _atom_site_label
 _atom_site_symmetry_multiplicity
 _atom_site_fract_x
 _atom_site_fract_y
 _atom_site_fract_z
 _atom_site_occupancy
  Sr  Sr0  1  0.500439  0.501811  0.000000  1
  Sr  Sr1  1  0.998628  0.498189  0.498189  1
  Sr  Sr2  1  0.500439  0.000000  0.501811  1
  Sn  Sn3  1  0.383477  0.000000  0.000000  1
  Sn  Sn4  1  0.000000  0.000000  0.383703  1
  Sn  Sn5  1  0.000000  0.383703  0.000000  1
  Sn  Sn6  1  0.616296  0.616296  0.616297  1
  Ir  Ir7  1  0.747703  0.000000  0.000000  1
  Rh  Rh8  1  0.001072  0.750200  0.000000  1
  Rh  Rh9  1  0.001072  0.000000  0.750200  1
  Rh  Rh10  1  0.250873  0.249800  0.249800  1
