# generated using pymatgen
data_Mg5Si12Ir16Rh3
_symmetry_space_group_name_H-M   'P 1'
_cell_length_a   12.73312900
_cell_length_b   12.73312909
_cell_length_c   3.93677700
_cell_angle_alpha   90.00000000
_cell_angle_beta   90.00000000
_cell_angle_gamma   120.00000236
_symmetry_Int_Tables_number   1
_chemical_formula_structural   Mg5Si12Ir16Rh3
_chemical_formula_sum   'Mg5 Si12 Ir16 Rh3'
_cell_volume   552.76650261
_cell_formula_units_Z   1
loop_
 _symmetry_equiv_pos_site_id
 _symmetry_equiv_pos_as_xyz
  1  'x, y, z'
loop_
 _atom_site_type_symbol
 _atom_site_label
 _atom_site_symmetry_multiplicity
 _atom_site_fract_x
 _atom_site_fract_y
 _atom_site_fract_z
 _atom_site_occupancy
  Mg  Mg0  1  0.333333  0.666667  0.000000  1
  Mg  Mg1  1  0.666667  0.333333  0.000000  1
  Mg  Mg2  1  0.820856  0.000000  0.500000  1
  Mg  Mg3  1  0.000000  0.820856  0.500000  1
  Mg  Mg4  1  0.179144  0.179144  0.500000  1
  Si  Si5  1  0.178991  0.000000  0.000000  1
  Si  Si6  1  0.000000  0.178991  0.000000  1
  Si  Si7  1  0.821009  0.821009  0.000000  1
  Si  Si8  1  0.166534  0.478851  0.500000  1
  Si  Si9  1  0.521149  0.687682  0.500000  1
  Si  Si10  1  0.312318  0.833466  0.500000  1
  Si  Si11  1  0.687682  0.521149  0.500000  1
  Si  Si12  1  0.833466  0.312318  0.500000  1
  Si  Si13  1  0.478851  0.166534  0.500000  1
  Si  Si14  1  0.629918  0.000000  0.000000  1
  Si  Si15  1  0.000000  0.629918  0.000000  1
  Si  Si16  1  0.370082  0.370082  0.000000  1
  Ir  Ir17  1  0.360698  0.489793  0.500000  1
  Ir  Ir18  1  0.510207  0.870905  0.500000  1
  Ir  Ir19  1  0.129095  0.639302  0.500000  1
  Ir  Ir20  1  0.870905  0.510207  0.500000  1
  Ir  Ir21  1  0.639302  0.129095  0.500000  1
  Ir  Ir22  1  0.489793  0.360698  0.500000  1
  Ir  Ir23  1  0.184740  0.374536  0.000000  1
  Ir  Ir24  1  0.625464  0.810204  0.000000  1
  Ir  Ir25  1  0.189796  0.815260  0.000000  1
  Ir  Ir26  1  0.810204  0.625464  0.000000  1
  Ir  Ir27  1  0.815260  0.189796  0.000000  1
  Ir  Ir28  1  0.374536  0.184740  0.000000  1
  Ir  Ir29  1  0.278477  0.000000  0.500000  1
  Ir  Ir30  1  0.000000  0.278477  0.500000  1
  Ir  Ir31  1  0.721523  0.721523  0.500000  1
  Ir  Ir32  1  0.000000  0.000000  0.000000  1
  Rh  Rh33  1  0.446016  0.000000  0.000000  1
  Rh  Rh34  1  0.000000  0.446016  0.000000  1
  Rh  Rh35  1  0.553984  0.553984  0.000000  1
