# generated using pymatgen
data_Gd2Ga6Rh
_symmetry_space_group_name_H-M   'P 1'
_cell_length_a   6.23431957
_cell_length_b   6.23431916
_cell_length_c   6.23432000
_cell_angle_alpha   59.99999557
_cell_angle_beta   59.99999772
_cell_angle_gamma   59.99999633
_symmetry_Int_Tables_number   1
_chemical_formula_structural   Gd2Ga6Rh
_chemical_formula_sum   'Gd2 Ga6 Rh1'
_cell_volume   171.33739159
_cell_formula_units_Z   1
loop_
 _symmetry_equiv_pos_site_id
 _symmetry_equiv_pos_as_xyz
  1  'x, y, z'
loop_
 _atom_site_type_symbol
 _atom_site_label
 _atom_site_symmetry_multiplicity
 _atom_site_fract_x
 _atom_site_fract_y
 _atom_site_fract_z
 _atom_site_occupancy
  Gd  Gd0  1  0.250000  0.250000  0.250000  1
  Gd  Gd1  1  0.750000  0.750000  0.750000  1
  Ga  Ga2  1  0.782946  0.782946  0.217054  1
  Ga  Ga3  1  0.782946  0.217054  0.782946  1
  Ga  Ga4  1  0.782946  0.217054  0.217054  1
  Ga  Ga5  1  0.217054  0.782946  0.217054  1
  Ga  Ga6  1  0.217054  0.782946  0.782946  1
  Ga  Ga7  1  0.217054  0.217054  0.782946  1
  Rh  Rh8  1  0.500000  0.500000  0.500000  1
