# generated using pymatgen
data_K9Rb3Al(GaSe4)3
_symmetry_space_group_name_H-M   'P 1'
_cell_length_a   13.54969998
_cell_length_b   8.23052155
_cell_length_c   10.61952054
_cell_angle_alpha   52.58999452
_cell_angle_beta   89.95899993
_cell_angle_gamma   89.67594534
_symmetry_Int_Tables_number   1
_chemical_formula_structural   K9Rb3Al(GaSe4)3
_chemical_formula_sum   'K9 Rb3 Al1 Ga3 Se12'
_cell_volume   940.67951137
_cell_formula_units_Z   1
loop_
 _symmetry_equiv_pos_site_id
 _symmetry_equiv_pos_as_xyz
  1  'x, y, z'
loop_
 _atom_site_type_symbol
 _atom_site_label
 _atom_site_symmetry_multiplicity
 _atom_site_fract_x
 _atom_site_fract_y
 _atom_site_fract_z
 _atom_site_occupancy
  K  K0  1  0.898382  0.320818  0.401197  1
  K  K1  1  0.616875  0.368992  0.473608  1
  K  K2  1  0.117360  0.628387  0.028617  1
  K  K3  1  0.383071  0.631198  0.527448  1
  K  K4  1  0.884182  0.374345  0.970473  1
  K  K5  1  0.603917  0.318508  0.901570  1
  K  K6  1  0.102819  0.681405  0.599100  1
  K  K7  1  0.396588  0.681278  0.097999  1
  K  K8  1  0.189081  0.148553  0.576831  1
  Rb  Rb9  1  0.310373  0.152532  0.070488  1
  Rb  Rb10  1  0.687079  0.848151  0.928793  1
  Rb  Rb11  1  0.812489  0.845814  0.430103  1
  Al  Al12  1  0.937976  0.055795  0.840180  1
  Ga  Ga13  1  0.064215  0.940799  0.160330  1
  Ga  Ga14  1  0.562611  0.056835  0.338875  1
  Ga  Ga15  1  0.435130  0.946233  0.660340  1
  Se  Se16  1  0.401108  0.178626  0.366683  1
  Se  Se17  1  0.902718  0.825389  0.128938  1
  Se  Se18  1  0.596155  0.822998  0.633357  1
  Se  Se19  1  0.097995  0.173977  0.865082  1
  Se  Se20  1  0.686419  0.322894  0.199673  1
  Se  Se21  1  0.186700  0.668132  0.303953  1
  Se  Se22  1  0.309903  0.683305  0.797680  1
  Se  Se23  1  0.814361  0.320056  0.700952  1
  Se  Se24  1  0.546896  0.865821  0.236324  1
  Se  Se25  1  0.048333  0.133576  0.261400  1
  Se  Se26  1  0.452240  0.135737  0.763941  1
  Se  Se27  1  0.955025  0.869840  0.736063  1
