# generated using pymatgen
data_Li2Lu3ZnSi2Ag
_symmetry_space_group_name_H-M   'P 1'
_cell_length_a   6.98379546
_cell_length_b   6.99105890
_cell_length_c   4.10242000
_cell_angle_alpha   90.00000000
_cell_angle_beta   90.00000000
_cell_angle_gamma   120.03440874
_symmetry_Int_Tables_number   1
_chemical_formula_structural   Li2Lu3ZnSi2Ag
_chemical_formula_sum   'Li2 Lu3 Zn1 Si2 Ag1'
_cell_volume   173.40217448
_cell_formula_units_Z   1
loop_
 _symmetry_equiv_pos_site_id
 _symmetry_equiv_pos_as_xyz
  1  'x, y, z'
loop_
 _atom_site_type_symbol
 _atom_site_label
 _atom_site_symmetry_multiplicity
 _atom_site_fract_x
 _atom_site_fract_y
 _atom_site_fract_z
 _atom_site_occupancy
  Li  Li0  1  0.757979  0.761660  0.000000  1
  Li  Li1  1  0.242021  0.003682  0.000000  1
  Lu  Lu2  1  0.427030  0.424874  0.500000  1
  Lu  Lu3  1  0.572970  0.997844  0.500000  1
  Lu  Lu4  1  0.000000  0.571134  0.500000  1
  Zn  Zn5  1  0.000000  0.994487  0.500000  1
  Si  Si6  1  0.664027  0.333472  0.000000  1
  Si  Si7  1  0.335973  0.669446  0.000000  1
  Ag  Ag8  1  0.000000  0.243401  0.000000  1
