# generated using pymatgen
data_Nd6PtCl10
_symmetry_space_group_name_H-M   'P 1'
_cell_length_a   7.39936497
_cell_length_b   9.26984742
_cell_length_c   9.30205407
_cell_angle_alpha   109.77396800
_cell_angle_beta   96.86858401
_cell_angle_gamma   106.96280268
_symmetry_Int_Tables_number   1
_chemical_formula_structural   Nd6PtCl10
_chemical_formula_sum   'Nd6 Pt1 Cl10'
_cell_volume   557.14813414
_cell_formula_units_Z   1
loop_
 _symmetry_equiv_pos_site_id
 _symmetry_equiv_pos_as_xyz
  1  'x, y, z'
loop_
 _atom_site_type_symbol
 _atom_site_label
 _atom_site_symmetry_multiplicity
 _atom_site_fract_x
 _atom_site_fract_y
 _atom_site_fract_z
 _atom_site_occupancy
  Nd  Nd0  1  0.973154  0.313851  0.105265  1
  Nd  Nd1  1  0.026846  0.686149  0.894735  1
  Nd  Nd2  1  0.621945  0.848637  0.801457  1
  Nd  Nd3  1  0.378055  0.151363  0.198543  1
  Nd  Nd4  1  0.140475  0.054027  0.749417  1
  Nd  Nd5  1  0.859525  0.945973  0.250583  1
  Pt  Pt6  1  0.000000  0.000000  0.000000  1
  Cl  Cl7  1  0.549981  0.168016  0.926523  1
  Cl  Cl8  1  0.450019  0.831984  0.073477  1
  Cl  Cl9  1  0.758165  0.920098  0.551287  1
  Cl  Cl10  1  0.241835  0.079902  0.448713  1
  Cl  Cl11  1  0.086895  0.364825  0.837918  1
  Cl  Cl12  1  0.913105  0.635175  0.162082  1
  Cl  Cl13  1  0.198364  0.744692  0.650891  1
  Cl  Cl14  1  0.801636  0.255308  0.349109  1
  Cl  Cl15  1  0.642070  0.540395  0.724506  1
  Cl  Cl16  1  0.357930  0.459605  0.275494  1
