# generated using pymatgen
data_K6ErAgF12
_symmetry_space_group_name_H-M   'P 1'
_cell_length_a   6.56336787
_cell_length_b   6.30042255
_cell_length_c   10.94095500
_cell_angle_alpha   55.52653004
_cell_angle_beta   90.26437781
_cell_angle_gamma   89.97859737
_symmetry_Int_Tables_number   1
_chemical_formula_structural   K6ErAgF12
_chemical_formula_sum   'K6 Er1 Ag1 F12'
_cell_volume   372.97183693
_cell_formula_units_Z   1
loop_
 _symmetry_equiv_pos_site_id
 _symmetry_equiv_pos_as_xyz
  1  'x, y, z'
loop_
 _atom_site_type_symbol
 _atom_site_label
 _atom_site_symmetry_multiplicity
 _atom_site_fract_x
 _atom_site_fract_y
 _atom_site_fract_z
 _atom_site_occupancy
  K  K0  1  0.946351  0.734790  0.748868  1
  K  K1  1  0.449180  0.280043  0.736721  1
  K  K2  1  0.053649  0.265210  0.251132  1
  K  K3  1  0.550820  0.719957  0.263279  1
  K  K4  1  0.000000  0.500000  0.500000  1
  K  K5  1  0.500000  0.500000  0.000000  1
  Er  Er6  1  0.000000  0.000000  0.000000  1
  Ag  Ag7  1  0.500000  0.000000  0.500000  1
  F  F8  1  0.940722  0.890042  0.223658  1
  F  F9  1  0.442572  0.108522  0.279905  1
  F  F10  1  0.059278  0.109958  0.776342  1
  F  F11  1  0.557428  0.891478  0.720095  1
  F  F12  1  0.730645  0.244053  0.923598  1
  F  F13  1  0.236343  0.760167  0.569408  1
  F  F14  1  0.269355  0.755947  0.076402  1
  F  F15  1  0.763657  0.239833  0.430592  1
  F  F16  1  0.319800  0.317601  0.454821  1
  F  F17  1  0.824078  0.670982  0.049328  1
  F  F18  1  0.680200  0.682399  0.545179  1
  F  F19  1  0.175922  0.329018  0.950672  1
