# generated using pymatgen
data_Er4CuRu6W
_symmetry_space_group_name_H-M   'P 1'
_cell_length_a   5.40700841
_cell_length_b   5.15238023
_cell_length_c   8.93966700
_cell_angle_alpha   90.00000000
_cell_angle_beta   90.00000000
_cell_angle_gamma   120.60068759
_symmetry_Int_Tables_number   1
_chemical_formula_structural   Er4CuRu6W
_chemical_formula_sum   'Er4 Cu1 Ru6 W1'
_cell_volume   214.36615501
_cell_formula_units_Z   1
loop_
 _symmetry_equiv_pos_site_id
 _symmetry_equiv_pos_as_xyz
  1  'x, y, z'
loop_
 _atom_site_type_symbol
 _atom_site_label
 _atom_site_symmetry_multiplicity
 _atom_site_fract_x
 _atom_site_fract_y
 _atom_site_fract_z
 _atom_site_occupancy
  Er  Er0  1  0.331138  0.667557  0.433782  1
  Er  Er1  1  0.672079  0.345231  0.562424  1
  Er  Er2  1  0.672079  0.345231  0.937576  1
  Er  Er3  1  0.331138  0.667557  0.066218  1
  Cu  Cu4  1  0.336154  0.167329  0.250000  1
  Ru  Ru5  1  0.171506  0.815583  0.750000  1
  Ru  Ru6  1  0.838460  0.653709  0.250000  1
  Ru  Ru7  1  0.649812  0.823638  0.750000  1
  Ru  Ru8  1  0.999640  0.013812  0.002556  1
  Ru  Ru9  1  0.839530  0.172582  0.250000  1
  Ru  Ru10  1  0.999640  0.013812  0.497444  1
  W  W11  1  0.158823  0.313961  0.750000  1
