# generated using pymatgen
data_Ce3Dy9(SiOs)8
_symmetry_space_group_name_H-M   'P 1'
_cell_length_a   5.56771931
_cell_length_b   7.79589186
_cell_length_c   13.30630554
_cell_angle_alpha   90.09534783
_cell_angle_beta   90.06077053
_cell_angle_gamma   89.91454753
_symmetry_Int_Tables_number   1
_chemical_formula_structural   Ce3Dy9(SiOs)8
_chemical_formula_sum   'Ce3 Dy9 Si8 Os8'
_cell_volume   577.56291874
_cell_formula_units_Z   1
loop_
 _symmetry_equiv_pos_site_id
 _symmetry_equiv_pos_as_xyz
  1  'x, y, z'
loop_
 _atom_site_type_symbol
 _atom_site_label
 _atom_site_symmetry_multiplicity
 _atom_site_fract_x
 _atom_site_fract_y
 _atom_site_fract_z
 _atom_site_occupancy
  Ce  Ce0  1  0.652429  0.409471  0.903262  1
  Ce  Ce1  1  0.350394  0.904830  0.595347  1
  Ce  Ce2  1  0.650979  0.091858  0.097906  1
  Dy  Dy3  1  0.126581  0.253445  0.749983  1
  Dy  Dy4  1  0.873137  0.742978  0.252070  1
  Dy  Dy5  1  0.127449  0.250019  0.250802  1
  Dy  Dy6  1  0.870132  0.752396  0.748422  1
  Dy  Dy7  1  0.641098  0.393373  0.601871  1
  Dy  Dy8  1  0.353188  0.609246  0.104938  1
  Dy  Dy9  1  0.650082  0.108799  0.395311  1
  Dy  Dy10  1  0.351103  0.891522  0.895248  1
  Dy  Dy11  1  0.354993  0.600417  0.397592  1
  Si  Si12  1  0.088685  0.251472  0.500918  1
  Si  Si13  1  0.914877  0.750254  0.001040  1
  Si  Si14  1  0.904009  0.746598  0.496663  1
  Si  Si15  1  0.099899  0.249385  0.000799  1
  Si  Si16  1  0.639524  0.103715  0.752860  1
  Si  Si17  1  0.359669  0.898270  0.253522  1
  Si  Si18  1  0.637063  0.396878  0.248059  1
  Si  Si19  1  0.355302  0.602077  0.747093  1
  Os  Os20  1  0.844596  0.019475  0.592675  1
  Os  Os21  1  0.156563  0.978397  0.093109  1
  Os  Os22  1  0.848000  0.472188  0.407925  1
  Os  Os23  1  0.157731  0.521351  0.908750  1
  Os  Os24  1  0.155006  0.975746  0.412868  1
  Os  Os25  1  0.844701  0.025120  0.912638  1
  Os  Os26  1  0.147319  0.526369  0.589805  1
  Os  Os27  1  0.845492  0.474352  0.088525  1
