# generated using pymatgen
data_Na2LiInP2
_symmetry_space_group_name_H-M   'P 1'
_cell_length_a   9.31784668
_cell_length_b   9.31784674
_cell_length_c   5.96154200
_cell_angle_alpha   90.00000000
_cell_angle_beta   90.00000000
_cell_angle_gamma   97.96791326
_symmetry_Int_Tables_number   1
_chemical_formula_structural   Na2LiInP2
_chemical_formula_sum   'Na8 Li4 In4 P8'
_cell_volume   512.59765866
_cell_formula_units_Z   4
loop_
 _symmetry_equiv_pos_site_id
 _symmetry_equiv_pos_as_xyz
  1  'x, y, z'
loop_
 _atom_site_type_symbol
 _atom_site_label
 _atom_site_symmetry_multiplicity
 _atom_site_fract_x
 _atom_site_fract_y
 _atom_site_fract_z
 _atom_site_occupancy
  Na  Na0  1  0.431243  0.068757  0.250000  1
  Na  Na1  1  0.068757  0.431243  0.750000  1
  Na  Na2  1  0.568757  0.931243  0.750000  1
  Na  Na3  1  0.321348  0.678652  0.279990  1
  Na  Na4  1  0.821348  0.178652  0.220010  1
  Na  Na5  1  0.678652  0.321348  0.720010  1
  Na  Na6  1  0.178652  0.821348  0.779990  1
  Na  Na7  1  0.931243  0.568757  0.250000  1
  Li  Li8  1  0.381906  0.381906  0.500000  1
  Li  Li9  1  0.118094  0.118094  0.000000  1
  Li  Li10  1  0.618094  0.618094  0.500000  1
  Li  Li11  1  0.881906  0.881906  0.000000  1
  In  In12  1  0.867865  0.867865  0.500000  1
  In  In13  1  0.132135  0.132135  0.500000  1
  In  In14  1  0.632135  0.632135  0.000000  1
  In  In15  1  0.367865  0.367865  0.000000  1
  P  P16  1  0.108844  0.891156  0.263711  1
  P  P17  1  0.608844  0.391156  0.236289  1
  P  P18  1  0.891156  0.108844  0.736289  1
  P  P19  1  0.391156  0.608844  0.763711  1
  P  P20  1  0.138034  0.361966  0.250000  1
  P  P21  1  0.361966  0.138034  0.750000  1
  P  P22  1  0.861966  0.638034  0.750000  1
  P  P23  1  0.638034  0.861966  0.250000  1
