# generated using pymatgen
data_Lu2Sc(PRu)3
_symmetry_space_group_name_H-M   'P 1'
_cell_length_a   6.67684524
_cell_length_b   6.69386600
_cell_length_c   3.70028900
_cell_angle_alpha   90.00000000
_cell_angle_beta   90.00000000
_cell_angle_gamma   120.08436247
_symmetry_Int_Tables_number   1
_chemical_formula_structural   Lu2Sc(PRu)3
_chemical_formula_sum   'Lu2 Sc1 P3 Ru3'
_cell_volume   143.10169627
_cell_formula_units_Z   1
loop_
 _symmetry_equiv_pos_site_id
 _symmetry_equiv_pos_as_xyz
  1  'x, y, z'
loop_
 _atom_site_type_symbol
 _atom_site_label
 _atom_site_symmetry_multiplicity
 _atom_site_fract_x
 _atom_site_fract_y
 _atom_site_fract_z
 _atom_site_occupancy
  Lu  Lu0  1  0.408831  0.409927  0.500000  1
  Lu  Lu1  1  0.591169  0.001095  0.500000  1
  Sc  Sc2  1  0.000000  0.591431  0.500000  1
  P  P3  1  0.673856  0.338905  0.000000  1
  P  P4  1  0.326144  0.665050  0.000000  1
  P  P5  1  0.000000  0.995963  0.500000  1
  Ru  Ru6  1  0.000000  0.242250  0.000000  1
  Ru  Ru7  1  0.240059  0.997719  0.000000  1
  Ru  Ru8  1  0.759941  0.757660  0.000000  1
