# generated using pymatgen
data_Sr6Li16Tl7
_symmetry_space_group_name_H-M   'P 1'
_cell_length_a   10.15462900
_cell_length_b   10.15462948
_cell_length_c   10.15462900
_cell_angle_alpha   120.00000169
_cell_angle_beta   90.00000000
_cell_angle_gamma   120.00000169
_symmetry_Int_Tables_number   1
_chemical_formula_structural   Sr6Li16Tl7
_chemical_formula_sum   'Sr6 Li16 Tl7'
_cell_volume   740.41836753
_cell_formula_units_Z   1
loop_
 _symmetry_equiv_pos_site_id
 _symmetry_equiv_pos_as_xyz
  1  'x, y, z'
loop_
 _atom_site_type_symbol
 _atom_site_label
 _atom_site_symmetry_multiplicity
 _atom_site_fract_x
 _atom_site_fract_y
 _atom_site_fract_z
 _atom_site_occupancy
  Sr  Sr0  1  0.784154  0.999999  0.215845  1
  Sr  Sr1  1  0.215840  0.431685  0.215842  1
  Sr  Sr2  1  0.215851  0.000001  0.215852  1
  Sr  Sr3  1  0.784148  0.999998  0.784147  1
  Sr  Sr4  1  0.215846  0.000001  0.784154  1
  Sr  Sr5  1  0.784160  0.568316  0.784158  1
  Li  Li6  1  0.377815  0.755631  0.133453  1
  Li  Li7  1  0.825576  0.651138  0.174444  1
  Li  Li8  1  0.523290  0.348849  0.174426  1
  Li  Li9  1  0.825555  0.348860  0.174423  1
  Li  Li10  1  0.133455  0.755633  0.377816  1
  Li  Li11  1  0.622177  0.755643  0.377817  1
  Li  Li12  1  0.622183  0.244357  0.377823  1
  Li  Li13  1  0.825572  0.651147  0.476704  1
  Li  Li14  1  0.174427  0.348851  0.523293  1
  Li  Li15  1  0.377816  0.755643  0.622177  1
  Li  Li16  1  0.377823  0.244356  0.622183  1
  Li  Li17  1  0.866546  0.244368  0.622184  1
  Li  Li18  1  0.174445  0.651140  0.825577  1
  Li  Li19  1  0.476708  0.651150  0.825573  1
  Li  Li20  1  0.174424  0.348863  0.825556  1
  Li  Li21  1  0.622185  0.244369  0.866548  1
  Tl  Tl22  1  0.500000  0.000000  0.000000  1
  Tl  Tl23  1  0.000001  0.499999  0.000000  1
  Tl  Tl24  1  0.500002  0.500000  0.000001  1
  Tl  Tl25  1  0.500000  0.000000  0.500000  1
  Tl  Tl26  1  0.000002  0.000001  0.500002  1
  Tl  Tl27  1  0.000001  0.499999  0.500001  1
  Tl  Tl28  1  0.500001  0.500001  0.500001  1
