# generated using pymatgen
data_TbGdTm2(WO6)2
_symmetry_space_group_name_H-M   'P 1'
_cell_length_a   5.40857100
_cell_length_b   7.70153986
_cell_length_c   11.41759101
_cell_angle_alpha   75.59274905
_cell_angle_beta   90.00000000
_cell_angle_gamma   90.00000000
_symmetry_Int_Tables_number   1
_chemical_formula_structural   TbGdTm2(WO6)2
_chemical_formula_sum   'Tb2 Gd2 Tm4 W4 O24'
_cell_volume   460.63547773
_cell_formula_units_Z   2
loop_
 _symmetry_equiv_pos_site_id
 _symmetry_equiv_pos_as_xyz
  1  'x, y, z'
loop_
 _atom_site_type_symbol
 _atom_site_label
 _atom_site_symmetry_multiplicity
 _atom_site_fract_x
 _atom_site_fract_y
 _atom_site_fract_z
 _atom_site_occupancy
  Tb  Tb0  1  0.742366  0.000000  0.750000  1
  Tb  Tb1  1  0.257634  0.000000  0.250000  1
  Gd  Gd2  1  0.684190  0.500000  0.750000  1
  Gd  Gd3  1  0.315810  0.500000  0.250000  1
  Tm  Tm4  1  0.183297  0.793844  0.578866  1
  Tm  Tm5  1  0.816703  0.793844  0.078866  1
  Tm  Tm6  1  0.183297  0.206156  0.921134  1
  Tm  Tm7  1  0.816703  0.206156  0.421134  1
  W  W8  1  0.255857  0.724383  0.886119  1
  W  W9  1  0.744143  0.724383  0.386119  1
  W  W10  1  0.255857  0.275617  0.613881  1
  W  W11  1  0.744143  0.275617  0.113881  1
  O  O12  1  0.047766  0.940857  0.897547  1
  O  O13  1  0.537212  0.842948  0.933019  1
  O  O14  1  0.952234  0.940857  0.397547  1
  O  O15  1  0.454540  0.791879  0.726381  1
  O  O16  1  0.462788  0.842948  0.433019  1
  O  O17  1  0.983960  0.713890  0.770709  1
  O  O18  1  0.545460  0.791879  0.226381  1
  O  O19  1  0.854510  0.636172  0.548640  1
  O  O20  1  0.355334  0.489240  0.887511  1
  O  O21  1  0.016040  0.713890  0.270709  1
  O  O22  1  0.355334  0.510760  0.612489  1
  O  O23  1  0.854510  0.363828  0.951360  1
  O  O24  1  0.145490  0.636172  0.048640  1
  O  O25  1  0.644666  0.489240  0.387511  1
  O  O26  1  0.983960  0.286110  0.729291  1
  O  O27  1  0.644666  0.510760  0.112489  1
  O  O28  1  0.145490  0.363828  0.451360  1
  O  O29  1  0.454540  0.208121  0.773619  1
  O  O30  1  0.016040  0.286110  0.229291  1
  O  O31  1  0.537212  0.157052  0.566981  1
  O  O32  1  0.545460  0.208121  0.273619  1
  O  O33  1  0.047766  0.059143  0.602453  1
  O  O34  1  0.462788  0.157052  0.066981  1
  O  O35  1  0.952234  0.059143  0.102453  1
