# generated using pymatgen
data_Dy2Hf5(ZrSn2)3
_symmetry_space_group_name_H-M   'P 1'
_cell_length_a   8.64604942
_cell_length_b   8.66388424
_cell_length_c   5.85723700
_cell_angle_alpha   90.00000000
_cell_angle_beta   90.00000000
_cell_angle_gamma   121.32081155
_symmetry_Int_Tables_number   1
_chemical_formula_structural   Dy2Hf5(ZrSn2)3
_chemical_formula_sum   'Dy2 Hf5 Zr3 Sn6'
_cell_volume   374.81619007
_cell_formula_units_Z   1
loop_
 _symmetry_equiv_pos_site_id
 _symmetry_equiv_pos_as_xyz
  1  'x, y, z'
loop_
 _atom_site_type_symbol
 _atom_site_label
 _atom_site_symmetry_multiplicity
 _atom_site_fract_x
 _atom_site_fract_y
 _atom_site_fract_z
 _atom_site_occupancy
  Dy  Dy0  1  0.771904  0.771503  0.750000  1
  Dy  Dy1  1  0.228411  0.228461  0.250000  1
  Hf  Hf2  1  0.998949  0.745693  0.250000  1
  Hf  Hf3  1  0.665161  0.334217  0.999978  1
  Hf  Hf4  1  0.335156  0.665446  0.000001  1
  Hf  Hf5  1  0.335156  0.665446  0.499999  1
  Hf  Hf6  1  0.665161  0.334217  0.500022  1
  Zr  Zr7  1  0.252320  0.000472  0.750000  1
  Zr  Zr8  1  0.001151  0.255138  0.750000  1
  Zr  Zr9  1  0.747005  0.998923  0.250000  1
  Sn  Sn10  1  0.391951  0.392110  0.750000  1
  Sn  Sn11  1  0.606175  0.003376  0.750000  1
  Sn  Sn12  1  0.003182  0.606309  0.750000  1
  Sn  Sn13  1  0.608756  0.608031  0.250000  1
  Sn  Sn14  1  0.392860  0.995841  0.250000  1
  Sn  Sn15  1  0.996701  0.394818  0.250000  1
