# generated using pymatgen
data_Ac8SmPd6
_symmetry_space_group_name_H-M   'P 1'
_cell_length_a   8.11426644
_cell_length_b   8.11426603
_cell_length_c   8.11426588
_cell_angle_alpha   72.28082716
_cell_angle_beta   72.28083387
_cell_angle_gamma   72.28081562
_symmetry_Int_Tables_number   1
_chemical_formula_structural   Ac8SmPd6
_chemical_formula_sum   'Ac8 Sm1 Pd6'
_cell_volume   471.38461227
_cell_formula_units_Z   1
loop_
 _symmetry_equiv_pos_site_id
 _symmetry_equiv_pos_as_xyz
  1  'x, y, z'
loop_
 _atom_site_type_symbol
 _atom_site_label
 _atom_site_symmetry_multiplicity
 _atom_site_fract_x
 _atom_site_fract_y
 _atom_site_fract_z
 _atom_site_occupancy
  Ac  Ac0  1  0.798302  0.798302  0.798302  1
  Ac  Ac1  1  0.201698  0.201698  0.201698  1
  Ac  Ac2  1  0.328163  0.618571  0.831462  1
  Ac  Ac3  1  0.831462  0.328163  0.618571  1
  Ac  Ac4  1  0.618570  0.831462  0.328163  1
  Ac  Ac5  1  0.671837  0.381429  0.168538  1
  Ac  Ac6  1  0.168538  0.671837  0.381429  1
  Ac  Ac7  1  0.381429  0.168538  0.671837  1
  Sm  Sm8  1  0.000000  0.000000  0.000000  1
  Pd  Pd9  1  0.148732  0.962541  0.599755  1
  Pd  Pd10  1  0.599755  0.148732  0.962541  1
  Pd  Pd11  1  0.962541  0.599755  0.148732  1
  Pd  Pd12  1  0.851268  0.037459  0.400245  1
  Pd  Pd13  1  0.400245  0.851268  0.037459  1
  Pd  Pd14  1  0.037459  0.400245  0.851268  1
