# generated using pymatgen
data_SmY3Ga18(RuPt2)2
_symmetry_space_group_name_H-M   'P 1'
_cell_length_a   7.65386501
_cell_length_b   7.65463309
_cell_length_c   9.54391100
_cell_angle_alpha   90.00000000
_cell_angle_beta   90.00000000
_cell_angle_gamma   119.63248425
_symmetry_Int_Tables_number   1
_chemical_formula_structural   SmY3Ga18(RuPt2)2
_chemical_formula_sum   'Sm1 Y3 Ga18 Ru2 Pt4'
_cell_volume   486.02503798
_cell_formula_units_Z   1
loop_
 _symmetry_equiv_pos_site_id
 _symmetry_equiv_pos_as_xyz
  1  'x, y, z'
loop_
 _atom_site_type_symbol
 _atom_site_label
 _atom_site_symmetry_multiplicity
 _atom_site_fract_x
 _atom_site_fract_y
 _atom_site_fract_z
 _atom_site_occupancy
  Sm  Sm0  1  0.997901  0.667943  0.250000  1
  Y  Y1  1  0.002004  0.331820  0.750000  1
  Y  Y2  1  0.668095  0.997981  0.250000  1
  Y  Y3  1  0.331754  0.002024  0.750000  1
  Ga  Ga4  1  0.120364  0.120601  0.250000  1
  Ga  Ga5  1  0.879804  0.879805  0.750000  1
  Ga  Ga6  1  0.999695  0.328924  0.081108  1
  Ga  Ga7  1  0.000270  0.670678  0.918544  1
  Ga  Ga8  1  0.000270  0.670678  0.581456  1
  Ga  Ga9  1  0.329704  0.000100  0.418901  1
  Ga  Ga10  1  0.999695  0.328924  0.418892  1
  Ga  Ga11  1  0.670698  0.000290  0.581204  1
  Ga  Ga12  1  0.670698  0.000290  0.918796  1
  Ga  Ga13  1  0.329704  0.000100  0.081099  1
  Ga  Ga14  1  0.324901  0.324902  0.566284  1
  Ga  Ga15  1  0.674777  0.675148  0.433897  1
  Ga  Ga16  1  0.674777  0.675148  0.066103  1
  Ga  Ga17  1  0.324901  0.324902  0.933716  1
  Ga  Ga18  1  0.343153  0.544078  0.250000  1
  Ga  Ga19  1  0.656958  0.455755  0.750000  1
  Ga  Ga20  1  0.543880  0.342832  0.250000  1
  Ga  Ga21  1  0.455782  0.656971  0.750000  1
  Ru  Ru22  1  0.000065  0.000165  0.999786  1
  Ru  Ru23  1  0.000065  0.000165  0.500214  1
  Pt  Pt24  1  0.671500  0.328336  0.999875  1
  Pt  Pt25  1  0.328543  0.671553  0.999865  1
  Pt  Pt26  1  0.328543  0.671553  0.500135  1
  Pt  Pt27  1  0.671500  0.328336  0.500125  1
