# generated using pymatgen
data_TbDyCo2Se
_symmetry_space_group_name_H-M   'P 1'
_cell_length_a   3.90843200
_cell_length_b   3.90843202
_cell_length_c   15.49342500
_cell_angle_alpha   90.00000000
_cell_angle_beta   90.00000000
_cell_angle_gamma   119.99998291
_symmetry_Int_Tables_number   1
_chemical_formula_structural   TbDyCo2Se
_chemical_formula_sum   'Tb2 Dy2 Co4 Se2'
_cell_volume   204.96667854
_cell_formula_units_Z   2
loop_
 _symmetry_equiv_pos_site_id
 _symmetry_equiv_pos_as_xyz
  1  'x, y, z'
loop_
 _atom_site_type_symbol
 _atom_site_label
 _atom_site_symmetry_multiplicity
 _atom_site_fract_x
 _atom_site_fract_y
 _atom_site_fract_z
 _atom_site_occupancy
  Tb  Tb0  1  0.000000  0.000000  0.378397  1
  Tb  Tb1  1  0.000000  0.000000  0.878397  1
  Dy  Dy2  1  0.000000  0.000000  0.121417  1
  Dy  Dy3  1  0.000000  0.000000  0.621417  1
  Co  Co4  1  0.666667  0.333333  0.998170  1
  Co  Co5  1  0.333333  0.666667  0.002614  1
  Co  Co6  1  0.666667  0.333333  0.502614  1
  Co  Co7  1  0.333333  0.666667  0.498170  1
  Se  Se8  1  0.666667  0.333333  0.249401  1
  Se  Se9  1  0.333333  0.666667  0.749401  1
