# generated using pymatgen
data_Tb8Hf10Zr2Si15Pd
_symmetry_space_group_name_H-M   'P 1'
_cell_length_a   7.29107182
_cell_length_b   7.33775785
_cell_length_c   13.44825542
_cell_angle_alpha   89.96676587
_cell_angle_beta   89.86093710
_cell_angle_gamma   90.01464241
_symmetry_Int_Tables_number   1
_chemical_formula_structural   Tb8Hf10Zr2Si15Pd
_chemical_formula_sum   'Tb8 Hf10 Zr2 Si15 Pd1'
_cell_volume   719.48100811
_cell_formula_units_Z   1
loop_
 _symmetry_equiv_pos_site_id
 _symmetry_equiv_pos_as_xyz
  1  'x, y, z'
loop_
 _atom_site_type_symbol
 _atom_site_label
 _atom_site_symmetry_multiplicity
 _atom_site_fract_x
 _atom_site_fract_y
 _atom_site_fract_z
 _atom_site_occupancy
  Tb  Tb0  1  0.993350  0.347114  0.214573  1
  Tb  Tb1  1  0.004795  0.654981  0.715060  1
  Tb  Tb2  1  0.156728  0.497351  0.464998  1
  Tb  Tb3  1  0.503822  0.843080  0.033645  1
  Tb  Tb4  1  0.843467  0.502513  0.965096  1
  Tb  Tb5  1  0.496957  0.155045  0.537414  1
  Tb  Tb6  1  0.343454  0.997832  0.785099  1
  Tb  Tb7  1  0.661103  0.998789  0.283871  1
  Hf  Hf8  1  0.325765  0.679327  0.250016  1
  Hf  Hf9  1  0.675319  0.324532  0.750120  1
  Hf  Hf10  1  0.149496  0.999367  0.374030  1
  Hf  Hf11  1  0.850718  0.004174  0.874729  1
  Hf  Hf12  1  0.504428  0.650182  0.624705  1
  Hf  Hf13  1  0.351200  0.495603  0.874783  1
  Hf  Hf14  1  0.493273  0.348679  0.124528  1
  Hf  Hf15  1  0.649051  0.507708  0.379829  1
  Hf  Hf16  1  0.996595  0.148997  0.626017  1
  Hf  Hf17  1  0.001241  0.848722  0.123610  1
  Zr  Zr18  1  0.174545  0.176246  0.999030  1
  Zr  Zr19  1  0.827077  0.824809  0.500175  1
  Si  Si20  1  0.637055  0.705893  0.817989  1
  Si  Si21  1  0.205539  0.862910  0.567153  1
  Si  Si22  1  0.137110  0.794182  0.932140  1
  Si  Si23  1  0.794599  0.137050  0.066574  1
  Si  Si24  1  0.860897  0.201991  0.434688  1
  Si  Si25  1  0.295736  0.363033  0.683449  1
  Si  Si26  1  0.703692  0.638274  0.182475  1
  Si  Si27  1  0.291828  0.045221  0.183406  1
  Si  Si28  1  0.705381  0.951447  0.686314  1
  Si  Si29  1  0.448833  0.796080  0.436293  1
  Si  Si30  1  0.205128  0.550629  0.063604  1
  Si  Si31  1  0.549491  0.205131  0.935258  1
  Si  Si32  1  0.794953  0.449108  0.566225  1
  Si  Si33  1  0.047709  0.296146  0.813937  1
  Si  Si34  1  0.951274  0.705543  0.313128  1
  Pd  Pd35  1  0.368393  0.292311  0.316036  1
