# generated using pymatgen
data_Tb2Yb2MnRu7
_symmetry_space_group_name_H-M   'P 1'
_cell_length_a   5.29623900
_cell_length_b   5.29623917
_cell_length_c   8.74248600
_cell_angle_alpha   90.00000000
_cell_angle_beta   90.00000000
_cell_angle_gamma   119.99999271
_symmetry_Int_Tables_number   1
_chemical_formula_structural   Tb2Yb2MnRu7
_chemical_formula_sum   'Tb2 Yb2 Mn1 Ru7'
_cell_volume   212.37371925
_cell_formula_units_Z   1
loop_
 _symmetry_equiv_pos_site_id
 _symmetry_equiv_pos_as_xyz
  1  'x, y, z'
loop_
 _atom_site_type_symbol
 _atom_site_label
 _atom_site_symmetry_multiplicity
 _atom_site_fract_x
 _atom_site_fract_y
 _atom_site_fract_z
 _atom_site_occupancy
  Tb  Tb0  1  0.333333  0.666667  0.427359  1
  Tb  Tb1  1  0.666667  0.333333  0.572641  1
  Yb  Yb2  1  0.666667  0.333333  0.936563  1
  Yb  Yb3  1  0.333333  0.666667  0.063437  1
  Mn  Mn4  1  0.000000  0.000000  0.000000  1
  Ru  Ru5  1  0.000000  0.000000  0.500000  1
  Ru  Ru6  1  0.829160  0.170840  0.247539  1
  Ru  Ru7  1  0.829160  0.658317  0.247539  1
  Ru  Ru8  1  0.341683  0.170840  0.247539  1
  Ru  Ru9  1  0.170840  0.829160  0.752461  1
  Ru  Ru10  1  0.170840  0.341683  0.752461  1
  Ru  Ru11  1  0.658317  0.829160  0.752461  1
