# generated using pymatgen
data_TbY5Al24ZnRu7
_symmetry_space_group_name_H-M   'P 1'
_cell_length_a   8.84861545
_cell_length_b   8.84579316
_cell_length_c   9.55304249
_cell_angle_alpha   89.99055923
_cell_angle_beta   90.00000501
_cell_angle_gamma   119.93616457
_symmetry_Int_Tables_number   1
_chemical_formula_structural   TbY5Al24ZnRu7
_chemical_formula_sum   'Tb1 Y5 Al24 Zn1 Ru7'
_cell_volume   647.98273542
_cell_formula_units_Z   1
loop_
 _symmetry_equiv_pos_site_id
 _symmetry_equiv_pos_as_xyz
  1  'x, y, z'
loop_
 _atom_site_type_symbol
 _atom_site_label
 _atom_site_symmetry_multiplicity
 _atom_site_fract_x
 _atom_site_fract_y
 _atom_site_fract_z
 _atom_site_occupancy
  Tb  Tb0  1  0.192265  0.385145  0.747486  1
  Y  Y1  1  0.385266  0.192428  0.252593  1
  Y  Y2  1  0.806206  0.193949  0.246899  1
  Y  Y3  1  0.807583  0.614876  0.252632  1
  Y  Y4  1  0.614655  0.807453  0.747333  1
  Y  Y5  1  0.193779  0.805968  0.752979  1
  Al  Al6  1  0.438858  0.878754  0.251457  1
  Al  Al7  1  0.121229  0.561191  0.251347  1
  Al  Al8  1  0.436578  0.563537  0.245199  1
  Al  Al9  1  0.561109  0.121147  0.748556  1
  Al  Al10  1  0.878396  0.438781  0.748475  1
  Al  Al11  1  0.563634  0.436452  0.754916  1
  Al  Al12  1  0.162930  0.837249  0.422420  1
  Al  Al13  1  0.150683  0.322274  0.418631  1
  Al  Al14  1  0.677852  0.849464  0.418612  1
  Al  Al15  1  0.837080  0.162768  0.577550  1
  Al  Al16  1  0.849388  0.677778  0.581279  1
  Al  Al17  1  0.322179  0.150576  0.581353  1
  Al  Al18  1  0.837352  0.162442  0.922232  1
  Al  Al19  1  0.837795  0.675504  0.923750  1
  Al  Al20  1  0.324450  0.162111  0.923711  1
  Al  Al21  1  0.162603  0.837506  0.077716  1
  Al  Al22  1  0.162310  0.324456  0.076365  1
  Al  Al23  1  0.675567  0.837828  0.076356  1
  Al  Al24  1  0.328947  0.671010  0.520536  1
  Al  Al25  1  0.670990  0.328987  0.479336  1
  Al  Al26  1  0.666447  0.333621  0.015637  1
  Al  Al27  1  0.333770  0.666503  0.984496  1
  Al  Al28  1  0.000882  0.999347  0.249661  1
  Al  Al29  1  0.999195  0.000961  0.750414  1
  Zn  Zn30  1  0.499845  0.499944  0.500089  1
  Ru  Ru31  1  0.000016  0.999990  0.499979  1
  Ru  Ru32  1  0.999953  0.999884  0.000102  1
  Ru  Ru33  1  0.500029  0.000005  0.499975  1
  Ru  Ru34  1  0.999894  0.500020  0.499870  1
  Ru  Ru35  1  0.500032  0.000072  0.000065  1
  Ru  Ru36  1  0.000093  0.499990  0.999896  1
  Ru  Ru37  1  0.500162  0.500024  0.000096  1
