# generated using pymatgen
data_Er8Co3Si12Pt
_symmetry_space_group_name_H-M   'P 1'
_cell_length_a   8.00843900
_cell_length_b   8.00843821
_cell_length_c   7.82860400
_cell_angle_alpha   89.99998285
_cell_angle_beta   90.00001447
_cell_angle_gamma   119.99999196
_symmetry_Int_Tables_number   1
_chemical_formula_structural   Er8Co3Si12Pt
_chemical_formula_sum   'Er8 Co3 Si12 Pt1'
_cell_volume   434.82118322
_cell_formula_units_Z   1
loop_
 _symmetry_equiv_pos_site_id
 _symmetry_equiv_pos_as_xyz
  1  'x, y, z'
loop_
 _atom_site_type_symbol
 _atom_site_label
 _atom_site_symmetry_multiplicity
 _atom_site_fract_x
 _atom_site_fract_y
 _atom_site_fract_z
 _atom_site_occupancy
  Er  Er0  1  0.981827  0.490914  0.245984  1
  Er  Er1  1  0.509087  0.490914  0.245984  1
  Er  Er2  1  0.495123  0.990247  0.751868  1
  Er  Er3  1  0.009753  0.504876  0.751866  1
  Er  Er4  1  0.495122  0.504875  0.751866  1
  Er  Er5  1  0.509086  0.018174  0.245984  1
  Er  Er6  1  0.000000  0.999998  0.753125  1
  Er  Er7  1  0.000000  0.000000  0.247838  1
  Co  Co8  1  0.333333  0.666667  0.034441  1
  Co  Co9  1  0.666667  0.333334  0.964148  1
  Co  Co10  1  0.666667  0.333334  0.536076  1
  Si  Si11  1  0.163531  0.836468  0.500791  1
  Si  Si12  1  0.163531  0.327063  0.500791  1
  Si  Si13  1  0.672937  0.836469  0.500791  1
  Si  Si14  1  0.341919  0.170960  0.998108  1
  Si  Si15  1  0.826932  0.653865  0.500367  1
  Si  Si16  1  0.829041  0.170959  0.998108  1
  Si  Si17  1  0.829041  0.658082  0.998108  1
  Si  Si18  1  0.171931  0.343864  0.001235  1
  Si  Si19  1  0.656136  0.828068  0.001235  1
  Si  Si20  1  0.346135  0.173068  0.500367  1
  Si  Si21  1  0.826932  0.173068  0.500368  1
  Si  Si22  1  0.171931  0.828068  0.001235  1
  Pt  Pt23  1  0.333333  0.666667  0.469315  1
