# generated using pymatgen
data_Dy7ErTe4
_symmetry_space_group_name_H-M   'P 1'
_cell_length_a   4.06486100
_cell_length_b   11.52372368
_cell_length_c   22.17751132
_cell_angle_alpha   90.03947181
_cell_angle_beta   90.00000000
_cell_angle_gamma   90.00000000
_symmetry_Int_Tables_number   1
_chemical_formula_structural   Dy7ErTe4
_chemical_formula_sum   'Dy21 Er3 Te12'
_cell_volume   1038.84616747
_cell_formula_units_Z   3
loop_
 _symmetry_equiv_pos_site_id
 _symmetry_equiv_pos_as_xyz
  1  'x, y, z'
loop_
 _atom_site_type_symbol
 _atom_site_label
 _atom_site_symmetry_multiplicity
 _atom_site_fract_x
 _atom_site_fract_y
 _atom_site_fract_z
 _atom_site_occupancy
  Dy  Dy0  1  0.250000  0.348365  0.891512  1
  Dy  Dy1  1  0.250000  0.455786  0.339946  1
  Dy  Dy2  1  0.750000  0.544228  0.660020  1
  Dy  Dy3  1  0.750000  0.955778  0.160044  1
  Dy  Dy4  1  0.250000  0.044116  0.839990  1
  Dy  Dy5  1  0.250000  0.734572  0.233100  1
  Dy  Dy6  1  0.750000  0.265467  0.766634  1
  Dy  Dy7  1  0.750000  0.234556  0.266885  1
  Dy  Dy8  1  0.250000  0.765493  0.733108  1
  Dy  Dy9  1  0.250000  0.115867  0.034342  1
  Dy  Dy10  1  0.750000  0.884080  0.965755  1
  Dy  Dy11  1  0.750000  0.615917  0.465752  1
  Dy  Dy12  1  0.250000  0.384106  0.534248  1
  Dy  Dy13  1  0.250000  0.415182  0.146570  1
  Dy  Dy14  1  0.750000  0.585282  0.853272  1
  Dy  Dy15  1  0.750000  0.915167  0.353437  1
  Dy  Dy16  1  0.250000  0.084871  0.646591  1
  Dy  Dy17  1  0.250000  0.612946  0.983177  1
  Dy  Dy18  1  0.750000  0.387223  0.017022  1
  Dy  Dy19  1  0.750000  0.112767  0.516852  1
  Dy  Dy20  1  0.250000  0.887204  0.483142  1
  Er  Er21  1  0.250000  0.151266  0.391478  1
  Er  Er22  1  0.750000  0.848665  0.608517  1
  Er  Er23  1  0.750000  0.651356  0.108505  1
  Te  Te24  1  0.250000  0.850135  0.069092  1
  Te  Te25  1  0.750000  0.149474  0.931140  1
  Te  Te26  1  0.750000  0.350118  0.430921  1
  Te  Te27  1  0.250000  0.649868  0.569078  1
  Te  Te28  1  0.250000  0.711862  0.372741  1
  Te  Te29  1  0.750000  0.288117  0.627258  1
  Te  Te30  1  0.750000  0.211858  0.127258  1
  Te  Te31  1  0.250000  0.788147  0.872709  1
  Te  Te32  1  0.250000  0.020799  0.260984  1
  Te  Te33  1  0.750000  0.979178  0.739029  1
  Te  Te34  1  0.750000  0.520804  0.239013  1
  Te  Te35  1  0.250000  0.479382  0.760875  1
