# generated using pymatgen
data_CsTm3CI6
_symmetry_space_group_name_H-M   'P 1'
_cell_length_a   9.35634368
_cell_length_b   9.43276974
_cell_length_c   9.85831799
_cell_angle_alpha   71.55619628
_cell_angle_beta   84.41478141
_cell_angle_gamma   89.33901760
_symmetry_Int_Tables_number   1
_chemical_formula_structural   CsTm3CI6
_chemical_formula_sum   'Cs2 Tm6 C2 I12'
_cell_volume   821.27773999
_cell_formula_units_Z   2
loop_
 _symmetry_equiv_pos_site_id
 _symmetry_equiv_pos_as_xyz
  1  'x, y, z'
loop_
 _atom_site_type_symbol
 _atom_site_label
 _atom_site_symmetry_multiplicity
 _atom_site_fract_x
 _atom_site_fract_y
 _atom_site_fract_z
 _atom_site_occupancy
  Cs  Cs0  1  0.464312  0.369905  0.328589  1
  Cs  Cs1  1  0.535689  0.630095  0.671411  1
  Tm  Tm2  1  0.921446  0.763167  0.003267  1
  Tm  Tm3  1  0.078554  0.236833  0.996732  1
  Tm  Tm4  1  0.760534  0.080138  0.001360  1
  Tm  Tm5  1  0.239465  0.919862  0.998641  1
  Tm  Tm6  1  0.972866  0.896953  0.309074  1
  Tm  Tm7  1  0.027133  0.103047  0.690927  1
  C  C8  1  0.006776  0.024858  0.923328  1
  C  C9  1  0.993223  0.975142  0.076672  1
  I  I10  1  0.072809  0.198037  0.328784  1
  I  I11  1  0.927191  0.801963  0.671216  1
  I  I12  1  0.200116  0.599210  0.000097  1
  I  I13  1  0.799885  0.400790  0.999903  1
  I  I14  1  0.398287  0.196837  0.001465  1
  I  I15  1  0.601712  0.803164  0.998534  1
  I  I16  1  0.666153  0.002044  0.325513  1
  I  I17  1  0.333847  0.997956  0.674487  1
  I  I18  1  0.276515  0.781434  0.321561  1
  I  I19  1  0.723485  0.218566  0.678439  1
  I  I20  1  0.855397  0.594116  0.325622  1
  I  I21  1  0.144602  0.405884  0.674378  1
