# generated using pymatgen
data_Ce3Ga12(OsRh)2
_symmetry_space_group_name_H-M   'P 1'
_cell_length_a   8.94402700
_cell_length_b   8.87316875
_cell_length_c   9.69195400
_cell_angle_alpha   90.00000000
_cell_angle_beta   90.00000000
_cell_angle_gamma   119.73828094
_symmetry_Int_Tables_number   1
_chemical_formula_structural   Ce3Ga12(OsRh)2
_chemical_formula_sum   'Ce6 Ga24 Os4 Rh4'
_cell_volume   667.87184092
_cell_formula_units_Z   2
loop_
 _symmetry_equiv_pos_site_id
 _symmetry_equiv_pos_as_xyz
  1  'x, y, z'
loop_
 _atom_site_type_symbol
 _atom_site_label
 _atom_site_symmetry_multiplicity
 _atom_site_fract_x
 _atom_site_fract_y
 _atom_site_fract_z
 _atom_site_occupancy
  Ce  Ce0  1  0.185505  0.377969  0.250000  1
  Ce  Ce1  1  0.814495  0.622031  0.750000  1
  Ce  Ce2  1  0.631076  0.815538  0.250000  1
  Ce  Ce3  1  0.368924  0.184462  0.750000  1
  Ce  Ce4  1  0.185505  0.807538  0.250000  1
  Ce  Ce5  1  0.814495  0.192462  0.750000  1
  Ga  Ga6  1  0.325862  0.662931  0.032303  1
  Ga  Ga7  1  0.674138  0.337069  0.967697  1
  Ga  Ga8  1  0.674138  0.337069  0.532303  1
  Ga  Ga9  1  0.325862  0.662931  0.467697  1
  Ga  Ga10  1  0.157585  0.329803  0.572899  1
  Ga  Ga11  1  0.842415  0.670197  0.427101  1
  Ga  Ga12  1  0.676477  0.838239  0.583527  1
  Ga  Ga13  1  0.842415  0.670197  0.072899  1
  Ga  Ga14  1  0.323523  0.161761  0.416473  1
  Ga  Ga15  1  0.157585  0.329803  0.927101  1
  Ga  Ga16  1  0.157585  0.827782  0.572899  1
  Ga  Ga17  1  0.323523  0.161761  0.083527  1
  Ga  Ga18  1  0.842415  0.172218  0.427101  1
  Ga  Ga19  1  0.676477  0.838239  0.916473  1
  Ga  Ga20  1  0.842415  0.172218  0.072899  1
  Ga  Ga21  1  0.157585  0.827782  0.927101  1
  Ga  Ga22  1  0.562656  0.133387  0.250000  1
  Ga  Ga23  1  0.437344  0.866613  0.750000  1
  Ga  Ga24  1  0.867216  0.433609  0.250000  1
  Ga  Ga25  1  0.132784  0.566391  0.750000  1
  Ga  Ga26  1  0.562656  0.429270  0.250000  1
  Ga  Ga27  1  0.437344  0.570730  0.750000  1
  Ga  Ga28  1  0.010245  0.005123  0.250000  1
  Ga  Ga29  1  0.989755  0.994877  0.750000  1
  Os  Os30  1  0.000000  0.500000  0.000000  1
  Os  Os31  1  0.000000  0.500000  0.500000  1
  Os  Os32  1  0.000000  0.000000  0.000000  1
  Os  Os33  1  0.000000  0.000000  0.500000  1
  Rh  Rh34  1  0.500000  0.000000  0.000000  1
  Rh  Rh35  1  0.500000  0.000000  0.500000  1
  Rh  Rh36  1  0.500000  0.500000  0.000000  1
  Rh  Rh37  1  0.500000  0.500000  0.500000  1
