# generated using pymatgen
data_TbSm3(CrB4)4
_symmetry_space_group_name_H-M   'P 1'
_cell_length_a   5.99071060
_cell_length_b   11.57967916
_cell_length_c   3.49584400
_cell_angle_alpha   90.00000000
_cell_angle_beta   90.00000000
_cell_angle_gamma   89.94870446
_symmetry_Int_Tables_number   1
_chemical_formula_structural   TbSm3(CrB4)4
_chemical_formula_sum   'Tb1 Sm3 Cr4 B16'
_cell_volume   242.50837241
_cell_formula_units_Z   1
loop_
 _symmetry_equiv_pos_site_id
 _symmetry_equiv_pos_as_xyz
  1  'x, y, z'
loop_
 _atom_site_type_symbol
 _atom_site_label
 _atom_site_symmetry_multiplicity
 _atom_site_fract_x
 _atom_site_fract_y
 _atom_site_fract_z
 _atom_site_occupancy
  Tb  Tb0  1  0.876216  0.849206  0.000000  1
  Sm  Sm1  1  0.623774  0.349054  0.000000  1
  Sm  Sm2  1  0.376162  0.651382  0.000000  1
  Sm  Sm3  1  0.123604  0.150569  0.000000  1
  Cr  Cr4  1  0.622981  0.079249  0.000000  1
  Cr  Cr5  1  0.377757  0.919349  0.000000  1
  Cr  Cr6  1  0.122501  0.420471  0.000000  1
  Cr  Cr7  1  0.876964  0.581014  0.000000  1
  B  B8  1  0.778042  0.182413  0.500000  1
  B  B9  1  0.220060  0.816935  0.500000  1
  B  B10  1  0.278029  0.317044  0.500000  1
  B  B11  1  0.722066  0.684367  0.500000  1
  B  B12  1  0.861037  0.031376  0.500000  1
  B  B13  1  0.138763  0.966494  0.500000  1
  B  B14  1  0.360290  0.467740  0.500000  1
  B  B15  1  0.639772  0.533298  0.500000  1
  B  B16  1  0.887706  0.454410  0.500000  1
  B  B17  1  0.111617  0.546702  0.500000  1
  B  B18  1  0.388227  0.045218  0.500000  1
  B  B19  1  0.613725  0.952965  0.500000  1
  B  B20  1  0.975187  0.310312  0.500000  1
  B  B21  1  0.024080  0.691236  0.500000  1
  B  B22  1  0.475251  0.189312  0.500000  1
  B  B23  1  0.526190  0.809886  0.500000  1
