# generated using pymatgen
data_Ca3Ho3Al17Si7Os8
_symmetry_space_group_name_H-M   'P 1'
_cell_length_a   8.68248100
_cell_length_b   8.66574427
_cell_length_c   9.58634000
_cell_angle_alpha   90.00000000
_cell_angle_beta   90.00000000
_cell_angle_gamma   120.15814344
_symmetry_Int_Tables_number   1
_chemical_formula_structural   Ca3Ho3Al17Si7Os8
_chemical_formula_sum   'Ca3 Ho3 Al17 Si7 Os8'
_cell_volume   623.64707284
_cell_formula_units_Z   1
loop_
 _symmetry_equiv_pos_site_id
 _symmetry_equiv_pos_as_xyz
  1  'x, y, z'
loop_
 _atom_site_type_symbol
 _atom_site_label
 _atom_site_symmetry_multiplicity
 _atom_site_fract_x
 _atom_site_fract_y
 _atom_site_fract_z
 _atom_site_occupancy
  Ca  Ca0  1  0.806361  0.612786  0.750000  1
  Ca  Ca1  1  0.389819  0.191845  0.750000  1
  Ca  Ca2  1  0.801333  0.192395  0.750000  1
  Ho  Ho3  1  0.193578  0.389583  0.250000  1
  Ho  Ho4  1  0.609325  0.806413  0.250000  1
  Ho  Ho5  1  0.196696  0.804486  0.250000  1
  Al  Al6  1  0.165915  0.332959  0.577875  1
  Al  Al7  1  0.833344  0.669186  0.421522  1
  Al  Al8  1  0.668445  0.834001  0.577098  1
  Al  Al9  1  0.833344  0.669186  0.078478  1
  Al  Al10  1  0.331896  0.166694  0.423074  1
  Al  Al11  1  0.165915  0.332959  0.922125  1
  Al  Al12  1  0.165337  0.833202  0.575902  1
  Al  Al13  1  0.331896  0.166694  0.076926  1
  Al  Al14  1  0.834270  0.164919  0.422957  1
  Al  Al15  1  0.668445  0.834001  0.922902  1
  Al  Al16  1  0.834270  0.164919  0.077043  1
  Al  Al17  1  0.165337  0.833202  0.924098  1
  Al  Al18  1  0.125575  0.565686  0.750000  1
  Al  Al19  1  0.564805  0.434369  0.250000  1
  Al  Al20  1  0.438951  0.565964  0.750000  1
  Al  Al21  1  0.999733  0.998915  0.250000  1
  Al  Al22  1  0.000080  0.001299  0.750000  1
  Si  Si23  1  0.333414  0.664733  0.041114  1
  Si  Si24  1  0.666542  0.336066  0.962478  1
  Si  Si25  1  0.666542  0.336066  0.537522  1
  Si  Si26  1  0.333414  0.664733  0.458886  1
  Si  Si27  1  0.565442  0.125337  0.250000  1
  Si  Si28  1  0.434696  0.870666  0.750000  1
  Si  Si29  1  0.873565  0.433648  0.250000  1
  Os  Os30  1  0.499913  0.998906  0.005770  1
  Os  Os31  1  0.000298  0.500388  0.011102  1
  Os  Os32  1  0.499913  0.998906  0.494230  1
  Os  Os33  1  0.499790  0.501453  0.004528  1
  Os  Os34  1  0.000298  0.500388  0.488898  1
  Os  Os35  1  0.499790  0.501453  0.495472  1
  Os  Os36  1  0.000855  0.000794  0.999154  1
  Os  Os37  1  0.000855  0.000794  0.500846  1
