# generated using pymatgen
data_MnBe8V2Fe
_symmetry_space_group_name_H-M   'P 1'
_cell_length_a   4.20519100
_cell_length_b   4.20519141
_cell_length_c   6.90425900
_cell_angle_alpha   90.00000000
_cell_angle_beta   90.00000000
_cell_angle_gamma   119.99998888
_symmetry_Int_Tables_number   1
_chemical_formula_structural   MnBe8V2Fe
_chemical_formula_sum   'Mn1 Be8 V2 Fe1'
_cell_volume   105.73511703
_cell_formula_units_Z   1
loop_
 _symmetry_equiv_pos_site_id
 _symmetry_equiv_pos_as_xyz
  1  'x, y, z'
loop_
 _atom_site_type_symbol
 _atom_site_label
 _atom_site_symmetry_multiplicity
 _atom_site_fract_x
 _atom_site_fract_y
 _atom_site_fract_z
 _atom_site_occupancy
  Mn  Mn0  1  0.666667  0.333333  0.936581  1
  Be  Be1  1  0.000000  0.000000  0.001834  1
  Be  Be2  1  0.000000  0.000000  0.499703  1
  Be  Be3  1  0.830185  0.660371  0.250794  1
  Be  Be4  1  0.169228  0.830772  0.750150  1
  Be  Be5  1  0.661544  0.830772  0.750150  1
  Be  Be6  1  0.339629  0.169815  0.250794  1
  Be  Be7  1  0.830185  0.169815  0.250794  1
  Be  Be8  1  0.169228  0.338456  0.750150  1
  V  V9  1  0.333333  0.666667  0.060939  1
  V  V10  1  0.666667  0.333333  0.562283  1
  Fe  Fe11  1  0.333333  0.666667  0.435830  1
