# generated using pymatgen
data_Ti8Al14GeRu(PtRh)3
_symmetry_space_group_name_H-M   'P 1'
_cell_length_a   8.67847200
_cell_length_b   8.66266707
_cell_length_c   8.67847200
_cell_angle_alpha   120.01289619
_cell_angle_beta   119.98218572
_cell_angle_gamma   90.05655419
_symmetry_Int_Tables_number   1
_chemical_formula_structural   Ti8Al14GeRu(PtRh)3
_chemical_formula_sum   'Ti8 Al14 Ge1 Ru1 Pt3 Rh3'
_cell_volume   461.14829399
_cell_formula_units_Z   1
loop_
 _symmetry_equiv_pos_site_id
 _symmetry_equiv_pos_as_xyz
  1  'x, y, z'
loop_
 _atom_site_type_symbol
 _atom_site_label
 _atom_site_symmetry_multiplicity
 _atom_site_fract_x
 _atom_site_fract_y
 _atom_site_fract_z
 _atom_site_occupancy
  Ti  Ti0  1  0.792158  0.293704  0.081711  1
  Ti  Ti1  1  0.213056  0.295366  0.501665  1
  Ti  Ti2  1  0.207606  0.706149  0.501111  1
  Ti  Ti3  1  0.209920  0.710976  0.915169  1
  Ti  Ti4  1  0.794667  0.709452  0.500757  1
  Ti  Ti5  1  0.788050  0.290688  0.500323  1
  Ti  Ti6  1  0.380573  0.121729  0.741477  1
  Ti  Ti7  1  0.379301  0.636635  0.263855  1
  Al  Al8  1  0.157020  0.339979  0.182627  1
  Al  Al9  1  0.158290  0.979829  0.821734  1
  Al  Al10  1  0.154731  0.343243  0.816990  1
  Al  Al11  1  0.524842  0.341493  0.186747  1
  Al  Al12  1  0.840899  0.657160  0.815495  1
  Al  Al13  1  0.844977  0.027402  0.183020  1
  Al  Al14  1  0.842955  0.656217  0.179426  1
  Al  Al15  1  0.478359  0.656697  0.814201  1
  Al  Al16  1  0.378356  0.125249  0.265678  1
  Al  Al17  1  0.858614  0.122619  0.745235  1
  Al  Al18  1  0.618910  0.879412  0.260036  1
  Al  Al19  1  0.620976  0.361606  0.736609  1
  Al  Al20  1  0.622704  0.875130  0.737726  1
  Al  Al21  1  0.138372  0.876685  0.252931  1
  Ge  Ge22  1  0.997893  0.496333  0.498678  1
  Ru  Ru23  1  0.498393  0.500358  0.497565  1
  Pt  Pt24  1  0.998796  0.998900  0.498598  1
  Pt  Pt25  1  0.500584  0.998702  0.999900  1
  Pt  Pt26  1  0.499585  0.500788  0.001217  1
  Rh  Rh27  1  0.001133  0.499597  0.000528  1
  Rh  Rh28  1  0.000271  0.999840  0.998912  1
  Rh  Rh29  1  0.498004  0.998061  0.500079  1
