# generated using pymatgen
data_PrHo3(WO6)2
_symmetry_space_group_name_H-M   'P 1'
_cell_length_a   5.44775600
_cell_length_b   7.77349196
_cell_length_c   11.55044833
_cell_angle_alpha   75.45850683
_cell_angle_beta   90.00000000
_cell_angle_gamma   90.00000000
_symmetry_Int_Tables_number   1
_chemical_formula_structural   PrHo3(WO6)2
_chemical_formula_sum   'Pr2 Ho6 W4 O24'
_cell_volume   473.47033566
_cell_formula_units_Z   2
loop_
 _symmetry_equiv_pos_site_id
 _symmetry_equiv_pos_as_xyz
  1  'x, y, z'
loop_
 _atom_site_type_symbol
 _atom_site_label
 _atom_site_symmetry_multiplicity
 _atom_site_fract_x
 _atom_site_fract_y
 _atom_site_fract_z
 _atom_site_occupancy
  Pr  Pr0  1  0.685982  0.500000  0.250000  1
  Pr  Pr1  1  0.314018  0.500000  0.750000  1
  Ho  Ho2  1  0.185492  0.202478  0.423155  1
  Ho  Ho3  1  0.185492  0.797522  0.076845  1
  Ho  Ho4  1  0.814508  0.797522  0.576845  1
  Ho  Ho5  1  0.814508  0.202478  0.923155  1
  Ho  Ho6  1  0.742982  0.000000  0.250000  1
  Ho  Ho7  1  0.257018  0.000000  0.750000  1
  W  W8  1  0.254284  0.271463  0.115895  1
  W  W9  1  0.254284  0.728537  0.384105  1
  W  W10  1  0.745716  0.728537  0.884105  1
  W  W11  1  0.745716  0.271463  0.615895  1
  O  O12  1  0.455611  0.203263  0.273597  1
  O  O13  1  0.455611  0.796737  0.226403  1
  O  O14  1  0.544389  0.796737  0.726403  1
  O  O15  1  0.544389  0.203263  0.773597  1
  O  O16  1  0.043088  0.058328  0.103989  1
  O  O17  1  0.043088  0.941672  0.396011  1
  O  O18  1  0.956912  0.941672  0.896011  1
  O  O19  1  0.956912  0.058328  0.603989  1
  O  O20  1  0.986597  0.278645  0.230957  1
  O  O21  1  0.986597  0.721355  0.269043  1
  O  O22  1  0.013403  0.721355  0.769043  1
  O  O23  1  0.013403  0.278645  0.730957  1
  O  O24  1  0.854941  0.358095  0.454639  1
  O  O25  1  0.854941  0.641905  0.045361  1
  O  O26  1  0.145059  0.641905  0.545361  1
  O  O27  1  0.145059  0.358095  0.954639  1
  O  O28  1  0.653257  0.506342  0.612550  1
  O  O29  1  0.653257  0.493658  0.887450  1
  O  O30  1  0.346743  0.493658  0.387450  1
  O  O31  1  0.346743  0.506342  0.112550  1
  O  O32  1  0.464170  0.155150  0.569797  1
  O  O33  1  0.464170  0.844850  0.930203  1
  O  O34  1  0.535830  0.844850  0.430203  1
  O  O35  1  0.535830  0.155150  0.069797  1
