# generated using pymatgen
data_TbLu3C2Cl3
_symmetry_space_group_name_H-M   'P 1'
_cell_length_a   3.58716100
_cell_length_b   10.23741600
_cell_length_c   19.51550100
_cell_angle_alpha   90.00000000
_cell_angle_beta   90.00000000
_cell_angle_gamma   90.00000000
_symmetry_Int_Tables_number   1
_chemical_formula_structural   TbLu3C2Cl3
_chemical_formula_sum   'Tb4 Lu12 C8 Cl12'
_cell_volume   716.67280586
_cell_formula_units_Z   4
loop_
 _symmetry_equiv_pos_site_id
 _symmetry_equiv_pos_as_xyz
  1  'x, y, z'
loop_
 _atom_site_type_symbol
 _atom_site_label
 _atom_site_symmetry_multiplicity
 _atom_site_fract_x
 _atom_site_fract_y
 _atom_site_fract_z
 _atom_site_occupancy
  Tb  Tb0  1  0.250000  0.137915  0.573204  1
  Tb  Tb1  1  0.250000  0.637915  0.926796  1
  Tb  Tb2  1  0.750000  0.862085  0.426796  1
  Tb  Tb3  1  0.750000  0.362085  0.073204  1
  Lu  Lu4  1  0.250000  0.636156  0.757011  1
  Lu  Lu5  1  0.250000  0.136156  0.742989  1
  Lu  Lu6  1  0.750000  0.363844  0.242989  1
  Lu  Lu7  1  0.750000  0.863844  0.257011  1
  Lu  Lu8  1  0.250000  0.100651  0.329670  1
  Lu  Lu9  1  0.250000  0.600651  0.170330  1
  Lu  Lu10  1  0.750000  0.899349  0.670330  1
  Lu  Lu11  1  0.750000  0.399349  0.829670  1
  Lu  Lu12  1  0.250000  0.126713  0.167231  1
  Lu  Lu13  1  0.250000  0.626713  0.332769  1
  Lu  Lu14  1  0.750000  0.873287  0.832769  1
  Lu  Lu15  1  0.750000  0.373287  0.667231  1
  C  C16  1  0.250000  0.864842  0.344958  1
  C  C17  1  0.250000  0.364842  0.155042  1
  C  C18  1  0.750000  0.135158  0.655042  1
  C  C19  1  0.750000  0.635158  0.844958  1
  C  C20  1  0.250000  0.386718  0.750235  1
  C  C21  1  0.250000  0.886718  0.749765  1
  C  C22  1  0.750000  0.613282  0.249765  1
  C  C23  1  0.750000  0.113282  0.250235  1
  Cl  Cl24  1  0.250000  0.370567  0.949290  1
  Cl  Cl25  1  0.250000  0.870567  0.550710  1
  Cl  Cl26  1  0.750000  0.629433  0.050710  1
  Cl  Cl27  1  0.750000  0.129433  0.449290  1
  Cl  Cl28  1  0.250000  0.894986  0.940266  1
  Cl  Cl29  1  0.250000  0.394986  0.559734  1
  Cl  Cl30  1  0.750000  0.105014  0.059734  1
  Cl  Cl31  1  0.750000  0.605014  0.440266  1
  Cl  Cl32  1  0.250000  0.361750  0.351418  1
  Cl  Cl33  1  0.250000  0.861750  0.148582  1
  Cl  Cl34  1  0.750000  0.638250  0.648582  1
  Cl  Cl35  1  0.750000  0.138250  0.851418  1
