# generated using pymatgen
data_TaGaI20
_symmetry_space_group_name_H-M   'P 1'
_cell_length_a   7.64461518
_cell_length_b   15.30951218
_cell_length_c   14.48860446
_cell_angle_alpha   110.87094975
_cell_angle_beta   101.77812840
_cell_angle_gamma   75.00272064
_symmetry_Int_Tables_number   1
_chemical_formula_structural   TaGaI20
_chemical_formula_sum   'Ta1 Ga1 I20'
_cell_volume   1518.63426837
_cell_formula_units_Z   1
loop_
 _symmetry_equiv_pos_site_id
 _symmetry_equiv_pos_as_xyz
  1  'x, y, z'
loop_
 _atom_site_type_symbol
 _atom_site_label
 _atom_site_symmetry_multiplicity
 _atom_site_fract_x
 _atom_site_fract_y
 _atom_site_fract_z
 _atom_site_occupancy
  Ta  Ta0  1  0.606698  0.652428  0.494207  1
  Ga  Ga1  1  0.383254  0.253395  0.497907  1
  I  I2  1  0.527153  0.835345  0.820217  1
  I  I3  1  0.921323  0.590507  0.415879  1
  I  I4  1  0.222159  0.411310  0.605937  1
  I  I5  1  0.457524  0.124642  0.596835  1
  I  I6  1  0.656383  0.550502  0.613691  1
  I  I7  1  0.517977  0.800328  0.385067  1
  I  I8  1  0.448912  0.189035  0.190773  1
  I  I9  1  0.434808  0.535284  0.337103  1
  I  I10  1  0.782421  0.794082  0.649320  1
  I  I11  1  0.089694  0.807527  0.165322  1
  I  I12  1  0.176317  0.180691  0.334165  1
  I  I13  1  0.739428  0.194335  0.104478  1
  I  I14  1  0.796291  0.799862  0.280304  1
  I  I15  1  0.163104  0.174855  0.719362  1
  I  I16  1  0.832757  0.824954  0.994935  1
  I  I17  1  0.882790  0.217048  0.849418  1
  I  I18  1  0.281625  0.771787  0.548691  1
  I  I19  1  0.147205  0.202651  0.022695  1
  I  I20  1  0.231629  0.848271  0.915148  1
  I  I21  1  0.700548  0.241162  0.458546  1
