# generated using pymatgen
data_ErMg7(B6Ru)4
_symmetry_space_group_name_H-M   'P 1'
_cell_length_a   8.87802251
_cell_length_b   11.07299881
_cell_length_c   3.49609500
_cell_angle_alpha   90.00000000
_cell_angle_beta   90.00000000
_cell_angle_gamma   89.83244433
_symmetry_Int_Tables_number   1
_chemical_formula_structural   ErMg7(B6Ru)4
_chemical_formula_sum   'Er1 Mg7 B24 Ru4'
_cell_volume   343.68680865
_cell_formula_units_Z   1
loop_
 _symmetry_equiv_pos_site_id
 _symmetry_equiv_pos_as_xyz
  1  'x, y, z'
loop_
 _atom_site_type_symbol
 _atom_site_label
 _atom_site_symmetry_multiplicity
 _atom_site_fract_x
 _atom_site_fract_y
 _atom_site_fract_z
 _atom_site_occupancy
  Er  Er0  1  0.676061  0.085416  0.000000  1
  Mg  Mg1  1  0.054510  0.129758  0.000000  1
  Mg  Mg2  1  0.553575  0.372626  0.000000  1
  Mg  Mg3  1  0.169451  0.414125  0.000000  1
  Mg  Mg4  1  0.831436  0.587074  0.000000  1
  Mg  Mg5  1  0.444187  0.628148  0.000000  1
  Mg  Mg6  1  0.944861  0.869714  0.000000  1
  Mg  Mg7  1  0.330091  0.913064  0.000000  1
  B  B8  1  0.906426  0.025600  0.500000  1
  B  B9  1  0.443378  0.064513  0.500000  1
  B  B10  1  0.242871  0.079200  0.500000  1
  B  B11  1  0.869734  0.183231  0.500000  1
  B  B12  1  0.517201  0.213140  0.500000  1
  B  B13  1  0.201748  0.238807  0.500000  1
  B  B14  1  0.702668  0.263882  0.500000  1
  B  B15  1  0.018975  0.289228  0.500000  1
  B  B16  1  0.366005  0.320655  0.500000  1
  B  B17  1  0.743991  0.422934  0.500000  1
  B  B18  1  0.945383  0.436578  0.500000  1
  B  B19  1  0.407071  0.475331  0.500000  1
  B  B20  1  0.591761  0.525187  0.500000  1
  B  B21  1  0.056010  0.564480  0.500000  1
  B  B22  1  0.256119  0.579256  0.500000  1
  B  B23  1  0.632893  0.678818  0.500000  1
  B  B24  1  0.981111  0.710557  0.500000  1
  B  B25  1  0.298114  0.738433  0.500000  1
  B  B26  1  0.798566  0.760386  0.500000  1
  B  B27  1  0.479572  0.787551  0.500000  1
  B  B28  1  0.131875  0.819795  0.500000  1
  B  B29  1  0.755975  0.916686  0.500000  1
  B  B30  1  0.556281  0.932762  0.500000  1
  B  B31  1  0.093781  0.973990  0.500000  1
  Ru  Ru32  1  0.356607  0.181458  0.000000  1
  Ru  Ru33  1  0.856505  0.323166  0.000000  1
  Ru  Ru34  1  0.142909  0.679963  0.000000  1
  Ru  Ru35  1  0.642300  0.814481  0.000000  1
