# generated using pymatgen
data_DyEr15MgCo4Ag3
_symmetry_space_group_name_H-M   'P 1'
_cell_length_a   9.37985678
_cell_length_b   9.38853326
_cell_length_c   9.38853301
_cell_angle_alpha   59.99438733
_cell_angle_beta   59.96861516
_cell_angle_gamma   59.96860877
_symmetry_Int_Tables_number   1
_chemical_formula_structural   DyEr15MgCo4Ag3
_chemical_formula_sum   'Dy1 Er15 Mg1 Co4 Ag3'
_cell_volume   584.32179191
_cell_formula_units_Z   1
loop_
 _symmetry_equiv_pos_site_id
 _symmetry_equiv_pos_as_xyz
  1  'x, y, z'
loop_
 _atom_site_type_symbol
 _atom_site_label
 _atom_site_symmetry_multiplicity
 _atom_site_fract_x
 _atom_site_fract_y
 _atom_site_fract_z
 _atom_site_occupancy
  Dy  Dy0  1  0.596977  0.596009  0.596009  1
  Er  Er1  1  0.596813  0.595744  0.211523  1
  Er  Er2  1  0.596813  0.211523  0.595744  1
  Er  Er3  1  0.204549  0.598433  0.598433  1
  Er  Er4  1  0.060478  0.438953  0.438953  1
  Er  Er5  1  0.436368  0.063401  0.063401  1
  Er  Er6  1  0.436036  0.063848  0.436745  1
  Er  Er7  1  0.060134  0.439181  0.061643  1
  Er  Er8  1  0.436036  0.436745  0.063848  1
  Er  Er9  1  0.060134  0.061643  0.439181  1
  Er  Er10  1  0.183820  0.813177  0.813177  1
  Er  Er11  1  0.812324  0.187205  0.187205  1
  Er  Er12  1  0.812473  0.186840  0.813591  1
  Er  Er13  1  0.184185  0.813062  0.189929  1
  Er  Er14  1  0.812473  0.813591  0.186840  1
  Er  Er15  1  0.184185  0.189929  0.813062  1
  Mg  Mg16  1  0.534203  0.822084  0.822084  1
  Co  Co17  1  0.389570  0.391988  0.391988  1
  Co  Co18  1  0.388997  0.391326  0.826967  1
  Co  Co19  1  0.388997  0.826967  0.391326  1
  Co  Co20  1  0.826776  0.390698  0.390698  1
  Ag  Ag21  1  0.832479  0.832261  0.832261  1
  Ag  Ag22  1  0.832594  0.832448  0.502947  1
  Ag  Ag23  1  0.832594  0.502947  0.832448  1
