# generated using pymatgen
data_Tm9Lu11Bi11Au
_symmetry_space_group_name_H-M   'P 1'
_cell_length_a   8.09388531
_cell_length_b   9.36642300
_cell_length_c   11.85270022
_cell_angle_alpha   90.00000000
_cell_angle_beta   89.55941134
_cell_angle_gamma   90.00000000
_symmetry_Int_Tables_number   1
_chemical_formula_structural   Tm9Lu11Bi11Au
_chemical_formula_sum   'Tm9 Lu11 Bi11 Au1'
_cell_volume   898.53556747
_cell_formula_units_Z   1
loop_
 _symmetry_equiv_pos_site_id
 _symmetry_equiv_pos_as_xyz
  1  'x, y, z'
loop_
 _atom_site_type_symbol
 _atom_site_label
 _atom_site_symmetry_multiplicity
 _atom_site_fract_x
 _atom_site_fract_y
 _atom_site_fract_z
 _atom_site_occupancy
  Tm  Tm0  1  0.524882  0.250000  0.989834  1
  Tm  Tm1  1  0.355879  0.250000  0.295842  1
  Tm  Tm2  1  0.652350  0.750000  0.717142  1
  Tm  Tm3  1  0.149352  0.750000  0.781170  1
  Tm  Tm4  1  0.849755  0.250000  0.215257  1
  Tm  Tm5  1  0.198014  0.250000  0.778213  1
  Tm  Tm6  1  0.808920  0.750000  0.215944  1
  Tm  Tm7  1  0.312568  0.750000  0.282656  1
  Tm  Tm8  1  0.670052  0.250000  0.708361  1
  Lu  Lu9  1  0.039551  0.250000  0.507209  1
  Lu  Lu10  1  0.982542  0.750000  0.491416  1
  Lu  Lu11  1  0.476972  0.750000  0.010957  1
  Lu  Lu12  1  0.191678  0.067284  0.061998  1
  Lu  Lu13  1  0.807278  0.932699  0.940969  1
  Lu  Lu14  1  0.310444  0.953614  0.559000  1
  Lu  Lu15  1  0.807278  0.567301  0.940969  1
  Lu  Lu16  1  0.683999  0.072727  0.446481  1
  Lu  Lu17  1  0.191678  0.432716  0.061998  1
  Lu  Lu18  1  0.683999  0.427273  0.446481  1
  Lu  Lu19  1  0.310444  0.546386  0.559000  1
  Bi  Bi20  1  0.596670  0.750000  0.457116  1
  Bi  Bi21  1  0.098105  0.750000  0.042368  1
  Bi  Bi22  1  0.905575  0.250000  0.952542  1
  Bi  Bi23  1  0.058091  0.001506  0.323280  1
  Bi  Bi24  1  0.936217  0.999306  0.675257  1
  Bi  Bi25  1  0.436564  0.994653  0.826690  1
  Bi  Bi26  1  0.936217  0.500694  0.675257  1
  Bi  Bi27  1  0.562493  0.004006  0.175159  1
  Bi  Bi28  1  0.058091  0.498494  0.323280  1
  Bi  Bi29  1  0.562493  0.495994  0.175159  1
  Bi  Bi30  1  0.436564  0.505347  0.826690  1
  Au  Au31  1  0.405281  0.250000  0.536303  1
