# generated using pymatgen
data_Lu5Si3P9Rh19
_symmetry_space_group_name_H-M   'P 1'
_cell_length_a   12.71326800
_cell_length_b   12.71326572
_cell_length_c   3.87801700
_cell_angle_alpha   90.00000000
_cell_angle_beta   90.00000000
_cell_angle_gamma   120.00000072
_symmetry_Int_Tables_number   1
_chemical_formula_structural   Lu5Si3P9Rh19
_chemical_formula_sum   'Lu5 Si3 P9 Rh19'
_cell_volume   542.81852874
_cell_formula_units_Z   1
loop_
 _symmetry_equiv_pos_site_id
 _symmetry_equiv_pos_as_xyz
  1  'x, y, z'
loop_
 _atom_site_type_symbol
 _atom_site_label
 _atom_site_symmetry_multiplicity
 _atom_site_fract_x
 _atom_site_fract_y
 _atom_site_fract_z
 _atom_site_occupancy
  Lu  Lu0  1  0.333333  0.666667  0.500000  1
  Lu  Lu1  1  0.666667  0.333333  0.500000  1
  Lu  Lu2  1  0.184462  0.000000  0.000000  1
  Lu  Lu3  1  0.000000  0.184462  0.000000  1
  Lu  Lu4  1  0.815538  0.815538  0.000000  1
  Si  Si5  1  0.365579  0.000000  0.500000  1
  Si  Si6  1  0.000000  0.365579  0.500000  1
  Si  Si7  1  0.634421  0.634421  0.500000  1
  P  P8  1  0.315162  0.482556  0.000000  1
  P  P9  1  0.517444  0.832605  0.000000  1
  P  P10  1  0.167395  0.684838  0.000000  1
  P  P11  1  0.832605  0.517444  0.000000  1
  P  P12  1  0.684838  0.167395  0.000000  1
  P  P13  1  0.482556  0.315162  0.000000  1
  P  P14  1  0.821510  0.000000  0.500000  1
  P  P15  1  0.000000  0.821510  0.500000  1
  P  P16  1  0.178490  0.178490  0.500000  1
  Rh  Rh17  1  0.195692  0.374043  0.500000  1
  Rh  Rh18  1  0.625957  0.821649  0.500000  1
  Rh  Rh19  1  0.178351  0.804308  0.500000  1
  Rh  Rh20  1  0.821649  0.625957  0.500000  1
  Rh  Rh21  1  0.804308  0.178351  0.500000  1
  Rh  Rh22  1  0.374043  0.195692  0.500000  1
  Rh  Rh23  1  0.550306  0.000000  0.500000  1
  Rh  Rh24  1  0.000000  0.550306  0.500000  1
  Rh  Rh25  1  0.449694  0.449694  0.500000  1
  Rh  Rh26  1  0.132470  0.490277  0.000000  1
  Rh  Rh27  1  0.509723  0.642192  0.000000  1
  Rh  Rh28  1  0.357808  0.867530  0.000000  1
  Rh  Rh29  1  0.642192  0.509723  0.000000  1
  Rh  Rh30  1  0.867530  0.357808  0.000000  1
  Rh  Rh31  1  0.490277  0.132470  0.000000  1
  Rh  Rh32  1  0.719670  0.000000  0.000000  1
  Rh  Rh33  1  0.000000  0.719670  0.000000  1
  Rh  Rh34  1  0.280330  0.280330  0.000000  1
  Rh  Rh35  1  0.000000  0.000000  0.500000  1
