# generated using pymatgen
data_Ti2GaW2C2N
_symmetry_space_group_name_H-M   'P 1'
_cell_length_a   3.03232400
_cell_length_b   3.03232333
_cell_length_c   23.46164600
_cell_angle_alpha   90.00000000
_cell_angle_beta   90.00000000
_cell_angle_gamma   119.99996365
_symmetry_Int_Tables_number   1
_chemical_formula_structural   Ti2GaW2C2N
_chemical_formula_sum   'Ti4 Ga2 W4 C4 N2'
_cell_volume   186.82731799
_cell_formula_units_Z   2
loop_
 _symmetry_equiv_pos_site_id
 _symmetry_equiv_pos_as_xyz
  1  'x, y, z'
loop_
 _atom_site_type_symbol
 _atom_site_label
 _atom_site_symmetry_multiplicity
 _atom_site_fract_x
 _atom_site_fract_y
 _atom_site_fract_z
 _atom_site_occupancy
  Ti  Ti0  1  0.333333  0.666667  0.445283  1
  Ti  Ti1  1  0.666667  0.333333  0.554717  1
  Ti  Ti2  1  0.666667  0.333333  0.945283  1
  Ti  Ti3  1  0.333333  0.666667  0.054717  1
  Ga  Ga4  1  0.333333  0.666667  0.250000  1
  Ga  Ga5  1  0.666667  0.333333  0.750000  1
  W  W6  1  0.000000  0.000000  0.343422  1
  W  W7  1  0.000000  0.000000  0.656578  1
  W  W8  1  0.000000  0.000000  0.843422  1
  W  W9  1  0.000000  0.000000  0.156578  1
  C  C10  1  0.666667  0.333333  0.393513  1
  C  C11  1  0.333333  0.666667  0.606487  1
  C  C12  1  0.333333  0.666667  0.893513  1
  C  C13  1  0.666667  0.333333  0.106487  1
  N  N14  1  0.000000  0.000000  0.500000  1
  N  N15  1  0.000000  0.000000  0.000000  1
