# generated using pymatgen
data_Tb8Hf3Si16Mo4W5
_symmetry_space_group_name_H-M   'P 1'
_cell_length_a   6.97678767
_cell_length_b   6.97392004
_cell_length_c   12.92846425
_cell_angle_alpha   89.98336080
_cell_angle_beta   90.00871397
_cell_angle_gamma   89.89354660
_symmetry_Int_Tables_number   1
_chemical_formula_structural   Tb8Hf3Si16Mo4W5
_chemical_formula_sum   'Tb8 Hf3 Si16 Mo4 W5'
_cell_volume   629.04053953
_cell_formula_units_Z   1
loop_
 _symmetry_equiv_pos_site_id
 _symmetry_equiv_pos_as_xyz
  1  'x, y, z'
loop_
 _atom_site_type_symbol
 _atom_site_label
 _atom_site_symmetry_multiplicity
 _atom_site_fract_x
 _atom_site_fract_y
 _atom_site_fract_z
 _atom_site_occupancy
  Tb  Tb0  1  0.000797  0.336388  0.216934  1
  Tb  Tb1  1  0.003507  0.662763  0.720312  1
  Tb  Tb2  1  0.162198  0.498445  0.468635  1
  Tb  Tb3  1  0.500198  0.839075  0.030940  1
  Tb  Tb4  1  0.839574  0.499643  0.969279  1
  Tb  Tb5  1  0.497612  0.161993  0.531430  1
  Tb  Tb6  1  0.336410  0.001399  0.783402  1
  Tb  Tb7  1  0.662465  0.003912  0.279577  1
  Hf  Hf8  1  0.832849  0.832730  0.499884  1
  Hf  Hf9  1  0.331076  0.667294  0.247667  1
  Hf  Hf10  1  0.667528  0.330839  0.752250  1
  Si  Si11  1  0.373375  0.295058  0.317278  1
  Si  Si12  1  0.625263  0.706902  0.817180  1
  Si  Si13  1  0.204934  0.873771  0.567911  1
  Si  Si14  1  0.124187  0.802806  0.934288  1
  Si  Si15  1  0.802074  0.124328  0.066105  1
  Si  Si16  1  0.873965  0.205434  0.432224  1
  Si  Si17  1  0.294479  0.372814  0.682811  1
  Si  Si18  1  0.707006  0.625124  0.182462  1
  Si  Si19  1  0.289322  0.043483  0.184058  1
  Si  Si20  1  0.708599  0.959502  0.688552  1
  Si  Si21  1  0.458451  0.790871  0.437489  1
  Si  Si22  1  0.210672  0.532083  0.058893  1
  Si  Si23  1  0.531545  0.210968  0.940885  1
  Si  Si24  1  0.790615  0.458085  0.562262  1
  Si  Si25  1  0.044583  0.288615  0.816090  1
  Si  Si26  1  0.959241  0.708579  0.311303  1
  Mo  Mo27  1  0.162098  0.995151  0.374716  1
  Mo  Mo28  1  0.833029  0.005747  0.876720  1
  Mo  Mo29  1  0.506173  0.660907  0.626779  1
  Mo  Mo30  1  0.341092  0.496842  0.873567  1
  W  W31  1  0.167031  0.165742  0.000895  1
  W  W32  1  0.496605  0.340479  0.126098  1
  W  W33  1  0.661649  0.506366  0.373575  1
  W  W34  1  0.994219  0.161703  0.624560  1
  W  W35  1  0.005583  0.834160  0.122989  1
