# generated using pymatgen
data_Nd2U(As2Rh3)3
_symmetry_space_group_name_H-M   'P 1'
_cell_length_a   4.04119900
_cell_length_b   8.50139974
_cell_length_c   9.82732886
_cell_angle_alpha   107.85700134
_cell_angle_beta   90.00000000
_cell_angle_gamma   103.74955052
_symmetry_Int_Tables_number   1
_chemical_formula_structural   Nd2U(As2Rh3)3
_chemical_formula_sum   'Nd2 U1 As6 Rh9'
_cell_volume   311.18066942
_cell_formula_units_Z   1
loop_
 _symmetry_equiv_pos_site_id
 _symmetry_equiv_pos_as_xyz
  1  'x, y, z'
loop_
 _atom_site_type_symbol
 _atom_site_label
 _atom_site_symmetry_multiplicity
 _atom_site_fract_x
 _atom_site_fract_y
 _atom_site_fract_z
 _atom_site_occupancy
  Nd  Nd0  1  0.841842  0.683683  0.303847  1
  Nd  Nd1  1  0.158158  0.316317  0.696153  1
  U  U2  1  0.000000  0.000000  0.000000  1
  As  As3  1  0.806207  0.612415  0.873943  1
  As  As4  1  0.193793  0.387585  0.126057  1
  As  As5  1  0.543473  0.086946  0.785093  1
  As  As6  1  0.456527  0.913054  0.214907  1
  As  As7  1  0.638630  0.277260  0.451151  1
  As  As8  1  0.361370  0.722740  0.548849  1
  Rh  Rh9  1  0.959939  0.919878  0.676373  1
  Rh  Rh10  1  0.040061  0.080122  0.323627  1
  Rh  Rh11  1  0.782546  0.565090  0.610231  1
  Rh  Rh12  1  0.217454  0.434910  0.389769  1
  Rh  Rh13  1  0.390956  0.781914  0.811529  1
  Rh  Rh14  1  0.609044  0.218086  0.188471  1
  Rh  Rh15  1  0.500000  0.000000  0.500000  1
  Rh  Rh16  1  0.682590  0.365179  0.966894  1
  Rh  Rh17  1  0.317410  0.634821  0.033106  1
