# generated using pymatgen
data_Tb5Dy11(Tl3Co)2
_symmetry_space_group_name_H-M   'P 1'
_cell_length_a   10.36431135
_cell_length_b   10.36353881
_cell_length_c   7.10532706
_cell_angle_alpha   90.00525393
_cell_angle_beta   89.99970477
_cell_angle_gamma   120.00480062
_symmetry_Int_Tables_number   1
_chemical_formula_structural   Tb5Dy11(Tl3Co)2
_chemical_formula_sum   'Tb5 Dy11 Tl6 Co2'
_cell_volume   660.90984462
_cell_formula_units_Z   1
loop_
 _symmetry_equiv_pos_site_id
 _symmetry_equiv_pos_as_xyz
  1  'x, y, z'
loop_
 _atom_site_type_symbol
 _atom_site_label
 _atom_site_symmetry_multiplicity
 _atom_site_fract_x
 _atom_site_fract_y
 _atom_site_fract_z
 _atom_site_occupancy
  Tb  Tb0  1  0.536756  0.073650  0.512286  1
  Tb  Tb1  1  0.925981  0.463477  0.512947  1
  Tb  Tb2  1  0.537318  0.463507  0.513178  1
  Tb  Tb3  1  0.462789  0.925422  0.013621  1
  Tb  Tb4  1  0.074892  0.537187  0.013245  1
  Dy  Dy5  1  0.462271  0.537388  0.013584  1
  Dy  Dy6  1  0.177278  0.354321  0.716996  1
  Dy  Dy7  1  0.645510  0.822916  0.718280  1
  Dy  Dy8  1  0.177506  0.823038  0.718120  1
  Dy  Dy9  1  0.822301  0.645022  0.216267  1
  Dy  Dy10  1  0.354737  0.177909  0.216710  1
  Dy  Dy11  1  0.823019  0.177644  0.217007  1
  Dy  Dy12  1  0.666476  0.333233  0.905733  1
  Dy  Dy13  1  0.333554  0.666741  0.406621  1
  Dy  Dy14  1  0.999506  0.998786  0.498441  1
  Dy  Dy15  1  0.999502  0.999255  0.999009  1
  Tl  Tl16  1  0.836691  0.673315  0.763692  1
  Tl  Tl17  1  0.326739  0.163441  0.763424  1
  Tl  Tl18  1  0.836718  0.163505  0.763164  1
  Tl  Tl19  1  0.163410  0.326659  0.263899  1
  Tl  Tl20  1  0.673524  0.836771  0.263504  1
  Tl  Tl21  1  0.163220  0.836951  0.263564  1
  Co  Co22  1  0.666662  0.333430  0.285121  1
  Co  Co23  1  0.333638  0.666430  0.785788  1
