# generated using pymatgen
data_TbPrBeSi4Ni
_symmetry_space_group_name_H-M   'P 1'
_cell_length_a   8.49368800
_cell_length_b   8.49368758
_cell_length_c   3.98898000
_cell_angle_alpha   90.00000000
_cell_angle_beta   90.00000000
_cell_angle_gamma   152.09715788
_symmetry_Int_Tables_number   1
_chemical_formula_structural   TbPrBeSi4Ni
_chemical_formula_sum   'Tb1 Pr1 Be1 Si4 Ni1'
_cell_volume   134.67154660
_cell_formula_units_Z   1
loop_
 _symmetry_equiv_pos_site_id
 _symmetry_equiv_pos_as_xyz
  1  'x, y, z'
loop_
 _atom_site_type_symbol
 _atom_site_label
 _atom_site_symmetry_multiplicity
 _atom_site_fract_x
 _atom_site_fract_y
 _atom_site_fract_z
 _atom_site_occupancy
  Tb  Tb0  1  0.897464  0.102536  0.750000  1
  Pr  Pr1  1  0.107826  0.892174  0.250000  1
  Be  Be2  1  0.675137  0.324863  0.750000  1
  Si  Si3  1  0.753294  0.246706  0.250000  1
  Si  Si4  1  0.251606  0.748394  0.750000  1
  Si  Si5  1  0.536089  0.463911  0.750000  1
  Si  Si6  1  0.457792  0.542208  0.250000  1
  Ni  Ni7  1  0.320791  0.679209  0.250000  1
