# generated using pymatgen
data_Er8Co(Si4Pt)3
_symmetry_space_group_name_H-M   'P 1'
_cell_length_a   8.11132000
_cell_length_b   8.11131985
_cell_length_c   7.84288300
_cell_angle_alpha   90.00000000
_cell_angle_beta   90.00000000
_cell_angle_gamma   120.00000063
_symmetry_Int_Tables_number   1
_chemical_formula_structural   Er8Co(Si4Pt)3
_chemical_formula_sum   'Er8 Co1 Si12 Pt3'
_cell_volume   446.87846558
_cell_formula_units_Z   1
loop_
 _symmetry_equiv_pos_site_id
 _symmetry_equiv_pos_as_xyz
  1  'x, y, z'
loop_
 _atom_site_type_symbol
 _atom_site_label
 _atom_site_symmetry_multiplicity
 _atom_site_fract_x
 _atom_site_fract_y
 _atom_site_fract_z
 _atom_site_occupancy
  Er  Er0  1  0.508128  0.016257  0.245782  1
  Er  Er1  1  0.487783  0.975564  0.752414  1
  Er  Er2  1  0.983743  0.491872  0.245782  1
  Er  Er3  1  0.024436  0.512217  0.752414  1
  Er  Er4  1  0.508128  0.491872  0.245782  1
  Er  Er5  1  0.487783  0.512217  0.752414  1
  Er  Er6  1  0.000000  0.000000  0.248563  1
  Er  Er7  1  0.000000  0.000000  0.751938  1
  Co  Co8  1  0.333333  0.666667  0.043231  1
  Si  Si9  1  0.173365  0.346730  0.003672  1
  Si  Si10  1  0.836737  0.673474  0.997027  1
  Si  Si11  1  0.653270  0.826635  0.003672  1
  Si  Si12  1  0.834739  0.669478  0.500621  1
  Si  Si13  1  0.326526  0.163263  0.997027  1
  Si  Si14  1  0.165159  0.330319  0.499861  1
  Si  Si15  1  0.173365  0.826635  0.003672  1
  Si  Si16  1  0.330522  0.165261  0.500621  1
  Si  Si17  1  0.836737  0.163263  0.997027  1
  Si  Si18  1  0.669681  0.834841  0.499861  1
  Si  Si19  1  0.834739  0.165261  0.500621  1
  Si  Si20  1  0.165159  0.834841  0.499861  1
  Pt  Pt21  1  0.666667  0.333333  0.965997  1
  Pt  Pt22  1  0.666667  0.333333  0.534213  1
  Pt  Pt23  1  0.333333  0.666667  0.457921  1
