# generated using pymatgen
data_Na2Li4(TcH9)3
_symmetry_space_group_name_H-M   'P 1'
_cell_length_a   8.25286584
_cell_length_b   8.25286542
_cell_length_c   4.97454300
_cell_angle_alpha   90.00000000
_cell_angle_beta   90.00000000
_cell_angle_gamma   120.43636396
_symmetry_Int_Tables_number   1
_chemical_formula_structural   Na2Li4(TcH9)3
_chemical_formula_sum   'Na2 Li4 Tc3 H27'
_cell_volume   292.12376725
_cell_formula_units_Z   1
loop_
 _symmetry_equiv_pos_site_id
 _symmetry_equiv_pos_as_xyz
  1  'x, y, z'
loop_
 _atom_site_type_symbol
 _atom_site_label
 _atom_site_symmetry_multiplicity
 _atom_site_fract_x
 _atom_site_fract_y
 _atom_site_fract_z
 _atom_site_occupancy
  Na  Na0  1  0.613815  0.998715  0.000000  1
  Na  Na1  1  0.998715  0.613815  0.000000  1
  Li  Li2  1  0.278853  0.000210  0.500000  1
  Li  Li3  1  0.000210  0.278853  0.500000  1
  Li  Li4  1  0.712113  0.712113  0.500000  1
  Li  Li5  1  0.379731  0.379731  0.000000  1
  Tc  Tc6  1  0.011559  0.011559  0.000000  1
  Tc  Tc7  1  0.332844  0.660423  0.500000  1
  Tc  Tc8  1  0.660423  0.332844  0.500000  1
  H  H9  1  0.869854  0.009198  0.247255  1
  H  H10  1  0.009198  0.869854  0.247255  1
  H  H11  1  0.869854  0.009198  0.752745  1
  H  H12  1  0.009198  0.869854  0.752745  1
  H  H13  1  0.161742  0.161742  0.233551  1
  H  H14  1  0.161742  0.161742  0.766449  1
  H  H15  1  0.208654  0.003863  0.000000  1
  H  H16  1  0.003863  0.208654  0.000000  1
  H  H17  1  0.807583  0.807583  0.000000  1
  H  H18  1  0.181014  0.521996  0.261697  1
  H  H19  1  0.464497  0.641084  0.254722  1
  H  H20  1  0.181014  0.521996  0.738303  1
  H  H21  1  0.521996  0.181014  0.738303  1
  H  H22  1  0.345297  0.812539  0.261957  1
  H  H23  1  0.464497  0.641084  0.745278  1
  H  H24  1  0.641084  0.464497  0.745278  1
  H  H25  1  0.521996  0.181014  0.261697  1
  H  H26  1  0.345297  0.812539  0.738043  1
  H  H27  1  0.641084  0.464497  0.254722  1
  H  H28  1  0.812539  0.345297  0.738043  1
  H  H29  1  0.812539  0.345297  0.261957  1
  H  H30  1  0.308833  0.449202  0.500000  1
  H  H31  1  0.548344  0.848323  0.500000  1
  H  H32  1  0.449202  0.308833  0.500000  1
  H  H33  1  0.143032  0.679462  0.500000  1
  H  H34  1  0.848323  0.548344  0.500000  1
  H  H35  1  0.679462  0.143032  0.500000  1
