# generated using pymatgen
data_K2WF7
_symmetry_space_group_name_H-M   'P 1'
_cell_length_a   5.95918500
_cell_length_b   5.99701100
_cell_length_c   9.91739900
_cell_angle_alpha   90.00000000
_cell_angle_beta   90.00000000
_cell_angle_gamma   90.00000000
_symmetry_Int_Tables_number   1
_chemical_formula_structural   K2WF7
_chemical_formula_sum   'K4 W2 F14'
_cell_volume   354.42104341
_cell_formula_units_Z   2
loop_
 _symmetry_equiv_pos_site_id
 _symmetry_equiv_pos_as_xyz
  1  'x, y, z'
loop_
 _atom_site_type_symbol
 _atom_site_label
 _atom_site_symmetry_multiplicity
 _atom_site_fract_x
 _atom_site_fract_y
 _atom_site_fract_z
 _atom_site_occupancy
  K  K0  1  0.000000  0.500000  0.346730  1
  K  K1  1  0.500000  0.000000  0.653270  1
  K  K2  1  0.500000  0.500000  0.998317  1
  K  K3  1  0.000000  0.000000  0.001683  1
  W  W4  1  0.000000  0.500000  0.755887  1
  W  W5  1  0.500000  0.000000  0.244113  1
  F  F6  1  0.220687  0.258584  0.801078  1
  F  F7  1  0.279313  0.241416  0.198922  1
  F  F8  1  0.720687  0.758584  0.198922  1
  F  F9  1  0.779313  0.741416  0.801078  1
  F  F10  1  0.220687  0.741416  0.801078  1
  F  F11  1  0.720687  0.241416  0.198922  1
  F  F12  1  0.279313  0.758584  0.198922  1
  F  F13  1  0.779313  0.258584  0.801078  1
  F  F14  1  0.000000  0.500000  0.957976  1
  F  F15  1  0.500000  0.000000  0.042024  1
  F  F16  1  0.196594  0.500000  0.594832  1
  F  F17  1  0.803406  0.500000  0.594832  1
  F  F18  1  0.303406  0.000000  0.405168  1
  F  F19  1  0.696594  0.000000  0.405168  1
