# generated using pymatgen
data_Zr2Ti4Ga2P
_symmetry_space_group_name_H-M   'P 1'
_cell_length_a   7.07264388
_cell_length_b   7.09508301
_cell_length_c   3.60907100
_cell_angle_alpha   90.00000000
_cell_angle_beta   90.00000000
_cell_angle_gamma   120.10499171
_symmetry_Int_Tables_number   1
_chemical_formula_structural   Zr2Ti4Ga2P
_chemical_formula_sum   'Zr2 Ti4 Ga2 P1'
_cell_volume   156.67687036
_cell_formula_units_Z   1
loop_
 _symmetry_equiv_pos_site_id
 _symmetry_equiv_pos_as_xyz
  1  'x, y, z'
loop_
 _atom_site_type_symbol
 _atom_site_label
 _atom_site_symmetry_multiplicity
 _atom_site_fract_x
 _atom_site_fract_y
 _atom_site_fract_z
 _atom_site_occupancy
  Zr  Zr0  1  0.605331  0.999879  0.000000  1
  Zr  Zr1  1  0.394669  0.394548  0.000000  1
  Ti  Ti2  1  0.000000  0.244400  0.500000  1
  Ti  Ti3  1  0.243378  0.995804  0.500000  1
  Ti  Ti4  1  0.756622  0.752426  0.500000  1
  Ti  Ti5  1  0.000000  0.611208  0.000000  1
  Ga  Ga6  1  0.676715  0.340944  0.500000  1
  Ga  Ga7  1  0.323285  0.664230  0.500000  1
  P  P8  1  0.000000  0.996561  0.000000  1
