# generated using pymatgen
data_Tb3Ho(LuPt)16
_symmetry_space_group_name_H-M   'P 1'
_cell_length_a   7.40967001
_cell_length_b   7.49640261
_cell_length_c   14.60253000
_cell_angle_alpha   89.99612495
_cell_angle_beta   90.00332500
_cell_angle_gamma   90.02284546
_symmetry_Int_Tables_number   1
_chemical_formula_structural   Tb3Ho(LuPt)16
_chemical_formula_sum   'Tb3 Ho1 Lu16 Pt16'
_cell_volume   811.11016015
_cell_formula_units_Z   1
loop_
 _symmetry_equiv_pos_site_id
 _symmetry_equiv_pos_as_xyz
  1  'x, y, z'
loop_
 _atom_site_type_symbol
 _atom_site_label
 _atom_site_symmetry_multiplicity
 _atom_site_fract_x
 _atom_site_fract_y
 _atom_site_fract_z
 _atom_site_occupancy
  Tb  Tb0  1  0.499304  0.321383  0.407896  1
  Tb  Tb1  1  0.999301  0.178588  0.092119  1
  Tb  Tb2  1  0.500661  0.678573  0.907811  1
  Ho  Ho3  1  0.001170  0.820863  0.592248  1
  Lu  Lu4  1  0.656885  0.166378  0.622909  1
  Lu  Lu5  1  0.156377  0.333298  0.876871  1
  Lu  Lu6  1  0.343654  0.833237  0.123015  1
  Lu  Lu7  1  0.844089  0.666889  0.377111  1
  Lu  Lu8  1  0.343999  0.832393  0.377896  1
  Lu  Lu9  1  0.844071  0.667776  0.122155  1
  Lu  Lu10  1  0.655927  0.167746  0.877783  1
  Lu  Lu11  1  0.155836  0.332211  0.622063  1
  Lu  Lu12  1  0.502166  0.681049  0.593277  1
  Lu  Lu13  1  0.002097  0.819079  0.906656  1
  Lu  Lu14  1  0.497854  0.319212  0.093339  1
  Lu  Lu15  1  0.997972  0.180416  0.406837  1
  Lu  Lu16  1  0.818804  0.510186  0.749771  1
  Lu  Lu17  1  0.318691  0.989890  0.749829  1
  Lu  Lu18  1  0.181266  0.489877  0.249990  1
  Lu  Lu19  1  0.681224  0.010014  0.250077  1
  Pt  Pt20  1  0.686725  0.964773  0.458587  1
  Pt  Pt21  1  0.186241  0.534306  0.042035  1
  Pt  Pt22  1  0.313748  0.034551  0.958028  1
  Pt  Pt23  1  0.814187  0.467262  0.542596  1
  Pt  Pt24  1  0.317254  0.032558  0.542227  1
  Pt  Pt25  1  0.819291  0.466261  0.958069  1
  Pt  Pt26  1  0.680649  0.966175  0.041948  1
  Pt  Pt27  1  0.180782  0.534690  0.458416  1
  Pt  Pt28  1  0.453587  0.383420  0.748769  1
  Pt  Pt29  1  0.954060  0.116297  0.750690  1
  Pt  Pt30  1  0.546274  0.616810  0.249008  1
  Pt  Pt31  1  0.046162  0.883218  0.251090  1
  Pt  Pt32  1  0.681045  0.857393  0.748271  1
  Pt  Pt33  1  0.179607  0.643262  0.750304  1
  Pt  Pt34  1  0.319495  0.142557  0.248872  1
  Pt  Pt35  1  0.819550  0.357409  0.251429  1
