# generated using pymatgen
data_HfZr2Bi3
_symmetry_space_group_name_H-M   'P 1'
_cell_length_a   5.78973628
_cell_length_b   5.78973653
_cell_length_c   14.50944300
_cell_angle_alpha   90.00000000
_cell_angle_beta   90.00000000
_cell_angle_gamma   141.18052161
_symmetry_Int_Tables_number   1
_chemical_formula_structural   HfZr2Bi3
_chemical_formula_sum   'Hf2 Zr4 Bi6'
_cell_volume   304.89122396
_cell_formula_units_Z   2
loop_
 _symmetry_equiv_pos_site_id
 _symmetry_equiv_pos_as_xyz
  1  'x, y, z'
loop_
 _atom_site_type_symbol
 _atom_site_label
 _atom_site_symmetry_multiplicity
 _atom_site_fract_x
 _atom_site_fract_y
 _atom_site_fract_z
 _atom_site_occupancy
  Hf  Hf0  1  0.601059  0.398941  0.250000  1
  Hf  Hf1  1  0.398941  0.601059  0.750000  1
  Zr  Zr2  1  0.927904  0.072096  0.110592  1
  Zr  Zr3  1  0.072096  0.927904  0.889408  1
  Zr  Zr4  1  0.072096  0.927904  0.610592  1
  Zr  Zr5  1  0.927904  0.072096  0.389408  1
  Bi  Bi6  1  0.316403  0.683597  0.250000  1
  Bi  Bi7  1  0.683597  0.316403  0.750000  1
  Bi  Bi8  1  0.641582  0.358418  0.050660  1
  Bi  Bi9  1  0.358418  0.641582  0.949340  1
  Bi  Bi10  1  0.358418  0.641582  0.550660  1
  Bi  Bi11  1  0.641582  0.358418  0.449340  1
