# generated using pymatgen
data_Er7Lu5Co4SnPt
_symmetry_space_group_name_H-M   'P 1'
_cell_length_a   8.18689009
_cell_length_b   8.19226911
_cell_length_c   8.19208801
_cell_angle_alpha   111.15022846
_cell_angle_beta   110.64196322
_cell_angle_gamma   106.68636202
_symmetry_Int_Tables_number   1
_chemical_formula_structural   Er7Lu5Co4SnPt
_chemical_formula_sum   'Er7 Lu5 Co4 Sn1 Pt1'
_cell_volume   422.04749581
_cell_formula_units_Z   1
loop_
 _symmetry_equiv_pos_site_id
 _symmetry_equiv_pos_as_xyz
  1  'x, y, z'
loop_
 _atom_site_type_symbol
 _atom_site_label
 _atom_site_symmetry_multiplicity
 _atom_site_fract_x
 _atom_site_fract_y
 _atom_site_fract_z
 _atom_site_occupancy
  Er  Er0  1  0.581657  0.782638  0.799191  1
  Er  Er1  1  0.017015  0.217493  0.799388  1
  Er  Er2  1  0.983377  0.782542  0.201059  1
  Er  Er3  1  0.185660  0.288082  0.473213  1
  Er  Er4  1  0.813992  0.710984  0.525494  1
  Er  Er5  1  0.185792  0.712521  0.897567  1
  Er  Er6  1  0.813922  0.288392  0.102987  1
  Lu  Lu7  1  0.315413  0.620409  0.305525  1
  Lu  Lu8  1  0.684035  0.378734  0.693496  1
  Lu  Lu9  1  0.315449  0.009895  0.695008  1
  Lu  Lu10  1  0.684037  0.990558  0.305291  1
  Lu  Lu11  1  0.418213  0.216987  0.201182  1
  Co  Co12  1  0.112974  0.612942  0.500052  1
  Co  Co13  1  0.886329  0.386792  0.499524  1
  Co  Co14  1  0.377956  0.000486  0.377474  1
  Co  Co15  1  0.621743  0.999842  0.621892  1
  Sn  Sn16  1  0.499908  0.499507  0.000352  1
  Pt  Pt17  1  0.002529  0.001196  0.001303  1
