# generated using pymatgen
data_Lu4Sb5PRh7
_symmetry_space_group_name_H-M   'P 1'
_cell_length_a   7.48537928
_cell_length_b   7.48553445
_cell_length_c   7.48537947
_cell_angle_alpha   110.79465902
_cell_angle_beta   106.85495004
_cell_angle_gamma   110.79466710
_symmetry_Int_Tables_number   1
_chemical_formula_structural   Lu4Sb5PRh7
_chemical_formula_sum   'Lu4 Sb5 P1 Rh7'
_cell_volume   322.37124726
_cell_formula_units_Z   1
loop_
 _symmetry_equiv_pos_site_id
 _symmetry_equiv_pos_as_xyz
  1  'x, y, z'
loop_
 _atom_site_type_symbol
 _atom_site_label
 _atom_site_symmetry_multiplicity
 _atom_site_fract_x
 _atom_site_fract_y
 _atom_site_fract_z
 _atom_site_occupancy
  Lu  Lu0  1  0.475129  0.462700  0.475129  1
  Lu  Lu1  1  0.012553  0.537425  0.012553  1
  Lu  Lu2  1  0.475081  0.999965  0.012471  1
  Lu  Lu3  1  0.012471  0.999965  0.475081  1
  Sb  Sb4  1  0.692986  0.000050  0.692986  1
  Sb  Sb5  1  0.676548  0.687519  0.988872  1
  Sb  Sb6  1  0.301387  0.312438  0.988987  1
  Sb  Sb7  1  0.988872  0.687519  0.676548  1
  Sb  Sb8  1  0.988987  0.312438  0.301387  1
  P  P9  1  0.349570  0.000046  0.349570  1
  Rh  Rh10  1  0.742012  0.499962  0.242040  1
  Rh  Rh11  1  0.490454  0.243427  0.733908  1
  Rh  Rh12  1  0.733908  0.243427  0.490454  1
  Rh  Rh13  1  0.247094  0.756566  0.490517  1
  Rh  Rh14  1  0.242040  0.499962  0.742012  1
  Rh  Rh15  1  0.490517  0.756566  0.247094  1
  Rh  Rh16  1  0.080391  0.000029  0.080391  1
