# generated using pymatgen
data_Zn14B6Ir7PdRh10
_symmetry_space_group_name_H-M   'P 1'
_cell_length_a   2.89323600
_cell_length_b   11.43335818
_cell_length_c   14.86132723
_cell_angle_alpha   90.02022191
_cell_angle_beta   90.00000000
_cell_angle_gamma   90.00000000
_symmetry_Int_Tables_number   1
_chemical_formula_structural   Zn14B6Ir7PdRh10
_chemical_formula_sum   'Zn14 B6 Ir7 Pd1 Rh10'
_cell_volume   491.60380914
_cell_formula_units_Z   1
loop_
 _symmetry_equiv_pos_site_id
 _symmetry_equiv_pos_as_xyz
  1  'x, y, z'
loop_
 _atom_site_type_symbol
 _atom_site_label
 _atom_site_symmetry_multiplicity
 _atom_site_fract_x
 _atom_site_fract_y
 _atom_site_fract_z
 _atom_site_occupancy
  Zn  Zn0  1  0.500000  0.501113  0.347768  1
  Zn  Zn1  1  0.500000  0.999879  0.652864  1
  Zn  Zn2  1  0.500000  0.389594  0.999219  1
  Zn  Zn3  1  0.500000  0.111987  0.998661  1
  Zn  Zn4  1  0.500000  0.610488  0.999258  1
  Zn  Zn5  1  0.500000  0.887853  0.998709  1
  Zn  Zn6  1  0.500000  0.371853  0.770558  1
  Zn  Zn7  1  0.500000  0.131213  0.231396  1
  Zn  Zn8  1  0.500000  0.628134  0.770519  1
  Zn  Zn9  1  0.500000  0.868210  0.231293  1
  Zn  Zn10  1  0.500000  0.298290  0.601924  1
  Zn  Zn11  1  0.500000  0.202384  0.398711  1
  Zn  Zn12  1  0.500000  0.701733  0.601866  1
  Zn  Zn13  1  0.500000  0.796759  0.398624  1
  B  B14  1  0.500000  0.500146  0.531431  1
  B  B15  1  0.500000  0.000001  0.469024  1
  B  B16  1  0.500000  0.143909  0.821755  1
  B  B17  1  0.500000  0.356923  0.177975  1
  B  B18  1  0.500000  0.856254  0.821714  1
  B  B19  1  0.500000  0.643092  0.177731  1
  Ir  Ir20  1  0.000000  0.246421  0.895672  1
  Ir  Ir21  1  0.000000  0.254185  0.103513  1
  Ir  Ir22  1  0.000000  0.753482  0.895509  1
  Ir  Ir23  1  0.000000  0.745696  0.104111  1
  Ir  Ir24  1  0.000000  0.174115  0.716480  1
  Ir  Ir25  1  0.000000  0.327262  0.283344  1
  Ir  Ir26  1  0.000000  0.825767  0.716485  1
  Pd  Pd27  1  0.000000  0.999862  0.122546  1
  Rh  Rh28  1  0.000000  0.499784  0.642638  1
  Rh  Rh29  1  0.000000  0.999110  0.357109  1
  Rh  Rh30  1  0.000000  0.673967  0.283082  1
  Rh  Rh31  1  0.000000  0.500303  0.139119  1
  Rh  Rh32  1  0.000000  0.000015  0.861166  1
  Rh  Rh33  1  0.000000  0.120661  0.529542  1
  Rh  Rh34  1  0.000000  0.379414  0.470515  1
  Rh  Rh35  1  0.000000  0.879457  0.529499  1
  Rh  Rh36  1  0.000000  0.620652  0.470493  1
  Rh  Rh37  1  0.000000  0.500031  0.878173  1
