# generated using pymatgen
data_LaHg4Se2Cl5
_symmetry_space_group_name_H-M   'P 1'
_cell_length_a   8.52272612
_cell_length_b   10.96960500
_cell_length_c   9.23564282
_cell_angle_alpha   90.00000000
_cell_angle_beta   113.26378646
_cell_angle_gamma   90.00000000
_symmetry_Int_Tables_number   1
_chemical_formula_structural   LaHg4Se2Cl5
_chemical_formula_sum   'La2 Hg8 Se4 Cl10'
_cell_volume   793.24724252
_cell_formula_units_Z   2
loop_
 _symmetry_equiv_pos_site_id
 _symmetry_equiv_pos_as_xyz
  1  'x, y, z'
loop_
 _atom_site_type_symbol
 _atom_site_label
 _atom_site_symmetry_multiplicity
 _atom_site_fract_x
 _atom_site_fract_y
 _atom_site_fract_z
 _atom_site_occupancy
  La  La0  1  0.502264  0.432842  0.508144  1
  La  La1  1  0.497736  0.932842  0.491856  1
  Hg  Hg2  1  0.926272  0.183033  0.331428  1
  Hg  Hg3  1  0.073728  0.683033  0.668572  1
  Hg  Hg4  1  0.951492  0.666457  0.359365  1
  Hg  Hg5  1  0.048508  0.166457  0.640635  1
  Hg  Hg6  1  0.498094  0.181104  0.987392  1
  Hg  Hg7  1  0.501906  0.681104  0.012608  1
  Hg  Hg8  1  0.805489  0.431860  0.019899  1
  Hg  Hg9  1  0.194511  0.931860  0.980101  1
  Se  Se10  1  0.807155  0.198514  0.023909  1
  Se  Se11  1  0.192845  0.698514  0.976091  1
  Se  Se12  1  0.188530  0.163843  0.948675  1
  Se  Se13  1  0.811470  0.663843  0.051325  1
  Cl  Cl14  1  0.842419  0.924729  0.687973  1
  Cl  Cl15  1  0.157581  0.424729  0.312027  1
  Cl  Cl16  1  0.849238  0.438390  0.712568  1
  Cl  Cl17  1  0.150762  0.938390  0.287432  1
  Cl  Cl18  1  0.410344  0.457118  0.767905  1
  Cl  Cl19  1  0.589656  0.957118  0.232095  1
  Cl  Cl20  1  0.595720  0.394202  0.257003  1
  Cl  Cl21  1  0.404280  0.894202  0.742997  1
  Cl  Cl22  1  0.497492  0.181510  0.566087  1
  Cl  Cl23  1  0.502508  0.681510  0.433913  1
