# generated using pymatgen
data_Ac3Tm(NiP)4
_symmetry_space_group_name_H-M   'P 1'
_cell_length_a   4.02548800
_cell_length_b   4.02548725
_cell_length_c   16.79310400
_cell_angle_alpha   90.00000000
_cell_angle_beta   90.00000000
_cell_angle_gamma   120.00000620
_symmetry_Int_Tables_number   1
_chemical_formula_structural   Ac3Tm(NiP)4
_chemical_formula_sum   'Ac3 Tm1 Ni4 P4'
_cell_volume   235.66689156
_cell_formula_units_Z   1
loop_
 _symmetry_equiv_pos_site_id
 _symmetry_equiv_pos_as_xyz
  1  'x, y, z'
loop_
 _atom_site_type_symbol
 _atom_site_label
 _atom_site_symmetry_multiplicity
 _atom_site_fract_x
 _atom_site_fract_y
 _atom_site_fract_z
 _atom_site_occupancy
  Ac  Ac0  1  0.000000  0.000000  0.512856  1
  Ac  Ac1  1  0.000000  0.000000  0.987144  1
  Ac  Ac2  1  0.000000  0.000000  0.250000  1
  Tm  Tm3  1  0.000000  0.000000  0.750000  1
  Ni  Ni4  1  0.333333  0.666667  0.384910  1
  Ni  Ni5  1  0.666667  0.333333  0.649076  1
  Ni  Ni6  1  0.666667  0.333333  0.850924  1
  Ni  Ni7  1  0.333333  0.666667  0.115090  1
  P  P8  1  0.333333  0.666667  0.860931  1
  P  P9  1  0.666667  0.333333  0.122540  1
  P  P10  1  0.666667  0.333333  0.377460  1
  P  P11  1  0.333333  0.666667  0.639069  1
