# generated using pymatgen
data_TbY3Ga18Co5Pt
_symmetry_space_group_name_H-M   'P 1'
_cell_length_a   7.42858470
_cell_length_b   7.42878651
_cell_length_c   9.44119300
_cell_angle_alpha   90.11620778
_cell_angle_beta   90.11847542
_cell_angle_gamma   119.74784370
_symmetry_Int_Tables_number   1
_chemical_formula_structural   TbY3Ga18Co5Pt
_chemical_formula_sum   'Tb1 Y3 Ga18 Co5 Pt1'
_cell_volume   452.35120054
_cell_formula_units_Z   1
loop_
 _symmetry_equiv_pos_site_id
 _symmetry_equiv_pos_as_xyz
  1  'x, y, z'
loop_
 _atom_site_type_symbol
 _atom_site_label
 _atom_site_symmetry_multiplicity
 _atom_site_fract_x
 _atom_site_fract_y
 _atom_site_fract_z
 _atom_site_occupancy
  Tb  Tb0  1  0.003031  0.328535  0.251172  1
  Y  Y1  1  0.328557  0.003058  0.251179  1
  Y  Y2  1  0.996934  0.671448  0.748818  1
  Y  Y3  1  0.671455  0.996940  0.748822  1
  Ga  Ga4  1  0.344372  0.999664  0.924085  1
  Ga  Ga5  1  0.000342  0.655665  0.075934  1
  Ga  Ga6  1  0.335123  0.998457  0.571536  1
  Ga  Ga7  1  0.001547  0.664911  0.428447  1
  Ga  Ga8  1  0.655606  0.000334  0.075934  1
  Ga  Ga9  1  0.999661  0.344369  0.924082  1
  Ga  Ga10  1  0.664857  0.001548  0.428454  1
  Ga  Ga11  1  0.998439  0.335109  0.571546  1
  Ga  Ga12  1  0.656237  0.656228  0.937729  1
  Ga  Ga13  1  0.343781  0.343762  0.062286  1
  Ga  Ga14  1  0.666359  0.666344  0.557250  1
  Ga  Ga15  1  0.333678  0.333639  0.442743  1
  Ga  Ga16  1  0.129595  0.129591  0.741093  1
  Ga  Ga17  1  0.870374  0.870382  0.258907  1
  Ga  Ga18  1  0.447991  0.664448  0.251401  1
  Ga  Ga19  1  0.335533  0.552033  0.748599  1
  Ga  Ga20  1  0.552039  0.335534  0.748592  1
  Ga  Ga21  1  0.664468  0.447987  0.251409  1
  Co  Co22  1  0.999998  0.000007  0.500005  1
  Co  Co23  1  0.329567  0.670440  0.999984  1
  Co  Co24  1  0.329218  0.670767  0.500012  1
  Co  Co25  1  0.670449  0.329570  0.999987  1
  Co  Co26  1  0.670793  0.329233  0.500009  1
  Pt  Pt27  1  0.999998  0.999996  0.999985  1
