# generated using pymatgen
data_Tb6TiAl23Os7Ru
_symmetry_space_group_name_H-M   'P 1'
_cell_length_a   8.85704400
_cell_length_b   8.85704427
_cell_length_c   9.57422300
_cell_angle_alpha   90.00000000
_cell_angle_beta   90.00000000
_cell_angle_gamma   119.99999151
_symmetry_Int_Tables_number   1
_chemical_formula_structural   Tb6TiAl23Os7Ru
_chemical_formula_sum   'Tb6 Ti1 Al23 Os7 Ru1'
_cell_volume   650.44686578
_cell_formula_units_Z   1
loop_
 _symmetry_equiv_pos_site_id
 _symmetry_equiv_pos_as_xyz
  1  'x, y, z'
loop_
 _atom_site_type_symbol
 _atom_site_label
 _atom_site_symmetry_multiplicity
 _atom_site_fract_x
 _atom_site_fract_y
 _atom_site_fract_z
 _atom_site_occupancy
  Tb  Tb0  1  0.193713  0.387426  0.249893  1
  Tb  Tb1  1  0.806965  0.613932  0.748707  1
  Tb  Tb2  1  0.612574  0.806287  0.249893  1
  Tb  Tb3  1  0.386068  0.193035  0.748707  1
  Tb  Tb4  1  0.193713  0.806287  0.249893  1
  Tb  Tb5  1  0.806965  0.193035  0.748707  1
  Ti  Ti6  1  0.333333  0.666667  0.991307  1
  Al  Al7  1  0.666667  0.333333  0.982981  1
  Al  Al8  1  0.666667  0.333333  0.515315  1
  Al  Al9  1  0.333333  0.666667  0.482778  1
  Al  Al10  1  0.162240  0.324479  0.575437  1
  Al  Al11  1  0.837626  0.675253  0.424291  1
  Al  Al12  1  0.675521  0.837760  0.575437  1
  Al  Al13  1  0.837307  0.674616  0.076818  1
  Al  Al14  1  0.324747  0.162374  0.424291  1
  Al  Al15  1  0.159182  0.318362  0.925421  1
  Al  Al16  1  0.162240  0.837760  0.575437  1
  Al  Al17  1  0.325384  0.162693  0.076818  1
  Al  Al18  1  0.837626  0.162374  0.424291  1
  Al  Al19  1  0.681638  0.840818  0.925421  1
  Al  Al20  1  0.837307  0.162693  0.076818  1
  Al  Al21  1  0.159182  0.840818  0.925421  1
  Al  Al22  1  0.561756  0.123513  0.252928  1
  Al  Al23  1  0.440683  0.881365  0.750266  1
  Al  Al24  1  0.876487  0.438244  0.252928  1
  Al  Al25  1  0.118635  0.559317  0.750266  1
  Al  Al26  1  0.561756  0.438244  0.252928  1
  Al  Al27  1  0.440683  0.559317  0.750266  1
  Al  Al28  1  0.000000  0.000000  0.248169  1
  Al  Al29  1  0.000000  0.000000  0.751080  1
  Os  Os30  1  0.498975  0.997950  0.003024  1
  Os  Os31  1  0.002050  0.501025  0.003024  1
  Os  Os32  1  0.499680  0.999360  0.502794  1
  Os  Os33  1  0.498975  0.501025  0.003024  1
  Os  Os34  1  0.000640  0.500320  0.502794  1
  Os  Os35  1  0.499680  0.500320  0.502794  1
  Os  Os36  1  0.000000  0.000000  0.499681  1
  Ru  Ru37  1  0.000000  0.000000  0.999950  1
