# generated using pymatgen
data_Tb3Er5(PI6)2
_symmetry_space_group_name_H-M   'P 1'
_cell_length_a   4.15967200
_cell_length_b   13.82708781
_cell_length_c   14.56295110
_cell_angle_alpha   90.09572999
_cell_angle_beta   90.00000000
_cell_angle_gamma   90.00000000
_symmetry_Int_Tables_number   1
_chemical_formula_structural   Tb3Er5(PI6)2
_chemical_formula_sum   'Tb3 Er5 P2 I12'
_cell_volume   837.60371071
_cell_formula_units_Z   1
loop_
 _symmetry_equiv_pos_site_id
 _symmetry_equiv_pos_as_xyz
  1  'x, y, z'
loop_
 _atom_site_type_symbol
 _atom_site_label
 _atom_site_symmetry_multiplicity
 _atom_site_fract_x
 _atom_site_fract_y
 _atom_site_fract_z
 _atom_site_occupancy
  Tb  Tb0  1  0.000000  0.892366  0.427515  1
  Tb  Tb1  1  0.000000  0.608100  0.927021  1
  Tb  Tb2  1  0.000000  0.391825  0.072884  1
  Er  Er3  1  0.500000  0.112576  0.351211  1
  Er  Er4  1  0.500000  0.887538  0.648678  1
  Er  Er5  1  0.500000  0.612720  0.148887  1
  Er  Er6  1  0.500000  0.387450  0.851337  1
  Er  Er7  1  0.000000  0.107356  0.572154  1
  P  P8  1  0.500000  0.001793  0.501184  1
  P  P9  1  0.500000  0.500045  0.000038  1
  I  I10  1  0.500000  0.244986  0.164152  1
  I  I11  1  0.500000  0.755307  0.836088  1
  I  I12  1  0.500000  0.745630  0.336587  1
  I  I13  1  0.500000  0.252092  0.662131  1
  I  I14  1  0.000000  0.258376  0.416354  1
  I  I15  1  0.000000  0.740865  0.585403  1
  I  I16  1  0.000000  0.759362  0.085720  1
  I  I17  1  0.000000  0.240507  0.914139  1
  I  I18  1  0.000000  0.001057  0.240069  1
  I  I19  1  0.000000  0.000542  0.758598  1
  I  I20  1  0.000000  0.501298  0.260307  1
  I  I21  1  0.000000  0.498210  0.739542  1
