# generated using pymatgen
data_InNi21B6Sb
_symmetry_space_group_name_H-M   'P 1'
_cell_length_a   7.48256802
_cell_length_b   7.48256804
_cell_length_c   7.48256800
_cell_angle_alpha   60.00000018
_cell_angle_beta   60.00000010
_cell_angle_gamma   59.99999504
_symmetry_Int_Tables_number   1
_chemical_formula_structural   InNi21B6Sb
_chemical_formula_sum   'In1 Ni21 B6 Sb1'
_cell_volume   296.23543559
_cell_formula_units_Z   1
loop_
 _symmetry_equiv_pos_site_id
 _symmetry_equiv_pos_as_xyz
  1  'x, y, z'
loop_
 _atom_site_type_symbol
 _atom_site_label
 _atom_site_symmetry_multiplicity
 _atom_site_fract_x
 _atom_site_fract_y
 _atom_site_fract_z
 _atom_site_occupancy
  In  In0  1  0.250000  0.250000  0.250000  1
  Ni  Ni1  1  0.000654  0.000654  0.663402  1
  Ni  Ni2  1  0.616769  0.616769  0.149694  1
  Ni  Ni3  1  0.387636  0.837090  0.387636  1
  Ni  Ni4  1  0.663402  0.335290  0.000654  1
  Ni  Ni5  1  0.000654  0.335290  0.663402  1
  Ni  Ni6  1  0.663402  0.000654  0.000654  1
  Ni  Ni7  1  0.000654  0.000654  0.335290  1
  Ni  Ni8  1  0.000654  0.335290  0.000654  1
  Ni  Ni9  1  0.335290  0.000654  0.663402  1
  Ni  Ni10  1  0.663402  0.000654  0.335290  1
  Ni  Ni11  1  0.335290  0.000654  0.000654  1
  Ni  Ni12  1  0.000654  0.663402  0.000654  1
  Ni  Ni13  1  0.387636  0.387636  0.837090  1
  Ni  Ni14  1  0.000654  0.663402  0.335290  1
  Ni  Ni15  1  0.335290  0.663402  0.000654  1
  Ni  Ni16  1  0.000000  0.000000  0.000000  1
  Ni  Ni17  1  0.616769  0.149694  0.616769  1
  Ni  Ni18  1  0.149694  0.616769  0.616769  1
  Ni  Ni19  1  0.387636  0.387636  0.387636  1
  Ni  Ni20  1  0.837090  0.387636  0.387636  1
  Ni  Ni21  1  0.616769  0.616769  0.616769  1
  B  B22  1  0.727817  0.727817  0.272183  1
  B  B23  1  0.727817  0.272183  0.727817  1
  B  B24  1  0.272183  0.727817  0.272183  1
  B  B25  1  0.727817  0.272183  0.272183  1
  B  B26  1  0.272183  0.727817  0.727817  1
  B  B27  1  0.272183  0.272183  0.727817  1
  Sb  Sb28  1  0.750000  0.750000  0.750000  1
