# generated using pymatgen
data_Co2TcB2Mo
_symmetry_space_group_name_H-M   'P 1'
_cell_length_a   3.23313500
_cell_length_b   5.70637960
_cell_length_c   6.57169065
_cell_angle_alpha   90.77560459
_cell_angle_beta   90.00000000
_cell_angle_gamma   90.00000000
_symmetry_Int_Tables_number   1
_chemical_formula_structural   Co2TcB2Mo
_chemical_formula_sum   'Co4 Tc2 B4 Mo2'
_cell_volume   121.23326924
_cell_formula_units_Z   2
loop_
 _symmetry_equiv_pos_site_id
 _symmetry_equiv_pos_as_xyz
  1  'x, y, z'
loop_
 _atom_site_type_symbol
 _atom_site_label
 _atom_site_symmetry_multiplicity
 _atom_site_fract_x
 _atom_site_fract_y
 _atom_site_fract_z
 _atom_site_occupancy
  Co  Co0  1  0.750000  0.854947  0.554487  1
  Co  Co1  1  0.250000  0.145053  0.445513  1
  Co  Co2  1  0.750000  0.353538  0.944850  1
  Co  Co3  1  0.250000  0.646462  0.055150  1
  Tc  Tc4  1  0.250000  0.529292  0.673042  1
  Tc  Tc5  1  0.750000  0.470708  0.326958  1
  B  B6  1  0.250000  0.767823  0.377358  1
  B  B7  1  0.750000  0.232177  0.622642  1
  B  B8  1  0.250000  0.275679  0.126937  1
  B  B9  1  0.750000  0.724321  0.873063  1
  Mo  Mo10  1  0.250000  0.027477  0.826889  1
  Mo  Mo11  1  0.750000  0.972523  0.173111  1
