# generated using pymatgen
data_Pa2GeRu2
_symmetry_space_group_name_H-M   'P 1'
_cell_length_a   5.29191630
_cell_length_b   5.29184441
_cell_length_c   7.57378900
_cell_angle_alpha   90.00000000
_cell_angle_beta   90.00000000
_cell_angle_gamma   113.23476806
_symmetry_Int_Tables_number   1
_chemical_formula_structural   Pa2GeRu2
_chemical_formula_sum   'Pa4 Ge2 Ru4'
_cell_volume   194.89453093
_cell_formula_units_Z   2
loop_
 _symmetry_equiv_pos_site_id
 _symmetry_equiv_pos_as_xyz
  1  'x, y, z'
loop_
 _atom_site_type_symbol
 _atom_site_label
 _atom_site_symmetry_multiplicity
 _atom_site_fract_x
 _atom_site_fract_y
 _atom_site_fract_z
 _atom_site_occupancy
  Pa  Pa0  1  0.350265  0.649736  0.100195  1
  Pa  Pa1  1  0.649735  0.350264  0.899805  1
  Pa  Pa2  1  0.149735  0.850264  0.600195  1
  Pa  Pa3  1  0.850265  0.149736  0.399805  1
  Ge  Ge4  1  0.000000  0.000000  0.000000  1
  Ge  Ge5  1  0.500000  0.500000  0.500000  1
  Ru  Ru6  1  0.874950  0.625033  0.250001  1
  Ru  Ru7  1  0.625050  0.874967  0.750001  1
  Ru  Ru8  1  0.125050  0.374967  0.749999  1
  Ru  Ru9  1  0.374950  0.125033  0.249999  1
