# generated using pymatgen
data_SnBi6(IrO9)2
_symmetry_space_group_name_H-M   'P 1'
_cell_length_a   9.36538900
_cell_length_b   9.36538733
_cell_length_c   5.20711900
_cell_angle_alpha   90.00000000
_cell_angle_beta   90.00000000
_cell_angle_gamma   119.99999813
_symmetry_Int_Tables_number   1
_chemical_formula_structural   SnBi6(IrO9)2
_chemical_formula_sum   'Sn1 Bi6 Ir2 O18'
_cell_volume   395.53025319
_cell_formula_units_Z   1
loop_
 _symmetry_equiv_pos_site_id
 _symmetry_equiv_pos_as_xyz
  1  'x, y, z'
loop_
 _atom_site_type_symbol
 _atom_site_label
 _atom_site_symmetry_multiplicity
 _atom_site_fract_x
 _atom_site_fract_y
 _atom_site_fract_z
 _atom_site_occupancy
  Sn  Sn0  1  0.666667  0.333333  0.007839  1
  Bi  Bi1  1  0.995318  0.373115  0.506612  1
  Bi  Bi2  1  0.288878  0.290503  0.007279  1
  Bi  Bi3  1  0.001624  0.711122  0.007279  1
  Bi  Bi4  1  0.626885  0.622203  0.506612  1
  Bi  Bi5  1  0.377797  0.004682  0.506612  1
  Bi  Bi6  1  0.709497  0.998376  0.007279  1
  Ir  Ir7  1  0.000000  0.000000  0.493308  1
  Ir  Ir8  1  0.333333  0.666667  0.998585  1
  O  O9  1  0.088204  0.197700  0.701853  1
  O  O10  1  0.221414  0.468941  0.209343  1
  O  O11  1  0.136582  0.600001  0.785693  1
  O  O12  1  0.399999  0.536581  0.785693  1
  O  O13  1  0.247527  0.778586  0.209343  1
  O  O14  1  0.109495  0.911796  0.701853  1
  O  O15  1  0.531059  0.752473  0.209343  1
  O  O16  1  0.195203  0.070879  0.273811  1
  O  O17  1  0.463419  0.863418  0.785693  1
  O  O18  1  0.802300  0.890505  0.701853  1
  O  O19  1  0.451332  0.225953  0.783201  1
  O  O20  1  0.593654  0.122606  0.232296  1
  O  O21  1  0.528952  0.406346  0.232296  1
  O  O22  1  0.774047  0.225379  0.783201  1
  O  O23  1  0.929121  0.124324  0.273811  1
  O  O24  1  0.774621  0.548668  0.783201  1
  O  O25  1  0.877394  0.471048  0.232296  1
  O  O26  1  0.875676  0.804797  0.273811  1
