# generated using pymatgen
data_TbDy11OsRh3
_symmetry_space_group_name_H-M   'P 1'
_cell_length_a   6.29494200
_cell_length_b   7.25040210
_cell_length_c   9.37682200
_cell_angle_alpha   90.00000000
_cell_angle_beta   90.00000000
_cell_angle_gamma   89.79752851
_symmetry_Int_Tables_number   1
_chemical_formula_structural   TbDy11OsRh3
_chemical_formula_sum   'Tb1 Dy11 Os1 Rh3'
_cell_volume   427.96355451
_cell_formula_units_Z   1
loop_
 _symmetry_equiv_pos_site_id
 _symmetry_equiv_pos_as_xyz
  1  'x, y, z'
loop_
 _atom_site_type_symbol
 _atom_site_label
 _atom_site_symmetry_multiplicity
 _atom_site_fract_x
 _atom_site_fract_y
 _atom_site_fract_z
 _atom_site_occupancy
  Tb  Tb0  1  0.365406  0.964004  0.750000  1
  Dy  Dy1  1  0.327403  0.678498  0.065098  1
  Dy  Dy2  1  0.170508  0.174971  0.434918  1
  Dy  Dy3  1  0.668319  0.323090  0.564019  1
  Dy  Dy4  1  0.834400  0.823854  0.940232  1
  Dy  Dy5  1  0.668319  0.323090  0.935981  1
  Dy  Dy6  1  0.834400  0.823854  0.559768  1
  Dy  Dy7  1  0.327403  0.678498  0.434902  1
  Dy  Dy8  1  0.170508  0.174971  0.065082  1
  Dy  Dy9  1  0.864793  0.536099  0.250000  1
  Dy  Dy10  1  0.635406  0.033870  0.250000  1
  Dy  Dy11  1  0.137658  0.463190  0.750000  1
  Os  Os12  1  0.047855  0.881602  0.250000  1
  Rh  Rh13  1  0.446196  0.381458  0.250000  1
  Rh  Rh14  1  0.943903  0.119243  0.750000  1
  Rh  Rh15  1  0.557523  0.619708  0.750000  1
