# generated using pymatgen
data_TbSmV2F14
_symmetry_space_group_name_H-M   'P 1'
_cell_length_a   5.56769742
_cell_length_b   8.93451790
_cell_length_c   11.92251488
_cell_angle_alpha   63.13403001
_cell_angle_beta   89.95815818
_cell_angle_gamma   89.99462445
_symmetry_Int_Tables_number   1
_chemical_formula_structural   TbSmV2F14
_chemical_formula_sum   'Tb2 Sm2 V4 F28'
_cell_volume   529.06803256
_cell_formula_units_Z   2
loop_
 _symmetry_equiv_pos_site_id
 _symmetry_equiv_pos_as_xyz
  1  'x, y, z'
loop_
 _atom_site_type_symbol
 _atom_site_label
 _atom_site_symmetry_multiplicity
 _atom_site_fract_x
 _atom_site_fract_y
 _atom_site_fract_z
 _atom_site_occupancy
  Tb  Tb0  1  0.758693  0.194696  0.229756  1
  Tb  Tb1  1  0.241307  0.805304  0.770244  1
  Sm  Sm2  1  0.258155  0.808855  0.269455  1
  Sm  Sm3  1  0.741845  0.191145  0.730545  1
  V  V4  1  0.753934  0.724988  0.043578  1
  V  V5  1  0.246066  0.275012  0.956422  1
  V  V6  1  0.254004  0.272703  0.453808  1
  V  V7  1  0.745996  0.727297  0.546192  1
  F  F8  1  0.948496  0.706700  0.426119  1
  F  F9  1  0.051504  0.293300  0.573881  1
  F  F10  1  0.449681  0.293913  0.076619  1
  F  F11  1  0.550319  0.706087  0.923381  1
  F  F12  1  0.482373  0.731306  0.137428  1
  F  F13  1  0.517627  0.268694  0.862572  1
  F  F14  1  0.981103  0.267350  0.359543  1
  F  F15  1  0.018897  0.732650  0.640457  1
  F  F16  1  0.954445  0.745039  0.166446  1
  F  F17  1  0.045555  0.254961  0.833554  1
  F  F18  1  0.457503  0.251946  0.331678  1
  F  F19  1  0.542497  0.748054  0.668322  1
  F  F20  1  0.765723  0.494375  0.136109  1
  F  F21  1  0.234277  0.505625  0.863891  1
  F  F22  1  0.265018  0.503215  0.361577  1
  F  F23  1  0.734982  0.496785  0.638423  1
  F  F24  1  0.965379  0.285796  0.045892  1
  F  F25  1  0.034621  0.714204  0.954108  1
  F  F26  1  0.466966  0.714269  0.457168  1
  F  F27  1  0.533034  0.285731  0.542832  1
  F  F28  1  0.742055  0.955130  0.454807  1
  F  F29  1  0.257945  0.044870  0.545193  1
  F  F30  1  0.242050  0.046328  0.046332  1
  F  F31  1  0.757950  0.953672  0.953668  1
  F  F32  1  0.584759  0.976059  0.230482  1
  F  F33  1  0.415241  0.023941  0.769518  1
  F  F34  1  0.077459  0.031278  0.269319  1
  F  F35  1  0.922541  0.968722  0.730681  1
