# generated using pymatgen
data_Y2Zn12Co3Ru2
_symmetry_space_group_name_H-M   'P 1'
_cell_length_a   6.63023493
_cell_length_b   6.73644011
_cell_length_c   6.63023356
_cell_angle_alpha   83.73396456
_cell_angle_beta   82.46190896
_cell_angle_gamma   83.73395515
_symmetry_Int_Tables_number   1
_chemical_formula_structural   Y2Zn12Co3Ru2
_chemical_formula_sum   'Y2 Zn12 Co3 Ru2'
_cell_volume   290.46659122
_cell_formula_units_Z   1
loop_
 _symmetry_equiv_pos_site_id
 _symmetry_equiv_pos_as_xyz
  1  'x, y, z'
loop_
 _atom_site_type_symbol
 _atom_site_label
 _atom_site_symmetry_multiplicity
 _atom_site_fract_x
 _atom_site_fract_y
 _atom_site_fract_z
 _atom_site_occupancy
  Y  Y0  1  0.649398  0.629004  0.649398  1
  Y  Y1  1  0.343580  0.339298  0.343580  1
  Zn  Zn2  1  0.108487  0.103126  0.108487  1
  Zn  Zn3  1  0.883182  0.881817  0.883182  1
  Zn  Zn4  1  0.303180  0.702014  0.998310  1
  Zn  Zn5  1  0.711632  0.005652  0.291253  1
  Zn  Zn6  1  0.004116  0.304179  0.695944  1
  Zn  Zn7  1  0.695944  0.304179  0.004116  1
  Zn  Zn8  1  0.291253  0.005652  0.711632  1
  Zn  Zn9  1  0.998310  0.702014  0.303180  1
  Zn  Zn10  1  0.152314  0.659561  0.654395  1
  Zn  Zn11  1  0.654395  0.659561  0.152314  1
  Zn  Zn12  1  0.656020  0.150836  0.656020  1
  Zn  Zn13  1  0.346412  0.858372  0.346412  1
  Co  Co14  1  0.001306  0.005249  0.498468  1
  Co  Co15  1  0.006786  0.491414  0.006786  1
  Co  Co16  1  0.498468  0.005249  0.001306  1
  Ru  Ru17  1  0.340632  0.346410  0.854585  1
  Ru  Ru18  1  0.854585  0.346410  0.340632  1
