# generated using pymatgen
data_Zr6Ta4Zn4Ga8RuRh6
_symmetry_space_group_name_H-M   'P 1'
_cell_length_a   8.85021114
_cell_length_b   8.85021159
_cell_length_c   8.85021200
_cell_angle_alpha   60.00000595
_cell_angle_beta   60.00000424
_cell_angle_gamma   60.00000453
_symmetry_Int_Tables_number   1
_chemical_formula_structural   Zr6Ta4Zn4Ga8RuRh6
_chemical_formula_sum   'Zr6 Ta4 Zn4 Ga8 Ru1 Rh6'
_cell_volume   490.16919027
_cell_formula_units_Z   1
loop_
 _symmetry_equiv_pos_site_id
 _symmetry_equiv_pos_as_xyz
  1  'x, y, z'
loop_
 _atom_site_type_symbol
 _atom_site_label
 _atom_site_symmetry_multiplicity
 _atom_site_fract_x
 _atom_site_fract_y
 _atom_site_fract_z
 _atom_site_occupancy
  Zr  Zr0  1  0.698639  0.698639  0.301361  1
  Zr  Zr1  1  0.301361  0.698639  0.301361  1
  Zr  Zr2  1  0.698639  0.301361  0.301361  1
  Zr  Zr3  1  0.301361  0.301361  0.698639  1
  Zr  Zr4  1  0.698639  0.301361  0.698639  1
  Zr  Zr5  1  0.301361  0.698639  0.698639  1
  Ta  Ta6  1  0.879637  0.879637  0.361091  1
  Ta  Ta7  1  0.879637  0.361091  0.879637  1
  Ta  Ta8  1  0.361091  0.879637  0.879637  1
  Ta  Ta9  1  0.879637  0.879637  0.879637  1
  Zn  Zn10  1  0.120934  0.120934  0.637196  1
  Zn  Zn11  1  0.120934  0.637196  0.120934  1
  Zn  Zn12  1  0.637196  0.120934  0.120934  1
  Zn  Zn13  1  0.120934  0.120934  0.120934  1
  Ga  Ga14  1  0.657475  0.657475  0.027573  1
  Ga  Ga15  1  0.657475  0.027573  0.657475  1
  Ga  Ga16  1  0.027573  0.657475  0.657475  1
  Ga  Ga17  1  0.657475  0.657475  0.657475  1
  Ga  Ga18  1  0.337886  0.337886  0.986341  1
  Ga  Ga19  1  0.337886  0.986341  0.337886  1
  Ga  Ga20  1  0.986341  0.337886  0.337886  1
  Ga  Ga21  1  0.337886  0.337886  0.337886  1
  Ru  Ru22  1  0.000000  0.000000  0.000000  1
  Rh  Rh23  1  0.995250  0.995250  0.504750  1
  Rh  Rh24  1  0.504750  0.995250  0.504750  1
  Rh  Rh25  1  0.995250  0.504750  0.504750  1
  Rh  Rh26  1  0.504750  0.504750  0.995250  1
  Rh  Rh27  1  0.995250  0.504750  0.995250  1
  Rh  Rh28  1  0.504750  0.995250  0.995250  1
