# generated using pymatgen
data_Zr2BeCuNi5
_symmetry_space_group_name_H-M   'P 1'
_cell_length_a   4.64431752
_cell_length_b   4.81315632
_cell_length_c   6.34775166
_cell_angle_alpha   81.65797367
_cell_angle_beta   82.45631541
_cell_angle_gamma   121.40246471
_symmetry_Int_Tables_number   1
_chemical_formula_structural   Zr2BeCuNi5
_chemical_formula_sum   'Zr2 Be1 Cu1 Ni5'
_cell_volume   116.18012882
_cell_formula_units_Z   1
loop_
 _symmetry_equiv_pos_site_id
 _symmetry_equiv_pos_as_xyz
  1  'x, y, z'
loop_
 _atom_site_type_symbol
 _atom_site_label
 _atom_site_symmetry_multiplicity
 _atom_site_fract_x
 _atom_site_fract_y
 _atom_site_fract_z
 _atom_site_occupancy
  Zr  Zr0  1  0.607567  0.611497  0.229238  1
  Zr  Zr1  1  0.390378  0.391950  0.770786  1
  Be  Be2  1  0.499892  0.999925  0.504247  1
  Cu  Cu3  1  0.304748  0.970016  0.157777  1
  Ni  Ni4  1  0.999873  0.999879  0.499291  1
  Ni  Ni5  1  0.043112  0.708179  0.840358  1
  Ni  Ni6  1  0.700106  0.027931  0.838538  1
  Ni  Ni7  1  0.954011  0.291024  0.158905  1
  Ni  Ni8  1  0.000313  0.499600  0.500860  1
