# generated using pymatgen
data_Pr3Nd4Y(CdPt)2
_symmetry_space_group_name_H-M   'P 1'
_cell_length_a   10.01938277
_cell_length_b   10.01938302
_cell_length_c   10.00326500
_cell_angle_alpha   60.05319070
_cell_angle_beta   60.05318986
_cell_angle_gamma   59.89360780
_symmetry_Int_Tables_number   1
_chemical_formula_structural   Pr3Nd4Y(CdPt)2
_chemical_formula_sum   'Pr6 Nd8 Y2 Cd4 Pt4'
_cell_volume   710.07862862
_cell_formula_units_Z   2
loop_
 _symmetry_equiv_pos_site_id
 _symmetry_equiv_pos_as_xyz
  1  'x, y, z'
loop_
 _atom_site_type_symbol
 _atom_site_label
 _atom_site_symmetry_multiplicity
 _atom_site_fract_x
 _atom_site_fract_y
 _atom_site_fract_z
 _atom_site_occupancy
  Pr  Pr0  1  0.936831  0.563169  0.563169  1
  Pr  Pr1  1  0.563169  0.936831  0.936831  1
  Pr  Pr2  1  0.563169  0.936831  0.563169  1
  Pr  Pr3  1  0.936831  0.563169  0.936831  1
  Pr  Pr4  1  0.563120  0.563120  0.936880  1
  Pr  Pr5  1  0.936880  0.936880  0.563120  1
  Nd  Nd6  1  0.350518  0.350518  0.351508  1
  Nd  Nd7  1  0.350518  0.350518  0.947457  1
  Nd  Nd8  1  0.351508  0.947457  0.350518  1
  Nd  Nd9  1  0.947457  0.351508  0.350518  1
  Nd  Nd10  1  0.810675  0.189325  0.189325  1
  Nd  Nd11  1  0.189325  0.810675  0.810675  1
  Nd  Nd12  1  0.189325  0.810675  0.189325  1
  Nd  Nd13  1  0.810675  0.189325  0.810675  1
  Y  Y14  1  0.190921  0.190921  0.809079  1
  Y  Y15  1  0.809079  0.809079  0.190921  1
  Cd  Cd16  1  0.580727  0.580727  0.579292  1
  Cd  Cd17  1  0.580727  0.580727  0.259252  1
  Cd  Cd18  1  0.579292  0.259252  0.580727  1
  Cd  Cd19  1  0.259252  0.579292  0.580727  1
  Pt  Pt20  1  0.144820  0.144820  0.138038  1
  Pt  Pt21  1  0.144820  0.144820  0.572320  1
  Pt  Pt22  1  0.138038  0.572320  0.144820  1
  Pt  Pt23  1  0.572320  0.138038  0.144820  1
