# generated using pymatgen
data_Sm3Y(MgRh)4
_symmetry_space_group_name_H-M   'P 1'
_cell_length_a   4.16535800
_cell_length_b   7.20386971
_cell_length_c   8.60198980
_cell_angle_alpha   89.98836483
_cell_angle_beta   90.00000000
_cell_angle_gamma   90.00000000
_symmetry_Int_Tables_number   1
_chemical_formula_structural   Sm3Y(MgRh)4
_chemical_formula_sum   'Sm3 Y1 Mg4 Rh4'
_cell_volume   258.11729056
_cell_formula_units_Z   1
loop_
 _symmetry_equiv_pos_site_id
 _symmetry_equiv_pos_as_xyz
  1  'x, y, z'
loop_
 _atom_site_type_symbol
 _atom_site_label
 _atom_site_symmetry_multiplicity
 _atom_site_fract_x
 _atom_site_fract_y
 _atom_site_fract_z
 _atom_site_occupancy
  Sm  Sm0  1  0.250000  0.960445  0.322609  1
  Sm  Sm1  1  0.250000  0.460409  0.175481  1
  Sm  Sm2  1  0.750000  0.039834  0.678231  1
  Y  Y3  1  0.750000  0.540523  0.823322  1
  Mg  Mg4  1  0.250000  0.367337  0.559739  1
  Mg  Mg5  1  0.250000  0.865291  0.940809  1
  Mg  Mg6  1  0.750000  0.632793  0.442555  1
  Mg  Mg7  1  0.750000  0.134347  0.056982  1
  Rh  Rh8  1  0.250000  0.250621  0.871113  1
  Rh  Rh9  1  0.250000  0.745956  0.629846  1
  Rh  Rh10  1  0.750000  0.751233  0.127433  1
  Rh  Rh11  1  0.750000  0.251212  0.371882  1
