# generated using pymatgen
data_Ce4TmIr2Ru
_symmetry_space_group_name_H-M   'P 1'
_cell_length_a   11.01340900
_cell_length_b   11.01340900
_cell_length_c   6.28944400
_cell_angle_alpha   90.00000000
_cell_angle_beta   90.00000000
_cell_angle_gamma   90.00000000
_symmetry_Int_Tables_number   1
_chemical_formula_structural   Ce4TmIr2Ru
_chemical_formula_sum   'Ce16 Tm4 Ir8 Ru4'
_cell_volume   762.87922825
_cell_formula_units_Z   4
loop_
 _symmetry_equiv_pos_site_id
 _symmetry_equiv_pos_as_xyz
  1  'x, y, z'
loop_
 _atom_site_type_symbol
 _atom_site_label
 _atom_site_symmetry_multiplicity
 _atom_site_fract_x
 _atom_site_fract_y
 _atom_site_fract_z
 _atom_site_occupancy
  Ce  Ce0  1  0.289415  0.088806  0.377290  1
  Ce  Ce1  1  0.289415  0.911194  0.877290  1
  Ce  Ce2  1  0.710585  0.088806  0.877290  1
  Ce  Ce3  1  0.710585  0.911194  0.377290  1
  Ce  Ce4  1  0.588806  0.789415  0.877290  1
  Ce  Ce5  1  0.588806  0.210585  0.377290  1
  Ce  Ce6  1  0.411194  0.789415  0.377290  1
  Ce  Ce7  1  0.411194  0.210585  0.877290  1
  Ce  Ce8  1  0.210585  0.411194  0.622710  1
  Ce  Ce9  1  0.210585  0.588806  0.122710  1
  Ce  Ce10  1  0.789415  0.411194  0.122710  1
  Ce  Ce11  1  0.789415  0.588806  0.622710  1
  Ce  Ce12  1  0.911194  0.710585  0.122710  1
  Ce  Ce13  1  0.911194  0.289415  0.622710  1
  Ce  Ce14  1  0.088806  0.710585  0.622710  1
  Ce  Ce15  1  0.088806  0.289415  0.122710  1
  Tm  Tm16  1  0.000000  0.000000  0.500000  1
  Tm  Tm17  1  0.000000  0.000000  0.000000  1
  Tm  Tm18  1  0.500000  0.500000  0.000000  1
  Tm  Tm19  1  0.500000  0.500000  0.500000  1
  Ir  Ir20  1  0.845775  0.154225  0.250000  1
  Ir  Ir21  1  0.845775  0.845775  0.750000  1
  Ir  Ir22  1  0.154225  0.154225  0.750000  1
  Ir  Ir23  1  0.154225  0.845775  0.250000  1
  Ir  Ir24  1  0.654225  0.345775  0.750000  1
  Ir  Ir25  1  0.654225  0.654225  0.250000  1
  Ir  Ir26  1  0.345775  0.345775  0.250000  1
  Ir  Ir27  1  0.345775  0.654225  0.750000  1
  Ru  Ru28  1  0.500000  0.000000  0.121240  1
  Ru  Ru29  1  0.500000  0.000000  0.621240  1
  Ru  Ru30  1  0.000000  0.500000  0.878760  1
  Ru  Ru31  1  0.000000  0.500000  0.378760  1
