# generated using pymatgen
data_Ho16Mg2In2Ir3Pd
_symmetry_space_group_name_H-M   'P 1'
_cell_length_a   9.64236767
_cell_length_b   9.66827040
_cell_length_c   9.67434900
_cell_angle_alpha   59.97920348
_cell_angle_beta   59.89022542
_cell_angle_gamma   59.66875797
_symmetry_Int_Tables_number   1
_chemical_formula_structural   Ho16Mg2In2Ir3Pd
_chemical_formula_sum   'Ho16 Mg2 In2 Ir3 Pd1'
_cell_volume   635.49563401
_cell_formula_units_Z   1
loop_
 _symmetry_equiv_pos_site_id
 _symmetry_equiv_pos_as_xyz
  1  'x, y, z'
loop_
 _atom_site_type_symbol
 _atom_site_label
 _atom_site_symmetry_multiplicity
 _atom_site_fract_x
 _atom_site_fract_y
 _atom_site_fract_z
 _atom_site_occupancy
  Ho  Ho0  1  0.437968  0.432162  0.064936  1
  Ho  Ho1  1  0.654420  0.648565  0.048630  1
  Ho  Ho2  1  0.184862  0.811043  0.193590  1
  Ho  Ho3  1  0.062420  0.437842  0.062701  1
  Ho  Ho4  1  0.184862  0.811043  0.810505  1
  Ho  Ho5  1  0.062420  0.437842  0.437038  1
  Ho  Ho6  1  0.812191  0.189193  0.188527  1
  Ho  Ho7  1  0.654420  0.648565  0.648387  1
  Ho  Ho8  1  0.812191  0.189193  0.810090  1
  Ho  Ho9  1  0.181978  0.190843  0.813590  1
  Ho  Ho10  1  0.042715  0.652051  0.652618  1
  Ho  Ho11  1  0.439864  0.062776  0.063723  1
  Ho  Ho12  1  0.062215  0.061102  0.438342  1
  Ho  Ho13  1  0.654355  0.048201  0.648723  1
  Ho  Ho14  1  0.809652  0.808725  0.190812  1
  Ho  Ho15  1  0.439864  0.062776  0.433637  1
  Mg  Mg16  1  0.422016  0.422400  0.419798  1
  Mg  Mg17  1  0.422016  0.422400  0.735787  1
  In  In18  1  0.416631  0.746251  0.418560  1
  In  In19  1  0.747559  0.416602  0.417920  1
  Ir  Ir20  1  0.856212  0.858242  0.859208  1
  Ir  Ir21  1  0.855904  0.426151  0.858971  1
  Ir  Ir22  1  0.856212  0.858242  0.426336  1
  Pd  Pd23  1  0.427059  0.857792  0.857574  1
