# generated using pymatgen
data_DyAl8SiAu4
_symmetry_space_group_name_H-M   'P 1'
_cell_length_a   6.03331026
_cell_length_b   6.03329824
_cell_length_c   14.92372208
_cell_angle_alpha   100.95436201
_cell_angle_beta   100.95442315
_cell_angle_gamma   90.06223055
_symmetry_Int_Tables_number   1
_chemical_formula_structural   DyAl8SiAu4
_chemical_formula_sum   'Dy2 Al16 Si2 Au8'
_cell_volume   523.22833063
_cell_formula_units_Z   2
loop_
 _symmetry_equiv_pos_site_id
 _symmetry_equiv_pos_as_xyz
  1  'x, y, z'
loop_
 _atom_site_type_symbol
 _atom_site_label
 _atom_site_symmetry_multiplicity
 _atom_site_fract_x
 _atom_site_fract_y
 _atom_site_fract_z
 _atom_site_occupancy
  Dy  Dy0  1  0.750864  0.249136  0.500000  1
  Dy  Dy1  1  0.249136  0.750863  0.500000  1
  Al  Al2  1  0.298928  0.298928  0.105590  1
  Al  Al3  1  0.806991  0.305943  0.106731  1
  Al  Al4  1  0.305943  0.806991  0.106731  1
  Al  Al5  1  0.800120  0.800121  0.105682  1
  Al  Al6  1  0.406598  0.406598  0.315449  1
  Al  Al7  1  0.908637  0.404674  0.316095  1
  Al  Al8  1  0.404674  0.908638  0.316096  1
  Al  Al9  1  0.911359  0.911358  0.315048  1
  Al  Al10  1  0.088640  0.088641  0.684952  1
  Al  Al11  1  0.595326  0.091362  0.683905  1
  Al  Al12  1  0.091362  0.595326  0.683905  1
  Al  Al13  1  0.593402  0.593402  0.684551  1
  Al  Al14  1  0.199878  0.199879  0.894317  1
  Al  Al15  1  0.694057  0.193008  0.893269  1
  Al  Al16  1  0.193008  0.694057  0.893269  1
  Al  Al17  1  0.701071  0.701072  0.894410  1
  Si  Si18  1  0.205912  0.205912  0.416373  1
  Si  Si19  1  0.794088  0.794088  0.583626  1
  Au  Au20  1  0.000000  0.999999  0.000000  1
  Au  Au21  1  0.500000  0.500000  0.000000  1
  Au  Au22  1  0.606220  0.107141  0.211359  1
  Au  Au23  1  0.107142  0.606221  0.211359  1
  Au  Au24  1  0.706455  0.706455  0.414849  1
  Au  Au25  1  0.293544  0.293545  0.585150  1
  Au  Au26  1  0.892859  0.393780  0.788640  1
  Au  Au27  1  0.393780  0.892858  0.788640  1
