# generated using pymatgen
data_Cs6DyTe4Br
_symmetry_space_group_name_H-M   'P 1'
_cell_length_a   12.44944900
_cell_length_b   12.44945003
_cell_length_c   9.17918700
_cell_angle_alpha   90.00000000
_cell_angle_beta   90.00000000
_cell_angle_gamma   119.99999992
_symmetry_Int_Tables_number   1
_chemical_formula_structural   Cs6DyTe4Br
_chemical_formula_sum   'Cs12 Dy2 Te8 Br2'
_cell_volume   1232.06932887
_cell_formula_units_Z   2
loop_
 _symmetry_equiv_pos_site_id
 _symmetry_equiv_pos_as_xyz
  1  'x, y, z'
loop_
 _atom_site_type_symbol
 _atom_site_label
 _atom_site_symmetry_multiplicity
 _atom_site_fract_x
 _atom_site_fract_y
 _atom_site_fract_z
 _atom_site_occupancy
  Cs  Cs0  1  0.128092  0.871908  0.513018  1
  Cs  Cs1  1  0.743813  0.871908  0.513018  1
  Cs  Cs2  1  0.945233  0.472617  0.317326  1
  Cs  Cs3  1  0.527383  0.472617  0.317326  1
  Cs  Cs4  1  0.871908  0.743813  0.013018  1
  Cs  Cs5  1  0.256187  0.128092  0.013018  1
  Cs  Cs6  1  0.527383  0.054767  0.317326  1
  Cs  Cs7  1  0.128092  0.256187  0.513018  1
  Cs  Cs8  1  0.871908  0.128092  0.013018  1
  Cs  Cs9  1  0.054767  0.527383  0.817326  1
  Cs  Cs10  1  0.472617  0.945233  0.817326  1
  Cs  Cs11  1  0.472617  0.527383  0.817326  1
  Dy  Dy12  1  0.666667  0.333333  0.714579  1
  Dy  Dy13  1  0.333333  0.666667  0.214579  1
  Te  Te14  1  0.408335  0.204168  0.608879  1
  Te  Te15  1  0.591665  0.795832  0.108879  1
  Te  Te16  1  0.666667  0.333333  0.036795  1
  Te  Te17  1  0.795832  0.591665  0.608879  1
  Te  Te18  1  0.204168  0.408335  0.108879  1
  Te  Te19  1  0.333333  0.666667  0.536795  1
  Te  Te20  1  0.204168  0.795832  0.108879  1
  Te  Te21  1  0.795832  0.204168  0.608879  1
  Br  Br22  1  0.000000  0.000000  0.271561  1
  Br  Br23  1  0.000000  0.000000  0.771561  1
