# generated using pymatgen
data_La2Ga(AsRh2)6
_symmetry_space_group_name_H-M   'P 1'
_cell_length_a   10.03972300
_cell_length_b   10.03972411
_cell_length_c   4.00842000
_cell_angle_alpha   90.00000000
_cell_angle_beta   90.00000000
_cell_angle_gamma   120.00001283
_symmetry_Int_Tables_number   1
_chemical_formula_structural   La2Ga(AsRh2)6
_chemical_formula_sum   'La2 Ga1 As6 Rh12'
_cell_volume   349.90270915
_cell_formula_units_Z   1
loop_
 _symmetry_equiv_pos_site_id
 _symmetry_equiv_pos_as_xyz
  1  'x, y, z'
loop_
 _atom_site_type_symbol
 _atom_site_label
 _atom_site_symmetry_multiplicity
 _atom_site_fract_x
 _atom_site_fract_y
 _atom_site_fract_z
 _atom_site_occupancy
  La  La0  1  0.333333  0.666667  0.750317  1
  La  La1  1  0.666667  0.333333  0.249683  1
  Ga  Ga2  1  0.000000  0.000000  0.500000  1
  As  As3  1  0.887487  0.600815  0.750548  1
  As  As4  1  0.399185  0.286674  0.750548  1
  As  As5  1  0.713326  0.112513  0.750548  1
  As  As6  1  0.112513  0.399185  0.249452  1
  As  As7  1  0.600815  0.713326  0.249452  1
  As  As8  1  0.286674  0.887487  0.249452  1
  Rh  Rh9  1  0.617033  0.555342  0.751559  1
  Rh  Rh10  1  0.444658  0.061692  0.751559  1
  Rh  Rh11  1  0.938308  0.382967  0.751559  1
  Rh  Rh12  1  0.382967  0.444658  0.248441  1
  Rh  Rh13  1  0.555342  0.938308  0.248441  1
  Rh  Rh14  1  0.061692  0.617033  0.248441  1
  Rh  Rh15  1  0.121008  0.849792  0.749505  1
  Rh  Rh16  1  0.150208  0.271214  0.749505  1
  Rh  Rh17  1  0.728786  0.878992  0.749505  1
  Rh  Rh18  1  0.878992  0.150208  0.250495  1
  Rh  Rh19  1  0.849792  0.728786  0.250495  1
  Rh  Rh20  1  0.271214  0.121008  0.250495  1
