# generated using pymatgen
data_NaPrNd5RhI12
_symmetry_space_group_name_H-M   'P 1'
_cell_length_a   10.14050806
_cell_length_b   10.01903023
_cell_length_c   10.01636471
_cell_angle_alpha   106.68965696
_cell_angle_beta   107.19391838
_cell_angle_gamma   106.93717666
_symmetry_Int_Tables_number   1
_chemical_formula_structural   NaPrNd5RhI12
_chemical_formula_sum   'Na1 Pr1 Nd5 Rh1 I12'
_cell_volume   848.86780988
_cell_formula_units_Z   1
loop_
 _symmetry_equiv_pos_site_id
 _symmetry_equiv_pos_as_xyz
  1  'x, y, z'
loop_
 _atom_site_type_symbol
 _atom_site_label
 _atom_site_symmetry_multiplicity
 _atom_site_fract_x
 _atom_site_fract_y
 _atom_site_fract_z
 _atom_site_occupancy
  Na  Na0  1  0.500247  0.499974  0.499566  1
  Pr  Pr1  1  0.316982  0.106447  0.029074  1
  Nd  Nd2  1  0.899234  0.971880  0.696548  1
  Nd  Nd3  1  0.971345  0.697458  0.899369  1
  Nd  Nd4  1  0.683018  0.893715  0.970917  1
  Nd  Nd5  1  0.100904  0.028169  0.303678  1
  Nd  Nd6  1  0.027319  0.302228  0.100905  1
  Rh  Rh7  1  0.999113  0.999709  0.999963  1
  I  I8  1  0.547766  0.853732  0.625688  1
  I  I9  1  0.853319  0.626346  0.546467  1
  I  I10  1  0.627059  0.546144  0.853563  1
  I  I11  1  0.453299  0.146189  0.375517  1
  I  I12  1  0.147729  0.374000  0.453990  1
  I  I13  1  0.371628  0.455416  0.146366  1
  I  I14  1  0.683317  0.225945  0.074672  1
  I  I15  1  0.223318  0.073698  0.679121  1
  I  I16  1  0.075324  0.682001  0.225581  1
  I  I17  1  0.316268  0.772214  0.924304  1
  I  I18  1  0.777328  0.926562  0.319921  1
  I  I19  1  0.925481  0.318173  0.774791  1
