# generated using pymatgen
data_Lu3Th(Ga3Rh)6
_symmetry_space_group_name_H-M   'P 1'
_cell_length_a   7.58853926
_cell_length_b   7.59397211
_cell_length_c   9.48963700
_cell_angle_alpha   90.00000000
_cell_angle_beta   90.00000000
_cell_angle_gamma   119.76163522
_symmetry_Int_Tables_number   1
_chemical_formula_structural   Lu3Th(Ga3Rh)6
_chemical_formula_sum   'Lu3 Th1 Ga18 Rh6'
_cell_volume   474.72877126
_cell_formula_units_Z   1
loop_
 _symmetry_equiv_pos_site_id
 _symmetry_equiv_pos_as_xyz
  1  'x, y, z'
loop_
 _atom_site_type_symbol
 _atom_site_label
 _atom_site_symmetry_multiplicity
 _atom_site_fract_x
 _atom_site_fract_y
 _atom_site_fract_z
 _atom_site_occupancy
  Lu  Lu0  1  0.002655  0.330265  0.750000  1
  Lu  Lu1  1  0.671277  0.996760  0.250000  1
  Lu  Lu2  1  0.329236  0.002680  0.750000  1
  Th  Th3  1  0.996604  0.669156  0.250000  1
  Ga  Ga4  1  0.342733  0.547935  0.250000  1
  Ga  Ga5  1  0.659883  0.449821  0.750000  1
  Ga  Ga6  1  0.542948  0.335764  0.250000  1
  Ga  Ga7  1  0.450237  0.662571  0.750000  1
  Ga  Ga8  1  0.999252  0.328035  0.075956  1
  Ga  Ga9  1  0.001132  0.664932  0.912914  1
  Ga  Ga10  1  0.001132  0.664932  0.587086  1
  Ga  Ga11  1  0.342112  0.005392  0.423692  1
  Ga  Ga12  1  0.999252  0.328035  0.424044  1
  Ga  Ga13  1  0.665377  0.002273  0.580538  1
  Ga  Ga14  1  0.665377  0.002273  0.919462  1
  Ga  Ga15  1  0.342112  0.005392  0.076308  1
  Ga  Ga16  1  0.330787  0.330927  0.569949  1
  Ga  Ga17  1  0.661783  0.667730  0.439767  1
  Ga  Ga18  1  0.661783  0.667730  0.060233  1
  Ga  Ga19  1  0.330787  0.330927  0.930051  1
  Ga  Ga20  1  0.129927  0.132585  0.250000  1
  Ga  Ga21  1  0.872332  0.875433  0.750000  1
  Rh  Rh22  1  0.673777  0.330878  0.999792  1
  Rh  Rh23  1  0.325872  0.670833  0.000024  1
  Rh  Rh24  1  0.325872  0.670833  0.499976  1
  Rh  Rh25  1  0.673777  0.330878  0.500208  1
  Rh  Rh26  1  0.000992  0.997516  0.999872  1
  Rh  Rh27  1  0.000992  0.997516  0.500128  1
