# generated using pymatgen
data_Zr4TcOs2Ru
_symmetry_space_group_name_H-M   'P 1'
_cell_length_a   6.55350600
_cell_length_b   4.66012700
_cell_length_c   9.31923700
_cell_angle_alpha   90.00000000
_cell_angle_beta   90.00000000
_cell_angle_gamma   90.00000000
_symmetry_Int_Tables_number   1
_chemical_formula_structural   Zr4TcOs2Ru
_chemical_formula_sum   'Zr8 Tc2 Os4 Ru2'
_cell_volume   284.61108463
_cell_formula_units_Z   2
loop_
 _symmetry_equiv_pos_site_id
 _symmetry_equiv_pos_as_xyz
  1  'x, y, z'
loop_
 _atom_site_type_symbol
 _atom_site_label
 _atom_site_symmetry_multiplicity
 _atom_site_fract_x
 _atom_site_fract_y
 _atom_site_fract_z
 _atom_site_occupancy
  Zr  Zr0  1  0.000511  0.750001  0.125831  1
  Zr  Zr1  1  0.499326  0.750001  0.125840  1
  Zr  Zr2  1  0.999325  0.250000  0.374160  1
  Zr  Zr3  1  0.500511  0.250000  0.374169  1
  Zr  Zr4  1  0.500578  0.750001  0.624069  1
  Zr  Zr5  1  0.999591  0.750001  0.624085  1
  Zr  Zr6  1  0.499591  0.250000  0.875915  1
  Zr  Zr7  1  0.000578  0.250000  0.875931  1
  Tc  Tc8  1  0.249953  0.250000  0.124170  1
  Tc  Tc9  1  0.749953  0.750001  0.375830  1
  Os  Os10  1  0.749946  0.250000  0.124245  1
  Os  Os11  1  0.249946  0.750001  0.375756  1
  Os  Os12  1  0.750056  0.250000  0.625803  1
  Os  Os13  1  0.250056  0.750001  0.874197  1
  Ru  Ru14  1  0.250039  0.250000  0.625721  1
  Ru  Ru15  1  0.750039  0.750001  0.874279  1
