# generated using pymatgen
data_Y16Sc4Ir7Rh5
_symmetry_space_group_name_H-M   'P 1'
_cell_length_a   10.81287280
_cell_length_b   10.81287280
_cell_length_c   6.31000902
_cell_angle_alpha   89.99318378
_cell_angle_beta   89.99318378
_cell_angle_gamma   90.04351395
_symmetry_Int_Tables_number   1
_chemical_formula_structural   Y16Sc4Ir7Rh5
_chemical_formula_sum   'Y16 Sc4 Ir7 Rh5'
_cell_volume   737.75478826
_cell_formula_units_Z   1
loop_
 _symmetry_equiv_pos_site_id
 _symmetry_equiv_pos_as_xyz
  1  'x, y, z'
loop_
 _atom_site_type_symbol
 _atom_site_label
 _atom_site_symmetry_multiplicity
 _atom_site_fract_x
 _atom_site_fract_y
 _atom_site_fract_z
 _atom_site_occupancy
  Y  Y0  1  0.286295  0.086950  0.379181  1
  Y  Y1  1  0.286530  0.912852  0.878851  1
  Y  Y2  1  0.712701  0.086707  0.878393  1
  Y  Y3  1  0.712931  0.911507  0.379248  1
  Y  Y4  1  0.586976  0.786595  0.879129  1
  Y  Y5  1  0.585555  0.213758  0.379249  1
  Y  Y6  1  0.412715  0.786389  0.379035  1
  Y  Y7  1  0.412919  0.213516  0.879071  1
  Y  Y8  1  0.213405  0.413024  0.620871  1
  Y  Y9  1  0.213611  0.587285  0.120965  1
  Y  Y10  1  0.786242  0.414445  0.120751  1
  Y  Y11  1  0.786484  0.587081  0.620929  1
  Y  Y12  1  0.913050  0.713705  0.120819  1
  Y  Y13  1  0.913293  0.287299  0.621607  1
  Y  Y14  1  0.087148  0.713470  0.621149  1
  Y  Y15  1  0.088493  0.287069  0.120752  1
  Sc  Sc16  1  0.000483  0.999435  0.500587  1
  Sc  Sc17  1  0.000565  0.999517  0.999413  1
  Sc  Sc18  1  0.499950  0.499957  0.000024  1
  Sc  Sc19  1  0.500043  0.500050  0.499976  1
  Ir  Ir20  1  0.852964  0.853903  0.750105  1
  Ir  Ir21  1  0.146097  0.147036  0.749895  1
  Ir  Ir22  1  0.146724  0.853276  0.250000  1
  Ir  Ir23  1  0.647575  0.352425  0.750000  1
  Ir  Ir24  1  0.647127  0.646899  0.249854  1
  Ir  Ir25  1  0.353101  0.352873  0.250146  1
  Ir  Ir26  1  0.353133  0.646867  0.750000  1
  Rh  Rh27  1  0.853235  0.146765  0.250000  1
  Rh  Rh28  1  0.500536  0.000168  0.125367  1
  Rh  Rh29  1  0.500404  0.000118  0.624705  1
  Rh  Rh30  1  0.999882  0.499596  0.875295  1
  Rh  Rh31  1  0.999832  0.499464  0.374633  1
