# generated using pymatgen
data_Ho2Er18Ir7Ru5
_symmetry_space_group_name_H-M   'P 1'
_cell_length_a   10.74206844
_cell_length_b   10.74129006
_cell_length_c   6.36641302
_cell_angle_alpha   89.96377329
_cell_angle_beta   89.97477671
_cell_angle_gamma   90.05059807
_symmetry_Int_Tables_number   1
_chemical_formula_structural   Ho2Er18Ir7Ru5
_chemical_formula_sum   'Ho2 Er18 Ir7 Ru5'
_cell_volume   734.57961290
_cell_formula_units_Z   1
loop_
 _symmetry_equiv_pos_site_id
 _symmetry_equiv_pos_as_xyz
  1  'x, y, z'
loop_
 _atom_site_type_symbol
 _atom_site_label
 _atom_site_symmetry_multiplicity
 _atom_site_fract_x
 _atom_site_fract_y
 _atom_site_fract_z
 _atom_site_occupancy
  Ho  Ho0  1  0.293470  0.086235  0.377218  1
  Ho  Ho1  1  0.292907  0.913586  0.877332  1
  Er  Er2  1  0.707259  0.086515  0.877604  1
  Er  Er3  1  0.706980  0.913976  0.376393  1
  Er  Er4  1  0.586372  0.793483  0.877365  1
  Er  Er5  1  0.587143  0.206797  0.377390  1
  Er  Er6  1  0.413719  0.793321  0.377242  1
  Er  Er7  1  0.413630  0.206541  0.876664  1
  Er  Er8  1  0.206476  0.413766  0.622674  1
  Er  Er9  1  0.206531  0.586316  0.122801  1
  Er  Er10  1  0.793263  0.412981  0.122619  1
  Er  Er11  1  0.793581  0.586455  0.623313  1
  Er  Er12  1  0.913837  0.706467  0.122667  1
  Er  Er13  1  0.913445  0.292763  0.622361  1
  Er  Er14  1  0.086292  0.706984  0.622591  1
  Er  Er15  1  0.085932  0.293087  0.123549  1
  Er  Er16  1  0.999464  0.000872  0.499364  1
  Er  Er17  1  0.998983  0.000466  0.000676  1
  Er  Er18  1  0.500173  0.500052  0.000101  1
  Er  Er19  1  0.499934  0.499832  0.499895  1
  Ir  Ir20  1  0.846783  0.846480  0.749814  1
  Ir  Ir21  1  0.153367  0.153361  0.750379  1
  Ir  Ir22  1  0.153006  0.846677  0.250218  1
  Ir  Ir23  1  0.652174  0.347796  0.750017  1
  Ir  Ir24  1  0.653020  0.652745  0.249758  1
  Ir  Ir25  1  0.347290  0.347141  0.250157  1
  Ir  Ir26  1  0.347324  0.652563  0.749915  1
  Ru  Ru27  1  0.847455  0.152517  0.249986  1
  Ru  Ru28  1  0.500329  0.000225  0.122017  1
  Ru  Ru29  1  0.500087  0.000013  0.622118  1
  Ru  Ru30  1  0.999993  0.500094  0.877853  1
  Ru  Ru31  1  0.999786  0.499891  0.377948  1
