# generated using pymatgen
data_Nd9Lu11Si15As
_symmetry_space_group_name_H-M   'P 1'
_cell_length_a   7.69011546
_cell_length_b   7.73249407
_cell_length_c   14.17421958
_cell_angle_alpha   89.17266818
_cell_angle_beta   90.49702759
_cell_angle_gamma   90.14241785
_symmetry_Int_Tables_number   1
_chemical_formula_structural   Nd9Lu11Si15As
_chemical_formula_sum   'Nd9 Lu11 Si15 As1'
_cell_volume   842.73063895
_cell_formula_units_Z   1
loop_
 _symmetry_equiv_pos_site_id
 _symmetry_equiv_pos_as_xyz
  1  'x, y, z'
loop_
 _atom_site_type_symbol
 _atom_site_label
 _atom_site_symmetry_multiplicity
 _atom_site_fract_x
 _atom_site_fract_y
 _atom_site_fract_z
 _atom_site_occupancy
  Nd  Nd0  1  0.011170  0.860224  0.126603  1
  Nd  Nd1  1  0.640778  0.991094  0.462045  1
  Nd  Nd2  1  0.359978  0.004333  0.955582  1
  Nd  Nd3  1  0.994180  0.644641  0.539410  1
  Nd  Nd4  1  0.493275  0.855146  0.211293  1
  Nd  Nd5  1  0.510810  0.149161  0.712519  1
  Nd  Nd6  1  0.855590  0.491816  0.788343  1
  Nd  Nd7  1  0.137821  0.504988  0.290722  1
  Nd  Nd8  1  0.008111  0.357249  0.040608  1
  Lu  Lu9  1  0.490503  0.356473  0.122775  1
  Lu  Lu10  1  0.990845  0.145148  0.628269  1
  Lu  Lu11  1  0.859397  0.006913  0.873055  1
  Lu  Lu12  1  0.142981  0.988724  0.378023  1
  Lu  Lu13  1  0.503393  0.643784  0.621508  1
  Lu  Lu14  1  0.360896  0.492507  0.873661  1
  Lu  Lu15  1  0.643960  0.503322  0.376666  1
  Lu  Lu16  1  0.316290  0.325095  0.499164  1
  Lu  Lu17  1  0.180909  0.818613  0.750275  1
  Lu  Lu18  1  0.815280  0.181871  0.251989  1
  Lu  Lu19  1  0.683695  0.679220  0.999137  1
  Si  Si20  1  0.708030  0.064039  0.060340  1
  Si  Si21  1  0.938945  0.287097  0.439228  1
  Si  Si22  1  0.440533  0.206763  0.313873  1
  Si  Si23  1  0.562158  0.788173  0.810737  1
  Si  Si24  1  0.210598  0.443081  0.686408  1
  Si  Si25  1  0.781918  0.555573  0.188244  1
  Si  Si26  1  0.062300  0.704832  0.933688  1
  Si  Si27  1  0.795393  0.851389  0.684799  1
  Si  Si28  1  0.207374  0.155677  0.194265  1
  Si  Si29  1  0.847688  0.797379  0.318613  1
  Si  Si30  1  0.354483  0.690602  0.426142  1
  Si  Si31  1  0.650272  0.294419  0.936858  1
  Si  Si32  1  0.701804  0.352408  0.564397  1
  Si  Si33  1  0.301918  0.646358  0.056900  1
  Si  Si34  1  0.149033  0.205160  0.813365  1
  As  As35  1  0.287694  0.956724  0.570496  1
