# generated using pymatgen
data_Eu5ZnRh2
_symmetry_space_group_name_H-M   'P 1'
_cell_length_a   8.97298877
_cell_length_b   8.97298791
_cell_length_c   8.97298841
_cell_angle_alpha   127.21007761
_cell_angle_beta   127.21008363
_cell_angle_gamma   77.90820641
_symmetry_Int_Tables_number   1
_chemical_formula_structural   Eu5ZnRh2
_chemical_formula_sum   'Eu10 Zn2 Rh4'
_cell_volume   444.12895096
_cell_formula_units_Z   2
loop_
 _symmetry_equiv_pos_site_id
 _symmetry_equiv_pos_as_xyz
  1  'x, y, z'
loop_
 _atom_site_type_symbol
 _atom_site_label
 _atom_site_symmetry_multiplicity
 _atom_site_fract_x
 _atom_site_fract_y
 _atom_site_fract_z
 _atom_site_occupancy
  Eu  Eu0  1  0.527809  0.027809  0.827808  1
  Eu  Eu1  1  0.200000  0.700000  0.172192  1
  Eu  Eu2  1  0.027809  0.200000  0.500000  1
  Eu  Eu3  1  0.700000  0.527809  0.500000  1
  Eu  Eu4  1  0.472191  0.972191  0.172192  1
  Eu  Eu5  1  0.800000  0.300000  0.827808  1
  Eu  Eu6  1  0.972191  0.800000  0.500000  1
  Eu  Eu7  1  0.300000  0.472191  0.500000  1
  Eu  Eu8  1  0.500000  0.500000  0.000000  1
  Eu  Eu9  1  0.000000  0.000000  0.000000  1
  Zn  Zn10  1  0.250000  0.250000  0.000000  1
  Zn  Zn11  1  0.750000  0.750000  0.000000  1
  Rh  Rh12  1  0.866837  0.366837  0.233673  1
  Rh  Rh13  1  0.133163  0.633163  0.766327  1
  Rh  Rh14  1  0.366837  0.133163  0.500000  1
  Rh  Rh15  1  0.633163  0.866837  0.500000  1
