# generated using pymatgen
data_Tb8Dy4Co4SnRh
_symmetry_space_group_name_H-M   'P 1'
_cell_length_a   8.36330171
_cell_length_b   8.36330182
_cell_length_c   8.36330142
_cell_angle_alpha   110.78611646
_cell_angle_beta   110.56973977
_cell_angle_gamma   107.08393579
_symmetry_Int_Tables_number   1
_chemical_formula_structural   Tb8Dy4Co4SnRh
_chemical_formula_sum   'Tb8 Dy4 Co4 Sn1 Rh1'
_cell_volume   449.72485668
_cell_formula_units_Z   1
loop_
 _symmetry_equiv_pos_site_id
 _symmetry_equiv_pos_as_xyz
  1  'x, y, z'
loop_
 _atom_site_type_symbol
 _atom_site_label
 _atom_site_symmetry_multiplicity
 _atom_site_fract_x
 _atom_site_fract_y
 _atom_site_fract_z
 _atom_site_occupancy
  Tb  Tb0  1  0.186478  0.293469  0.479948  1
  Tb  Tb1  1  0.813522  0.706531  0.520052  1
  Tb  Tb2  1  0.186478  0.706531  0.893008  1
  Tb  Tb3  1  0.813522  0.293469  0.106992  1
  Tb  Tb4  1  0.313192  0.619470  0.306279  1
  Tb  Tb5  1  0.686808  0.380530  0.693721  1
  Tb  Tb6  1  0.313192  0.006913  0.693721  1
  Tb  Tb7  1  0.686808  0.993087  0.306279  1
  Dy  Dy8  1  0.404138  0.209169  0.194970  1
  Dy  Dy9  1  0.595862  0.790831  0.805030  1
  Dy  Dy10  1  0.014200  0.209169  0.805030  1
  Dy  Dy11  1  0.985800  0.790831  0.194970  1
  Co  Co12  1  0.379775  0.000000  0.379775  1
  Co  Co13  1  0.620225  0.000000  0.620225  1
  Co  Co14  1  0.111501  0.611501  0.500000  1
  Co  Co15  1  0.888499  0.388499  0.500000  1
  Sn  Sn16  1  0.500000  0.500000  0.000000  1
  Rh  Rh17  1  0.000000  0.000000  0.000000  1
