# generated using pymatgen
data_Tm6Zn21Cu2C
_symmetry_space_group_name_H-M   'P 1'
_cell_length_a   8.87988950
_cell_length_b   8.87988869
_cell_length_c   8.90264200
_cell_angle_alpha   59.91519470
_cell_angle_beta   59.91519772
_cell_angle_gamma   60.01576495
_symmetry_Int_Tables_number   1
_chemical_formula_structural   Tm6Zn21Cu2C
_chemical_formula_sum   'Tm6 Zn21 Cu2 C1'
_cell_volume   495.80705853
_cell_formula_units_Z   1
loop_
 _symmetry_equiv_pos_site_id
 _symmetry_equiv_pos_as_xyz
  1  'x, y, z'
loop_
 _atom_site_type_symbol
 _atom_site_label
 _atom_site_symmetry_multiplicity
 _atom_site_fract_x
 _atom_site_fract_y
 _atom_site_fract_z
 _atom_site_occupancy
  Tm  Tm0  1  0.693609  0.306391  0.307322  1
  Tm  Tm1  1  0.306391  0.693609  0.692678  1
  Tm  Tm2  1  0.306391  0.693609  0.307322  1
  Tm  Tm3  1  0.693609  0.306391  0.692678  1
  Tm  Tm4  1  0.305405  0.305405  0.694595  1
  Tm  Tm5  1  0.694595  0.694595  0.305405  1
  Zn  Zn6  1  0.119533  0.119533  0.118411  1
  Zn  Zn7  1  0.880467  0.880467  0.881589  1
  Zn  Zn8  1  0.119533  0.119533  0.642523  1
  Zn  Zn9  1  0.126427  0.641558  0.116009  1
  Zn  Zn10  1  0.880467  0.880467  0.357477  1
  Zn  Zn11  1  0.873573  0.358442  0.883991  1
  Zn  Zn12  1  0.641558  0.126427  0.116009  1
  Zn  Zn13  1  0.358442  0.873573  0.883991  1
  Zn  Zn14  1  0.500000  0.000000  0.000000  1
  Zn  Zn15  1  0.000000  0.500000  0.500000  1
  Zn  Zn16  1  0.000000  0.500000  0.000000  1
  Zn  Zn17  1  0.500000  0.000000  0.500000  1
  Zn  Zn18  1  0.000000  0.000000  0.500000  1
  Zn  Zn19  1  0.330644  0.330644  0.324507  1
  Zn  Zn20  1  0.669356  0.669356  0.675493  1
  Zn  Zn21  1  0.330644  0.330644  0.014206  1
  Zn  Zn22  1  0.328805  0.013833  0.328681  1
  Zn  Zn23  1  0.669356  0.669356  0.985794  1
  Zn  Zn24  1  0.671195  0.986167  0.671319  1
  Zn  Zn25  1  0.013833  0.328805  0.328681  1
  Zn  Zn26  1  0.986167  0.671195  0.671319  1
  Cu  Cu27  1  0.500000  0.500000  0.000000  1
  Cu  Cu28  1  0.000000  0.000000  0.000000  1
  C  C29  1  0.500000  0.500000  0.500000  1
