# generated using pymatgen
data_Pr5NdIn6O18
_symmetry_space_group_name_H-M   'P 1'
_cell_length_a   6.57931700
_cell_length_b   6.57931791
_cell_length_c   12.56025700
_cell_angle_alpha   90.00000000
_cell_angle_beta   90.00000000
_cell_angle_gamma   119.99999040
_symmetry_Int_Tables_number   1
_chemical_formula_structural   Pr5NdIn6O18
_chemical_formula_sum   'Pr5 Nd1 In6 O18'
_cell_volume   470.85900766
_cell_formula_units_Z   1
loop_
 _symmetry_equiv_pos_site_id
 _symmetry_equiv_pos_as_xyz
  1  'x, y, z'
loop_
 _atom_site_type_symbol
 _atom_site_label
 _atom_site_symmetry_multiplicity
 _atom_site_fract_x
 _atom_site_fract_y
 _atom_site_fract_z
 _atom_site_occupancy
  Pr  Pr0  1  0.666667  0.333333  0.960743  1
  Pr  Pr1  1  0.333333  0.666667  0.461196  1
  Pr  Pr2  1  0.666667  0.333333  0.461196  1
  Pr  Pr3  1  0.333333  0.666667  0.960743  1
  Pr  Pr4  1  0.000000  0.000000  0.998833  1
  Nd  Nd5  1  0.000000  0.000000  0.498160  1
  In  In6  1  0.666726  0.666726  0.726031  1
  In  In7  1  0.000000  0.333274  0.726031  1
  In  In8  1  0.333579  0.333579  0.227534  1
  In  In9  1  0.000000  0.666421  0.227534  1
  In  In10  1  0.333274  0.000000  0.726031  1
  In  In11  1  0.666421  0.000000  0.227534  1
  O  O12  1  0.692132  0.692132  0.894280  1
  O  O13  1  0.000000  0.307868  0.894280  1
  O  O14  1  0.306036  0.306036  0.395280  1
  O  O15  1  0.000000  0.693964  0.395280  1
  O  O16  1  0.307868  0.000000  0.894280  1
  O  O17  1  0.693964  0.000000  0.395280  1
  O  O18  1  0.644088  0.644088  0.559310  1
  O  O19  1  0.000000  0.355912  0.559310  1
  O  O20  1  0.359401  0.359401  0.060584  1
  O  O21  1  0.000000  0.640599  0.060584  1
  O  O22  1  0.355912  0.000000  0.559310  1
  O  O23  1  0.640599  0.000000  0.060584  1
  O  O24  1  0.000000  0.000000  0.699170  1
  O  O25  1  0.000000  0.000000  0.200055  1
  O  O26  1  0.666667  0.333333  0.749229  1
  O  O27  1  0.333333  0.666667  0.252088  1
  O  O28  1  0.666667  0.333333  0.252088  1
  O  O29  1  0.333333  0.666667  0.749229  1
