# generated using pymatgen
data_Tb10In3Pb3Cl2
_symmetry_space_group_name_H-M   'P 1'
_cell_length_a   9.17875444
_cell_length_b   9.20766193
_cell_length_c   6.73104100
_cell_angle_alpha   90.00000000
_cell_angle_beta   90.00000000
_cell_angle_gamma   119.86064063
_symmetry_Int_Tables_number   1
_chemical_formula_structural   Tb10In3Pb3Cl2
_chemical_formula_sum   'Tb10 In3 Pb3 Cl2'
_cell_volume   493.34887583
_cell_formula_units_Z   1
loop_
 _symmetry_equiv_pos_site_id
 _symmetry_equiv_pos_as_xyz
  1  'x, y, z'
loop_
 _atom_site_type_symbol
 _atom_site_label
 _atom_site_symmetry_multiplicity
 _atom_site_fract_x
 _atom_site_fract_y
 _atom_site_fract_z
 _atom_site_occupancy
  Tb  Tb0  1  0.740705  0.740972  0.250000  1
  Tb  Tb1  1  0.997467  0.741160  0.750000  1
  Tb  Tb2  1  0.744550  0.000692  0.750000  1
  Tb  Tb3  1  0.332942  0.662498  0.501194  1
  Tb  Tb4  1  0.257613  0.260691  0.750000  1
  Tb  Tb5  1  0.002392  0.257622  0.250000  1
  Tb  Tb6  1  0.667343  0.335885  0.500973  1
  Tb  Tb7  1  0.257065  0.002439  0.250000  1
  Tb  Tb8  1  0.332942  0.662498  0.998806  1
  Tb  Tb9  1  0.667343  0.335885  0.999027  1
  In  In10  1  0.999464  0.392625  0.750000  1
  In  In11  1  0.394319  0.394077  0.250000  1
  In  In12  1  0.606049  0.606242  0.750000  1
  Pb  Pb13  1  0.391645  0.999771  0.750000  1
  Pb  Pb14  1  0.000636  0.607899  0.250000  1
  Pb  Pb15  1  0.607664  0.000384  0.250000  1
  Cl  Cl16  1  0.999930  0.999330  0.499356  1
  Cl  Cl17  1  0.999930  0.999330  0.000644  1
