# generated using pymatgen
data_RbLa(Ni9As5)2
_symmetry_space_group_name_H-M   'P 1'
_cell_length_a   6.73643700
_cell_length_b   6.73643675
_cell_length_c   11.24156100
_cell_angle_alpha   90.00000000
_cell_angle_beta   90.00000000
_cell_angle_gamma   120.00000612
_symmetry_Int_Tables_number   1
_chemical_formula_structural   RbLa(Ni9As5)2
_chemical_formula_sum   'Rb1 La1 Ni18 As10'
_cell_volume   441.79186595
_cell_formula_units_Z   1
loop_
 _symmetry_equiv_pos_site_id
 _symmetry_equiv_pos_as_xyz
  1  'x, y, z'
loop_
 _atom_site_type_symbol
 _atom_site_label
 _atom_site_symmetry_multiplicity
 _atom_site_fract_x
 _atom_site_fract_y
 _atom_site_fract_z
 _atom_site_occupancy
  Rb  Rb0  1  0.000000  0.000000  0.000000  1
  La  La1  1  0.000000  0.000000  0.500000  1
  Ni  Ni2  1  0.535741  0.464259  0.107908  1
  Ni  Ni3  1  0.072165  0.536082  0.605011  1
  Ni  Ni4  1  0.463918  0.927835  0.605011  1
  Ni  Ni5  1  0.535741  0.071483  0.107908  1
  Ni  Ni6  1  0.928517  0.464259  0.107908  1
  Ni  Ni7  1  0.071483  0.535741  0.892092  1
  Ni  Ni8  1  0.464259  0.928517  0.892092  1
  Ni  Ni9  1  0.463918  0.536082  0.605011  1
  Ni  Ni10  1  0.464259  0.535741  0.892092  1
  Ni  Ni11  1  0.536082  0.463918  0.394989  1
  Ni  Ni12  1  0.927835  0.463918  0.394989  1
  Ni  Ni13  1  0.536082  0.072165  0.394989  1
  Ni  Ni14  1  0.209085  0.790915  0.252365  1
  Ni  Ni15  1  0.418169  0.209085  0.747635  1
  Ni  Ni16  1  0.790915  0.581831  0.747635  1
  Ni  Ni17  1  0.209085  0.418169  0.252365  1
  Ni  Ni18  1  0.581831  0.790915  0.252365  1
  Ni  Ni19  1  0.790915  0.209085  0.747635  1
  As  As20  1  0.828613  0.171387  0.252000  1
  As  As21  1  0.657225  0.828613  0.748000  1
  As  As22  1  0.171387  0.342775  0.748000  1
  As  As23  1  0.828613  0.657225  0.252000  1
  As  As24  1  0.342775  0.171387  0.252000  1
  As  As25  1  0.171387  0.828613  0.748000  1
  As  As26  1  0.333333  0.666667  0.060713  1
  As  As27  1  0.666667  0.333333  0.561183  1
  As  As28  1  0.666667  0.333333  0.939287  1
  As  As29  1  0.333333  0.666667  0.438817  1
