# generated using pymatgen
data_Pr5ErTl2In4O18
_symmetry_space_group_name_H-M   'P 1'
_cell_length_a   6.61161899
_cell_length_b   6.60571234
_cell_length_c   12.53797830
_cell_angle_alpha   89.99498764
_cell_angle_beta   90.02333613
_cell_angle_gamma   119.97116327
_symmetry_Int_Tables_number   1
_chemical_formula_structural   Pr5ErTl2In4O18
_chemical_formula_sum   'Pr5 Er1 Tl2 In4 O18'
_cell_volume   474.36398018
_cell_formula_units_Z   1
loop_
 _symmetry_equiv_pos_site_id
 _symmetry_equiv_pos_as_xyz
  1  'x, y, z'
loop_
 _atom_site_type_symbol
 _atom_site_label
 _atom_site_symmetry_multiplicity
 _atom_site_fract_x
 _atom_site_fract_y
 _atom_site_fract_z
 _atom_site_occupancy
  Pr  Pr0  1  0.340815  0.672047  0.231881  1
  Pr  Pr1  1  0.000419  0.001799  0.265271  1
  Pr  Pr2  1  0.000034  0.998330  0.769383  1
  Pr  Pr3  1  0.340017  0.668389  0.728568  1
  Pr  Pr4  1  0.659915  0.328305  0.729625  1
  Er  Er5  1  0.658242  0.330885  0.229317  1
  Tl  Tl6  1  0.996803  0.663169  0.493436  1
  Tl  Tl7  1  0.997970  0.335171  0.997836  1
  In  In8  1  0.335378  0.333144  0.493867  1
  In  In9  1  0.666089  0.663752  0.998361  1
  In  In10  1  0.335952  0.001122  0.998306  1
  In  In11  1  0.667395  0.003267  0.493859  1
  O  O12  1  0.001454  0.691406  0.664445  1
  O  O13  1  0.984807  0.627790  0.324473  1
  O  O14  1  0.000583  0.358759  0.828283  1
  O  O15  1  0.985275  0.312208  0.168598  1
  O  O16  1  0.350242  0.682728  0.026543  1
  O  O17  1  0.000187  0.016869  0.463784  1
  O  O18  1  0.000225  0.983500  0.971548  1
  O  O19  1  0.349858  0.667404  0.517587  1
  O  O20  1  0.303761  0.306346  0.664389  1
  O  O21  1  0.374042  0.358736  0.325406  1
  O  O22  1  0.320744  0.012997  0.168678  1
  O  O23  1  0.639639  0.639338  0.829552  1
  O  O24  1  0.692459  0.678179  0.168785  1
  O  O25  1  0.360235  0.999293  0.829523  1
  O  O26  1  0.650274  0.317553  0.525491  1
  O  O27  1  0.651266  0.332591  0.026021  1
  O  O28  1  0.641308  0.015790  0.325329  1
  O  O29  1  0.694613  0.999136  0.664371  1
