# generated using pymatgen
data_Y4MnCo4
_symmetry_space_group_name_H-M   'P 1'
_cell_length_a   5.52184894
_cell_length_b   5.52184906
_cell_length_c   8.86087138
_cell_angle_alpha   71.74213029
_cell_angle_beta   71.74212735
_cell_angle_gamma   42.49502962
_symmetry_Int_Tables_number   1
_chemical_formula_structural   Y4MnCo4
_chemical_formula_sum   'Y4 Mn1 Co4'
_cell_volume   171.89025833
_cell_formula_units_Z   1
loop_
 _symmetry_equiv_pos_site_id
 _symmetry_equiv_pos_as_xyz
  1  'x, y, z'
loop_
 _atom_site_type_symbol
 _atom_site_label
 _atom_site_symmetry_multiplicity
 _atom_site_fract_x
 _atom_site_fract_y
 _atom_site_fract_z
 _atom_site_occupancy
  Y  Y0  1  0.742656  0.742656  0.661344  1
  Y  Y1  1  0.257344  0.257344  0.338656  1
  Y  Y2  1  0.390255  0.390255  0.884732  1
  Y  Y3  1  0.609745  0.609745  0.115268  1
  Mn  Mn4  1  0.500000  0.500000  0.500000  1
  Co  Co5  1  0.033424  0.033424  0.640856  1
  Co  Co6  1  0.966576  0.966576  0.359144  1
  Co  Co7  1  0.089018  0.089018  0.878723  1
  Co  Co8  1  0.910982  0.910982  0.121277  1
