# generated using pymatgen
data_Nb3Zn(Co3Os)2
_symmetry_space_group_name_H-M   'P 1'
_cell_length_a   4.79827100
_cell_length_b   4.79826975
_cell_length_c   8.06097200
_cell_angle_alpha   90.00000000
_cell_angle_beta   90.00000000
_cell_angle_gamma   119.99998795
_symmetry_Int_Tables_number   1
_chemical_formula_structural   Nb3Zn(Co3Os)2
_chemical_formula_sum   'Nb3 Zn1 Co6 Os2'
_cell_volume   160.72651537
_cell_formula_units_Z   1
loop_
 _symmetry_equiv_pos_site_id
 _symmetry_equiv_pos_as_xyz
  1  'x, y, z'
loop_
 _atom_site_type_symbol
 _atom_site_label
 _atom_site_symmetry_multiplicity
 _atom_site_fract_x
 _atom_site_fract_y
 _atom_site_fract_z
 _atom_site_occupancy
  Nb  Nb0  1  0.666667  0.333333  0.558114  1
  Nb  Nb1  1  0.666667  0.333333  0.920294  1
  Nb  Nb2  1  0.333333  0.666667  0.088865  1
  Zn  Zn3  1  0.333333  0.666667  0.443774  1
  Co  Co4  1  0.829212  0.170788  0.249449  1
  Co  Co5  1  0.829212  0.658426  0.249449  1
  Co  Co6  1  0.341574  0.170788  0.249449  1
  Co  Co7  1  0.172014  0.827986  0.749125  1
  Co  Co8  1  0.172014  0.344027  0.749125  1
  Co  Co9  1  0.655973  0.827986  0.749125  1
  Os  Os10  1  0.000000  0.000000  0.497632  1
  Os  Os11  1  0.000000  0.000000  0.995600  1
