# generated using pymatgen
data_HoEr3In2(Ni7B2)2
_symmetry_space_group_name_H-M   'P 1'
_cell_length_a   4.98646201
_cell_length_b   4.98620343
_cell_length_c   14.26929900
_cell_angle_alpha   89.99864512
_cell_angle_beta   90.00245814
_cell_angle_gamma   119.99681336
_symmetry_Int_Tables_number   1
_chemical_formula_structural   HoEr3In2(Ni7B2)2
_chemical_formula_sum   'Ho1 Er3 In2 Ni14 B4'
_cell_volume   307.26261427
_cell_formula_units_Z   1
loop_
 _symmetry_equiv_pos_site_id
 _symmetry_equiv_pos_as_xyz
  1  'x, y, z'
loop_
 _atom_site_type_symbol
 _atom_site_label
 _atom_site_symmetry_multiplicity
 _atom_site_fract_x
 _atom_site_fract_y
 _atom_site_fract_z
 _atom_site_occupancy
  Ho  Ho0  1  0.666680  0.333340  0.531332  1
  Er  Er1  1  0.333334  0.666667  0.031228  1
  Er  Er2  1  0.666667  0.333332  0.754688  1
  Er  Er3  1  0.333332  0.666665  0.254595  1
  In  In4  1  0.333341  0.666667  0.468571  1
  In  In5  1  0.666660  0.333329  0.968622  1
  Ni  Ni6  1  0.834107  0.165895  0.352541  1
  Ni  Ni7  1  0.834118  0.668231  0.352553  1
  Ni  Ni8  1  0.000020  0.000018  0.998762  1
  Ni  Ni9  1  0.999989  0.999996  0.498752  1
  Ni  Ni10  1  0.833936  0.667867  0.147167  1
  Ni  Ni11  1  0.166088  0.833905  0.647254  1
  Ni  Ni12  1  0.667832  0.833916  0.647257  1
  Ni  Ni13  1  0.332126  0.166061  0.147167  1
  Ni  Ni14  1  0.833931  0.166072  0.147185  1
  Ni  Ni15  1  0.165914  0.331823  0.852609  1
  Ni  Ni16  1  0.165914  0.834086  0.852604  1
  Ni  Ni17  1  0.166083  0.332172  0.647267  1
  Ni  Ni18  1  0.668170  0.834082  0.852610  1
  Ni  Ni19  1  0.331759  0.165878  0.352512  1
  B  B20  1  0.666658  0.333316  0.249699  1
  B  B21  1  0.333324  0.666659  0.749688  1
  B  B22  1  0.000005  0.000008  0.747685  1
  B  B23  1  0.000014  0.000016  0.247655  1
