# generated using pymatgen
data_Ho3Ni8P6Os
_symmetry_space_group_name_H-M   'P 1'
_cell_length_a   3.76200900
_cell_length_b   10.46764900
_cell_length_c   12.33757100
_cell_angle_alpha   90.00000000
_cell_angle_beta   90.00000000
_cell_angle_gamma   90.00000000
_symmetry_Int_Tables_number   1
_chemical_formula_structural   Ho3Ni8P6Os
_chemical_formula_sum   'Ho6 Ni16 P12 Os2'
_cell_volume   485.84601694
_cell_formula_units_Z   2
loop_
 _symmetry_equiv_pos_site_id
 _symmetry_equiv_pos_as_xyz
  1  'x, y, z'
loop_
 _atom_site_type_symbol
 _atom_site_label
 _atom_site_symmetry_multiplicity
 _atom_site_fract_x
 _atom_site_fract_y
 _atom_site_fract_z
 _atom_site_occupancy
  Ho  Ho0  1  0.000000  0.500000  0.524050  1
  Ho  Ho1  1  0.500000  0.000000  0.475950  1
  Ho  Ho2  1  0.500000  0.815062  0.207809  1
  Ho  Ho3  1  0.500000  0.184938  0.207809  1
  Ho  Ho4  1  0.000000  0.684938  0.792191  1
  Ho  Ho5  1  0.000000  0.315062  0.792191  1
  Ni  Ni6  1  0.500000  0.500000  0.700969  1
  Ni  Ni7  1  0.000000  0.000000  0.299031  1
  Ni  Ni8  1  0.000000  0.500000  0.982156  1
  Ni  Ni9  1  0.500000  0.000000  0.017844  1
  Ni  Ni10  1  0.500000  0.331193  0.987859  1
  Ni  Ni11  1  0.500000  0.668807  0.987859  1
  Ni  Ni12  1  0.000000  0.168807  0.012141  1
  Ni  Ni13  1  0.000000  0.831193  0.012141  1
  Ni  Ni14  1  0.500000  0.302180  0.429603  1
  Ni  Ni15  1  0.500000  0.697820  0.429603  1
  Ni  Ni16  1  0.000000  0.197820  0.570397  1
  Ni  Ni17  1  0.000000  0.802180  0.570397  1
  Ni  Ni18  1  0.500000  0.879019  0.709388  1
  Ni  Ni19  1  0.500000  0.120981  0.709388  1
  Ni  Ni20  1  0.000000  0.620981  0.290612  1
  Ni  Ni21  1  0.000000  0.379019  0.290612  1
  P  P22  1  0.500000  0.500000  0.875885  1
  P  P23  1  0.000000  0.000000  0.124115  1
  P  P24  1  0.500000  0.500000  0.349577  1
  P  P25  1  0.000000  0.000000  0.650423  1
  P  P26  1  0.500000  0.314287  0.614826  1
  P  P27  1  0.500000  0.685713  0.614826  1
  P  P28  1  0.000000  0.185713  0.385174  1
  P  P29  1  0.000000  0.814287  0.385174  1
  P  P30  1  0.500000  0.850051  0.891592  1
  P  P31  1  0.500000  0.149949  0.891592  1
  P  P32  1  0.000000  0.649949  0.108408  1
  P  P33  1  0.000000  0.350051  0.108408  1
  Os  Os34  1  0.500000  0.500000  0.158142  1
  Os  Os35  1  0.000000  0.000000  0.841858  1
