# generated using pymatgen
data_Dy9Er5Tm2(Ga3Co)2
_symmetry_space_group_name_H-M   'P 1'
_cell_length_a   9.94928200
_cell_length_b   9.94908411
_cell_length_c   6.94264203
_cell_angle_alpha   89.99147164
_cell_angle_beta   90.00000000
_cell_angle_gamma   120.00065132
_symmetry_Int_Tables_number   1
_chemical_formula_structural   Dy9Er5Tm2(Ga3Co)2
_chemical_formula_sum   'Dy9 Er5 Tm2 Ga6 Co2'
_cell_volume   595.15130562
_cell_formula_units_Z   1
loop_
 _symmetry_equiv_pos_site_id
 _symmetry_equiv_pos_as_xyz
  1  'x, y, z'
loop_
 _atom_site_type_symbol
 _atom_site_label
 _atom_site_symmetry_multiplicity
 _atom_site_fract_x
 _atom_site_fract_y
 _atom_site_fract_z
 _atom_site_occupancy
  Dy  Dy0  1  0.666702  0.333404  0.327402  1
  Dy  Dy1  1  0.463376  0.536718  0.207473  1
  Dy  Dy2  1  0.073341  0.536718  0.207473  1
  Dy  Dy3  1  0.463302  0.926605  0.207521  1
  Dy  Dy4  1  0.536288  0.463811  0.708291  1
  Dy  Dy5  1  0.927523  0.463811  0.708291  1
  Dy  Dy6  1  0.536228  0.072456  0.708225  1
  Dy  Dy7  1  0.999989  0.999978  0.231952  1
  Dy  Dy8  1  0.999973  0.999946  0.731235  1
  Er  Er9  1  0.173463  0.826541  0.512267  1
  Er  Er10  1  0.653077  0.826541  0.512267  1
  Er  Er11  1  0.173464  0.346930  0.512267  1
  Er  Er12  1  0.827109  0.172907  0.011090  1
  Er  Er13  1  0.345798  0.172907  0.011090  1
  Tm  Tm14  1  0.827046  0.654092  0.011087  1
  Tm  Tm15  1  0.333330  0.666662  0.825400  1
  Ga  Ga16  1  0.163542  0.836252  0.957825  1
  Ga  Ga17  1  0.672712  0.836252  0.957825  1
  Ga  Ga18  1  0.163678  0.327354  0.957805  1
  Ga  Ga19  1  0.837117  0.162881  0.458709  1
  Ga  Ga20  1  0.325763  0.162881  0.458709  1
  Ga  Ga21  1  0.837122  0.674245  0.458606  1
  Co  Co22  1  0.333331  0.666663  0.445556  1
  Co  Co23  1  0.666725  0.333448  0.946472  1
