# generated using pymatgen
data_SmThGePd14
_symmetry_space_group_name_H-M   'P 1'
_cell_length_a   9.02858700
_cell_length_b   9.02858700
_cell_length_c   7.14267700
_cell_angle_alpha   90.00000000
_cell_angle_beta   90.00000000
_cell_angle_gamma   90.00000000
_symmetry_Int_Tables_number   1
_chemical_formula_structural   SmThGePd14
_chemical_formula_sum   'Sm2 Th2 Ge2 Pd28'
_cell_volume   582.23805285
_cell_formula_units_Z   2
loop_
 _symmetry_equiv_pos_site_id
 _symmetry_equiv_pos_as_xyz
  1  'x, y, z'
loop_
 _atom_site_type_symbol
 _atom_site_label
 _atom_site_symmetry_multiplicity
 _atom_site_fract_x
 _atom_site_fract_y
 _atom_site_fract_z
 _atom_site_occupancy
  Sm  Sm0  1  0.500000  0.000000  0.933588  1
  Sm  Sm1  1  0.000000  0.500000  0.066412  1
  Th  Th2  1  0.000000  0.000000  0.500000  1
  Th  Th3  1  0.500000  0.500000  0.500000  1
  Ge  Ge4  1  0.500000  0.000000  0.450727  1
  Ge  Ge5  1  0.000000  0.500000  0.549273  1
  Pd  Pd6  1  0.331155  0.831155  0.620411  1
  Pd  Pd7  1  0.331155  0.168845  0.620411  1
  Pd  Pd8  1  0.668845  0.831155  0.620411  1
  Pd  Pd9  1  0.668845  0.168845  0.620411  1
  Pd  Pd10  1  0.168845  0.668845  0.379589  1
  Pd  Pd11  1  0.168845  0.331155  0.379589  1
  Pd  Pd12  1  0.831155  0.668845  0.379589  1
  Pd  Pd13  1  0.831155  0.331155  0.379589  1
  Pd  Pd14  1  0.500000  0.765768  0.254994  1
  Pd  Pd15  1  0.500000  0.234232  0.254994  1
  Pd  Pd16  1  0.265768  0.000000  0.254994  1
  Pd  Pd17  1  0.734232  0.000000  0.254994  1
  Pd  Pd18  1  0.000000  0.734232  0.745006  1
  Pd  Pd19  1  0.000000  0.265768  0.745006  1
  Pd  Pd20  1  0.234232  0.500000  0.745006  1
  Pd  Pd21  1  0.765768  0.500000  0.745006  1
  Pd  Pd22  1  0.500000  0.349507  0.852801  1
  Pd  Pd23  1  0.500000  0.650493  0.852801  1
  Pd  Pd24  1  0.849507  0.000000  0.852801  1
  Pd  Pd25  1  0.150493  0.000000  0.852801  1
  Pd  Pd26  1  0.000000  0.150493  0.147199  1
  Pd  Pd27  1  0.000000  0.849507  0.147199  1
  Pd  Pd28  1  0.650493  0.500000  0.147199  1
  Pd  Pd29  1  0.349507  0.500000  0.147199  1
  Pd  Pd30  1  0.250000  0.750000  0.000000  1
  Pd  Pd31  1  0.250000  0.250000  0.000000  1
  Pd  Pd32  1  0.750000  0.750000  0.000000  1
  Pd  Pd33  1  0.750000  0.250000  0.000000  1
