# generated using pymatgen
data_Lu2Ti4Sn5
_symmetry_space_group_name_H-M   'P 1'
_cell_length_a   10.70531754
_cell_length_b   10.70531820
_cell_length_c   10.70531666
_cell_angle_alpha   148.88405287
_cell_angle_beta   131.67418492
_cell_angle_gamma   58.59948941
_symmetry_Int_Tables_number   1
_chemical_formula_structural   Lu2Ti4Sn5
_chemical_formula_sum   'Lu4 Ti8 Sn10'
_cell_volume   469.85857056
_cell_formula_units_Z   2
loop_
 _symmetry_equiv_pos_site_id
 _symmetry_equiv_pos_as_xyz
  1  'x, y, z'
loop_
 _atom_site_type_symbol
 _atom_site_label
 _atom_site_symmetry_multiplicity
 _atom_site_fract_x
 _atom_site_fract_y
 _atom_site_fract_z
 _atom_site_occupancy
  Lu  Lu0  1  0.255394  0.143613  0.111782  1
  Lu  Lu1  1  0.744606  0.856387  0.888218  1
  Lu  Lu2  1  0.031831  0.643613  0.388218  1
  Lu  Lu3  1  0.968169  0.356387  0.611782  1
  Ti  Ti4  1  0.310616  0.560616  0.250000  1
  Ti  Ti5  1  0.689384  0.439384  0.750000  1
  Ti  Ti6  1  0.689384  0.939384  0.250000  1
  Ti  Ti7  1  0.310616  0.060616  0.750000  1
  Ti  Ti8  1  0.675414  0.435875  0.239539  1
  Ti  Ti9  1  0.324586  0.564125  0.760461  1
  Ti  Ti10  1  0.196336  0.935875  0.260461  1
  Ti  Ti11  1  0.803664  0.064125  0.739539  1
  Sn  Sn12  1  0.586913  0.289344  0.297569  1
  Sn  Sn13  1  0.413087  0.710656  0.702431  1
  Sn  Sn14  1  0.991775  0.789344  0.202431  1
  Sn  Sn15  1  0.008225  0.210656  0.797569  1
  Sn  Sn16  1  0.000000  0.250000  0.250000  1
  Sn  Sn17  1  0.000000  0.750000  0.750000  1
  Sn  Sn18  1  0.470815  0.067311  0.403503  1
  Sn  Sn19  1  0.529185  0.932689  0.596497  1
  Sn  Sn20  1  0.663809  0.567311  0.096497  1
  Sn  Sn21  1  0.336191  0.432689  0.903503  1
