# generated using pymatgen
data_Sr2As6O11
_symmetry_space_group_name_H-M   'P 1'
_cell_length_a   8.25411389
_cell_length_b   9.10801970
_cell_length_c   9.32261625
_cell_angle_alpha   71.77228531
_cell_angle_beta   74.52922321
_cell_angle_gamma   77.39347428
_symmetry_Int_Tables_number   1
_chemical_formula_structural   Sr2As6O11
_chemical_formula_sum   'Sr4 As12 O22'
_cell_volume   634.57651965
_cell_formula_units_Z   2
loop_
 _symmetry_equiv_pos_site_id
 _symmetry_equiv_pos_as_xyz
  1  'x, y, z'
loop_
 _atom_site_type_symbol
 _atom_site_label
 _atom_site_symmetry_multiplicity
 _atom_site_fract_x
 _atom_site_fract_y
 _atom_site_fract_z
 _atom_site_occupancy
  Sr  Sr0  1  0.968345  0.558031  0.727534  1
  Sr  Sr1  1  0.554922  0.401351  0.749845  1
  Sr  Sr2  1  0.445078  0.598649  0.250155  1
  Sr  Sr3  1  0.031655  0.441969  0.272466  1
  As  As4  1  0.596456  0.904613  0.806709  1
  As  As5  1  0.918148  0.098172  0.681032  1
  As  As6  1  0.200121  0.729678  0.951527  1
  As  As7  1  0.709314  0.730567  0.440841  1
  As  As8  1  0.189251  0.185882  0.922587  1
  As  As9  1  0.305788  0.813121  0.582364  1
  As  As10  1  0.694212  0.186879  0.417636  1
  As  As11  1  0.810749  0.814118  0.077413  1
  As  As12  1  0.290686  0.269433  0.559159  1
  As  As13  1  0.799879  0.270322  0.048473  1
  As  As14  1  0.081852  0.901828  0.318968  1
  As  As15  1  0.403544  0.095387  0.193291  1
  O  O16  1  0.977552  0.676776  0.991352  1
  O  O17  1  0.636495  0.791293  0.002902  1
  O  O18  1  0.752616  0.809524  0.690467  1
  O  O19  1  0.707256  0.438469  0.934979  1
  O  O20  1  0.943344  0.246599  0.747821  1
  O  O21  1  0.791091  0.551700  0.546882  1
  O  O22  1  0.691117  0.084570  0.782415  1
  O  O23  1  0.859023  0.225679  0.490448  1
  O  O24  1  0.261092  0.662526  0.765525  1
  O  O25  1  0.479933  0.681125  0.498395  1
  O  O26  1  0.738233  0.666473  0.256338  1
  O  O27  1  0.261767  0.333527  0.743662  1
  O  O28  1  0.520067  0.318875  0.501605  1
  O  O29  1  0.738908  0.337474  0.234475  1
  O  O30  1  0.140977  0.774321  0.509552  1
  O  O31  1  0.308883  0.915430  0.217585  1
  O  O32  1  0.208909  0.448300  0.453118  1
  O  O33  1  0.056656  0.753401  0.252179  1
  O  O34  1  0.292744  0.561531  0.065021  1
  O  O35  1  0.247384  0.190476  0.309533  1
  O  O36  1  0.363505  0.208707  0.997098  1
  O  O37  1  0.022448  0.323224  0.008648  1
