# generated using pymatgen
data_MgInCuSbRh4
_symmetry_space_group_name_H-M   'P 1'
_cell_length_a   7.70961561
_cell_length_b   7.70961506
_cell_length_c   7.70961622
_cell_angle_alpha   33.56170824
_cell_angle_beta   33.56171243
_cell_angle_gamma   33.56170750
_symmetry_Int_Tables_number   1
_chemical_formula_structural   MgInCuSbRh4
_chemical_formula_sum   'Mg1 In1 Cu1 Sb1 Rh4'
_cell_volume   124.74839856
_cell_formula_units_Z   1
loop_
 _symmetry_equiv_pos_site_id
 _symmetry_equiv_pos_as_xyz
  1  'x, y, z'
loop_
 _atom_site_type_symbol
 _atom_site_label
 _atom_site_symmetry_multiplicity
 _atom_site_fract_x
 _atom_site_fract_y
 _atom_site_fract_z
 _atom_site_occupancy
  Mg  Mg0  1  0.746828  0.746828  0.746828  1
  In  In1  1  0.998350  0.998350  0.998350  1
  Cu  Cu2  1  0.254235  0.254235  0.254235  1
  Sb  Sb3  1  0.500698  0.500698  0.500698  1
  Rh  Rh4  1  0.620692  0.620692  0.620692  1
  Rh  Rh5  1  0.129000  0.129000  0.129000  1
  Rh  Rh6  1  0.872403  0.872403  0.872403  1
  Rh  Rh7  1  0.377796  0.377796  0.377796  1
