# generated using pymatgen
data_Pr3ScPa3Co17P12
_symmetry_space_group_name_H-M   'P 1'
_cell_length_a   3.76506600
_cell_length_b   10.60181563
_cell_length_c   12.49729314
_cell_angle_alpha   90.07191868
_cell_angle_beta   90.00000000
_cell_angle_gamma   90.00000000
_symmetry_Int_Tables_number   1
_chemical_formula_structural   Pr3ScPa3Co17P12
_chemical_formula_sum   'Pr3 Sc1 Pa3 Co17 P12'
_cell_volume   498.84825279
_cell_formula_units_Z   1
loop_
 _symmetry_equiv_pos_site_id
 _symmetry_equiv_pos_as_xyz
  1  'x, y, z'
loop_
 _atom_site_type_symbol
 _atom_site_label
 _atom_site_symmetry_multiplicity
 _atom_site_fract_x
 _atom_site_fract_y
 _atom_site_fract_z
 _atom_site_occupancy
  Pr  Pr0  1  0.000000  0.500477  0.518180  1
  Pr  Pr1  1  0.500000  0.999360  0.474575  1
  Pr  Pr2  1  0.000000  0.318232  0.793433  1
  Sc  Sc3  1  0.000000  0.998617  0.851842  1
  Pa  Pa4  1  0.500000  0.819229  0.206080  1
  Pa  Pa5  1  0.500000  0.180015  0.205330  1
  Pa  Pa6  1  0.000000  0.678522  0.787779  1
  Co  Co7  1  0.500000  0.501355  0.162010  1
  Co  Co8  1  0.500000  0.513838  0.710633  1
  Co  Co9  1  0.000000  0.000054  0.287397  1
  Co  Co10  1  0.000000  0.501776  0.986576  1
  Co  Co11  1  0.500000  0.998051  0.017342  1
  Co  Co12  1  0.500000  0.337219  0.002207  1
  Co  Co13  1  0.500000  0.663344  0.999994  1
  Co  Co14  1  0.000000  0.171113  0.013711  1
  Co  Co15  1  0.000000  0.826151  0.011351  1
  Co  Co16  1  0.500000  0.296920  0.425485  1
  Co  Co17  1  0.500000  0.702851  0.424516  1
  Co  Co18  1  0.000000  0.204831  0.565706  1
  Co  Co19  1  0.000000  0.799126  0.570057  1
  Co  Co20  1  0.500000  0.871556  0.713126  1
  Co  Co21  1  0.500000  0.117951  0.703668  1
  Co  Co22  1  0.000000  0.621558  0.285343  1
  Co  Co23  1  0.000000  0.377156  0.285480  1
  P  P24  1  0.500000  0.500857  0.888822  1
  P  P25  1  0.000000  0.998490  0.112822  1
  P  P26  1  0.500000  0.500535  0.339410  1
  P  P27  1  0.000000  0.002452  0.648351  1
  P  P28  1  0.500000  0.307933  0.611673  1
  P  P29  1  0.500000  0.694616  0.609572  1
  P  P30  1  0.000000  0.192663  0.383183  1
  P  P31  1  0.000000  0.807108  0.383618  1
  P  P32  1  0.500000  0.835368  0.900807  1
  P  P33  1  0.500000  0.160727  0.903789  1
  P  P34  1  0.000000  0.647949  0.108392  1
  P  P35  1  0.000000  0.352004  0.107737  1
