# generated using pymatgen
data_Tb2DyNi7B2
_symmetry_space_group_name_H-M   'P 1'
_cell_length_a   5.08662270
_cell_length_b   5.08662266
_cell_length_c   14.33179100
_cell_angle_alpha   90.00000000
_cell_angle_beta   90.00000000
_cell_angle_gamma   119.97046441
_symmetry_Int_Tables_number   1
_chemical_formula_structural   Tb2DyNi7B2
_chemical_formula_sum   'Tb4 Dy2 Ni14 B4'
_cell_volume   321.23238481
_cell_formula_units_Z   2
loop_
 _symmetry_equiv_pos_site_id
 _symmetry_equiv_pos_as_xyz
  1  'x, y, z'
loop_
 _atom_site_type_symbol
 _atom_site_label
 _atom_site_symmetry_multiplicity
 _atom_site_fract_x
 _atom_site_fract_y
 _atom_site_fract_z
 _atom_site_occupancy
  Tb  Tb0  1  0.666674  0.333326  0.032127  1
  Tb  Tb1  1  0.333326  0.666674  0.967873  1
  Tb  Tb2  1  0.333326  0.666674  0.532127  1
  Tb  Tb3  1  0.666674  0.333326  0.467873  1
  Dy  Dy4  1  0.666683  0.333317  0.250000  1
  Dy  Dy5  1  0.333317  0.666683  0.750000  1
  Ni  Ni6  1  0.834549  0.669083  0.649658  1
  Ni  Ni7  1  0.834511  0.165489  0.649669  1
  Ni  Ni8  1  0.330917  0.165451  0.649658  1
  Ni  Ni9  1  0.165451  0.330917  0.350342  1
  Ni  Ni10  1  0.165489  0.834511  0.350331  1
  Ni  Ni11  1  0.669083  0.834549  0.350342  1
  Ni  Ni12  1  0.165451  0.330917  0.149658  1
  Ni  Ni13  1  0.165489  0.834511  0.149669  1
  Ni  Ni14  1  0.669083  0.834549  0.149658  1
  Ni  Ni15  1  0.834549  0.669083  0.850342  1
  Ni  Ni16  1  0.834511  0.165489  0.850331  1
  Ni  Ni17  1  0.330917  0.165451  0.850342  1
  Ni  Ni18  1  0.000000  0.000000  0.500000  1
  Ni  Ni19  1  0.000000  0.000000  0.000000  1
  B  B20  1  0.666659  0.333341  0.750000  1
  B  B21  1  0.333341  0.666659  0.250000  1
  B  B22  1  0.999982  0.000018  0.750000  1
  B  B23  1  0.000018  0.999982  0.250000  1
