# generated using pymatgen
data_Zr6Zn17Pd6Pb
_symmetry_space_group_name_H-M   'P 1'
_cell_length_a   8.86075078
_cell_length_b   8.91726256
_cell_length_c   8.91726244
_cell_angle_alpha   59.70837322
_cell_angle_beta   60.20941539
_cell_angle_gamma   60.20941176
_symmetry_Int_Tables_number   1
_chemical_formula_structural   Zr6Zn17Pd6Pb
_chemical_formula_sum   'Zr6 Zn17 Pd6 Pb1'
_cell_volume   498.67060660
_cell_formula_units_Z   1
loop_
 _symmetry_equiv_pos_site_id
 _symmetry_equiv_pos_as_xyz
  1  'x, y, z'
loop_
 _atom_site_type_symbol
 _atom_site_label
 _atom_site_symmetry_multiplicity
 _atom_site_fract_x
 _atom_site_fract_y
 _atom_site_fract_z
 _atom_site_occupancy
  Zr  Zr0  1  0.732092  0.267908  0.267908  1
  Zr  Zr1  1  0.267908  0.732092  0.732092  1
  Zr  Zr2  1  0.263723  0.733376  0.266624  1
  Zr  Zr3  1  0.736277  0.266624  0.733376  1
  Zr  Zr4  1  0.263723  0.266624  0.733376  1
  Zr  Zr5  1  0.736277  0.733376  0.266624  1
  Zn  Zn6  1  0.126373  0.126599  0.126599  1
  Zn  Zn7  1  0.873627  0.873401  0.873401  1
  Zn  Zn8  1  0.129062  0.121455  0.620422  1
  Zn  Zn9  1  0.129062  0.620422  0.121455  1
  Zn  Zn10  1  0.870938  0.878545  0.379578  1
  Zn  Zn11  1  0.870938  0.379578  0.878545  1
  Zn  Zn12  1  0.620430  0.126599  0.126599  1
  Zn  Zn13  1  0.379570  0.873401  0.873401  1
  Zn  Zn14  1  0.000000  0.500000  0.500000  1
  Zn  Zn15  1  0.344930  0.345787  0.345787  1
  Zn  Zn16  1  0.655070  0.654213  0.654213  1
  Zn  Zn17  1  0.347326  0.344094  0.961256  1
  Zn  Zn18  1  0.347326  0.961256  0.344094  1
  Zn  Zn19  1  0.652674  0.655906  0.038744  1
  Zn  Zn20  1  0.652674  0.038744  0.655906  1
  Zn  Zn21  1  0.963497  0.345787  0.345787  1
  Zn  Zn22  1  0.036503  0.654213  0.654213  1
  Pd  Pd23  1  0.500000  0.000000  0.000000  1
  Pd  Pd24  1  0.000000  0.500000  0.000000  1
  Pd  Pd25  1  0.500000  0.000000  0.500000  1
  Pd  Pd26  1  0.000000  0.000000  0.500000  1
  Pd  Pd27  1  0.500000  0.500000  0.000000  1
  Pd  Pd28  1  0.000000  0.000000  0.000000  1
  Pb  Pb29  1  0.500000  0.500000  0.500000  1
