# generated using pymatgen
data_Ti6Al4CoCuC2
_symmetry_space_group_name_H-M   'P 1'
_cell_length_a   8.11680806
_cell_length_b   8.11669269
_cell_length_c   8.11669244
_cell_angle_alpha   59.96423662
_cell_angle_beta   59.99952909
_cell_angle_gamma   59.99952607
_symmetry_Int_Tables_number   1
_chemical_formula_structural   Ti6Al4CoCuC2
_chemical_formula_sum   'Ti12 Al8 Co2 Cu2 C4'
_cell_volume   378.01397250
_cell_formula_units_Z   2
loop_
 _symmetry_equiv_pos_site_id
 _symmetry_equiv_pos_as_xyz
  1  'x, y, z'
loop_
 _atom_site_type_symbol
 _atom_site_label
 _atom_site_symmetry_multiplicity
 _atom_site_fract_x
 _atom_site_fract_y
 _atom_site_fract_z
 _atom_site_occupancy
  Ti  Ti0  1  0.938529  0.937092  0.559534  1
  Ti  Ti1  1  0.689141  0.310859  0.310859  1
  Ti  Ti2  1  0.313158  0.686842  0.686842  1
  Ti  Ti3  1  0.685156  0.690466  0.312908  1
  Ti  Ti4  1  0.685156  0.312908  0.690466  1
  Ti  Ti5  1  0.311471  0.690466  0.312908  1
  Ti  Ti6  1  0.564844  0.937092  0.559534  1
  Ti  Ti7  1  0.560859  0.939141  0.939141  1
  Ti  Ti8  1  0.936842  0.563158  0.563158  1
  Ti  Ti9  1  0.938529  0.559534  0.937092  1
  Ti  Ti10  1  0.311471  0.312908  0.690466  1
  Ti  Ti11  1  0.564844  0.559534  0.937092  1
  Al  Al12  1  0.913923  0.248882  0.923271  1
  Al  Al13  1  0.336077  0.326729  0.001118  1
  Al  Al14  1  0.999514  0.330186  0.330186  1
  Al  Al15  1  0.340113  0.330186  0.330186  1
  Al  Al16  1  0.250486  0.919814  0.919814  1
  Al  Al17  1  0.909887  0.919814  0.919814  1
  Al  Al18  1  0.913923  0.923271  0.248882  1
  Al  Al19  1  0.336077  0.001118  0.326729  1
  Co  Co20  1  0.625000  0.125000  0.125000  1
  Co  Co21  1  0.125000  0.125000  0.125000  1
  Cu  Cu22  1  0.125000  0.625000  0.125000  1
  Cu  Cu23  1  0.125000  0.125000  0.625000  1
  C  C24  1  0.625000  0.125000  0.625000  1
  C  C25  1  0.625000  0.625000  0.125000  1
  C  C26  1  0.125000  0.625000  0.625000  1
  C  C27  1  0.625000  0.625000  0.625000  1
