# generated using pymatgen
data_Na4ScBiO6
_symmetry_space_group_name_H-M   'P 1'
_cell_length_a   5.69569650
_cell_length_b   5.69569765
_cell_length_c   5.88728771
_cell_angle_alpha   99.41810748
_cell_angle_beta   99.41812015
_cell_angle_gamma   119.93481944
_symmetry_Int_Tables_number   1
_chemical_formula_structural   Na4ScBiO6
_chemical_formula_sum   'Na4 Sc1 Bi1 O6'
_cell_volume   156.41373767
_cell_formula_units_Z   1
loop_
 _symmetry_equiv_pos_site_id
 _symmetry_equiv_pos_as_xyz
  1  'x, y, z'
loop_
 _atom_site_type_symbol
 _atom_site_label
 _atom_site_symmetry_multiplicity
 _atom_site_fract_x
 _atom_site_fract_y
 _atom_site_fract_z
 _atom_site_occupancy
  Na  Na0  1  0.500425  0.499578  0.000000  1
  Na  Na1  1  0.996530  0.003470  0.499999  1
  Na  Na2  1  0.659429  0.340571  0.499999  1
  Na  Na3  1  0.341014  0.658986  0.499999  1
  Sc  Sc4  1  0.832750  0.167253  0.000000  1
  Bi  Bi5  1  0.167595  0.832408  0.000000  1
  O  O6  1  0.573611  0.940628  0.215544  1
  O  O7  1  0.940492  0.571111  0.213502  1
  O  O8  1  0.204570  0.204670  0.216268  1
  O  O9  1  0.795333  0.795433  0.783734  1
  O  O10  1  0.428891  0.059510  0.786498  1
  O  O11  1  0.059374  0.426391  0.784456  1
