# generated using pymatgen
data_SrNdY2(Ir2O7)2
_symmetry_space_group_name_H-M   'P 1'
_cell_length_a   7.34892997
_cell_length_b   7.36465621
_cell_length_c   7.34892880
_cell_angle_alpha   59.82375930
_cell_angle_beta   59.66094531
_cell_angle_gamma   59.82376357
_symmetry_Int_Tables_number   1
_chemical_formula_structural   SrNdY2(Ir2O7)2
_chemical_formula_sum   'Sr1 Nd1 Y2 Ir4 O14'
_cell_volume   279.77203838
_cell_formula_units_Z   1
loop_
 _symmetry_equiv_pos_site_id
 _symmetry_equiv_pos_as_xyz
  1  'x, y, z'
loop_
 _atom_site_type_symbol
 _atom_site_label
 _atom_site_symmetry_multiplicity
 _atom_site_fract_x
 _atom_site_fract_y
 _atom_site_fract_z
 _atom_site_occupancy
  Sr  Sr0  1  0.125000  0.625000  0.125000  1
  Nd  Nd1  1  0.125000  0.125000  0.125000  1
  Y  Y2  1  0.625000  0.125000  0.125000  1
  Y  Y3  1  0.125000  0.125000  0.625000  1
  Ir  Ir4  1  0.125000  0.625000  0.625000  1
  Ir  Ir5  1  0.625000  0.125000  0.625000  1
  Ir  Ir6  1  0.625000  0.625000  0.125000  1
  Ir  Ir7  1  0.625000  0.625000  0.625000  1
  O  O8  1  0.690437  0.718409  0.295907  1
  O  O9  1  0.294455  0.291858  0.701035  1
  O  O10  1  0.706624  0.292201  0.706624  1
  O  O11  1  0.296114  0.710972  0.296114  1
  O  O12  1  0.295907  0.718409  0.690437  1
  O  O13  1  0.701035  0.291858  0.294455  1
  O  O14  1  0.559563  0.531591  0.954093  1
  O  O15  1  0.955545  0.958142  0.548965  1
  O  O16  1  0.543376  0.957799  0.543376  1
  O  O17  1  0.953886  0.539028  0.953886  1
  O  O18  1  0.954093  0.531591  0.559563  1
  O  O19  1  0.548965  0.958142  0.955545  1
  O  O20  1  0.260939  0.231030  0.260939  1
  O  O21  1  0.989061  0.018970  0.989061  1
