# generated using pymatgen
data_LuPa3(AlCo2)2
_symmetry_space_group_name_H-M   'P 1'
_cell_length_a   7.14778077
_cell_length_b   7.14778210
_cell_length_c   3.49011800
_cell_angle_alpha   90.00000000
_cell_angle_beta   90.00000000
_cell_angle_gamma   87.81825671
_symmetry_Int_Tables_number   1
_chemical_formula_structural   LuPa3(AlCo2)2
_chemical_formula_sum   'Lu1 Pa3 Al2 Co4'
_cell_volume   178.18358955
_cell_formula_units_Z   1
loop_
 _symmetry_equiv_pos_site_id
 _symmetry_equiv_pos_as_xyz
  1  'x, y, z'
loop_
 _atom_site_type_symbol
 _atom_site_label
 _atom_site_symmetry_multiplicity
 _atom_site_fract_x
 _atom_site_fract_y
 _atom_site_fract_z
 _atom_site_occupancy
  Lu  Lu0  1  0.325667  0.825667  0.500000  1
  Pa  Pa1  1  0.673462  0.173462  0.500000  1
  Pa  Pa2  1  0.178455  0.329012  0.500000  1
  Pa  Pa3  1  0.829012  0.678455  0.500000  1
  Al  Al4  1  0.007771  0.000608  0.000000  1
  Al  Al5  1  0.500608  0.507771  0.000000  1
  Co  Co6  1  0.853678  0.353678  0.000000  1
  Co  Co7  1  0.371637  0.150099  0.000000  1
  Co  Co8  1  0.650099  0.871637  0.000000  1
  Co  Co9  1  0.109611  0.609611  0.000000  1
