# generated using pymatgen
data_La7YEr2Si8O3
_symmetry_space_group_name_H-M   'P 1'
_cell_length_a   10.76952658
_cell_length_b   10.76952582
_cell_length_c   4.54031500
_cell_angle_alpha   90.00000000
_cell_angle_beta   90.00000000
_cell_angle_gamma   119.96223680
_symmetry_Int_Tables_number   1
_chemical_formula_structural   La7YEr2Si8O3
_chemical_formula_sum   'La7 Y1 Er2 Si8 O3'
_cell_volume   456.22065744
_cell_formula_units_Z   1
loop_
 _symmetry_equiv_pos_site_id
 _symmetry_equiv_pos_as_xyz
  1  'x, y, z'
loop_
 _atom_site_type_symbol
 _atom_site_label
 _atom_site_symmetry_multiplicity
 _atom_site_fract_x
 _atom_site_fract_y
 _atom_site_fract_z
 _atom_site_occupancy
  La  La0  1  0.211793  0.788207  0.000000  1
  La  La1  1  0.576438  0.788381  0.000000  1
  La  La2  1  0.788381  0.576438  0.000000  1
  La  La3  1  0.000000  0.000000  0.000000  1
  La  La4  1  0.211619  0.423562  0.000000  1
  La  La5  1  0.423562  0.211619  0.000000  1
  La  La6  1  0.788207  0.211793  0.000000  1
  Y  Y7  1  0.500000  0.500000  0.500000  1
  Er  Er8  1  0.000000  0.500000  0.500000  1
  Er  Er9  1  0.500000  0.000000  0.500000  1
  Si  Si10  1  0.000144  0.776318  0.500000  1
  Si  Si11  1  0.999856  0.223682  0.500000  1
  Si  Si12  1  0.223414  0.223414  0.500000  1
  Si  Si13  1  0.776318  0.000144  0.500000  1
  Si  Si14  1  0.332959  0.667041  0.500000  1
  Si  Si15  1  0.223682  0.999856  0.500000  1
  Si  Si16  1  0.667041  0.332959  0.500000  1
  Si  Si17  1  0.776586  0.776586  0.500000  1
  O  O18  1  0.000000  0.500000  0.000000  1
  O  O19  1  0.500000  0.500000  0.000000  1
  O  O20  1  0.500000  0.000000  0.000000  1
