# generated using pymatgen
data_HoEr11TlCo4Os
_symmetry_space_group_name_H-M   'P 1'
_cell_length_a   8.22480065
_cell_length_b   8.20996466
_cell_length_c   8.20870346
_cell_angle_alpha   111.39870077
_cell_angle_beta   110.64352351
_cell_angle_gamma   106.34919951
_symmetry_Int_Tables_number   1
_chemical_formula_structural   HoEr11TlCo4Os
_chemical_formula_sum   'Ho1 Er11 Tl1 Co4 Os1'
_cell_volume   426.09890263
_cell_formula_units_Z   1
loop_
 _symmetry_equiv_pos_site_id
 _symmetry_equiv_pos_as_xyz
  1  'x, y, z'
loop_
 _atom_site_type_symbol
 _atom_site_label
 _atom_site_symmetry_multiplicity
 _atom_site_fract_x
 _atom_site_fract_y
 _atom_site_fract_z
 _atom_site_occupancy
  Ho  Ho0  1  0.818454  0.220794  0.039302  1
  Er  Er1  1  0.972221  0.278266  0.693806  1
  Er  Er2  1  0.027905  0.722309  0.306041  1
  Er  Er3  1  0.685156  0.878442  0.193424  1
  Er  Er4  1  0.314916  0.508250  0.193421  1
  Er  Er5  1  0.314494  0.121506  0.806557  1
  Er  Er6  1  0.685022  0.492020  0.806599  1
  Er  Er7  1  0.583800  0.278203  0.306043  1
  Er  Er8  1  0.415679  0.721750  0.693771  1
  Er  Er9  1  0.181213  0.778596  0.959891  1
  Er  Er10  1  0.818688  0.778632  0.597376  1
  Er  Er11  1  0.181397  0.221376  0.402847  1
  Tl  Tl12  1  0.500489  0.999689  0.499742  1
  Co  Co13  1  0.112183  0.111486  0.000302  1
  Co  Co14  1  0.888677  0.887856  0.000430  1
  Co  Co15  1  0.624714  0.500325  0.125060  1
  Co  Co16  1  0.374894  0.499874  0.874906  1
  Os  Os17  1  0.000095  0.500624  0.500483  1
