# generated using pymatgen
data_Sc8Cr11Si16Mo
_symmetry_space_group_name_H-M   'P 1'
_cell_length_a   6.41869302
_cell_length_b   6.56441608
_cell_length_c   12.24024300
_cell_angle_alpha   90.00000000
_cell_angle_beta   90.00000000
_cell_angle_gamma   90.06801450
_symmetry_Int_Tables_number   1
_chemical_formula_structural   Sc8Cr11Si16Mo
_chemical_formula_sum   'Sc8 Cr11 Si16 Mo1'
_cell_volume   515.74192861
_cell_formula_units_Z   1
loop_
 _symmetry_equiv_pos_site_id
 _symmetry_equiv_pos_as_xyz
  1  'x, y, z'
loop_
 _atom_site_type_symbol
 _atom_site_label
 _atom_site_symmetry_multiplicity
 _atom_site_fract_x
 _atom_site_fract_y
 _atom_site_fract_z
 _atom_site_occupancy
  Sc  Sc0  1  0.492027  0.665728  0.594363  1
  Sc  Sc1  1  0.993673  0.832451  0.905273  1
  Sc  Sc2  1  0.507683  0.332925  0.092617  1
  Sc  Sc3  1  0.006448  0.166786  0.407492  1
  Sc  Sc4  1  0.507683  0.332925  0.407383  1
  Sc  Sc5  1  0.006448  0.166786  0.092508  1
  Sc  Sc6  1  0.492027  0.665728  0.905637  1
  Sc  Sc7  1  0.993673  0.832451  0.594727  1
  Cr  Cr8  1  0.669220  0.161903  0.625328  1
  Cr  Cr9  1  0.168738  0.338143  0.875826  1
  Cr  Cr10  1  0.332075  0.839095  0.123111  1
  Cr  Cr11  1  0.830962  0.663081  0.376671  1
  Cr  Cr12  1  0.332075  0.839095  0.376889  1
  Cr  Cr13  1  0.830962  0.663081  0.123329  1
  Cr  Cr14  1  0.669220  0.161903  0.874672  1
  Cr  Cr15  1  0.168738  0.338143  0.624174  1
  Cr  Cr16  1  0.829321  0.502068  0.750000  1
  Cr  Cr17  1  0.329259  0.997683  0.750000  1
  Cr  Cr18  1  0.170561  0.498955  0.250000  1
  Si  Si19  1  0.663665  0.955366  0.457727  1
  Si  Si20  1  0.163159  0.544298  0.047335  1
  Si  Si21  1  0.336656  0.043936  0.951589  1
  Si  Si22  1  0.836915  0.456076  0.547765  1
  Si  Si23  1  0.336656  0.043936  0.548411  1
  Si  Si24  1  0.836915  0.456076  0.952235  1
  Si  Si25  1  0.663665  0.955366  0.042273  1
  Si  Si26  1  0.163159  0.544298  0.452665  1
  Si  Si27  1  0.465114  0.360797  0.750000  1
  Si  Si28  1  0.965745  0.138486  0.750000  1
  Si  Si29  1  0.530646  0.632028  0.250000  1
  Si  Si30  1  0.041751  0.858717  0.250000  1
  Si  Si31  1  0.691532  0.867253  0.750000  1
  Si  Si32  1  0.191833  0.631651  0.750000  1
  Si  Si33  1  0.300301  0.138288  0.250000  1
  Si  Si34  1  0.811208  0.372845  0.250000  1
  Mo  Mo35  1  0.670283  0.001656  0.250000  1
