# generated using pymatgen
data_Tb9ErCd4(InPd)4
_symmetry_space_group_name_H-M   'P 1'
_cell_length_a   3.62572800
_cell_length_b   8.11856613
_cell_length_c   18.43099631
_cell_angle_alpha   90.02097934
_cell_angle_beta   90.00000000
_cell_angle_gamma   90.00000000
_symmetry_Int_Tables_number   1
_chemical_formula_structural   Tb9ErCd4(InPd)4
_chemical_formula_sum   'Tb9 Er1 Cd4 In4 Pd4'
_cell_volume   542.52947316
_cell_formula_units_Z   1
loop_
 _symmetry_equiv_pos_site_id
 _symmetry_equiv_pos_as_xyz
  1  'x, y, z'
loop_
 _atom_site_type_symbol
 _atom_site_label
 _atom_site_symmetry_multiplicity
 _atom_site_fract_x
 _atom_site_fract_y
 _atom_site_fract_z
 _atom_site_occupancy
  Tb  Tb0  1  0.000000  0.499803  0.499955  1
  Tb  Tb1  1  0.000000  0.000048  0.000029  1
  Tb  Tb2  1  0.000000  0.745116  0.280572  1
  Tb  Tb3  1  0.000000  0.255190  0.719431  1
  Tb  Tb4  1  0.000000  0.755168  0.780452  1
  Tb  Tb5  1  0.000000  0.244429  0.219740  1
  Tb  Tb6  1  0.000000  0.614209  0.083580  1
  Tb  Tb7  1  0.000000  0.385803  0.916406  1
  Tb  Tb8  1  0.000000  0.885788  0.583384  1
  Er  Er9  1  0.000000  0.113541  0.415549  1
  Cd  Cd10  1  0.500000  0.710830  0.931302  1
  Cd  Cd11  1  0.500000  0.289045  0.068738  1
  Cd  Cd12  1  0.500000  0.790814  0.431414  1
  Cd  Cd13  1  0.500000  0.210444  0.568138  1
  In  In14  1  0.500000  0.571859  0.647654  1
  In  In15  1  0.500000  0.426943  0.352610  1
  In  In16  1  0.500000  0.928289  0.147741  1
  In  In17  1  0.500000  0.071735  0.852307  1
  Pd  Pd18  1  0.500000  0.526721  0.196827  1
  Pd  Pd19  1  0.500000  0.473243  0.803237  1
  Pd  Pd20  1  0.500000  0.973284  0.696675  1
  Pd  Pd21  1  0.500000  0.027698  0.304258  1
