# generated using pymatgen
data_Tb4Tc3B16W
_symmetry_space_group_name_H-M   'P 1'
_cell_length_a   6.00088179
_cell_length_b   11.61548053
_cell_length_c   3.61414000
_cell_angle_alpha   90.00000000
_cell_angle_beta   90.00000000
_cell_angle_gamma   89.94107738
_symmetry_Int_Tables_number   1
_chemical_formula_structural   Tb4Tc3B16W
_chemical_formula_sum   'Tb4 Tc3 B16 W1'
_cell_volume   251.91672138
_cell_formula_units_Z   1
loop_
 _symmetry_equiv_pos_site_id
 _symmetry_equiv_pos_as_xyz
  1  'x, y, z'
loop_
 _atom_site_type_symbol
 _atom_site_label
 _atom_site_symmetry_multiplicity
 _atom_site_fract_x
 _atom_site_fract_y
 _atom_site_fract_z
 _atom_site_occupancy
  Tb  Tb0  1  0.625791  0.347693  0.000000  1
  Tb  Tb1  1  0.372541  0.652286  0.000000  1
  Tb  Tb2  1  0.126591  0.148613  0.000000  1
  Tb  Tb3  1  0.873046  0.852097  0.000000  1
  Tc  Tc4  1  0.634621  0.088232  0.000000  1
  Tc  Tc5  1  0.366286  0.913048  0.000000  1
  Tc  Tc6  1  0.129255  0.414448  0.000000  1
  B  B7  1  0.785954  0.184715  0.500000  1
  B  B8  1  0.215222  0.815878  0.500000  1
  B  B9  1  0.286156  0.314801  0.500000  1
  B  B10  1  0.711277  0.686806  0.500000  1
  B  B11  1  0.863185  0.031566  0.500000  1
  B  B12  1  0.137063  0.968802  0.500000  1
  B  B13  1  0.364183  0.466806  0.500000  1
  B  B14  1  0.633472  0.530868  0.500000  1
  B  B15  1  0.887245  0.451064  0.500000  1
  B  B16  1  0.116657  0.545912  0.500000  1
  B  B17  1  0.386895  0.047021  0.500000  1
  B  B18  1  0.613354  0.953500  0.500000  1
  B  B19  1  0.977444  0.306784  0.500000  1
  B  B20  1  0.025593  0.693485  0.500000  1
  B  B21  1  0.475352  0.191470  0.500000  1
  B  B22  1  0.522956  0.809009  0.500000  1
  W  W23  1  0.869862  0.585096  0.000000  1
