# generated using pymatgen
data_CaPrAl20Os3Rh
_symmetry_space_group_name_H-M   'P 1'
_cell_length_a   6.89316639
_cell_length_b   6.89440671
_cell_length_c   9.20720462
_cell_angle_alpha   90.29364624
_cell_angle_beta   90.08568436
_cell_angle_gamma   96.53919719
_symmetry_Int_Tables_number   1
_chemical_formula_structural   CaPrAl20Os3Rh
_chemical_formula_sum   'Ca1 Pr1 Al20 Os3 Rh1'
_cell_volume   434.71249982
_cell_formula_units_Z   1
loop_
 _symmetry_equiv_pos_site_id
 _symmetry_equiv_pos_as_xyz
  1  'x, y, z'
loop_
 _atom_site_type_symbol
 _atom_site_label
 _atom_site_symmetry_multiplicity
 _atom_site_fract_x
 _atom_site_fract_y
 _atom_site_fract_z
 _atom_site_occupancy
  Ca  Ca0  1  0.872521  0.124808  0.750285  1
  Pr  Pr1  1  0.125734  0.876286  0.250205  1
  Al  Al2  1  0.620606  0.376165  0.549614  1
  Al  Al3  1  0.380321  0.622676  0.448325  1
  Al  Al4  1  0.378145  0.622390  0.049173  1
  Al  Al5  1  0.623243  0.376318  0.952490  1
  Al  Al6  1  0.225572  0.226538  0.500547  1
  Al  Al7  1  0.773246  0.775481  0.501935  1
  Al  Al8  1  0.774373  0.776597  0.997859  1
  Al  Al9  1  0.223791  0.224956  0.000112  1
  Al  Al10  1  0.841758  0.159054  0.099662  1
  Al  Al11  1  0.159316  0.839384  0.898773  1
  Al  Al12  1  0.161084  0.840142  0.603341  1
  Al  Al13  1  0.839689  0.158898  0.397840  1
  Al  Al14  1  0.856289  0.586220  0.750427  1
  Al  Al15  1  0.142416  0.411914  0.249752  1
  Al  Al16  1  0.413028  0.142588  0.750406  1
  Al  Al17  1  0.589588  0.858640  0.249546  1
  Al  Al18  1  0.220541  0.479746  0.752522  1
  Al  Al19  1  0.777996  0.516472  0.247331  1
  Al  Al20  1  0.520331  0.782322  0.749200  1
  Al  Al21  1  0.483562  0.219919  0.250724  1
  Os  Os22  1  0.999657  0.500863  0.999769  1
  Os  Os23  1  0.498774  0.000285  0.999631  1
  Os  Os24  1  0.498945  0.000150  0.500333  1
  Rh  Rh25  1  0.999474  0.501187  0.500198  1
