# generated using pymatgen
data_Tb6Ti2Co16(Si3P)3
_symmetry_space_group_name_H-M   'P 1'
_cell_length_a   3.76166400
_cell_length_b   10.84344222
_cell_length_c   12.47809942
_cell_angle_alpha   89.94550878
_cell_angle_beta   90.00000000
_cell_angle_gamma   90.00000000
_symmetry_Int_Tables_number   1
_chemical_formula_structural   Tb6Ti2Co16(Si3P)3
_chemical_formula_sum   'Tb6 Ti2 Co16 Si9 P3'
_cell_volume   508.97378645
_cell_formula_units_Z   1
loop_
 _symmetry_equiv_pos_site_id
 _symmetry_equiv_pos_as_xyz
  1  'x, y, z'
loop_
 _atom_site_type_symbol
 _atom_site_label
 _atom_site_symmetry_multiplicity
 _atom_site_fract_x
 _atom_site_fract_y
 _atom_site_fract_z
 _atom_site_occupancy
  Tb  Tb0  1  0.000000  0.499613  0.527890  1
  Tb  Tb1  1  0.500000  0.000719  0.470986  1
  Tb  Tb2  1  0.500000  0.819665  0.203544  1
  Tb  Tb3  1  0.500000  0.180508  0.204577  1
  Tb  Tb4  1  0.000000  0.677336  0.794128  1
  Tb  Tb5  1  0.000000  0.320117  0.795966  1
  Ti  Ti6  1  0.500000  0.498911  0.146880  1
  Ti  Ti7  1  0.000000  0.003449  0.853782  1
  Co  Co8  1  0.500000  0.499461  0.699966  1
  Co  Co9  1  0.000000  0.000204  0.300063  1
  Co  Co10  1  0.000000  0.498731  0.992139  1
  Co  Co11  1  0.500000  0.003410  0.010443  1
  Co  Co12  1  0.500000  0.329809  0.997654  1
  Co  Co13  1  0.500000  0.667005  0.000168  1
  Co  Co14  1  0.000000  0.171869  0.003214  1
  Co  Co15  1  0.000000  0.829611  0.004334  1
  Co  Co16  1  0.500000  0.301638  0.430942  1
  Co  Co17  1  0.500000  0.698023  0.430182  1
  Co  Co18  1  0.000000  0.198601  0.568940  1
  Co  Co19  1  0.000000  0.801638  0.567776  1
  Co  Co20  1  0.500000  0.882457  0.707914  1
  Co  Co21  1  0.500000  0.118509  0.712116  1
  Co  Co22  1  0.000000  0.618033  0.288342  1
  Co  Co23  1  0.000000  0.381611  0.288449  1
  Si  Si24  1  0.500000  0.499982  0.887038  1
  Si  Si25  1  0.000000  0.000188  0.113243  1
  Si  Si26  1  0.500000  0.499663  0.347288  1
  Si  Si27  1  0.000000  0.000190  0.652095  1
  Si  Si28  1  0.500000  0.302027  0.614823  1
  Si  Si29  1  0.500000  0.697663  0.614072  1
  Si  Si30  1  0.000000  0.198011  0.385162  1
  Si  Si31  1  0.000000  0.802028  0.384287  1
  Si  Si32  1  0.500000  0.841512  0.895000  1
  P  P33  1  0.500000  0.158495  0.895097  1
  P  P34  1  0.000000  0.657312  0.105337  1
  P  P35  1  0.000000  0.341998  0.106162  1
