# generated using pymatgen
data_Eu4Mg4IrPd3
_symmetry_space_group_name_H-M   'P 1'
_cell_length_a   4.36742300
_cell_length_b   7.39828902
_cell_length_c   8.57657351
_cell_angle_alpha   90.35952990
_cell_angle_beta   90.00000000
_cell_angle_gamma   90.00000000
_symmetry_Int_Tables_number   1
_chemical_formula_structural   Eu4Mg4IrPd3
_chemical_formula_sum   'Eu4 Mg4 Ir1 Pd3'
_cell_volume   277.11613589
_cell_formula_units_Z   1
loop_
 _symmetry_equiv_pos_site_id
 _symmetry_equiv_pos_as_xyz
  1  'x, y, z'
loop_
 _atom_site_type_symbol
 _atom_site_label
 _atom_site_symmetry_multiplicity
 _atom_site_fract_x
 _atom_site_fract_y
 _atom_site_fract_z
 _atom_site_occupancy
  Eu  Eu0  1  0.250000  0.037748  0.329001  1
  Eu  Eu1  1  0.250000  0.532281  0.175813  1
  Eu  Eu2  1  0.750000  0.978440  0.674100  1
  Eu  Eu3  1  0.750000  0.460389  0.816110  1
  Mg  Mg4  1  0.250000  0.138643  0.935256  1
  Mg  Mg5  1  0.250000  0.631973  0.562085  1
  Mg  Mg6  1  0.750000  0.862770  0.060689  1
  Mg  Mg7  1  0.750000  0.360354  0.443747  1
  Ir  Ir8  1  0.250000  0.267555  0.627310  1
  Pd  Pd9  1  0.250000  0.769639  0.877016  1
  Pd  Pd10  1  0.750000  0.729836  0.374852  1
  Pd  Pd11  1  0.750000  0.230370  0.124021  1
