# generated using pymatgen
data_SmHo2Be2(PPd5)4
_symmetry_space_group_name_H-M   'P 1'
_cell_length_a   8.68240587
_cell_length_b   8.60092536
_cell_length_c   8.60092604
_cell_angle_alpha   60.62776012
_cell_angle_beta   59.68612936
_cell_angle_gamma   59.68613032
_symmetry_Int_Tables_number   1
_chemical_formula_structural   SmHo2Be2(PPd5)4
_chemical_formula_sum   'Sm1 Ho2 Be2 P4 Pd20'
_cell_volume   454.08466522
_cell_formula_units_Z   1
loop_
 _symmetry_equiv_pos_site_id
 _symmetry_equiv_pos_as_xyz
  1  'x, y, z'
loop_
 _atom_site_type_symbol
 _atom_site_label
 _atom_site_symmetry_multiplicity
 _atom_site_fract_x
 _atom_site_fract_y
 _atom_site_fract_z
 _atom_site_occupancy
  Sm  Sm0  1  0.750000  0.750000  0.750000  1
  Ho  Ho1  1  0.250000  0.250000  0.250000  1
  Ho  Ho2  1  0.000000  0.000000  0.000000  1
  Be  Be3  1  0.733079  0.266921  0.266921  1
  Be  Be4  1  0.266921  0.733079  0.733079  1
  P  P5  1  0.266063  0.733937  0.266063  1
  P  P6  1  0.733937  0.266063  0.733937  1
  P  P7  1  0.266063  0.266063  0.733937  1
  P  P8  1  0.733937  0.733937  0.266063  1
  Pd  Pd9  1  0.386877  0.381918  0.381918  1
  Pd  Pd10  1  0.610890  0.616445  0.616445  1
  Pd  Pd11  1  0.381918  0.386877  0.849285  1
  Pd  Pd12  1  0.381918  0.849285  0.386877  1
  Pd  Pd13  1  0.616445  0.610890  0.156221  1
  Pd  Pd14  1  0.616445  0.156221  0.610890  1
  Pd  Pd15  1  0.849285  0.381918  0.381918  1
  Pd  Pd16  1  0.156221  0.616445  0.616445  1
  Pd  Pd17  1  0.343337  0.000854  0.000854  1
  Pd  Pd18  1  0.654956  0.000854  0.000854  1
  Pd  Pd19  1  0.000854  0.343337  0.654956  1
  Pd  Pd20  1  0.000854  0.654956  0.343337  1
  Pd  Pd21  1  0.997564  0.342502  0.003570  1
  Pd  Pd22  1  0.656362  0.003570  0.342502  1
  Pd  Pd23  1  0.003570  0.656362  0.997564  1
  Pd  Pd24  1  0.342502  0.997564  0.656362  1
  Pd  Pd25  1  0.997564  0.003570  0.342502  1
  Pd  Pd26  1  0.003570  0.997564  0.656362  1
  Pd  Pd27  1  0.656362  0.342502  0.003570  1
  Pd  Pd28  1  0.342502  0.656362  0.997564  1
