# generated using pymatgen
data_Tb15ErCd4Os3Pd
_symmetry_space_group_name_H-M   'P 1'
_cell_length_a   9.65124934
_cell_length_b   9.77162138
_cell_length_c   9.77162164
_cell_angle_alpha   59.81852471
_cell_angle_beta   59.33430935
_cell_angle_gamma   59.33431164
_symmetry_Int_Tables_number   1
_chemical_formula_structural   Tb15ErCd4Os3Pd
_chemical_formula_sum   'Tb15 Er1 Cd4 Os3 Pd1'
_cell_volume   644.12625075
_cell_formula_units_Z   1
loop_
 _symmetry_equiv_pos_site_id
 _symmetry_equiv_pos_as_xyz
  1  'x, y, z'
loop_
 _atom_site_type_symbol
 _atom_site_label
 _atom_site_symmetry_multiplicity
 _atom_site_fract_x
 _atom_site_fract_y
 _atom_site_fract_z
 _atom_site_occupancy
  Tb  Tb0  1  0.346565  0.351782  0.951640  1
  Tb  Tb1  1  0.346565  0.951640  0.351782  1
  Tb  Tb2  1  0.970081  0.343515  0.343515  1
  Tb  Tb3  1  0.814594  0.190208  0.190208  1
  Tb  Tb4  1  0.184556  0.810533  0.810533  1
  Tb  Tb5  1  0.186356  0.810221  0.192204  1
  Tb  Tb6  1  0.815634  0.189714  0.803565  1
  Tb  Tb7  1  0.186356  0.192204  0.810221  1
  Tb  Tb8  1  0.815634  0.803565  0.189714  1
  Tb  Tb9  1  0.935400  0.561960  0.561960  1
  Tb  Tb10  1  0.552758  0.940217  0.940217  1
  Tb  Tb11  1  0.552099  0.940545  0.567066  1
  Tb  Tb12  1  0.935036  0.562045  0.939777  1
  Tb  Tb13  1  0.552099  0.567066  0.940545  1
  Tb  Tb14  1  0.935036  0.939777  0.562045  1
  Er  Er15  1  0.345063  0.351443  0.351443  1
  Cd  Cd16  1  0.581590  0.579159  0.579159  1
  Cd  Cd17  1  0.580912  0.578908  0.259335  1
  Cd  Cd18  1  0.580912  0.259335  0.578908  1
  Cd  Cd19  1  0.254771  0.581186  0.581186  1
  Os  Os20  1  0.149744  0.136309  0.136309  1
  Os  Os21  1  0.151817  0.137887  0.577494  1
  Os  Os22  1  0.151817  0.577494  0.137887  1
  Pd  Pd23  1  0.574604  0.143288  0.143288  1
