# generated using pymatgen
data_Er3Lu2InBi2
_symmetry_space_group_name_H-M   'P 1'
_cell_length_a   6.44541004
_cell_length_b   8.98979299
_cell_length_c   8.97109137
_cell_angle_alpha   120.06898843
_cell_angle_beta   90.00397794
_cell_angle_gamma   89.99208098
_symmetry_Int_Tables_number   1
_chemical_formula_structural   Er3Lu2InBi2
_chemical_formula_sum   'Er6 Lu4 In2 Bi4'
_cell_volume   449.85631415
_cell_formula_units_Z   2
loop_
 _symmetry_equiv_pos_site_id
 _symmetry_equiv_pos_as_xyz
  1  'x, y, z'
loop_
 _atom_site_type_symbol
 _atom_site_label
 _atom_site_symmetry_multiplicity
 _atom_site_fract_x
 _atom_site_fract_y
 _atom_site_fract_z
 _atom_site_occupancy
  Er  Er0  1  0.750160  0.236237  0.000000  1
  Er  Er1  1  0.750091  0.764842  0.762539  1
  Er  Er2  1  0.750091  0.002303  0.237461  1
  Er  Er3  1  0.250351  0.765868  0.000000  1
  Er  Er4  1  0.250123  0.232539  0.242722  1
  Er  Er5  1  0.250123  0.989818  0.757278  1
  Lu  Lu6  1  0.496411  0.332347  0.659794  1
  Lu  Lu7  1  0.496411  0.672553  0.340206  1
  Lu  Lu8  1  0.003473  0.672332  0.339954  1
  Lu  Lu9  1  0.003473  0.332380  0.660046  1
  In  In10  1  0.249623  0.602854  0.604379  1
  In  In11  1  0.249623  0.998475  0.395621  1
  Bi  Bi12  1  0.750030  0.605418  0.000000  1
  Bi  Bi13  1  0.749895  0.397826  0.393525  1
  Bi  Bi14  1  0.749895  0.004301  0.606475  1
  Bi  Bi15  1  0.250228  0.389909  0.000000  1
