# generated using pymatgen
data_Lu4Zr3ScPt4
_symmetry_space_group_name_H-M   'P 1'
_cell_length_a   4.66075900
_cell_length_b   6.93426248
_cell_length_c   8.25226912
_cell_angle_alpha   89.00172758
_cell_angle_beta   90.00000000
_cell_angle_gamma   90.00000000
_symmetry_Int_Tables_number   1
_chemical_formula_structural   Lu4Zr3ScPt4
_chemical_formula_sum   'Lu4 Zr3 Sc1 Pt4'
_cell_volume   266.66399687
_cell_formula_units_Z   1
loop_
 _symmetry_equiv_pos_site_id
 _symmetry_equiv_pos_as_xyz
  1  'x, y, z'
loop_
 _atom_site_type_symbol
 _atom_site_label
 _atom_site_symmetry_multiplicity
 _atom_site_fract_x
 _atom_site_fract_y
 _atom_site_fract_z
 _atom_site_occupancy
  Lu  Lu0  1  0.250000  0.981041  0.324138  1
  Lu  Lu1  1  0.250000  0.484733  0.178614  1
  Lu  Lu2  1  0.750000  0.015940  0.675091  1
  Lu  Lu3  1  0.750000  0.516145  0.819233  1
  Zr  Zr4  1  0.250000  0.854491  0.921061  1
  Zr  Zr5  1  0.250000  0.352356  0.575946  1
  Zr  Zr6  1  0.750000  0.147728  0.080772  1
  Sc  Sc7  1  0.750000  0.648435  0.422416  1
  Pt  Pt8  1  0.250000  0.239159  0.906779  1
  Pt  Pt9  1  0.250000  0.739884  0.599851  1
  Pt  Pt10  1  0.750000  0.759987  0.092939  1
  Pt  Pt11  1  0.750000  0.260103  0.403158  1
