# generated using pymatgen
data_CaEr9(In2Pd)4
_symmetry_space_group_name_H-M   'P 1'
_cell_length_a   3.60059500
_cell_length_b   8.12162121
_cell_length_c   18.17864100
_cell_angle_alpha   89.98686411
_cell_angle_beta   90.00000000
_cell_angle_gamma   90.00000000
_symmetry_Int_Tables_number   1
_chemical_formula_structural   CaEr9(In2Pd)4
_chemical_formula_sum   'Ca1 Er9 In8 Pd4'
_cell_volume   531.59196281
_cell_formula_units_Z   1
loop_
 _symmetry_equiv_pos_site_id
 _symmetry_equiv_pos_as_xyz
  1  'x, y, z'
loop_
 _atom_site_type_symbol
 _atom_site_label
 _atom_site_symmetry_multiplicity
 _atom_site_fract_x
 _atom_site_fract_y
 _atom_site_fract_z
 _atom_site_occupancy
  Ca  Ca0  1  0.000000  0.500000  0.500000  1
  Er  Er1  1  0.000000  0.000000  0.000000  1
  Er  Er2  1  0.000000  0.740252  0.279603  1
  Er  Er3  1  0.000000  0.259748  0.720397  1
  Er  Er4  1  0.000000  0.761348  0.781732  1
  Er  Er5  1  0.000000  0.238652  0.218268  1
  Er  Er6  1  0.000000  0.618028  0.083201  1
  Er  Er7  1  0.000000  0.381972  0.916799  1
  Er  Er8  1  0.000000  0.880208  0.584853  1
  Er  Er9  1  0.000000  0.119792  0.415147  1
  In  In10  1  0.500000  0.708350  0.933248  1
  In  In11  1  0.500000  0.291650  0.066752  1
  In  In12  1  0.500000  0.795251  0.431825  1
  In  In13  1  0.500000  0.204749  0.568175  1
  In  In14  1  0.500000  0.579598  0.652094  1
  In  In15  1  0.500000  0.420402  0.347906  1
  In  In16  1  0.500000  0.919513  0.149307  1
  In  In17  1  0.500000  0.080487  0.850693  1
  Pd  Pd18  1  0.500000  0.523754  0.194977  1
  Pd  Pd19  1  0.500000  0.476246  0.805023  1
  Pd  Pd20  1  0.500000  0.977274  0.696690  1
  Pd  Pd21  1  0.500000  0.022726  0.303310  1
