# generated using pymatgen
data_Sm2B4IrOs3
_symmetry_space_group_name_H-M   'P 1'
_cell_length_a   6.81600273
_cell_length_b   6.02174468
_cell_length_c   5.60672766
_cell_angle_alpha   71.66719683
_cell_angle_beta   56.99588298
_cell_angle_gamma   51.47706724
_symmetry_Int_Tables_number   1
_chemical_formula_structural   Sm2B4IrOs3
_chemical_formula_sum   'Sm2 B4 Ir1 Os3'
_cell_volume   150.87952963
_cell_formula_units_Z   1
loop_
 _symmetry_equiv_pos_site_id
 _symmetry_equiv_pos_as_xyz
  1  'x, y, z'
loop_
 _atom_site_type_symbol
 _atom_site_label
 _atom_site_symmetry_multiplicity
 _atom_site_fract_x
 _atom_site_fract_y
 _atom_site_fract_z
 _atom_site_occupancy
  Sm  Sm0  1  0.499650  0.499650  0.500350  1
  Sm  Sm1  1  0.747691  0.747691  0.752309  1
  B  B2  1  0.180671  0.817060  0.183250  1
  B  B3  1  0.068724  0.437202  0.055420  1
  B  B4  1  0.817060  0.180671  0.819019  1
  B  B5  1  0.437202  0.068724  0.438654  1
  Ir  Ir6  1  0.114119  0.114119  0.385881  1
  Os  Os7  1  0.863256  0.863256  0.136744  1
  Os  Os8  1  0.136020  0.136020  0.863980  1
  Os  Os9  1  0.385608  0.385608  0.114392  1
