# generated using pymatgen
data_Pr6Sb13Rh20
_symmetry_space_group_name_H-M   'P 1'
_cell_length_a   14.65806700
_cell_length_b   14.65806641
_cell_length_c   4.21876700
_cell_angle_alpha   90.00000000
_cell_angle_beta   90.00000000
_cell_angle_gamma   119.99999907
_symmetry_Int_Tables_number   1
_chemical_formula_structural   Pr6Sb13Rh20
_chemical_formula_sum   'Pr6 Sb13 Rh20'
_cell_volume   784.99983130
_cell_formula_units_Z   1
loop_
 _symmetry_equiv_pos_site_id
 _symmetry_equiv_pos_as_xyz
  1  'x, y, z'
loop_
 _atom_site_type_symbol
 _atom_site_label
 _atom_site_symmetry_multiplicity
 _atom_site_fract_x
 _atom_site_fract_y
 _atom_site_fract_z
 _atom_site_occupancy
  Pr  Pr0  1  0.531084  0.719848  0.248388  1
  Pr  Pr1  1  0.280152  0.811237  0.248388  1
  Pr  Pr2  1  0.188763  0.468916  0.248388  1
  Pr  Pr3  1  0.468916  0.280152  0.751612  1
  Pr  Pr4  1  0.719848  0.188763  0.751612  1
  Pr  Pr5  1  0.811237  0.531084  0.751612  1
  Sb  Sb6  1  0.524609  0.136205  0.251217  1
  Sb  Sb7  1  0.863795  0.388405  0.251217  1
  Sb  Sb8  1  0.611595  0.475391  0.251217  1
  Sb  Sb9  1  0.948888  0.720126  0.247899  1
  Sb  Sb10  1  0.279874  0.228763  0.247899  1
  Sb  Sb11  1  0.771237  0.051112  0.247899  1
  Sb  Sb12  1  0.388405  0.524609  0.748783  1
  Sb  Sb13  1  0.475391  0.863795  0.748783  1
  Sb  Sb14  1  0.136205  0.611595  0.748783  1
  Sb  Sb15  1  0.720126  0.771237  0.752101  1
  Sb  Sb16  1  0.228763  0.948888  0.752101  1
  Sb  Sb17  1  0.051112  0.279874  0.752101  1
  Sb  Sb18  1  0.000000  0.000000  0.000000  1
  Rh  Rh19  1  0.333333  0.666667  0.753803  1
  Rh  Rh20  1  0.924608  0.250012  0.253151  1
  Rh  Rh21  1  0.749988  0.674595  0.253151  1
  Rh  Rh22  1  0.325405  0.075392  0.253151  1
  Rh  Rh23  1  0.435993  0.021009  0.751633  1
  Rh  Rh24  1  0.978991  0.414986  0.751633  1
  Rh  Rh25  1  0.585014  0.564007  0.751633  1
  Rh  Rh26  1  0.666667  0.333333  0.246197  1
  Rh  Rh27  1  0.087904  0.189708  0.254431  1
  Rh  Rh28  1  0.810292  0.898197  0.254431  1
  Rh  Rh29  1  0.101803  0.912096  0.254431  1
  Rh  Rh30  1  0.021009  0.585014  0.248367  1
  Rh  Rh31  1  0.414986  0.435993  0.248367  1
  Rh  Rh32  1  0.564007  0.978991  0.248367  1
  Rh  Rh33  1  0.674595  0.924608  0.746849  1
  Rh  Rh34  1  0.075392  0.749988  0.746849  1
  Rh  Rh35  1  0.250012  0.325405  0.746849  1
  Rh  Rh36  1  0.912096  0.810292  0.745569  1
  Rh  Rh37  1  0.189708  0.101803  0.745569  1
  Rh  Rh38  1  0.898197  0.087904  0.745569  1
