# generated using pymatgen
data_Dy7YSc12Si15Tc
_symmetry_space_group_name_H-M   'P 1'
_cell_length_a   7.09214802
_cell_length_b   7.45202544
_cell_length_c   13.95445000
_cell_angle_alpha   89.99819972
_cell_angle_beta   90.00088359
_cell_angle_gamma   90.19316476
_symmetry_Int_Tables_number   1
_chemical_formula_structural   Dy7YSc12Si15Tc
_chemical_formula_sum   'Dy7 Y1 Sc12 Si15 Tc1'
_cell_volume   737.50059653
_cell_formula_units_Z   1
loop_
 _symmetry_equiv_pos_site_id
 _symmetry_equiv_pos_as_xyz
  1  'x, y, z'
loop_
 _atom_site_type_symbol
 _atom_site_label
 _atom_site_symmetry_multiplicity
 _atom_site_fract_x
 _atom_site_fract_y
 _atom_site_fract_z
 _atom_site_occupancy
  Dy  Dy0  1  0.990975  0.827208  0.903730  1
  Dy  Dy1  1  0.489067  0.675680  0.903998  1
  Dy  Dy2  1  0.990979  0.827266  0.596221  1
  Dy  Dy3  1  0.510850  0.323105  0.096075  1
  Dy  Dy4  1  0.011565  0.178579  0.404062  1
  Dy  Dy5  1  0.510824  0.323074  0.403962  1
  Dy  Dy6  1  0.489033  0.675712  0.596007  1
  Y  Y7  1  0.011354  0.178425  0.095902  1
  Sc  Sc8  1  0.156462  0.498884  0.750051  1
  Sc  Sc9  1  0.838319  0.495037  0.250062  1
  Sc  Sc10  1  0.338855  0.005521  0.249992  1
  Sc  Sc11  1  0.667493  0.998940  0.749960  1
  Sc  Sc12  1  0.316372  0.171479  0.627911  1
  Sc  Sc13  1  0.672012  0.826200  0.373944  1
  Sc  Sc14  1  0.171696  0.677914  0.373882  1
  Sc  Sc15  1  0.671952  0.826139  0.126066  1
  Sc  Sc16  1  0.837435  0.319684  0.627313  1
  Sc  Sc17  1  0.316367  0.171467  0.872068  1
  Sc  Sc18  1  0.837407  0.319664  0.872618  1
  Sc  Sc19  1  0.171712  0.677837  0.126119  1
  Si  Si20  1  0.968380  0.884244  0.250080  1
  Si  Si21  1  0.470132  0.614197  0.250008  1
  Si  Si22  1  0.529579  0.387929  0.750001  1
  Si  Si23  1  0.286867  0.867452  0.750012  1
  Si  Si24  1  0.712946  0.129172  0.250034  1
  Si  Si25  1  0.214373  0.370460  0.250109  1
  Si  Si26  1  0.779982  0.628073  0.750000  1
  Si  Si27  1  0.159972  0.468666  0.536858  1
  Si  Si28  1  0.844700  0.536372  0.461488  1
  Si  Si29  1  0.344519  0.965438  0.459911  1
  Si  Si30  1  0.844595  0.536573  0.038478  1
  Si  Si31  1  0.655017  0.034028  0.538888  1
  Si  Si32  1  0.160019  0.468786  0.963074  1
  Si  Si33  1  0.654968  0.033996  0.961069  1
  Si  Si34  1  0.344726  0.965273  0.040064  1
  Tc  Tc35  1  0.028497  0.111526  0.749982  1
