# generated using pymatgen
data_Dy2ZnNiRu
_symmetry_space_group_name_H-M   'P 1'
_cell_length_a   4.12351207
_cell_length_b   5.39717881
_cell_length_c   5.39718000
_cell_angle_alpha   62.96143703
_cell_angle_beta   67.54199586
_cell_angle_gamma   67.54200644
_symmetry_Int_Tables_number   1
_chemical_formula_structural   Dy2ZnNiRu
_chemical_formula_sum   'Dy2 Zn1 Ni1 Ru1'
_cell_volume   95.65385026
_cell_formula_units_Z   1
loop_
 _symmetry_equiv_pos_site_id
 _symmetry_equiv_pos_as_xyz
  1  'x, y, z'
loop_
 _atom_site_type_symbol
 _atom_site_label
 _atom_site_symmetry_multiplicity
 _atom_site_fract_x
 _atom_site_fract_y
 _atom_site_fract_z
 _atom_site_occupancy
  Dy  Dy0  1  0.205348  0.288385  0.300919  1
  Dy  Dy1  1  0.794652  0.699081  0.711615  1
  Zn  Zn2  1  0.000000  0.996159  0.003841  1
  Ni  Ni3  1  0.500000  0.733437  0.266563  1
  Ru  Ru4  1  0.500000  0.282940  0.717060  1
