# generated using pymatgen
data_Y8VOs3C8
_symmetry_space_group_name_H-M   'P 1'
_cell_length_a   5.11580400
_cell_length_b   6.53507539
_cell_length_c   9.83940426
_cell_angle_alpha   89.80528795
_cell_angle_beta   90.00000000
_cell_angle_gamma   90.00000000
_symmetry_Int_Tables_number   1
_chemical_formula_structural   Y8VOs3C8
_chemical_formula_sum   'Y8 V1 Os3 C8'
_cell_volume   328.95068580
_cell_formula_units_Z   1
loop_
 _symmetry_equiv_pos_site_id
 _symmetry_equiv_pos_as_xyz
  1  'x, y, z'
loop_
 _atom_site_type_symbol
 _atom_site_label
 _atom_site_symmetry_multiplicity
 _atom_site_fract_x
 _atom_site_fract_y
 _atom_site_fract_z
 _atom_site_occupancy
  Y  Y0  1  0.250000  0.684456  0.556787  1
  Y  Y1  1  0.750000  0.319476  0.445081  1
  Y  Y2  1  0.750000  0.817905  0.054043  1
  Y  Y3  1  0.250000  0.177552  0.943413  1
  Y  Y4  1  0.250000  0.532421  0.213618  1
  Y  Y5  1  0.750000  0.469125  0.779458  1
  Y  Y6  1  0.750000  0.973109  0.716861  1
  Y  Y7  1  0.250000  0.029036  0.283179  1
  V  V8  1  0.250000  0.724517  0.865110  1
  Os  Os9  1  0.750000  0.275848  0.135802  1
  Os  Os10  1  0.750000  0.775126  0.363178  1
  Os  Os11  1  0.250000  0.227160  0.636268  1
  C  C12  1  0.250000  0.460486  0.762186  1
  C  C13  1  0.750000  0.540214  0.242297  1
  C  C14  1  0.750000  0.040975  0.259209  1
  C  C15  1  0.250000  0.958424  0.741375  1
  C  C16  1  0.250000  0.817788  0.049197  1
  C  C17  1  0.750000  0.176996  0.953158  1
  C  C18  1  0.750000  0.678425  0.548807  1
  C  C19  1  0.250000  0.320961  0.450975  1
