# generated using pymatgen
data_NaCa2Pa7O20
_symmetry_space_group_name_H-M   'P 1'
_cell_length_a   6.58780809
_cell_length_b   7.59776055
_cell_length_c   8.48825800
_cell_angle_alpha   103.05499336
_cell_angle_beta   97.17812589
_cell_angle_gamma   106.79905429
_symmetry_Int_Tables_number   1
_chemical_formula_structural   NaCa2Pa7O20
_chemical_formula_sum   'Na1 Ca2 Pa7 O20'
_cell_volume   387.88427494
_cell_formula_units_Z   1
loop_
 _symmetry_equiv_pos_site_id
 _symmetry_equiv_pos_as_xyz
  1  'x, y, z'
loop_
 _atom_site_type_symbol
 _atom_site_label
 _atom_site_symmetry_multiplicity
 _atom_site_fract_x
 _atom_site_fract_y
 _atom_site_fract_z
 _atom_site_occupancy
  Na  Na0  1  0.007312  0.002419  0.003731  1
  Ca  Ca1  1  0.387684  0.292742  0.797891  1
  Ca  Ca2  1  0.201700  0.902959  0.397605  1
  Pa  Pa3  1  0.802560  0.605365  0.605279  1
  Pa  Pa4  1  0.591536  0.192944  0.192366  1
  Pa  Pa5  1  0.998797  0.499566  0.999438  1
  Pa  Pa6  1  0.799151  0.101351  0.606874  1
  Pa  Pa7  1  0.403249  0.805396  0.801331  1
  Pa  Pa8  1  0.197967  0.395249  0.398625  1
  Pa  Pa9  1  0.609637  0.702139  0.196258  1
  O  O10  1  0.837157  0.326317  0.452516  1
  O  O11  1  0.643304  0.920979  0.052165  1
  O  O12  1  0.939150  0.748595  0.147436  1
  O  O13  1  0.450534  0.533511  0.640102  1
  O  O14  1  0.839410  0.821944  0.456105  1
  O  O15  1  0.645481  0.422449  0.053704  1
  O  O16  1  0.750073  0.384035  0.747532  1
  O  O17  1  0.273594  0.150060  0.261246  1
  O  O18  1  0.941777  0.293215  0.165510  1
  O  O19  1  0.465461  0.015846  0.650067  1
  O  O20  1  0.570004  0.976696  0.345346  1
  O  O21  1  0.054052  0.709023  0.839526  1
  O  O22  1  0.746467  0.867818  0.745265  1
  O  O23  1  0.354650  0.589515  0.954389  1
  O  O24  1  0.264676  0.610421  0.244518  1
  O  O25  1  0.561378  0.480968  0.351306  1
  O  O26  1  0.125334  0.182611  0.544001  1
  O  O27  1  0.028458  0.240718  0.850199  1
  O  O28  1  0.367215  0.063206  0.950706  1
  O  O29  1  0.142230  0.661940  0.548963  1
