# generated using pymatgen
data_Tm2In(AsRh2)6
_symmetry_space_group_name_H-M   'P 1'
_cell_length_a   10.04940800
_cell_length_b   10.04940833
_cell_length_c   3.97569600
_cell_angle_alpha   90.00000000
_cell_angle_beta   90.00000000
_cell_angle_gamma   119.99999892
_symmetry_Int_Tables_number   1
_chemical_formula_structural   Tm2In(AsRh2)6
_chemical_formula_sum   'Tm2 In1 As6 Rh12'
_cell_volume   347.71608150
_cell_formula_units_Z   1
loop_
 _symmetry_equiv_pos_site_id
 _symmetry_equiv_pos_as_xyz
  1  'x, y, z'
loop_
 _atom_site_type_symbol
 _atom_site_label
 _atom_site_symmetry_multiplicity
 _atom_site_fract_x
 _atom_site_fract_y
 _atom_site_fract_z
 _atom_site_occupancy
  Tm  Tm0  1  0.333333  0.666667  0.244607  1
  Tm  Tm1  1  0.666667  0.333333  0.755393  1
  In  In2  1  0.000000  0.000000  0.500000  1
  As  As3  1  0.405404  0.117614  0.254687  1
  As  As4  1  0.712210  0.594596  0.254687  1
  As  As5  1  0.882386  0.287790  0.254687  1
  As  As6  1  0.594596  0.882386  0.745313  1
  As  As7  1  0.287790  0.405404  0.745313  1
  As  As8  1  0.117614  0.712210  0.745313  1
  Rh  Rh9  1  0.451219  0.385175  0.251383  1
  Rh  Rh10  1  0.933956  0.548781  0.251383  1
  Rh  Rh11  1  0.614825  0.066044  0.251383  1
  Rh  Rh12  1  0.548781  0.614825  0.748617  1
  Rh  Rh13  1  0.066044  0.451219  0.748617  1
  Rh  Rh14  1  0.385175  0.933956  0.748617  1
  Rh  Rh15  1  0.159599  0.873309  0.241834  1
  Rh  Rh16  1  0.713710  0.840401  0.241834  1
  Rh  Rh17  1  0.126691  0.286290  0.241834  1
  Rh  Rh18  1  0.840401  0.126691  0.758166  1
  Rh  Rh19  1  0.286290  0.159599  0.758166  1
  Rh  Rh20  1  0.873309  0.713710  0.758166  1
