# generated using pymatgen
data_LiS8I3
_symmetry_space_group_name_H-M   'P 1'
_cell_length_a   8.14341225
_cell_length_b   10.49952083
_cell_length_c   12.54311861
_cell_angle_alpha   109.81960769
_cell_angle_beta   92.11358396
_cell_angle_gamma   109.82914687
_symmetry_Int_Tables_number   1
_chemical_formula_structural   LiS8I3
_chemical_formula_sum   'Li2 S16 I6'
_cell_volume   935.02760899
_cell_formula_units_Z   2
loop_
 _symmetry_equiv_pos_site_id
 _symmetry_equiv_pos_as_xyz
  1  'x, y, z'
loop_
 _atom_site_type_symbol
 _atom_site_label
 _atom_site_symmetry_multiplicity
 _atom_site_fract_x
 _atom_site_fract_y
 _atom_site_fract_z
 _atom_site_occupancy
  Li  Li0  1  0.867095  0.018865  0.898443  1
  Li  Li1  1  0.132905  0.981135  0.101557  1
  S  S2  1  0.797985  0.520207  0.796697  1
  S  S3  1  0.202015  0.479793  0.203303  1
  S  S4  1  0.738371  0.422652  0.619881  1
  S  S5  1  0.261629  0.577348  0.380119  1
  S  S6  1  0.738781  0.214250  0.570586  1
  S  S7  1  0.261219  0.785750  0.429414  1
  S  S8  1  0.978888  0.215525  0.524027  1
  S  S9  1  0.021112  0.784475  0.475973  1
  S  S10  1  0.936560  0.347416  0.156473  1
  S  S11  1  0.063440  0.652584  0.843527  1
  S  S12  1  0.794121  0.457769  0.113039  1
  S  S13  1  0.205879  0.542231  0.886961  1
  S  S14  1  0.693180  0.551195  0.253902  1
  S  S15  1  0.306820  0.448805  0.746098  1
  S  S16  1  0.857585  0.766977  0.337962  1
  S  S17  1  0.142415  0.233023  0.662038  1
  I  I18  1  0.461700  0.999546  0.811719  1
  I  I19  1  0.538300  0.000454  0.188281  1
  I  I20  1  0.766292  0.862790  0.040236  1
  I  I21  1  0.233708  0.137210  0.959764  1
  I  I22  1  0.689216  0.874815  0.679421  1
  I  I23  1  0.310784  0.125185  0.320579  1
