# generated using pymatgen
data_Th4Re6TcOs
_symmetry_space_group_name_H-M   'P 1'
_cell_length_a   5.31105200
_cell_length_b   5.31105254
_cell_length_c   9.75568900
_cell_angle_alpha   90.00000000
_cell_angle_beta   90.00000000
_cell_angle_gamma   120.00000909
_symmetry_Int_Tables_number   1
_chemical_formula_structural   Th4Re6TcOs
_chemical_formula_sum   'Th4 Re6 Tc1 Os1'
_cell_volume   238.31407364
_cell_formula_units_Z   1
loop_
 _symmetry_equiv_pos_site_id
 _symmetry_equiv_pos_as_xyz
  1  'x, y, z'
loop_
 _atom_site_type_symbol
 _atom_site_label
 _atom_site_symmetry_multiplicity
 _atom_site_fract_x
 _atom_site_fract_y
 _atom_site_fract_z
 _atom_site_occupancy
  Th  Th0  1  0.333333  0.666667  0.437962  1
  Th  Th1  1  0.666667  0.333333  0.562038  1
  Th  Th2  1  0.666667  0.333333  0.937140  1
  Th  Th3  1  0.333333  0.666667  0.062860  1
  Re  Re4  1  0.830787  0.169213  0.251159  1
  Re  Re5  1  0.830787  0.661574  0.251159  1
  Re  Re6  1  0.338426  0.169213  0.251159  1
  Re  Re7  1  0.169213  0.830787  0.748841  1
  Re  Re8  1  0.169213  0.338426  0.748841  1
  Re  Re9  1  0.661574  0.830787  0.748841  1
  Tc  Tc10  1  0.000000  0.000000  0.000000  1
  Os  Os11  1  0.000000  0.000000  0.500000  1
