# generated using pymatgen
data_Sm2YEr3CoI10
_symmetry_space_group_name_H-M   'P 1'
_cell_length_a   7.73184169
_cell_length_b   9.72495668
_cell_length_c   9.69341448
_cell_angle_alpha   106.90953372
_cell_angle_beta   96.51080933
_cell_angle_gamma   104.93022224
_symmetry_Int_Tables_number   1
_chemical_formula_structural   Sm2YEr3CoI10
_chemical_formula_sum   'Sm2 Y1 Er3 Co1 I10'
_cell_volume   659.68086637
_cell_formula_units_Z   1
loop_
 _symmetry_equiv_pos_site_id
 _symmetry_equiv_pos_as_xyz
  1  'x, y, z'
loop_
 _atom_site_type_symbol
 _atom_site_label
 _atom_site_symmetry_multiplicity
 _atom_site_fract_x
 _atom_site_fract_y
 _atom_site_fract_z
 _atom_site_occupancy
  Sm  Sm0  1  0.888339  0.958833  0.228771  1
  Sm  Sm1  1  0.110359  0.040616  0.770653  1
  Y  Y2  1  0.343657  0.122440  0.163231  1
  Er  Er3  1  0.029171  0.719695  0.915755  1
  Er  Er4  1  0.970253  0.280276  0.083896  1
  Er  Er5  1  0.659637  0.878137  0.837858  1
  Co  Co6  1  0.998907  0.999579  0.999515  1
  I  I7  1  0.650148  0.551588  0.729185  1
  I  I8  1  0.349231  0.449700  0.270995  1
  I  I9  1  0.737804  0.911335  0.540759  1
  I  I10  1  0.261379  0.088387  0.460021  1
  I  I11  1  0.084661  0.375097  0.821706  1
  I  I12  1  0.915294  0.624885  0.178244  1
  I  I13  1  0.451452  0.815463  0.091052  1
  I  I14  1  0.548571  0.183572  0.907793  1
  I  I15  1  0.223767  0.741168  0.656438  1
  I  I16  1  0.777370  0.259230  0.344129  1
