# generated using pymatgen
data_Sc6Al16Os6Ru
_symmetry_space_group_name_H-M   'P 1'
_cell_length_a   8.75713083
_cell_length_b   8.75713033
_cell_length_c   8.75713000
_cell_angle_alpha   60.00000126
_cell_angle_beta   60.00000313
_cell_angle_gamma   60.00000022
_symmetry_Int_Tables_number   1
_chemical_formula_structural   Sc6Al16Os6Ru
_chemical_formula_sum   'Sc6 Al16 Os6 Ru1'
_cell_volume   474.86533295
_cell_formula_units_Z   1
loop_
 _symmetry_equiv_pos_site_id
 _symmetry_equiv_pos_as_xyz
  1  'x, y, z'
loop_
 _atom_site_type_symbol
 _atom_site_label
 _atom_site_symmetry_multiplicity
 _atom_site_fract_x
 _atom_site_fract_y
 _atom_site_fract_z
 _atom_site_occupancy
  Sc  Sc0  1  0.712585  0.712585  0.287415  1
  Sc  Sc1  1  0.287415  0.712585  0.287415  1
  Sc  Sc2  1  0.712585  0.287415  0.287415  1
  Sc  Sc3  1  0.287415  0.287415  0.712585  1
  Sc  Sc4  1  0.712585  0.287415  0.712585  1
  Sc  Sc5  1  0.287415  0.712585  0.712585  1
  Al  Al6  1  0.879405  0.879405  0.361784  1
  Al  Al7  1  0.879405  0.361784  0.879405  1
  Al  Al8  1  0.361784  0.879405  0.879405  1
  Al  Al9  1  0.879405  0.879405  0.879405  1
  Al  Al10  1  0.120595  0.120595  0.638216  1
  Al  Al11  1  0.120595  0.638216  0.120595  1
  Al  Al12  1  0.638216  0.120595  0.120595  1
  Al  Al13  1  0.120595  0.120595  0.120595  1
  Al  Al14  1  0.662944  0.662944  0.011168  1
  Al  Al15  1  0.662944  0.011168  0.662944  1
  Al  Al16  1  0.011168  0.662944  0.662944  1
  Al  Al17  1  0.662944  0.662944  0.662944  1
  Al  Al18  1  0.337056  0.337056  0.988832  1
  Al  Al19  1  0.337056  0.988832  0.337056  1
  Al  Al20  1  0.988832  0.337056  0.337056  1
  Al  Al21  1  0.337056  0.337056  0.337056  1
  Os  Os22  1  0.000000  0.000000  0.500000  1
  Os  Os23  1  0.500000  0.000000  0.500000  1
  Os  Os24  1  0.000000  0.500000  0.500000  1
  Os  Os25  1  0.500000  0.500000  0.000000  1
  Os  Os26  1  0.000000  0.500000  0.000000  1
  Os  Os27  1  0.500000  0.000000  0.000000  1
  Ru  Ru28  1  0.000000  0.000000  0.000000  1
