# generated using pymatgen
data_U6Fe13IrC4
_symmetry_space_group_name_H-M   'P 1'
_cell_length_a   5.02709900
_cell_length_b   5.02709887
_cell_length_c   13.51784300
_cell_angle_alpha   90.00000000
_cell_angle_beta   90.00000000
_cell_angle_gamma   120.00000745
_symmetry_Int_Tables_number   1
_chemical_formula_structural   U6Fe13IrC4
_chemical_formula_sum   'U6 Fe13 Ir1 C4'
_cell_volume   295.85087752
_cell_formula_units_Z   1
loop_
 _symmetry_equiv_pos_site_id
 _symmetry_equiv_pos_as_xyz
  1  'x, y, z'
loop_
 _atom_site_type_symbol
 _atom_site_label
 _atom_site_symmetry_multiplicity
 _atom_site_fract_x
 _atom_site_fract_y
 _atom_site_fract_z
 _atom_site_occupancy
  U  U0  1  0.333333  0.666667  0.252627  1
  U  U1  1  0.666667  0.333333  0.747373  1
  U  U2  1  0.333333  0.666667  0.028893  1
  U  U3  1  0.666667  0.333333  0.529823  1
  U  U4  1  0.666667  0.333333  0.971107  1
  U  U5  1  0.333333  0.666667  0.470177  1
  Fe  Fe6  1  0.000000  0.000000  0.500000  1
  Fe  Fe7  1  0.834765  0.669528  0.157107  1
  Fe  Fe8  1  0.165268  0.834732  0.647372  1
  Fe  Fe9  1  0.669463  0.834732  0.647372  1
  Fe  Fe10  1  0.330472  0.165235  0.157107  1
  Fe  Fe11  1  0.834765  0.165235  0.157107  1
  Fe  Fe12  1  0.165235  0.330472  0.842893  1
  Fe  Fe13  1  0.165235  0.834765  0.842893  1
  Fe  Fe14  1  0.165268  0.330537  0.647372  1
  Fe  Fe15  1  0.669528  0.834765  0.842893  1
  Fe  Fe16  1  0.330537  0.165268  0.352628  1
  Fe  Fe17  1  0.834732  0.669463  0.352628  1
  Fe  Fe18  1  0.834732  0.165268  0.352628  1
  Ir  Ir19  1  0.000000  0.000000  0.000000  1
  C  C20  1  0.000000  0.000000  0.253806  1
  C  C21  1  0.000000  0.000000  0.746194  1
  C  C22  1  0.333333  0.666667  0.746615  1
  C  C23  1  0.666667  0.333333  0.253385  1
