# generated using pymatgen
data_Y4HoEr5Ir4
_symmetry_space_group_name_H-M   'P 1'
_cell_length_a   6.44062296
_cell_length_b   7.21038048
_cell_length_c   8.52167572
_cell_angle_alpha   96.67250488
_cell_angle_beta   112.20343869
_cell_angle_gamma   89.99999628
_symmetry_Int_Tables_number   1
_chemical_formula_structural   Y4HoEr5Ir4
_chemical_formula_sum   'Y4 Ho1 Er5 Ir4'
_cell_volume   363.49911381
_cell_formula_units_Z   1
loop_
 _symmetry_equiv_pos_site_id
 _symmetry_equiv_pos_as_xyz
  1  'x, y, z'
loop_
 _atom_site_type_symbol
 _atom_site_label
 _atom_site_symmetry_multiplicity
 _atom_site_fract_x
 _atom_site_fract_y
 _atom_site_fract_z
 _atom_site_occupancy
  Y  Y0  1  0.975393  0.918095  0.186605  1
  Y  Y1  1  0.788789  0.581905  0.813395  1
  Y  Y2  1  0.024793  0.081720  0.813328  1
  Y  Y3  1  0.211463  0.418280  0.186672  1
  Ho  Ho4  1  0.572737  0.250000  0.000000  1
  Er  Er5  1  0.649125  0.816871  0.439636  1
  Er  Er6  1  0.209488  0.683129  0.560364  1
  Er  Er7  1  0.350621  0.182992  0.560128  1
  Er  Er8  1  0.790493  0.317008  0.439872  1
  Er  Er9  1  0.427398  0.750000  0.000000  1
  Ir  Ir10  1  0.820242  0.573988  0.222429  1
  Ir  Ir11  1  0.597813  0.926012  0.777571  1
  Ir  Ir12  1  0.179551  0.426853  0.777456  1
  Ir  Ir13  1  0.402094  0.073147  0.222544  1
