# generated using pymatgen
data_TbNdErGa8Ag3
_symmetry_space_group_name_H-M   'P 1'
_cell_length_a   4.36945502
_cell_length_b   8.39894851
_cell_length_c   8.39894832
_cell_angle_alpha   69.21063385
_cell_angle_beta   74.92286670
_cell_angle_gamma   74.92285848
_symmetry_Int_Tables_number   1
_chemical_formula_structural   TbNdErGa8Ag3
_chemical_formula_sum   'Tb1 Nd1 Er1 Ga8 Ag3'
_cell_volume   273.39448219
_cell_formula_units_Z   1
loop_
 _symmetry_equiv_pos_site_id
 _symmetry_equiv_pos_as_xyz
  1  'x, y, z'
loop_
 _atom_site_type_symbol
 _atom_site_label
 _atom_site_symmetry_multiplicity
 _atom_site_fract_x
 _atom_site_fract_y
 _atom_site_fract_z
 _atom_site_occupancy
  Tb  Tb0  1  0.200429  0.799571  0.799571  1
  Nd  Nd1  1  0.500122  0.499878  0.499878  1
  Er  Er2  1  0.799762  0.200238  0.200238  1
  Ga  Ga3  1  0.355874  0.360476  0.927777  1
  Ga  Ga4  1  0.644025  0.639092  0.072859  1
  Ga  Ga5  1  0.355874  0.927777  0.360476  1
  Ga  Ga6  1  0.644025  0.072859  0.639092  1
  Ga  Ga7  1  0.160721  0.471582  0.206977  1
  Ga  Ga8  1  0.839656  0.527818  0.792870  1
  Ga  Ga9  1  0.160721  0.206977  0.471582  1
  Ga  Ga10  1  0.839656  0.792870  0.527818  1
  Ag  Ag11  1  0.499732  0.000268  0.000268  1
  Ag  Ag12  1  0.999702  0.807113  0.193482  1
  Ag  Ag13  1  0.999702  0.193482  0.807113  1
