# generated using pymatgen
data_Dy2ReTcC3
_symmetry_space_group_name_H-M   'P 1'
_cell_length_a   6.07456075
_cell_length_b   6.07456051
_cell_length_c   5.68563747
_cell_angle_alpha   67.11414841
_cell_angle_beta   67.11414750
_cell_angle_gamma   31.80557154
_symmetry_Int_Tables_number   1
_chemical_formula_structural   Dy2ReTcC3
_chemical_formula_sum   'Dy2 Re1 Tc1 C3'
_cell_volume   101.12992833
_cell_formula_units_Z   1
loop_
 _symmetry_equiv_pos_site_id
 _symmetry_equiv_pos_as_xyz
  1  'x, y, z'
loop_
 _atom_site_type_symbol
 _atom_site_label
 _atom_site_symmetry_multiplicity
 _atom_site_fract_x
 _atom_site_fract_y
 _atom_site_fract_z
 _atom_site_occupancy
  Dy  Dy0  1  0.608831  0.608831  0.177035  1
  Dy  Dy1  1  0.391434  0.391434  0.818147  1
  Re  Re2  1  0.841682  0.841682  0.322502  1
  Tc  Tc3  1  0.157089  0.157089  0.681087  1
  C  C4  1  0.753741  0.753741  0.729121  1
  C  C5  1  0.247976  0.247976  0.269323  1
  C  C6  1  0.999247  0.999247  0.002785  1
