# generated using pymatgen
data_U2Mn5(NiAs)7
_symmetry_space_group_name_H-M   'P 1'
_cell_length_a   9.69219354
_cell_length_b   9.78777083
_cell_length_c   3.91616500
_cell_angle_alpha   90.00000000
_cell_angle_beta   90.00000000
_cell_angle_gamma   119.52051677
_symmetry_Int_Tables_number   1
_chemical_formula_structural   U2Mn5(NiAs)7
_chemical_formula_sum   'U2 Mn5 Ni7 As7'
_cell_volume   323.27759365
_cell_formula_units_Z   1
loop_
 _symmetry_equiv_pos_site_id
 _symmetry_equiv_pos_as_xyz
  1  'x, y, z'
loop_
 _atom_site_type_symbol
 _atom_site_label
 _atom_site_symmetry_multiplicity
 _atom_site_fract_x
 _atom_site_fract_y
 _atom_site_fract_z
 _atom_site_occupancy
  U  U0  1  0.338423  0.667492  0.000000  1
  U  U1  1  0.665914  0.338510  0.500000  1
  Mn  Mn2  1  0.430658  0.380710  0.000000  1
  Mn  Mn3  1  0.621074  0.048287  0.000000  1
  Mn  Mn4  1  0.949124  0.570964  0.000000  1
  Mn  Mn5  1  0.115631  0.902507  0.000000  1
  Mn  Mn6  1  0.096128  0.212336  0.000000  1
  Ni  Ni7  1  0.384130  0.947789  0.500000  1
  Ni  Ni8  1  0.051566  0.436283  0.500000  1
  Ni  Ni9  1  0.560239  0.613382  0.500000  1
  Ni  Ni10  1  0.788997  0.878612  0.000000  1
  Ni  Ni11  1  0.278733  0.156778  0.500000  1
  Ni  Ni12  1  0.841176  0.122470  0.500000  1
  Ni  Ni13  1  0.878045  0.721179  0.500000  1
  As  As14  1  0.997406  0.998881  0.500000  1
  As  As15  1  0.285535  0.406182  0.500000  1
  As  As16  1  0.596446  0.877820  0.500000  1
  As  As17  1  0.121940  0.711824  0.500000  1
  As  As18  1  0.409758  0.117609  0.000000  1
  As  As19  1  0.884615  0.296883  0.000000  1
  As  As20  1  0.704464  0.593500  0.000000  1
