# generated using pymatgen
data_Sm5Y13(ThSn8)2
_symmetry_space_group_name_H-M   'P 1'
_cell_length_a   8.11246541
_cell_length_b   8.23638575
_cell_length_c   15.59673509
_cell_angle_alpha   90.10041196
_cell_angle_beta   90.25380684
_cell_angle_gamma   89.92999809
_symmetry_Int_Tables_number   1
_chemical_formula_structural   Sm5Y13(ThSn8)2
_chemical_formula_sum   'Sm5 Y13 Th2 Sn16'
_cell_volume   1042.12060832
_cell_formula_units_Z   1
loop_
 _symmetry_equiv_pos_site_id
 _symmetry_equiv_pos_as_xyz
  1  'x, y, z'
loop_
 _atom_site_type_symbol
 _atom_site_label
 _atom_site_symmetry_multiplicity
 _atom_site_fract_x
 _atom_site_fract_y
 _atom_site_fract_z
 _atom_site_occupancy
  Sm  Sm0  1  0.020237  0.179171  0.598108  1
  Sm  Sm1  1  0.481985  0.678956  0.402617  1
  Sm  Sm2  1  0.980189  0.821042  0.097632  1
  Sm  Sm3  1  0.480961  0.678493  0.097543  1
  Sm  Sm4  1  0.982249  0.820914  0.402897  1
  Y  Y5  1  0.364089  0.835245  0.877480  1
  Y  Y6  1  0.863106  0.664450  0.622851  1
  Y  Y7  1  0.636358  0.163606  0.376937  1
  Y  Y8  1  0.134674  0.336391  0.122467  1
  Y  Y9  1  0.635552  0.163163  0.122224  1
  Y  Y10  1  0.137429  0.336785  0.377284  1
  Y  Y11  1  0.363161  0.837401  0.623360  1
  Y  Y12  1  0.864875  0.663390  0.877447  1
  Y  Y13  1  0.524421  0.323221  0.901030  1
  Y  Y14  1  0.194716  0.500604  0.750680  1
  Y  Y15  1  0.694599  0.999290  0.750064  1
  Y  Y16  1  0.803764  0.499429  0.250142  1
  Y  Y17  1  0.303979  0.000658  0.249737  1
  Th  Th18  1  0.516460  0.320739  0.596005  1
  Th  Th19  1  0.018019  0.178910  0.903565  1
  Sn  Sn20  1  0.295035  0.036188  0.041847  1
  Sn  Sn21  1  0.796715  0.461840  0.458657  1
  Sn  Sn22  1  0.703630  0.963791  0.542445  1
  Sn  Sn23  1  0.208015  0.533063  0.956954  1
  Sn  Sn24  1  0.702548  0.962940  0.957592  1
  Sn  Sn25  1  0.202136  0.539394  0.541795  1
  Sn  Sn26  1  0.297572  0.039054  0.459135  1
  Sn  Sn27  1  0.794344  0.460513  0.040235  1
  Sn  Sn28  1  0.561365  0.620699  0.748938  1
  Sn  Sn29  1  0.061026  0.879171  0.751102  1
  Sn  Sn30  1  0.437452  0.379109  0.249545  1
  Sn  Sn31  1  0.937440  0.120883  0.250002  1
  Sn  Sn32  1  0.328228  0.145431  0.751862  1
  Sn  Sn33  1  0.825795  0.356028  0.749529  1
  Sn  Sn34  1  0.674366  0.855977  0.250236  1
  Sn  Sn35  1  0.173509  0.644062  0.250053  1
