# generated using pymatgen
data_NaDy6RuBr12
_symmetry_space_group_name_H-M   'P 1'
_cell_length_a   9.22430734
_cell_length_b   9.22430624
_cell_length_c   9.22430601
_cell_angle_alpha   106.84733911
_cell_angle_beta   106.84734365
_cell_angle_gamma   106.84732645
_symmetry_Int_Tables_number   1
_chemical_formula_structural   NaDy6RuBr12
_chemical_formula_sum   'Na1 Dy6 Ru1 Br12'
_cell_volume   656.35554443
_cell_formula_units_Z   1
loop_
 _symmetry_equiv_pos_site_id
 _symmetry_equiv_pos_as_xyz
  1  'x, y, z'
loop_
 _atom_site_type_symbol
 _atom_site_label
 _atom_site_symmetry_multiplicity
 _atom_site_fract_x
 _atom_site_fract_y
 _atom_site_fract_z
 _atom_site_occupancy
  Na  Na0  1  0.500000  0.500000  0.500000  1
  Dy  Dy1  1  0.893687  0.683142  0.968098  1
  Dy  Dy2  1  0.968098  0.893687  0.683142  1
  Dy  Dy3  1  0.683142  0.968098  0.893687  1
  Dy  Dy4  1  0.106313  0.316858  0.031902  1
  Dy  Dy5  1  0.031902  0.106313  0.316858  1
  Dy  Dy6  1  0.316858  0.031902  0.106313  1
  Ru  Ru7  1  0.000000  0.000000  0.000000  1
  Br  Br8  1  0.628759  0.856384  0.550841  1
  Br  Br9  1  0.550841  0.628759  0.856384  1
  Br  Br10  1  0.856384  0.550841  0.628759  1
  Br  Br11  1  0.371241  0.143616  0.449159  1
  Br  Br12  1  0.449159  0.371241  0.143616  1
  Br  Br13  1  0.143616  0.449159  0.371241  1
  Br  Br14  1  0.683522  0.074068  0.221708  1
  Br  Br15  1  0.221708  0.683522  0.074068  1
  Br  Br16  1  0.074068  0.221708  0.683522  1
  Br  Br17  1  0.316478  0.925932  0.778292  1
  Br  Br18  1  0.778292  0.316478  0.925932  1
  Br  Br19  1  0.925932  0.778292  0.316478  1
