# generated using pymatgen
data_Nb3Zn2GeRu6
_symmetry_space_group_name_H-M   'P 1'
_cell_length_a   4.38961400
_cell_length_b   6.20563500
_cell_length_c   13.15101700
_cell_angle_alpha   90.00000000
_cell_angle_beta   90.00007837
_cell_angle_gamma   90.00000000
_symmetry_Int_Tables_number   1
_chemical_formula_structural   Nb3Zn2GeRu6
_chemical_formula_sum   'Nb6 Zn4 Ge2 Ru12'
_cell_volume   358.23820434
_cell_formula_units_Z   2
loop_
 _symmetry_equiv_pos_site_id
 _symmetry_equiv_pos_as_xyz
  1  'x, y, z'
loop_
 _atom_site_type_symbol
 _atom_site_label
 _atom_site_symmetry_multiplicity
 _atom_site_fract_x
 _atom_site_fract_y
 _atom_site_fract_z
 _atom_site_occupancy
  Nb  Nb0  1  0.999996  0.000000  0.005148  1
  Nb  Nb1  1  0.500024  0.500000  0.167885  1
  Nb  Nb2  1  0.000025  0.000000  0.332097  1
  Nb  Nb3  1  0.500000  0.500000  0.494841  1
  Nb  Nb4  1  0.999981  0.000000  0.662138  1
  Nb  Nb5  1  0.499971  0.500000  0.837873  1
  Zn  Zn6  1  0.999994  0.500000  0.999320  1
  Zn  Zn7  1  0.500032  0.000000  0.166432  1
  Zn  Zn8  1  0.000028  0.500000  0.333587  1
  Zn  Zn9  1  0.499998  0.000000  0.500687  1
  Ge  Ge10  1  0.999980  0.500000  0.666352  1
  Ge  Ge11  1  0.499970  0.000000  0.833644  1
  Ru  Ru12  1  0.499999  0.248167  0.997647  1
  Ru  Ru13  1  0.499999  0.751833  0.997647  1
  Ru  Ru14  1  0.000025  0.250499  0.166137  1
  Ru  Ru15  1  0.000025  0.749501  0.166137  1
  Ru  Ru16  1  0.500026  0.249522  0.333866  1
  Ru  Ru17  1  0.500026  0.750479  0.333866  1
  Ru  Ru18  1  0.999999  0.251809  0.502345  1
  Ru  Ru19  1  0.999999  0.748190  0.502345  1
  Ru  Ru20  1  0.499981  0.251548  0.668888  1
  Ru  Ru21  1  0.499981  0.748453  0.668888  1
  Ru  Ru22  1  0.999969  0.248457  0.831115  1
  Ru  Ru23  1  0.999969  0.751543  0.831115  1
