# generated using pymatgen
data_Ti3MnCr2(BRu)6
_symmetry_space_group_name_H-M   'P 1'
_cell_length_a   2.99999400
_cell_length_b   8.71602065
_cell_length_c   8.71611407
_cell_angle_alpha   120.01177285
_cell_angle_beta   90.00000000
_cell_angle_gamma   90.00000000
_symmetry_Int_Tables_number   1
_chemical_formula_structural   Ti3MnCr2(BRu)6
_chemical_formula_sum   'Ti3 Mn1 Cr2 B6 Ru6'
_cell_volume   197.35159485
_cell_formula_units_Z   1
loop_
 _symmetry_equiv_pos_site_id
 _symmetry_equiv_pos_as_xyz
  1  'x, y, z'
loop_
 _atom_site_type_symbol
 _atom_site_label
 _atom_site_symmetry_multiplicity
 _atom_site_fract_x
 _atom_site_fract_y
 _atom_site_fract_z
 _atom_site_occupancy
  Ti  Ti0  1  0.000000  0.585806  0.999849  1
  Ti  Ti1  1  0.000000  0.413149  0.413169  1
  Ti  Ti2  1  0.000000  0.999821  0.585855  1
  Mn  Mn3  1  0.000000  0.829493  0.829492  1
  Cr  Cr4  1  0.000000  0.001797  0.174354  1
  Cr  Cr5  1  0.000000  0.174388  0.001757  1
  B  B6  1  0.500000  0.999257  0.999249  1
  B  B7  1  0.500000  0.795920  0.998222  1
  B  B8  1  0.500000  0.203635  0.203589  1
  B  B9  1  0.500000  0.998256  0.795952  1
  B  B10  1  0.000000  0.335492  0.667619  1
  B  B11  1  0.000000  0.667584  0.335502  1
  Ru  Ru12  1  0.500000  0.539898  0.724061  1
  Ru  Ru13  1  0.500000  0.184055  0.459391  1
  Ru  Ru14  1  0.500000  0.274038  0.813943  1
  Ru  Ru15  1  0.500000  0.813917  0.274054  1
  Ru  Ru16  1  0.500000  0.724036  0.539897  1
  Ru  Ru17  1  0.500000  0.459357  0.184043  1
