# generated using pymatgen
data_Tb19YSi15Ag
_symmetry_space_group_name_H-M   'P 1'
_cell_length_a   7.50077206
_cell_length_b   7.72988191
_cell_length_c   14.74472911
_cell_angle_alpha   90.21177077
_cell_angle_beta   90.63600435
_cell_angle_gamma   90.15406968
_symmetry_Int_Tables_number   1
_chemical_formula_structural   Tb19YSi15Ag
_chemical_formula_sum   'Tb19 Y1 Si15 Ag1'
_cell_volume   854.83891154
_cell_formula_units_Z   1
loop_
 _symmetry_equiv_pos_site_id
 _symmetry_equiv_pos_as_xyz
  1  'x, y, z'
loop_
 _atom_site_type_symbol
 _atom_site_label
 _atom_site_symmetry_multiplicity
 _atom_site_fract_x
 _atom_site_fract_y
 _atom_site_fract_z
 _atom_site_occupancy
  Tb  Tb0  1  0.679053  0.175542  0.624449  1
  Tb  Tb1  1  0.182806  0.321917  0.877548  1
  Tb  Tb2  1  0.317792  0.819944  0.121134  1
  Tb  Tb3  1  0.825917  0.674737  0.376354  1
  Tb  Tb4  1  0.317773  0.824802  0.378065  1
  Tb  Tb5  1  0.817267  0.678699  0.121605  1
  Tb  Tb6  1  0.681101  0.179293  0.877616  1
  Tb  Tb7  1  0.176750  0.321140  0.623407  1
  Tb  Tb8  1  0.524497  0.675805  0.602267  1
  Tb  Tb9  1  0.029197  0.816413  0.900894  1
  Tb  Tb10  1  0.469408  0.318288  0.098519  1
  Tb  Tb11  1  0.979784  0.184800  0.398467  1
  Tb  Tb12  1  0.470639  0.325314  0.399735  1
  Tb  Tb13  1  0.969836  0.183400  0.098269  1
  Tb  Tb14  1  0.531121  0.682731  0.899477  1
  Tb  Tb15  1  0.025856  0.817117  0.601313  1
  Tb  Tb16  1  0.851623  0.508015  0.750080  1
  Tb  Tb17  1  0.349783  0.989126  0.748375  1
  Tb  Tb18  1  0.150627  0.488711  0.249561  1
  Y  Y19  1  0.651274  0.011224  0.249158  1
  Si  Si20  1  0.144259  0.528021  0.040366  1
  Si  Si21  1  0.354337  0.029187  0.959754  1
  Si  Si22  1  0.848705  0.471052  0.541413  1
  Si  Si23  1  0.342150  0.028348  0.542823  1
  Si  Si24  1  0.855526  0.471600  0.958815  1
  Si  Si25  1  0.643605  0.970968  0.039129  1
  Si  Si26  1  0.149121  0.530609  0.461142  1
  Si  Si27  1  0.477392  0.394587  0.750809  1
  Si  Si28  1  0.976277  0.104049  0.752401  1
  Si  Si29  1  0.523673  0.608898  0.248856  1
  Si  Si30  1  0.024316  0.895677  0.247787  1
  Si  Si31  1  0.734207  0.871222  0.751810  1
  Si  Si32  1  0.233532  0.626681  0.751363  1
  Si  Si33  1  0.268631  0.126329  0.247296  1
  Si  Si34  1  0.765384  0.374921  0.248715  1
  Ag  Ag35  1  0.656780  0.970832  0.461229  1
