# generated using pymatgen
data_LiTb3Au5
_symmetry_space_group_name_H-M   'P 1'
_cell_length_a   8.41610887
_cell_length_b   8.41610945
_cell_length_c   13.48856700
_cell_angle_alpha   90.00000000
_cell_angle_beta   90.00000000
_cell_angle_gamma   127.07275704
_symmetry_Int_Tables_number   1
_chemical_formula_structural   LiTb3Au5
_chemical_formula_sum   'Li4 Tb12 Au20'
_cell_volume   762.29140639
_cell_formula_units_Z   4
loop_
 _symmetry_equiv_pos_site_id
 _symmetry_equiv_pos_as_xyz
  1  'x, y, z'
loop_
 _atom_site_type_symbol
 _atom_site_label
 _atom_site_symmetry_multiplicity
 _atom_site_fract_x
 _atom_site_fract_y
 _atom_site_fract_z
 _atom_site_occupancy
  Li  Li0  1  0.722866  0.277134  0.250000  1
  Li  Li1  1  0.277134  0.722866  0.750000  1
  Li  Li2  1  0.531291  0.468709  0.250000  1
  Li  Li3  1  0.468709  0.531291  0.750000  1
  Tb  Tb4  1  0.930345  0.069655  0.250000  1
  Tb  Tb5  1  0.069655  0.930345  0.750000  1
  Tb  Tb6  1  0.316315  0.683685  0.250000  1
  Tb  Tb7  1  0.683685  0.316315  0.750000  1
  Tb  Tb8  1  0.629305  0.370695  0.464886  1
  Tb  Tb9  1  0.370695  0.629305  0.535114  1
  Tb  Tb10  1  0.629305  0.370695  0.035114  1
  Tb  Tb11  1  0.370695  0.629305  0.964886  1
  Tb  Tb12  1  0.881095  0.118905  0.948979  1
  Tb  Tb13  1  0.118905  0.881095  0.051021  1
  Tb  Tb14  1  0.881095  0.118905  0.551021  1
  Tb  Tb15  1  0.118905  0.881095  0.448979  1
  Au  Au16  1  0.323941  0.069480  0.250000  1
  Au  Au17  1  0.069480  0.323941  0.750000  1
  Au  Au18  1  0.676059  0.930520  0.750000  1
  Au  Au19  1  0.930520  0.676059  0.250000  1
  Au  Au20  1  0.570341  0.005273  0.394739  1
  Au  Au21  1  0.005273  0.570341  0.605261  1
  Au  Au22  1  0.570341  0.005273  0.105261  1
  Au  Au23  1  0.005273  0.570341  0.894739  1
  Au  Au24  1  0.429659  0.994727  0.605261  1
  Au  Au25  1  0.994727  0.429659  0.394739  1
  Au  Au26  1  0.429659  0.994727  0.894739  1
  Au  Au27  1  0.994727  0.429659  0.105261  1
  Au  Au28  1  0.689261  0.741046  0.391487  1
  Au  Au29  1  0.741046  0.689261  0.608513  1
  Au  Au30  1  0.689261  0.741046  0.108513  1
  Au  Au31  1  0.741046  0.689261  0.891487  1
  Au  Au32  1  0.310739  0.258954  0.608513  1
  Au  Au33  1  0.258954  0.310739  0.391487  1
  Au  Au34  1  0.310739  0.258954  0.891487  1
  Au  Au35  1  0.258954  0.310739  0.108513  1
