# generated using pymatgen
data_Ho6Er14Cd6RuRh
_symmetry_space_group_name_H-M   'P 1'
_cell_length_a   9.56721870
_cell_length_b   9.56770115
_cell_length_c   9.71727000
_cell_angle_alpha   90.00000000
_cell_angle_beta   90.00000000
_cell_angle_gamma   119.93077162
_symmetry_Int_Tables_number   1
_chemical_formula_structural   Ho6Er14Cd6RuRh
_chemical_formula_sum   'Ho6 Er14 Cd6 Ru1 Rh1'
_cell_volume   770.85153694
_cell_formula_units_Z   1
loop_
 _symmetry_equiv_pos_site_id
 _symmetry_equiv_pos_as_xyz
  1  'x, y, z'
loop_
 _atom_site_type_symbol
 _atom_site_label
 _atom_site_symmetry_multiplicity
 _atom_site_fract_x
 _atom_site_fract_y
 _atom_site_fract_z
 _atom_site_occupancy
  Ho  Ho0  1  0.541880  0.458117  0.250000  1
  Ho  Ho1  1  0.541871  0.083634  0.250000  1
  Ho  Ho2  1  0.916338  0.458112  0.250000  1
  Ho  Ho3  1  0.459222  0.540773  0.750000  1
  Ho  Ho4  1  0.459253  0.918597  0.750000  1
  Ho  Ho5  1  0.081421  0.540765  0.750000  1
  Er  Er6  1  0.999988  0.999993  0.499704  1
  Er  Er7  1  0.999988  0.999993  0.000296  1
  Er  Er8  1  0.209296  0.790758  0.440150  1
  Er  Er9  1  0.209236  0.418485  0.440089  1
  Er  Er10  1  0.581499  0.790767  0.440086  1
  Er  Er11  1  0.790196  0.209789  0.560295  1
  Er  Er12  1  0.790221  0.580453  0.560324  1
  Er  Er13  1  0.419536  0.209774  0.560318  1
  Er  Er14  1  0.790196  0.209789  0.939705  1
  Er  Er15  1  0.790221  0.580453  0.939676  1
  Er  Er16  1  0.419536  0.209774  0.939682  1
  Er  Er17  1  0.209296  0.790758  0.059850  1
  Er  Er18  1  0.209236  0.418485  0.059911  1
  Er  Er19  1  0.581499  0.790767  0.059914  1
  Cd  Cd20  1  0.885363  0.114679  0.250000  1
  Cd  Cd21  1  0.885023  0.770510  0.250000  1
  Cd  Cd22  1  0.229477  0.114998  0.250000  1
  Cd  Cd23  1  0.114418  0.885551  0.750000  1
  Cd  Cd24  1  0.114701  0.228988  0.750000  1
  Cd  Cd25  1  0.771014  0.885261  0.750000  1
  Ru  Ru26  1  0.666707  0.333286  0.750000  1
  Rh  Rh27  1  0.333371  0.666686  0.250000  1
