# generated using pymatgen
data_DyErLu4ReBi2
_symmetry_space_group_name_H-M   'P 1'
_cell_length_a   8.13798227
_cell_length_b   8.15726211
_cell_length_c   4.30932600
_cell_angle_alpha   90.00000000
_cell_angle_beta   90.00000000
_cell_angle_gamma   120.00744630
_symmetry_Int_Tables_number   1
_chemical_formula_structural   DyErLu4ReBi2
_chemical_formula_sum   'Dy1 Er1 Lu4 Re1 Bi2'
_cell_volume   247.72426376
_cell_formula_units_Z   1
loop_
 _symmetry_equiv_pos_site_id
 _symmetry_equiv_pos_as_xyz
  1  'x, y, z'
loop_
 _atom_site_type_symbol
 _atom_site_label
 _atom_site_symmetry_multiplicity
 _atom_site_fract_x
 _atom_site_fract_y
 _atom_site_fract_z
 _atom_site_occupancy
  Dy  Dy0  1  0.000270  0.613321  0.000000  1
  Er  Er1  1  0.385112  0.384661  0.000000  1
  Lu  Lu2  1  0.229529  0.000615  0.500000  1
  Lu  Lu3  1  0.999501  0.230791  0.500000  1
  Lu  Lu4  1  0.768723  0.769842  0.500000  1
  Lu  Lu5  1  0.618562  0.999815  0.000000  1
  Re  Re6  1  0.997921  0.001410  0.000000  1
  Bi  Bi7  1  0.334787  0.667933  0.500000  1
  Bi  Bi8  1  0.665595  0.331612  0.500000  1
