# generated using pymatgen
data_Ta9InSe16
_symmetry_space_group_name_H-M   'P 1'
_cell_length_a   7.00812406
_cell_length_b   7.01076426
_cell_length_c   14.35598500
_cell_angle_alpha   89.99597911
_cell_angle_beta   90.00766873
_cell_angle_gamma   119.97661738
_symmetry_Int_Tables_number   1
_chemical_formula_structural   Ta9InSe16
_chemical_formula_sum   'Ta9 In1 Se16'
_cell_volume   610.98851772
_cell_formula_units_Z   1
loop_
 _symmetry_equiv_pos_site_id
 _symmetry_equiv_pos_as_xyz
  1  'x, y, z'
loop_
 _atom_site_type_symbol
 _atom_site_label
 _atom_site_symmetry_multiplicity
 _atom_site_fract_x
 _atom_site_fract_y
 _atom_site_fract_z
 _atom_site_occupancy
  Ta  Ta0  1  0.506349  0.493687  0.771635  1
  Ta  Ta1  1  0.012874  0.506367  0.228379  1
  Ta  Ta2  1  0.493564  0.987022  0.228387  1
  Ta  Ta3  1  0.506436  0.012978  0.771613  1
  Ta  Ta4  1  0.987126  0.493633  0.771621  1
  Ta  Ta5  1  0.493651  0.506313  0.228365  1
  Ta  Ta6  1  0.999955  0.000124  0.772274  1
  Ta  Ta7  1  0.000045  0.999876  0.227726  1
  Ta  Ta8  1  0.000000  0.000000  0.000000  1
  In  In9  1  0.000000  0.000000  0.500000  1
  Se  Se10  1  0.832059  0.167906  0.342022  1
  Se  Se11  1  0.832004  0.663913  0.342056  1
  Se  Se12  1  0.336042  0.167949  0.342050  1
  Se  Se13  1  0.663505  0.831807  0.887902  1
  Se  Se14  1  0.167996  0.336087  0.657944  1
  Se  Se15  1  0.168197  0.831815  0.887890  1
  Se  Se16  1  0.168177  0.336418  0.887934  1
  Se  Se17  1  0.831803  0.168185  0.112110  1
  Se  Se18  1  0.336495  0.168193  0.112098  1
  Se  Se19  1  0.663958  0.832051  0.657950  1
  Se  Se20  1  0.333353  0.666604  0.109913  1
  Se  Se21  1  0.666603  0.333421  0.652025  1
  Se  Se22  1  0.666647  0.333396  0.890087  1
  Se  Se23  1  0.333397  0.666579  0.347975  1
  Se  Se24  1  0.831823  0.663582  0.112066  1
  Se  Se25  1  0.167941  0.832094  0.657978  1
