# generated using pymatgen
data_K2Zr(Np2Se5)2
_symmetry_space_group_name_H-M   'P 1'
_cell_length_a   7.11588106
_cell_length_b   11.66938055
_cell_length_c   9.29506238
_cell_angle_alpha   61.75073227
_cell_angle_beta   66.38844602
_cell_angle_gamma   89.27400303
_symmetry_Int_Tables_number   1
_chemical_formula_structural   K2Zr(Np2Se5)2
_chemical_formula_sum   'K2 Zr1 Np4 Se10'
_cell_volume   607.84529347
_cell_formula_units_Z   1
loop_
 _symmetry_equiv_pos_site_id
 _symmetry_equiv_pos_as_xyz
  1  'x, y, z'
loop_
 _atom_site_type_symbol
 _atom_site_label
 _atom_site_symmetry_multiplicity
 _atom_site_fract_x
 _atom_site_fract_y
 _atom_site_fract_z
 _atom_site_occupancy
  K  K0  1  0.785929  0.073915  0.427417  1
  K  K1  1  0.014071  0.526085  0.972583  1
  Zr  Zr2  1  0.400000  0.800000  0.200000  1
  Np  Np3  1  0.798795  0.603857  0.403285  1
  Np  Np4  1  0.205587  0.401414  0.586831  1
  Np  Np5  1  0.594413  0.198586  0.813169  1
  Np  Np6  1  0.001205  0.996143  0.996715  1
  Se  Se7  1  0.005873  0.841206  0.344996  1
  Se  Se8  1  0.578655  0.023936  0.164553  1
  Se  Se9  1  0.172885  0.238895  0.951539  1
  Se  Se10  1  0.791474  0.441681  0.749257  1
  Se  Se11  1  0.382178  0.646657  0.537876  1
  Se  Se12  1  0.417822  0.953343  0.862124  1
  Se  Se13  1  0.008526  0.158319  0.650743  1
  Se  Se14  1  0.627115  0.361105  0.448461  1
  Se  Se15  1  0.221345  0.576064  0.235447  1
  Se  Se16  1  0.794127  0.758794  0.055004  1
