# generated using pymatgen
data_Pr4Dy(ThSe4)3
_symmetry_space_group_name_H-M   'P 1'
_cell_length_a   4.20070500
_cell_length_b   11.11068831
_cell_length_c   11.44222775
_cell_angle_alpha   90.31286298
_cell_angle_beta   90.00000000
_cell_angle_gamma   90.00000000
_symmetry_Int_Tables_number   1
_chemical_formula_structural   Pr4Dy(ThSe4)3
_chemical_formula_sum   'Pr4 Dy1 Th3 Se12'
_cell_volume   534.03197533
_cell_formula_units_Z   1
loop_
 _symmetry_equiv_pos_site_id
 _symmetry_equiv_pos_as_xyz
  1  'x, y, z'
loop_
 _atom_site_type_symbol
 _atom_site_label
 _atom_site_symmetry_multiplicity
 _atom_site_fract_x
 _atom_site_fract_y
 _atom_site_fract_z
 _atom_site_occupancy
  Pr  Pr0  1  0.750000  0.500724  0.698396  1
  Pr  Pr1  1  0.750000  0.000473  0.193337  1
  Pr  Pr2  1  0.250000  0.503556  0.306388  1
  Pr  Pr3  1  0.250000  0.992571  0.806022  1
  Dy  Dy4  1  0.750000  0.689224  0.012008  1
  Th  Th5  1  0.250000  0.187841  0.486580  1
  Th  Th6  1  0.250000  0.313110  0.986293  1
  Th  Th7  1  0.750000  0.811835  0.513198  1
  Se  Se8  1  0.250000  0.295515  0.728138  1
  Se  Se9  1  0.250000  0.205247  0.227016  1
  Se  Se10  1  0.750000  0.706301  0.270326  1
  Se  Se11  1  0.750000  0.792214  0.771118  1
  Se  Se12  1  0.750000  0.056855  0.619908  1
  Se  Se13  1  0.750000  0.449261  0.117246  1
  Se  Se14  1  0.250000  0.943649  0.379570  1
  Se  Se15  1  0.250000  0.557936  0.886163  1
  Se  Se16  1  0.250000  0.626873  0.546812  1
  Se  Se17  1  0.250000  0.866487  0.043514  1
  Se  Se18  1  0.750000  0.373876  0.454293  1
  Se  Se19  1  0.750000  0.126452  0.953676  1
