# generated using pymatgen
data_TmTa3(NbSn2)3
_symmetry_space_group_name_H-M   'P 1'
_cell_length_a   5.79500401
_cell_length_b   5.79868836
_cell_length_c   9.57635800
_cell_angle_alpha   90.00000000
_cell_angle_beta   90.00000000
_cell_angle_gamma   119.97411081
_symmetry_Int_Tables_number   1
_chemical_formula_structural   TmTa3(NbSn2)3
_chemical_formula_sum   'Tm1 Ta3 Nb3 Sn6'
_cell_volume   278.75826473
_cell_formula_units_Z   1
loop_
 _symmetry_equiv_pos_site_id
 _symmetry_equiv_pos_as_xyz
  1  'x, y, z'
loop_
 _atom_site_type_symbol
 _atom_site_label
 _atom_site_symmetry_multiplicity
 _atom_site_fract_x
 _atom_site_fract_y
 _atom_site_fract_z
 _atom_site_occupancy
  Tm  Tm0  1  0.000000  0.000000  0.999989  1
  Ta  Ta1  1  0.000000  0.500000  0.751140  1
  Ta  Ta2  1  0.000000  0.500000  0.248831  1
  Ta  Ta3  1  0.500000  0.500000  0.751224  1
  Nb  Nb4  1  0.500000  0.000000  0.249210  1
  Nb  Nb5  1  0.500000  0.500000  0.249349  1
  Nb  Nb6  1  0.500000  0.000000  0.750761  1
  Sn  Sn7  1  0.667292  0.333985  0.499878  1
  Sn  Sn8  1  0.000000  0.000000  0.330671  1
  Sn  Sn9  1  0.000000  0.000000  0.668871  1
  Sn  Sn10  1  0.333272  0.666563  0.000099  1
  Sn  Sn11  1  0.666728  0.333437  0.000099  1
  Sn  Sn12  1  0.332708  0.666015  0.499878  1
