# generated using pymatgen
data_Lu4Zn2B4Ir7Ru3
_symmetry_space_group_name_H-M   'P 1'
_cell_length_a   9.57853276
_cell_length_b   9.56500678
_cell_length_c   3.06776300
_cell_angle_alpha   90.00000000
_cell_angle_beta   90.00000000
_cell_angle_gamma   89.91288090
_symmetry_Int_Tables_number   1
_chemical_formula_structural   Lu4Zn2B4Ir7Ru3
_chemical_formula_sum   'Lu4 Zn2 B4 Ir7 Ru3'
_cell_volume   281.06422730
_cell_formula_units_Z   1
loop_
 _symmetry_equiv_pos_site_id
 _symmetry_equiv_pos_as_xyz
  1  'x, y, z'
loop_
 _atom_site_type_symbol
 _atom_site_label
 _atom_site_symmetry_multiplicity
 _atom_site_fract_x
 _atom_site_fract_y
 _atom_site_fract_z
 _atom_site_occupancy
  Lu  Lu0  1  0.673648  0.174755  0.000000  1
  Lu  Lu1  1  0.324811  0.827541  0.000000  1
  Lu  Lu2  1  0.175784  0.323174  0.000000  1
  Lu  Lu3  1  0.825733  0.674215  0.000000  1
  Zn  Zn4  1  0.001660  0.000152  0.000000  1
  Zn  Zn5  1  0.499879  0.499662  0.000000  1
  B  B6  1  0.122216  0.622159  0.000000  1
  B  B7  1  0.877368  0.377762  0.000000  1
  B  B8  1  0.621802  0.878111  0.000000  1
  B  B9  1  0.374986  0.122273  0.000000  1
  Ir  Ir10  1  0.783231  0.930898  0.500000  1
  Ir  Ir11  1  0.069254  0.782717  0.500000  1
  Ir  Ir12  1  0.717181  0.431367  0.500000  1
  Ir  Ir13  1  0.930223  0.216939  0.500000  1
  Ir  Ir14  1  0.282334  0.569327  0.500000  1
  Ir  Ir15  1  0.569685  0.717268  0.500000  1
  Ir  Ir16  1  0.431186  0.282878  0.500000  1
  Ru  Ru17  1  0.218130  0.069744  0.500000  1
  Ru  Ru18  1  0.500573  0.000158  0.500000  1
  Ru  Ru19  1  0.000318  0.498900  0.500000  1
