# generated using pymatgen
data_Sm8Dy12Si15Ni
_symmetry_space_group_name_H-M   'P 1'
_cell_length_a   7.38989015
_cell_length_b   7.81712301
_cell_length_c   14.73794100
_cell_angle_alpha   90.00000000
_cell_angle_beta   90.00000000
_cell_angle_gamma   89.88906514
_symmetry_Int_Tables_number   1
_chemical_formula_structural   Sm8Dy12Si15Ni
_chemical_formula_sum   'Sm8 Dy12 Si15 Ni1'
_cell_volume   851.37506863
_cell_formula_units_Z   1
loop_
 _symmetry_equiv_pos_site_id
 _symmetry_equiv_pos_as_xyz
  1  'x, y, z'
loop_
 _atom_site_type_symbol
 _atom_site_label
 _atom_site_symmetry_multiplicity
 _atom_site_fract_x
 _atom_site_fract_y
 _atom_site_fract_z
 _atom_site_occupancy
  Sm  Sm0  1  0.018544  0.183758  0.096720  1
  Sm  Sm1  1  0.983139  0.820285  0.906144  1
  Sm  Sm2  1  0.483166  0.681311  0.904048  1
  Sm  Sm3  1  0.983139  0.820285  0.593856  1
  Sm  Sm4  1  0.517451  0.319078  0.095573  1
  Sm  Sm5  1  0.018544  0.183758  0.403280  1
  Sm  Sm6  1  0.517451  0.319078  0.404427  1
  Sm  Sm7  1  0.483166  0.681311  0.595952  1
  Dy  Dy8  1  0.157646  0.520558  0.750000  1
  Dy  Dy9  1  0.841031  0.486772  0.250000  1
  Dy  Dy10  1  0.341446  0.014229  0.250000  1
  Dy  Dy11  1  0.672225  0.990273  0.750000  1
  Dy  Dy12  1  0.314070  0.173744  0.626700  1
  Dy  Dy13  1  0.675779  0.823287  0.376049  1
  Dy  Dy14  1  0.175629  0.680090  0.376868  1
  Dy  Dy15  1  0.675779  0.823287  0.123951  1
  Dy  Dy16  1  0.830811  0.317820  0.625263  1
  Dy  Dy17  1  0.314070  0.173744  0.873300  1
  Dy  Dy18  1  0.830811  0.317820  0.874737  1
  Dy  Dy19  1  0.175629  0.680090  0.123132  1
  Si  Si20  1  0.969881  0.892443  0.250000  1
  Si  Si21  1  0.469321  0.608439  0.250000  1
  Si  Si22  1  0.530417  0.393257  0.750000  1
  Si  Si23  1  0.273057  0.876187  0.750000  1
  Si  Si24  1  0.724059  0.125307  0.250000  1
  Si  Si25  1  0.224646  0.375879  0.250000  1
  Si  Si26  1  0.769044  0.621135  0.750000  1
  Si  Si27  1  0.153768  0.469751  0.538256  1
  Si  Si28  1  0.846642  0.532020  0.462878  1
  Si  Si29  1  0.348784  0.969551  0.462306  1
  Si  Si30  1  0.846642  0.532020  0.037122  1
  Si  Si31  1  0.651015  0.031316  0.539135  1
  Si  Si32  1  0.153768  0.469751  0.961744  1
  Si  Si33  1  0.651015  0.031316  0.960865  1
  Si  Si34  1  0.348784  0.969551  0.037694  1
  Ni  Ni35  1  0.029631  0.091497  0.750000  1
