# generated using pymatgen
data_TbYb5Pr5In9Pd4
_symmetry_space_group_name_H-M   'P 1'
_cell_length_a   13.43654614
_cell_length_b   13.43510239
_cell_length_c   3.80110200
_cell_angle_alpha   90.00000000
_cell_angle_beta   90.00000000
_cell_angle_gamma   111.80093380
_symmetry_Int_Tables_number   1
_chemical_formula_structural   TbYb5Pr5In9Pd4
_chemical_formula_sum   'Tb1 Yb5 Pr5 In9 Pd4'
_cell_volume   637.10439322
_cell_formula_units_Z   1
loop_
 _symmetry_equiv_pos_site_id
 _symmetry_equiv_pos_as_xyz
  1  'x, y, z'
loop_
 _atom_site_type_symbol
 _atom_site_label
 _atom_site_symmetry_multiplicity
 _atom_site_fract_x
 _atom_site_fract_y
 _atom_site_fract_z
 _atom_site_occupancy
  Tb  Tb0  1  0.690598  0.690338  0.000000  1
  Yb  Yb1  1  0.415911  0.071177  0.000000  1
  Yb  Yb2  1  0.584651  0.925881  0.000000  1
  Yb  Yb3  1  0.071825  0.416521  0.000000  1
  Yb  Yb4  1  0.926589  0.585000  0.000000  1
  Yb  Yb5  1  0.160153  0.838627  0.000000  1
  Pr  Pr6  1  0.838042  0.160962  0.000000  1
  Pr  Pr7  1  0.373337  0.627665  0.000000  1
  Pr  Pr8  1  0.627672  0.373282  0.000000  1
  Pr  Pr9  1  0.309497  0.309417  0.000000  1
  Pr  Pr10  1  0.999693  0.999232  0.000000  1
  In  In11  1  0.368702  0.841153  0.500000  1
  In  In12  1  0.631512  0.160393  0.500000  1
  In  In13  1  0.839569  0.368615  0.500000  1
  In  In14  1  0.159286  0.632012  0.500000  1
  In  In15  1  0.220140  0.075622  0.500000  1
  In  In16  1  0.777981  0.919324  0.500000  1
  In  In17  1  0.077243  0.221232  0.500000  1
  In  In18  1  0.921075  0.779141  0.500000  1
  In  In19  1  0.504305  0.503461  0.500000  1
  Pd  Pd20  1  0.449956  0.240268  0.500000  1
  Pd  Pd21  1  0.555365  0.754508  0.500000  1
  Pd  Pd22  1  0.241176  0.450354  0.500000  1
  Pd  Pd23  1  0.755723  0.555817  0.500000  1
