# generated using pymatgen
data_Li12La11Sm(TeO6)8
_symmetry_space_group_name_H-M   'P 1'
_cell_length_a   11.11515151
_cell_length_b   11.09900452
_cell_length_c   11.11518500
_cell_angle_alpha   109.50437335
_cell_angle_beta   109.46429173
_cell_angle_gamma   109.50446452
_symmetry_Int_Tables_number   1
_chemical_formula_structural   Li12La11Sm(TeO6)8
_chemical_formula_sum   'Li12 La11 Sm1 Te8 O48'
_cell_volume   1054.81190568
_cell_formula_units_Z   1
loop_
 _symmetry_equiv_pos_site_id
 _symmetry_equiv_pos_as_xyz
  1  'x, y, z'
loop_
 _atom_site_type_symbol
 _atom_site_label
 _atom_site_symmetry_multiplicity
 _atom_site_fract_x
 _atom_site_fract_y
 _atom_site_fract_z
 _atom_site_occupancy
  Li  Li0  1  0.875065  0.750002  0.125064  1
  Li  Li1  1  0.749619  0.374847  0.125021  1
  Li  Li2  1  0.125227  0.374853  0.249827  1
  Li  Li3  1  0.624889  0.874905  0.249935  1
  Li  Li4  1  0.250173  0.125148  0.374774  1
  Li  Li5  1  0.624238  0.250002  0.374241  1
  Li  Li6  1  0.374935  0.749996  0.624933  1
  Li  Li7  1  0.750018  0.874912  0.624970  1
  Li  Li8  1  0.374979  0.125153  0.750376  1
  Li  Li9  1  0.875027  0.625088  0.749980  1
  Li  Li10  1  0.250066  0.625095  0.875111  1
  Li  Li11  1  0.125759  0.250001  0.875760  1
  La  La12  1  0.250551  0.876125  0.125297  1
  La  La13  1  0.874993  0.125055  0.250027  1
  La  La14  1  0.374707  0.623878  0.249456  1
  La  La15  1  0.749171  0.623873  0.374424  1
  La  La16  1  0.125000  0.749999  0.375000  1
  La  La17  1  0.875002  0.250002  0.625000  1
  La  La18  1  0.249968  0.374943  0.625005  1
  La  La19  1  0.624971  0.374947  0.749937  1
  La  La20  1  0.125576  0.876121  0.750827  1
  La  La21  1  0.750065  0.125057  0.875029  1
  La  La22  1  0.624999  0.750001  0.874996  1
  Sm  Sm23  1  0.375000  0.249999  0.125000  1
  Te  Te24  1  0.001940  0.001631  0.001076  1
  Te  Te25  1  0.499694  0.001632  0.000557  1
  Te  Te26  1  0.000150  0.500144  0.000086  1
  Te  Te27  1  0.499445  0.498369  0.000307  1
  Te  Te28  1  0.999943  0.999856  0.500008  1
  Te  Te29  1  0.499912  0.999857  0.499849  1
  Te  Te30  1  0.999991  0.500144  0.500057  1
  Te  Te31  1  0.498926  0.498368  0.498063  1
  O  O32  1  0.191240  0.614798  0.021219  1
  O  O33  1  0.331006  0.402716  0.022922  1
  O  O34  1  0.886038  0.906743  0.076248  1
  O  O35  1  0.691486  0.170312  0.076317  1
  O  O36  1  0.614174  0.924657  0.094032  1
  O  O37  1  0.978830  0.170315  0.093997  1
  O  O38  1  0.591164  0.420719  0.115136  1
  O  O39  1  0.021414  0.691403  0.114943  1
  O  O40  1  0.194419  0.079280  0.170443  1
  O  O41  1  0.477078  0.097285  0.168993  1
  O  O42  1  0.114904  0.521243  0.191054  1
  O  O43  1  0.575910  0.669250  0.190848  1
  O  O44  1  0.478780  0.885201  0.308761  1
  O  O45  1  0.329555  0.420719  0.305580  1
  O  O46  1  0.906339  0.521241  0.330188  1
  O  O47  1  0.923541  0.808596  0.330010  1
  O  O48  1  0.308947  0.978756  0.385097  1
  O  O49  1  0.571709  0.402718  0.379796  1
  O  O50  1  0.076271  0.385237  0.406345  1
  O  O51  1  0.830161  0.021126  0.406295  1
  O  O52  1  0.093655  0.114763  0.423729  1
  O  O53  1  0.829994  0.308753  0.423703  1
  O  O54  1  0.593341  0.669252  0.478406  1
  O  O55  1  0.385058  0.808598  0.478588  1
  O  O56  1  0.406003  0.329686  0.521170  1
  O  O57  1  0.614948  0.191246  0.521241  1
  O  O58  1  0.169989  0.691402  0.576458  1
  O  O59  1  0.906419  0.885201  0.576441  1
  O  O60  1  0.923559  0.614796  0.593579  1
  O  O61  1  0.169811  0.978757  0.593663  1
  O  O62  1  0.690966  0.021127  0.614832  1
  O  O63  1  0.423749  0.593258  0.613961  1
  O  O64  1  0.093706  0.478875  0.669839  1
  O  O65  1  0.076298  0.191246  0.670005  1
  O  O66  1  0.521110  0.114764  0.691037  1
  O  O67  1  0.669375  0.575345  0.689518  1
  O  O68  1  0.423683  0.329687  0.808515  1
  O  O69  1  0.885170  0.478874  0.809038  1
  O  O70  1  0.810481  0.924657  0.830625  1
  O  O71  1  0.520701  0.906740  0.830490  1
  O  O72  1  0.405968  0.575343  0.885826  1
  O  O73  1  0.978761  0.308754  0.885053  1
  O  O74  1  0.021595  0.830747  0.906659  1
  O  O75  1  0.384863  0.079280  0.908837  1
  O  O76  1  0.309152  0.830749  0.924090  1
  O  O77  1  0.120205  0.097282  0.928292  1
  O  O78  1  0.669510  0.593261  0.979298  1
  O  O79  1  0.808966  0.385236  0.978893  1
