# generated using pymatgen
data_LaNd2In2Sn3
_symmetry_space_group_name_H-M   'P 1'
_cell_length_a   6.64557500
_cell_length_b   6.64557590
_cell_length_c   10.46437300
_cell_angle_alpha   90.00000000
_cell_angle_beta   90.00000000
_cell_angle_gamma   103.02703956
_symmetry_Int_Tables_number   1
_chemical_formula_structural   LaNd2In2Sn3
_chemical_formula_sum   'La2 Nd4 In4 Sn6'
_cell_volume   450.25128596
_cell_formula_units_Z   2
loop_
 _symmetry_equiv_pos_site_id
 _symmetry_equiv_pos_as_xyz
  1  'x, y, z'
loop_
 _atom_site_type_symbol
 _atom_site_label
 _atom_site_symmetry_multiplicity
 _atom_site_fract_x
 _atom_site_fract_y
 _atom_site_fract_z
 _atom_site_occupancy
  La  La0  1  0.796517  0.203483  0.500000  1
  La  La1  1  0.796517  0.203483  0.000000  1
  Nd  Nd2  1  0.635711  0.635503  0.250000  1
  Nd  Nd3  1  0.364497  0.364289  0.750000  1
  Nd  Nd4  1  0.201696  0.798304  0.500000  1
  Nd  Nd5  1  0.201696  0.798304  0.000000  1
  In  In6  1  0.311104  0.310745  0.045642  1
  In  In7  1  0.689255  0.688896  0.954358  1
  In  In8  1  0.311104  0.310745  0.454358  1
  In  In9  1  0.689255  0.688896  0.545642  1
  Sn  Sn10  1  0.019611  0.017336  0.250000  1
  Sn  Sn11  1  0.982664  0.980389  0.750000  1
  Sn  Sn12  1  0.491077  0.072127  0.250000  1
  Sn  Sn13  1  0.927873  0.508923  0.750000  1
  Sn  Sn14  1  0.505274  0.923849  0.750000  1
  Sn  Sn15  1  0.076151  0.494726  0.250000  1
