# generated using pymatgen
data_Lu3Sc5Cu4
_symmetry_space_group_name_H-M   'P 1'
_cell_length_a   4.62809200
_cell_length_b   6.65873228
_cell_length_c   8.13283969
_cell_angle_alpha   91.41220070
_cell_angle_beta   90.00000000
_cell_angle_gamma   90.00000000
_symmetry_Int_Tables_number   1
_chemical_formula_structural   Lu3Sc5Cu4
_chemical_formula_sum   'Lu3 Sc5 Cu4'
_cell_volume   250.55542983
_cell_formula_units_Z   1
loop_
 _symmetry_equiv_pos_site_id
 _symmetry_equiv_pos_as_xyz
  1  'x, y, z'
loop_
 _atom_site_type_symbol
 _atom_site_label
 _atom_site_symmetry_multiplicity
 _atom_site_fract_x
 _atom_site_fract_y
 _atom_site_fract_z
 _atom_site_occupancy
  Lu  Lu0  1  0.250000  0.981650  0.320780  1
  Lu  Lu1  1  0.750000  0.022557  0.679548  1
  Lu  Lu2  1  0.250000  0.477153  0.174692  1
  Sc  Sc3  1  0.750000  0.523343  0.825907  1
  Sc  Sc4  1  0.750000  0.638606  0.422534  1
  Sc  Sc5  1  0.250000  0.367059  0.586118  1
  Sc  Sc6  1  0.750000  0.144563  0.076118  1
  Sc  Sc7  1  0.250000  0.847759  0.919294  1
  Cu  Cu8  1  0.250000  0.243899  0.894175  1
  Cu  Cu9  1  0.750000  0.749902  0.103369  1
  Cu  Cu10  1  0.250000  0.754578  0.600062  1
  Cu  Cu11  1  0.750000  0.248932  0.397404  1
