# generated using pymatgen
data_LaNd3(In2Br5)4
_symmetry_space_group_name_H-M   'P 1'
_cell_length_a   8.65825866
_cell_length_b   9.23531300
_cell_length_c   13.64775814
_cell_angle_alpha   90.00000000
_cell_angle_beta   89.84738865
_cell_angle_gamma   90.00000000
_symmetry_Int_Tables_number   1
_chemical_formula_structural   LaNd3(In2Br5)4
_chemical_formula_sum   'La1 Nd3 In8 Br20'
_cell_volume   1091.29446278
_cell_formula_units_Z   1
loop_
 _symmetry_equiv_pos_site_id
 _symmetry_equiv_pos_as_xyz
  1  'x, y, z'
loop_
 _atom_site_type_symbol
 _atom_site_label
 _atom_site_symmetry_multiplicity
 _atom_site_fract_x
 _atom_site_fract_y
 _atom_site_fract_z
 _atom_site_occupancy
  La  La0  1  0.923061  0.750000  0.505562  1
  Nd  Nd1  1  0.077392  0.250000  0.494762  1
  Nd  Nd2  1  0.422699  0.250000  0.994691  1
  Nd  Nd3  1  0.577329  0.750000  0.005374  1
  In  In4  1  0.950825  0.005035  0.826231  1
  In  In5  1  0.049114  0.995015  0.173769  1
  In  In6  1  0.450880  0.994992  0.673767  1
  In  In7  1  0.049114  0.504985  0.173769  1
  In  In8  1  0.548975  0.005139  0.326166  1
  In  In9  1  0.950825  0.494965  0.826231  1
  In  In10  1  0.548975  0.494861  0.326166  1
  In  In11  1  0.450880  0.505008  0.673767  1
  Br  Br12  1  0.123537  0.750000  0.683712  1
  Br  Br13  1  0.878870  0.250000  0.318544  1
  Br  Br14  1  0.621100  0.250000  0.818534  1
  Br  Br15  1  0.378732  0.750000  0.181590  1
  Br  Br16  1  0.833656  0.047565  0.577479  1
  Br  Br17  1  0.167302  0.957455  0.422450  1
  Br  Br18  1  0.334767  0.955462  0.923627  1
  Br  Br19  1  0.167302  0.542545  0.422450  1
  Br  Br20  1  0.665260  0.044545  0.076402  1
  Br  Br21  1  0.833656  0.452435  0.577479  1
  Br  Br22  1  0.665260  0.455455  0.076402  1
  Br  Br23  1  0.334767  0.544538  0.923627  1
  Br  Br24  1  0.573060  0.750000  0.506892  1
  Br  Br25  1  0.423388  0.250000  0.493063  1
  Br  Br26  1  0.077015  0.250000  0.992952  1
  Br  Br27  1  0.922951  0.750000  0.006899  1
  Br  Br28  1  0.661994  0.750000  0.795296  1
  Br  Br29  1  0.338134  0.250000  0.204555  1
  Br  Br30  1  0.162063  0.250000  0.704563  1
  Br  Br31  1  0.837117  0.750000  0.293228  1
