# generated using pymatgen
data_Np11Se16
_symmetry_space_group_name_H-M   'P 1'
_cell_length_a   8.71952600
_cell_length_b   8.71952600
_cell_length_c   8.72928700
_cell_angle_alpha   90.00000000
_cell_angle_beta   90.00000000
_cell_angle_gamma   90.00000000
_symmetry_Int_Tables_number   1
_chemical_formula_structural   Np11Se16
_chemical_formula_sum   'Np11 Se16'
_cell_volume   663.68885741
_cell_formula_units_Z   1
loop_
 _symmetry_equiv_pos_site_id
 _symmetry_equiv_pos_as_xyz
  1  'x, y, z'
loop_
 _atom_site_type_symbol
 _atom_site_label
 _atom_site_symmetry_multiplicity
 _atom_site_fract_x
 _atom_site_fract_y
 _atom_site_fract_z
 _atom_site_occupancy
  Np  Np0  1  0.000000  0.000000  0.500000  1
  Np  Np1  1  0.253073  0.622221  0.365572  1
  Np  Np2  1  0.000000  0.500000  0.748407  1
  Np  Np3  1  0.377779  0.253073  0.634428  1
  Np  Np4  1  0.746927  0.377779  0.365572  1
  Np  Np5  1  0.130140  0.256066  0.121807  1
  Np  Np6  1  0.743934  0.130140  0.878193  1
  Np  Np7  1  0.500000  0.000000  0.251593  1
  Np  Np8  1  0.869860  0.743934  0.121807  1
  Np  Np9  1  0.256066  0.869860  0.878193  1
  Np  Np10  1  0.622221  0.746927  0.634428  1
  Se  Se11  1  0.579678  0.679696  0.310703  1
  Se  Se12  1  0.172170  0.578848  0.044257  1
  Se  Se13  1  0.928508  0.674395  0.448741  1
  Se  Se14  1  0.071492  0.325605  0.448741  1
  Se  Se15  1  0.420322  0.320304  0.310703  1
  Se  Se16  1  0.320304  0.579678  0.689297  1
  Se  Se17  1  0.827830  0.421152  0.044257  1
  Se  Se18  1  0.073956  0.173227  0.800357  1
  Se  Se19  1  0.679696  0.420322  0.689297  1
  Se  Se20  1  0.674395  0.071492  0.551259  1
  Se  Se21  1  0.421152  0.172170  0.955743  1
  Se  Se22  1  0.578848  0.827830  0.955743  1
  Se  Se23  1  0.926044  0.826773  0.800357  1
  Se  Se24  1  0.826773  0.073956  0.199643  1
  Se  Se25  1  0.325605  0.928508  0.551259  1
  Se  Se26  1  0.173227  0.926044  0.199643  1
