# generated using pymatgen
data_Dy9Er(Ir2Os)2
_symmetry_space_group_name_H-M   'P 1'
_cell_length_a   10.85604200
_cell_length_b   10.85604200
_cell_length_c   6.40704600
_cell_angle_alpha   90.00000000
_cell_angle_beta   90.00000000
_cell_angle_gamma   90.00000000
_symmetry_Int_Tables_number   1
_chemical_formula_structural   Dy9Er(Ir2Os)2
_chemical_formula_sum   'Dy18 Er2 Ir8 Os4'
_cell_volume   755.09374340
_cell_formula_units_Z   2
loop_
 _symmetry_equiv_pos_site_id
 _symmetry_equiv_pos_as_xyz
  1  'x, y, z'
loop_
 _atom_site_type_symbol
 _atom_site_label
 _atom_site_symmetry_multiplicity
 _atom_site_fract_x
 _atom_site_fract_y
 _atom_site_fract_z
 _atom_site_occupancy
  Dy  Dy0  1  0.293431  0.086409  0.377767  1
  Dy  Dy1  1  0.293431  0.913591  0.877767  1
  Dy  Dy2  1  0.706569  0.086409  0.877767  1
  Dy  Dy3  1  0.706569  0.913591  0.377767  1
  Dy  Dy4  1  0.586393  0.793783  0.877932  1
  Dy  Dy5  1  0.586393  0.206217  0.377932  1
  Dy  Dy6  1  0.413607  0.793783  0.377932  1
  Dy  Dy7  1  0.413607  0.206217  0.877932  1
  Dy  Dy8  1  0.206217  0.413607  0.622068  1
  Dy  Dy9  1  0.206217  0.586393  0.122068  1
  Dy  Dy10  1  0.793783  0.413607  0.122068  1
  Dy  Dy11  1  0.793783  0.586393  0.622068  1
  Dy  Dy12  1  0.913591  0.706569  0.122233  1
  Dy  Dy13  1  0.913591  0.293431  0.622233  1
  Dy  Dy14  1  0.086409  0.706569  0.622233  1
  Dy  Dy15  1  0.086409  0.293431  0.122233  1
  Dy  Dy16  1  0.500000  0.500000  0.000000  1
  Dy  Dy17  1  0.500000  0.500000  0.500000  1
  Er  Er18  1  0.000000  0.000000  0.500000  1
  Er  Er19  1  0.000000  0.000000  0.000000  1
  Ir  Ir20  1  0.848964  0.151036  0.250000  1
  Ir  Ir21  1  0.848964  0.848964  0.750000  1
  Ir  Ir22  1  0.151036  0.151036  0.750000  1
  Ir  Ir23  1  0.151036  0.848964  0.250000  1
  Ir  Ir24  1  0.651899  0.348101  0.750000  1
  Ir  Ir25  1  0.651899  0.651899  0.250000  1
  Ir  Ir26  1  0.348101  0.348101  0.250000  1
  Ir  Ir27  1  0.348101  0.651899  0.750000  1
  Os  Os28  1  0.500000  0.000000  0.123851  1
  Os  Os29  1  0.500000  0.000000  0.623851  1
  Os  Os30  1  0.000000  0.500000  0.876149  1
  Os  Os31  1  0.000000  0.500000  0.376149  1
