# generated using pymatgen
data_LiNd4Al3Pt4
_symmetry_space_group_name_H-M   'P 1'
_cell_length_a   4.49851700
_cell_length_b   7.07984707
_cell_length_c   7.99019775
_cell_angle_alpha   89.89910552
_cell_angle_beta   90.00000000
_cell_angle_gamma   90.00000000
_symmetry_Int_Tables_number   1
_chemical_formula_structural   LiNd4Al3Pt4
_chemical_formula_sum   'Li1 Nd4 Al3 Pt4'
_cell_volume   254.47791465
_cell_formula_units_Z   1
loop_
 _symmetry_equiv_pos_site_id
 _symmetry_equiv_pos_as_xyz
  1  'x, y, z'
loop_
 _atom_site_type_symbol
 _atom_site_label
 _atom_site_symmetry_multiplicity
 _atom_site_fract_x
 _atom_site_fract_y
 _atom_site_fract_z
 _atom_site_occupancy
  Li  Li0  1  0.750000  0.863850  0.931801  1
  Nd  Nd1  1  0.750000  0.468184  0.184930  1
  Nd  Nd2  1  0.250000  0.028029  0.685416  1
  Nd  Nd3  1  0.750000  0.975246  0.313831  1
  Nd  Nd4  1  0.250000  0.530607  0.816321  1
  Al  Al5  1  0.250000  0.642345  0.436076  1
  Al  Al6  1  0.750000  0.347399  0.566663  1
  Al  Al7  1  0.250000  0.143079  0.063613  1
  Pt  Pt8  1  0.750000  0.713254  0.598436  1
  Pt  Pt9  1  0.750000  0.235101  0.888393  1
  Pt  Pt10  1  0.250000  0.277455  0.389005  1
  Pt  Pt11  1  0.250000  0.775453  0.125515  1
