# generated using pymatgen
data_NdPa(TcB4)2
_symmetry_space_group_name_H-M   'P 1'
_cell_length_a   3.66815800
_cell_length_b   6.01589534
_cell_length_c   11.64150642
_cell_angle_alpha   89.86227522
_cell_angle_beta   90.00000000
_cell_angle_gamma   90.00000000
_symmetry_Int_Tables_number   1
_chemical_formula_structural   NdPa(TcB4)2
_chemical_formula_sum   'Nd2 Pa2 Tc4 B16'
_cell_volume   256.89534409
_cell_formula_units_Z   2
loop_
 _symmetry_equiv_pos_site_id
 _symmetry_equiv_pos_as_xyz
  1  'x, y, z'
loop_
 _atom_site_type_symbol
 _atom_site_label
 _atom_site_symmetry_multiplicity
 _atom_site_fract_x
 _atom_site_fract_y
 _atom_site_fract_z
 _atom_site_occupancy
  Nd  Nd0  1  0.000000  0.625655  0.350314  1
  Nd  Nd1  1  0.000000  0.374345  0.649686  1
  Pa  Pa2  1  0.000000  0.127802  0.150297  1
  Pa  Pa3  1  0.000000  0.872198  0.849703  1
  Tc  Tc4  1  0.000000  0.641015  0.090519  1
  Tc  Tc5  1  0.000000  0.358985  0.909481  1
  Tc  Tc6  1  0.000000  0.130757  0.408599  1
  Tc  Tc7  1  0.000000  0.869243  0.591401  1
  B  B8  1  0.500000  0.788703  0.183493  1
  B  B9  1  0.500000  0.211297  0.816507  1
  B  B10  1  0.500000  0.283120  0.312980  1
  B  B11  1  0.500000  0.716880  0.687020  1
  B  B12  1  0.500000  0.865139  0.030997  1
  B  B13  1  0.500000  0.134861  0.969003  1
  B  B14  1  0.500000  0.360175  0.467772  1
  B  B15  1  0.500000  0.639825  0.532228  1
  B  B16  1  0.500000  0.888914  0.454443  1
  B  B17  1  0.500000  0.111086  0.545557  1
  B  B18  1  0.500000  0.387492  0.045782  1
  B  B19  1  0.500000  0.612508  0.954218  1
  B  B20  1  0.500000  0.979447  0.307861  1
  B  B21  1  0.500000  0.020553  0.692139  1
  B  B22  1  0.500000  0.470729  0.188914  1
  B  B23  1  0.500000  0.529271  0.811086  1
