# generated using pymatgen
data_Tb3Dy3(WO7)2
_symmetry_space_group_name_H-M   'P 1'
_cell_length_a   6.48570004
_cell_length_b   6.48770863
_cell_length_c   7.50148803
_cell_angle_alpha   89.99565931
_cell_angle_beta   89.99353552
_cell_angle_gamma   109.10615822
_symmetry_Int_Tables_number   1
_chemical_formula_structural   Tb3Dy3(WO7)2
_chemical_formula_sum   'Tb3 Dy3 W2 O14'
_cell_volume   298.25502754
_cell_formula_units_Z   1
loop_
 _symmetry_equiv_pos_site_id
 _symmetry_equiv_pos_as_xyz
  1  'x, y, z'
loop_
 _atom_site_type_symbol
 _atom_site_label
 _atom_site_symmetry_multiplicity
 _atom_site_fract_x
 _atom_site_fract_y
 _atom_site_fract_z
 _atom_site_occupancy
  Tb  Tb0  1  0.518506  0.518493  0.249809  1
  Tb  Tb1  1  0.482043  0.481753  0.750190  1
  Tb  Tb2  1  0.999018  0.466629  0.497206  1
  Dy  Dy3  1  0.533090  0.001374  0.502803  1
  Dy  Dy4  1  0.001382  0.533330  0.997193  1
  Dy  Dy5  1  0.466809  0.998638  0.002789  1
  W  W6  1  0.000685  0.000662  0.249757  1
  W  W7  1  0.999268  0.999278  0.750252  1
  O  O8  1  0.067059  0.317782  0.216764  1
  O  O9  1  0.681940  0.933634  0.782621  1
  O  O10  1  0.932512  0.681961  0.718375  1
  O  O11  1  0.317862  0.066416  0.282584  1
  O  O12  1  0.674883  0.919707  0.222198  1
  O  O13  1  0.080970  0.324870  0.778355  1
  O  O14  1  0.324980  0.080415  0.722267  1
  O  O15  1  0.918647  0.674913  0.276802  1
  O  O16  1  0.369713  0.632739  0.500095  1
  O  O17  1  0.631918  0.367955  0.999982  1
  O  O18  1  0.362872  0.637347  0.000019  1
  O  O19  1  0.635804  0.362624  0.499937  1
  O  O20  1  0.925153  0.073998  0.500001  1
  O  O21  1  0.074889  0.925482  0.000000  1
