# generated using pymatgen
data_Sr4TlCd3Au4
_symmetry_space_group_name_H-M   'P 1'
_cell_length_a   4.55775200
_cell_length_b   7.89663390
_cell_length_c   9.01343000
_cell_angle_alpha   90.22502954
_cell_angle_beta   90.00000000
_cell_angle_gamma   90.00000000
_symmetry_Int_Tables_number   1
_chemical_formula_structural   Sr4TlCd3Au4
_chemical_formula_sum   'Sr4 Tl1 Cd3 Au4'
_cell_volume   324.39894650
_cell_formula_units_Z   1
loop_
 _symmetry_equiv_pos_site_id
 _symmetry_equiv_pos_as_xyz
  1  'x, y, z'
loop_
 _atom_site_type_symbol
 _atom_site_label
 _atom_site_symmetry_multiplicity
 _atom_site_fract_x
 _atom_site_fract_y
 _atom_site_fract_z
 _atom_site_occupancy
  Sr  Sr0  1  0.250000  0.033722  0.317248  1
  Sr  Sr1  1  0.250000  0.534119  0.185767  1
  Sr  Sr2  1  0.750000  0.965533  0.681775  1
  Sr  Sr3  1  0.750000  0.468600  0.813827  1
  Tl  Tl4  1  0.250000  0.145293  0.936387  1
  Cd  Cd5  1  0.250000  0.645301  0.563328  1
  Cd  Cd6  1  0.750000  0.851232  0.065995  1
  Cd  Cd7  1  0.750000  0.354720  0.438088  1
  Au  Au8  1  0.250000  0.265184  0.617711  1
  Au  Au9  1  0.250000  0.760352  0.874483  1
  Au  Au10  1  0.750000  0.735078  0.376573  1
  Au  Au11  1  0.750000  0.240868  0.128821  1
