# generated using pymatgen
data_La2Al20ReIr3
_symmetry_space_group_name_H-M   'P 1'
_cell_length_a   6.93613360
_cell_length_b   6.91520996
_cell_length_c   9.24086876
_cell_angle_alpha   89.78265502
_cell_angle_beta   89.78954493
_cell_angle_gamma   97.20877435
_symmetry_Int_Tables_number   1
_chemical_formula_structural   La2Al20ReIr3
_chemical_formula_sum   'La2 Al20 Re1 Ir3'
_cell_volume   439.72603289
_cell_formula_units_Z   1
loop_
 _symmetry_equiv_pos_site_id
 _symmetry_equiv_pos_as_xyz
  1  'x, y, z'
loop_
 _atom_site_type_symbol
 _atom_site_label
 _atom_site_symmetry_multiplicity
 _atom_site_fract_x
 _atom_site_fract_y
 _atom_site_fract_z
 _atom_site_occupancy
  La  La0  1  0.877567  0.127618  0.749366  1
  La  La1  1  0.122433  0.872382  0.250634  1
  Al  Al2  1  0.623762  0.380748  0.550814  1
  Al  Al3  1  0.376238  0.619252  0.449186  1
  Al  Al4  1  0.378796  0.620803  0.052761  1
  Al  Al5  1  0.621204  0.379197  0.947239  1
  Al  Al6  1  0.223849  0.224750  0.501436  1
  Al  Al7  1  0.776151  0.775250  0.498564  1
  Al  Al8  1  0.775358  0.774801  0.000313  1
  Al  Al9  1  0.224642  0.225199  0.999687  1
  Al  Al10  1  0.838752  0.159711  0.104822  1
  Al  Al11  1  0.161248  0.840289  0.895178  1
  Al  Al12  1  0.160176  0.839209  0.603033  1
  Al  Al13  1  0.839824  0.160791  0.396967  1
  Al  Al14  1  0.857208  0.590188  0.749720  1
  Al  Al15  1  0.142792  0.409812  0.250280  1
  Al  Al16  1  0.409300  0.142855  0.749934  1
  Al  Al17  1  0.590700  0.857145  0.250066  1
  Al  Al18  1  0.223244  0.483732  0.746668  1
  Al  Al19  1  0.776756  0.516268  0.253332  1
  Al  Al20  1  0.516783  0.774598  0.751230  1
  Al  Al21  1  0.483217  0.225402  0.248770  1
  Re  Re22  1  0.000000  0.500000  0.500000  1
  Ir  Ir23  1  0.000000  0.500000  0.000000  1
  Ir  Ir24  1  0.500000  0.000000  0.000000  1
  Ir  Ir25  1  0.500000  0.000000  0.500000  1
