# generated using pymatgen
data_Np3As6Pd2Rh7
_symmetry_space_group_name_H-M   'P 1'
_cell_length_a   3.98734200
_cell_length_b   8.51397193
_cell_length_c   10.00642951
_cell_angle_alpha   107.28732004
_cell_angle_beta   90.00000000
_cell_angle_gamma   103.54237817
_symmetry_Int_Tables_number   1
_chemical_formula_structural   Np3As6Pd2Rh7
_chemical_formula_sum   'Np3 As6 Pd2 Rh7'
_cell_volume   314.44882673
_cell_formula_units_Z   1
loop_
 _symmetry_equiv_pos_site_id
 _symmetry_equiv_pos_as_xyz
  1  'x, y, z'
loop_
 _atom_site_type_symbol
 _atom_site_label
 _atom_site_symmetry_multiplicity
 _atom_site_fract_x
 _atom_site_fract_y
 _atom_site_fract_z
 _atom_site_occupancy
  Np  Np0  1  0.844586  0.689171  0.310879  1
  Np  Np1  1  0.155414  0.310829  0.689121  1
  Np  Np2  1  0.000000  0.000000  0.000000  1
  As  As3  1  0.804251  0.608503  0.861834  1
  As  As4  1  0.195749  0.391497  0.138166  1
  As  As5  1  0.542035  0.084069  0.775779  1
  As  As6  1  0.457965  0.915931  0.224221  1
  As  As7  1  0.636990  0.273980  0.449827  1
  As  As8  1  0.363010  0.726020  0.550173  1
  Pd  Pd9  1  0.680847  0.361693  0.961477  1
  Pd  Pd10  1  0.319153  0.638307  0.038523  1
  Rh  Rh11  1  0.957838  0.915677  0.671000  1
  Rh  Rh12  1  0.042162  0.084323  0.329000  1
  Rh  Rh13  1  0.778225  0.556451  0.607828  1
  Rh  Rh14  1  0.221775  0.443549  0.392172  1
  Rh  Rh15  1  0.386047  0.772093  0.808160  1
  Rh  Rh16  1  0.613953  0.227907  0.191840  1
  Rh  Rh17  1  0.500000  0.000000  0.500000  1
