# generated using pymatgen
data_Ba4La7HoS16
_symmetry_space_group_name_H-M   'P 1'
_cell_length_a   4.18431200
_cell_length_b   12.42593762
_cell_length_c   14.95149100
_cell_angle_alpha   89.73230383
_cell_angle_beta   90.00000000
_cell_angle_gamma   90.00000000
_symmetry_Int_Tables_number   1
_chemical_formula_structural   Ba4La7HoS16
_chemical_formula_sum   'Ba4 La7 Ho1 S16'
_cell_volume   777.37933686
_cell_formula_units_Z   1
loop_
 _symmetry_equiv_pos_site_id
 _symmetry_equiv_pos_as_xyz
  1  'x, y, z'
loop_
 _atom_site_type_symbol
 _atom_site_label
 _atom_site_symmetry_multiplicity
 _atom_site_fract_x
 _atom_site_fract_y
 _atom_site_fract_z
 _atom_site_occupancy
  Ba  Ba0  1  0.250000  0.756838  0.341544  1
  Ba  Ba1  1  0.250000  0.255131  0.163073  1
  Ba  Ba2  1  0.750000  0.241521  0.655634  1
  Ba  Ba3  1  0.750000  0.744595  0.839660  1
  La  La4  1  0.250000  0.422145  0.392675  1
  La  La5  1  0.250000  0.929053  0.112021  1
  La  La6  1  0.750000  0.573413  0.609169  1
  La  La7  1  0.750000  0.073753  0.891088  1
  La  La8  1  0.250000  0.418019  0.896755  1
  La  La9  1  0.250000  0.922890  0.599807  1
  La  La10  1  0.750000  0.580725  0.103911  1
  Ho  Ho11  1  0.750000  0.079246  0.395266  1
  S  S12  1  0.250000  0.207453  0.819654  1
  S  S13  1  0.250000  0.709959  0.676072  1
  S  S14  1  0.750000  0.792629  0.179688  1
  S  S15  1  0.750000  0.283535  0.326803  1
  S  S16  1  0.250000  0.132383  0.514944  1
  S  S17  1  0.250000  0.631632  0.975419  1
  S  S18  1  0.750000  0.876060  0.470746  1
  S  S19  1  0.750000  0.367345  0.025484  1
  S  S20  1  0.250000  0.518306  0.218228  1
  S  S21  1  0.250000  0.024864  0.289138  1
  S  S22  1  0.750000  0.479387  0.782969  1
  S  S23  1  0.750000  0.980007  0.715797  1
  S  S24  1  0.250000  0.417532  0.581456  1
  S  S25  1  0.250000  0.918310  0.921845  1
  S  S26  1  0.750000  0.580403  0.419912  1
  S  S27  1  0.750000  0.082868  0.081240  1
