# generated using pymatgen
data_Zr10AlTlZnPb5
_symmetry_space_group_name_H-M   'P 1'
_cell_length_a   8.84865850
_cell_length_b   8.84866761
_cell_length_c   5.97115046
_cell_angle_alpha   90.01778297
_cell_angle_beta   90.01787039
_cell_angle_gamma   120.03648412
_symmetry_Int_Tables_number   1
_chemical_formula_structural   Zr10AlTlZnPb5
_chemical_formula_sum   'Zr10 Al1 Tl1 Zn1 Pb5'
_cell_volume   404.74742800
_cell_formula_units_Z   1
loop_
 _symmetry_equiv_pos_site_id
 _symmetry_equiv_pos_as_xyz
  1  'x, y, z'
loop_
 _atom_site_type_symbol
 _atom_site_label
 _atom_site_symmetry_multiplicity
 _atom_site_fract_x
 _atom_site_fract_y
 _atom_site_fract_z
 _atom_site_occupancy
  Zr  Zr0  1  0.665659  0.332971  0.499562  1
  Zr  Zr1  1  0.332972  0.665660  0.499562  1
  Zr  Zr2  1  0.333525  0.665924  0.000182  1
  Zr  Zr3  1  0.665923  0.333524  0.000182  1
  Zr  Zr4  1  0.734569  0.734569  0.248647  1
  Zr  Zr5  1  0.265741  0.001127  0.249625  1
  Zr  Zr6  1  0.001127  0.265740  0.249626  1
  Zr  Zr7  1  0.265410  0.265410  0.750675  1
  Zr  Zr8  1  0.735057  0.999916  0.750662  1
  Zr  Zr9  1  0.999916  0.735057  0.750661  1
  Al  Al10  1  0.000825  0.000825  0.000866  1
  Tl  Tl11  1  0.384183  0.384183  0.250963  1
  Zn  Zn12  1  0.000875  0.000875  0.499190  1
  Pb  Pb13  1  0.615588  0.000038  0.250266  1
  Pb  Pb14  1  0.000038  0.615588  0.250266  1
  Pb  Pb15  1  0.614598  0.614598  0.749320  1
  Pb  Pb16  1  0.384355  0.999640  0.749872  1
  Pb  Pb17  1  0.999640  0.384355  0.749873  1
