# generated using pymatgen
data_Dy4ScTc4(P4Ir5)3
_symmetry_space_group_name_H-M   'P 1'
_cell_length_a   12.68520011
_cell_length_b   12.58220874
_cell_length_c   3.97323900
_cell_angle_alpha   90.00000000
_cell_angle_beta   90.00000000
_cell_angle_gamma   119.86595252
_symmetry_Int_Tables_number   1
_chemical_formula_structural   Dy4ScTc4(P4Ir5)3
_chemical_formula_sum   'Dy4 Sc1 Tc4 P12 Ir15'
_cell_volume   549.93906453
_cell_formula_units_Z   1
loop_
 _symmetry_equiv_pos_site_id
 _symmetry_equiv_pos_as_xyz
  1  'x, y, z'
loop_
 _atom_site_type_symbol
 _atom_site_label
 _atom_site_symmetry_multiplicity
 _atom_site_fract_x
 _atom_site_fract_y
 _atom_site_fract_z
 _atom_site_occupancy
  Dy  Dy0  1  0.331693  0.663616  0.000000  1
  Dy  Dy1  1  0.666836  0.333224  0.000000  1
  Dy  Dy2  1  0.818857  0.002269  0.500000  1
  Dy  Dy3  1  0.001245  0.817823  0.500000  1
  Sc  Sc4  1  0.185446  0.188053  0.500000  1
  Tc  Tc5  1  0.454222  0.999278  0.000000  1
  Tc  Tc6  1  0.995233  0.452290  0.000000  1
  Tc  Tc7  1  0.548375  0.543378  0.000000  1
  Tc  Tc8  1  0.177805  0.375993  0.000000  1
  P  P9  1  0.178513  0.003880  0.000000  1
  P  P10  1  0.006093  0.183122  0.000000  1
  P  P11  1  0.824435  0.825883  0.000000  1
  P  P12  1  0.171378  0.479020  0.500000  1
  P  P13  1  0.516471  0.683952  0.500000  1
  P  P14  1  0.313098  0.828697  0.500000  1
  P  P15  1  0.684360  0.515991  0.500000  1
  P  P16  1  0.830224  0.314574  0.500000  1
  P  P17  1  0.483539  0.167727  0.500000  1
  P  P18  1  0.637544  0.999114  0.000000  1
  P  P19  1  0.000713  0.638426  0.000000  1
  P  P20  1  0.356246  0.361966  0.000000  1
  Ir  Ir21  1  0.363035  0.489097  0.500000  1
  Ir  Ir22  1  0.508238  0.866413  0.500000  1
  Ir  Ir23  1  0.130711  0.638768  0.500000  1
  Ir  Ir24  1  0.866775  0.510445  0.500000  1
  Ir  Ir25  1  0.640495  0.130471  0.500000  1
  Ir  Ir26  1  0.492071  0.356139  0.500000  1
  Ir  Ir27  1  0.626792  0.805833  0.000000  1
  Ir  Ir28  1  0.194491  0.820805  0.000000  1
  Ir  Ir29  1  0.808859  0.629996  0.000000  1
  Ir  Ir30  1  0.816883  0.191995  0.000000  1
  Ir  Ir31  1  0.370879  0.180696  0.000000  1
  Ir  Ir32  1  0.288922  0.000473  0.500000  1
  Ir  Ir33  1  0.995169  0.285830  0.500000  1
  Ir  Ir34  1  0.711924  0.712013  0.500000  1
  Ir  Ir35  1  0.002429  0.002753  0.000000  1
