# generated using pymatgen
data_Y7Ho(ErGa5)4
_symmetry_space_group_name_H-M   'P 1'
_cell_length_a   6.09355808
_cell_length_b   9.61564605
_cell_length_c   11.55378016
_cell_angle_alpha   90.00932161
_cell_angle_beta   89.98321010
_cell_angle_gamma   89.99233991
_symmetry_Int_Tables_number   1
_chemical_formula_structural   Y7Ho(ErGa5)4
_chemical_formula_sum   'Y7 Ho1 Er4 Ga20'
_cell_volume   676.97634720
_cell_formula_units_Z   1
loop_
 _symmetry_equiv_pos_site_id
 _symmetry_equiv_pos_as_xyz
  1  'x, y, z'
loop_
 _atom_site_type_symbol
 _atom_site_label
 _atom_site_symmetry_multiplicity
 _atom_site_fract_x
 _atom_site_fract_y
 _atom_site_fract_z
 _atom_site_occupancy
  Y  Y0  1  0.890676  0.509820  0.351386  1
  Y  Y1  1  0.609335  0.990190  0.851395  1
  Y  Y2  1  0.109280  0.009841  0.648655  1
  Y  Y3  1  0.390792  0.490186  0.148368  1
  Y  Y4  1  0.109245  0.490179  0.648722  1
  Y  Y5  1  0.390764  0.009844  0.148552  1
  Y  Y6  1  0.890735  0.990194  0.351405  1
  Ho  Ho7  1  0.609124  0.509798  0.851388  1
  Er  Er8  1  0.848990  0.749890  0.074860  1
  Er  Er9  1  0.650967  0.749955  0.575060  1
  Er  Er10  1  0.151210  0.250058  0.924982  1
  Er  Er11  1  0.349073  0.250044  0.425056  1
  Ga  Ga12  1  0.875598  0.053464  0.089699  1
  Ga  Ga13  1  0.624229  0.446779  0.590294  1
  Ga  Ga14  1  0.124784  0.553203  0.910083  1
  Ga  Ga15  1  0.375697  0.946624  0.410277  1
  Ga  Ga16  1  0.124288  0.946499  0.910232  1
  Ga  Ga17  1  0.375760  0.553396  0.410266  1
  Ga  Ga18  1  0.875623  0.446681  0.089441  1
  Ga  Ga19  1  0.624257  0.053404  0.589771  1
  Ga  Ga20  1  0.172139  0.749984  0.251665  1
  Ga  Ga21  1  0.328213  0.749511  0.751969  1
  Ga  Ga22  1  0.827383  0.250553  0.748692  1
  Ga  Ga23  1  0.672238  0.250013  0.248272  1
  Ga  Ga24  1  0.373417  0.749797  0.004150  1
  Ga  Ga25  1  0.126910  0.749990  0.504389  1
  Ga  Ga26  1  0.627050  0.250535  0.995040  1
  Ga  Ga27  1  0.872982  0.250068  0.495639  1
  Ga  Ga28  1  0.601676  0.749992  0.299573  1
  Ga  Ga29  1  0.897510  0.749312  0.799796  1
  Ga  Ga30  1  0.398423  0.250157  0.700529  1
  Ga  Ga31  1  0.101627  0.250040  0.200393  1
