# generated using pymatgen
data_Ac20Si15Sb
_symmetry_space_group_name_H-M   'P 1'
_cell_length_a   8.31049490
_cell_length_b   8.34382885
_cell_length_c   16.36256106
_cell_angle_alpha   89.56224434
_cell_angle_beta   90.13908327
_cell_angle_gamma   90.14097144
_symmetry_Int_Tables_number   1
_chemical_formula_structural   Ac20Si15Sb
_chemical_formula_sum   'Ac20 Si15 Sb1'
_cell_volume   1134.56218496
_cell_formula_units_Z   1
loop_
 _symmetry_equiv_pos_site_id
 _symmetry_equiv_pos_as_xyz
  1  'x, y, z'
loop_
 _atom_site_type_symbol
 _atom_site_label
 _atom_site_symmetry_multiplicity
 _atom_site_fract_x
 _atom_site_fract_y
 _atom_site_fract_z
 _atom_site_occupancy
  Ac  Ac0  1  0.476327  0.374597  0.127121  1
  Ac  Ac1  1  0.967574  0.134474  0.627418  1
  Ac  Ac2  1  0.872915  0.025159  0.877737  1
  Ac  Ac3  1  0.126122  0.971984  0.374051  1
  Ac  Ac4  1  0.526585  0.619940  0.627424  1
  Ac  Ac5  1  0.373997  0.476238  0.874102  1
  Ac  Ac6  1  0.629743  0.521839  0.370452  1
  Ac  Ac7  1  0.024311  0.873984  0.121927  1
  Ac  Ac8  1  0.627169  0.986368  0.443519  1
  Ac  Ac9  1  0.379151  0.013900  0.948890  1
  Ac  Ac10  1  0.986234  0.617987  0.554257  1
  Ac  Ac11  1  0.485387  0.878085  0.197589  1
  Ac  Ac12  1  0.518012  0.130313  0.704127  1
  Ac  Ac13  1  0.879249  0.486712  0.805508  1
  Ac  Ac14  1  0.119585  0.510483  0.300617  1
  Ac  Ac15  1  0.013742  0.379023  0.052949  1
  Ac  Ac16  1  0.307588  0.320142  0.497619  1
  Ac  Ac17  1  0.188491  0.809354  0.757595  1
  Ac  Ac18  1  0.811987  0.188612  0.247662  1
  Ac  Ac19  1  0.688037  0.691162  0.999180  1
  Si  Si20  1  0.709411  0.081624  0.059698  1
  Si  Si21  1  0.919118  0.284813  0.439982  1
  Si  Si22  1  0.420568  0.204947  0.308932  1
  Si  Si23  1  0.579890  0.790499  0.809475  1
  Si  Si24  1  0.210504  0.421054  0.691175  1
  Si  Si25  1  0.788915  0.582088  0.188307  1
  Si  Si26  1  0.080021  0.709206  0.942288  1
  Si  Si27  1  0.801971  0.829754  0.708634  1
  Si  Si28  1  0.198177  0.168746  0.207790  1
  Si  Si29  1  0.829744  0.803417  0.289008  1
  Si  Si30  1  0.332004  0.683140  0.446452  1
  Si  Si31  1  0.669095  0.302258  0.958764  1
  Si  Si32  1  0.695567  0.329362  0.538692  1
  Si  Si33  1  0.302498  0.669232  0.042290  1
  Si  Si34  1  0.169415  0.198873  0.793321  1
  Sb  Sb35  1  0.290896  0.930628  0.565446  1
