# generated using pymatgen
data_MnHgPt4(PbO7)2
_symmetry_space_group_name_H-M   'P 1'
_cell_length_a   7.37256388
_cell_length_b   7.26837367
_cell_length_c   7.27144911
_cell_angle_alpha   59.15572046
_cell_angle_beta   59.53891822
_cell_angle_gamma   59.52466225
_symmetry_Int_Tables_number   1
_chemical_formula_structural   MnHgPt4(PbO7)2
_chemical_formula_sum   'Mn1 Hg1 Pt4 Pb2 O14'
_cell_volume   271.79603583
_cell_formula_units_Z   1
loop_
 _symmetry_equiv_pos_site_id
 _symmetry_equiv_pos_as_xyz
  1  'x, y, z'
loop_
 _atom_site_type_symbol
 _atom_site_label
 _atom_site_symmetry_multiplicity
 _atom_site_fract_x
 _atom_site_fract_y
 _atom_site_fract_z
 _atom_site_occupancy
  Mn  Mn0  1  0.125000  0.125000  0.625000  1
  Hg  Hg1  1  0.125000  0.625000  0.125000  1
  Pt  Pt2  1  0.625000  0.625000  0.125000  1
  Pt  Pt3  1  0.625000  0.625000  0.625000  1
  Pt  Pt4  1  0.625000  0.125000  0.625000  1
  Pt  Pt5  1  0.125000  0.625000  0.625000  1
  Pb  Pb6  1  0.125000  0.125000  0.125000  1
  Pb  Pb7  1  0.625000  0.125000  0.125000  1
  O  O8  1  0.710233  0.289024  0.290511  1
  O  O9  1  0.711624  0.286642  0.710873  1
  O  O10  1  0.995293  0.026824  0.982589  1
  O  O11  1  0.290992  0.715155  0.288511  1
  O  O12  1  0.705342  0.715155  0.288511  1
  O  O13  1  0.962130  0.527851  0.547889  1
  O  O14  1  0.287870  0.722149  0.702111  1
  O  O15  1  0.254707  0.223176  0.267411  1
  O  O16  1  0.959008  0.534845  0.961489  1
  O  O17  1  0.538376  0.963358  0.539127  1
  O  O18  1  0.544658  0.534845  0.961489  1
  O  O19  1  0.959138  0.963358  0.539127  1
  O  O20  1  0.539767  0.960976  0.959489  1
  O  O21  1  0.290862  0.286642  0.710873  1
