# generated using pymatgen
data_Tb3Lu(Co4P3)2
_symmetry_space_group_name_H-M   'P 1'
_cell_length_a   3.75231900
_cell_length_b   10.76229600
_cell_length_c   12.50074300
_cell_angle_alpha   90.00000000
_cell_angle_beta   90.00000000
_cell_angle_gamma   90.00000000
_symmetry_Int_Tables_number   1
_chemical_formula_structural   Tb3Lu(Co4P3)2
_chemical_formula_sum   'Tb6 Lu2 Co16 P12'
_cell_volume   504.82460205
_cell_formula_units_Z   2
loop_
 _symmetry_equiv_pos_site_id
 _symmetry_equiv_pos_as_xyz
  1  'x, y, z'
loop_
 _atom_site_type_symbol
 _atom_site_label
 _atom_site_symmetry_multiplicity
 _atom_site_fract_x
 _atom_site_fract_y
 _atom_site_fract_z
 _atom_site_occupancy
  Tb  Tb0  1  0.000000  0.500000  0.530052  1
  Tb  Tb1  1  0.500000  0.000000  0.469948  1
  Tb  Tb2  1  0.500000  0.823284  0.206199  1
  Tb  Tb3  1  0.500000  0.176716  0.206199  1
  Tb  Tb4  1  0.000000  0.676716  0.793801  1
  Tb  Tb5  1  0.000000  0.323284  0.793801  1
  Lu  Lu6  1  0.500000  0.500000  0.159651  1
  Lu  Lu7  1  0.000000  0.000000  0.840349  1
  Co  Co8  1  0.500000  0.500000  0.705824  1
  Co  Co9  1  0.000000  0.000000  0.294176  1
  Co  Co10  1  0.000000  0.500000  0.986879  1
  Co  Co11  1  0.500000  0.000000  0.013121  1
  Co  Co12  1  0.500000  0.331430  0.994180  1
  Co  Co13  1  0.500000  0.668570  0.994180  1
  Co  Co14  1  0.000000  0.168570  0.005820  1
  Co  Co15  1  0.000000  0.831430  0.005820  1
  Co  Co16  1  0.500000  0.295065  0.433998  1
  Co  Co17  1  0.500000  0.704935  0.433998  1
  Co  Co18  1  0.000000  0.204935  0.566002  1
  Co  Co19  1  0.000000  0.795065  0.566002  1
  Co  Co20  1  0.500000  0.877879  0.698655  1
  Co  Co21  1  0.500000  0.122121  0.698655  1
  Co  Co22  1  0.000000  0.622121  0.301345  1
  Co  Co23  1  0.000000  0.377879  0.301345  1
  P  P24  1  0.500000  0.500000  0.886035  1
  P  P25  1  0.000000  0.000000  0.113965  1
  P  P26  1  0.500000  0.500000  0.365192  1
  P  P27  1  0.000000  0.000000  0.634808  1
  P  P28  1  0.500000  0.308598  0.614859  1
  P  P29  1  0.500000  0.691402  0.614859  1
  P  P30  1  0.000000  0.191402  0.385141  1
  P  P31  1  0.000000  0.808598  0.385141  1
  P  P32  1  0.500000  0.836793  0.895119  1
  P  P33  1  0.500000  0.163207  0.895119  1
  P  P34  1  0.000000  0.663207  0.104881  1
  P  P35  1  0.000000  0.336793  0.104881  1
