# generated using pymatgen
data_DyTa5FeB4Ru9
_symmetry_space_group_name_H-M   'P 1'
_cell_length_a   9.42687218
_cell_length_b   9.42687143
_cell_length_c   3.06039300
_cell_angle_alpha   90.00000000
_cell_angle_beta   90.00000000
_cell_angle_gamma   90.08995969
_symmetry_Int_Tables_number   1
_chemical_formula_structural   DyTa5FeB4Ru9
_chemical_formula_sum   'Dy1 Ta5 Fe1 B4 Ru9'
_cell_volume   271.96427981
_cell_formula_units_Z   1
loop_
 _symmetry_equiv_pos_site_id
 _symmetry_equiv_pos_as_xyz
  1  'x, y, z'
loop_
 _atom_site_type_symbol
 _atom_site_label
 _atom_site_symmetry_multiplicity
 _atom_site_fract_x
 _atom_site_fract_y
 _atom_site_fract_z
 _atom_site_occupancy
  Dy  Dy0  1  0.822624  0.677376  0.000000  1
  Ta  Ta1  1  0.179611  0.320389  0.000000  1
  Ta  Ta2  1  0.329012  0.830721  0.000000  1
  Ta  Ta3  1  0.669279  0.170988  0.000000  1
  Ta  Ta4  1  0.500983  0.500584  0.000000  1
  Ta  Ta5  1  0.999416  0.999017  0.000000  1
  Fe  Fe6  1  0.495961  0.004039  0.500000  1
  B  B7  1  0.609407  0.890593  0.000000  1
  B  B8  1  0.387078  0.112922  0.000000  1
  B  B9  1  0.124201  0.620187  0.000000  1
  B  B10  1  0.879813  0.375799  0.000000  1
  Ru  Ru11  1  0.554999  0.730200  0.500000  1
  Ru  Ru12  1  0.430055  0.278004  0.500000  1
  Ru  Ru13  1  0.083084  0.783677  0.500000  1
  Ru  Ru14  1  0.931765  0.214546  0.500000  1
  Ru  Ru15  1  0.285454  0.568235  0.500000  1
  Ru  Ru16  1  0.716323  0.416916  0.500000  1
  Ru  Ru17  1  0.221996  0.069945  0.500000  1
  Ru  Ru18  1  0.769800  0.945001  0.500000  1
  Ru  Ru19  1  0.009138  0.490862  0.500000  1
