# generated using pymatgen
data_ErScP7Ru12
_symmetry_space_group_name_H-M   'P 1'
_cell_length_a   9.37880700
_cell_length_b   9.37880615
_cell_length_c   3.93496000
_cell_angle_alpha   90.00000000
_cell_angle_beta   90.00000000
_cell_angle_gamma   119.99999243
_symmetry_Int_Tables_number   1
_chemical_formula_structural   ErScP7Ru12
_chemical_formula_sum   'Er1 Sc1 P7 Ru12'
_cell_volume   299.75479924
_cell_formula_units_Z   1
loop_
 _symmetry_equiv_pos_site_id
 _symmetry_equiv_pos_as_xyz
  1  'x, y, z'
loop_
 _atom_site_type_symbol
 _atom_site_label
 _atom_site_symmetry_multiplicity
 _atom_site_fract_x
 _atom_site_fract_y
 _atom_site_fract_z
 _atom_site_occupancy
  Er  Er0  1  0.333333  0.666667  0.000000  1
  Sc  Sc1  1  0.666667  0.333333  0.500000  1
  P  P2  1  0.599620  0.718398  0.500000  1
  P  P3  1  0.000000  0.000000  0.000000  1
  P  P4  1  0.281602  0.881222  0.500000  1
  P  P5  1  0.118778  0.400380  0.500000  1
  P  P6  1  0.882653  0.572328  0.000000  1
  P  P7  1  0.427672  0.310324  0.000000  1
  P  P8  1  0.689676  0.117347  0.000000  1
  Ru  Ru9  1  0.556649  0.951029  0.500000  1
  Ru  Ru10  1  0.394382  0.443351  0.500000  1
  Ru  Ru11  1  0.914213  0.122053  0.500000  1
  Ru  Ru12  1  0.207840  0.085787  0.500000  1
  Ru  Ru13  1  0.877947  0.792160  0.500000  1
  Ru  Ru14  1  0.727068  0.891615  0.000000  1
  Ru  Ru15  1  0.108385  0.835452  0.000000  1
  Ru  Ru16  1  0.164548  0.272932  0.000000  1
  Ru  Ru17  1  0.426440  0.069101  0.000000  1
  Ru  Ru18  1  0.930899  0.357339  0.000000  1
  Ru  Ru19  1  0.642661  0.573560  0.000000  1
  Ru  Ru20  1  0.048971  0.605618  0.500000  1
