# generated using pymatgen
data_Zr2SiAsIr2
_symmetry_space_group_name_H-M   'P 1'
_cell_length_a   3.98091400
_cell_length_b   6.63220200
_cell_length_c   7.58560100
_cell_angle_alpha   90.00000000
_cell_angle_beta   90.00000000
_cell_angle_gamma   90.00000000
_symmetry_Int_Tables_number   1
_chemical_formula_structural   Zr2SiAsIr2
_chemical_formula_sum   'Zr4 Si2 As2 Ir4'
_cell_volume   200.27675037
_cell_formula_units_Z   2
loop_
 _symmetry_equiv_pos_site_id
 _symmetry_equiv_pos_as_xyz
  1  'x, y, z'
loop_
 _atom_site_type_symbol
 _atom_site_label
 _atom_site_symmetry_multiplicity
 _atom_site_fract_x
 _atom_site_fract_y
 _atom_site_fract_z
 _atom_site_occupancy
  Zr  Zr0  1  0.250000  0.022556  0.322398  1
  Zr  Zr1  1  0.250000  0.522556  0.177602  1
  Zr  Zr2  1  0.750000  0.974431  0.684473  1
  Zr  Zr3  1  0.750000  0.474431  0.815527  1
  Si  Si4  1  0.750000  0.726735  0.378797  1
  Si  Si5  1  0.750000  0.226735  0.121203  1
  As  As6  1  0.250000  0.265302  0.622221  1
  As  As7  1  0.250000  0.765302  0.877779  1
  Ir  Ir8  1  0.250000  0.154428  0.950499  1
  Ir  Ir9  1  0.250000  0.654428  0.549501  1
  Ir  Ir10  1  0.750000  0.856548  0.077441  1
  Ir  Ir11  1  0.750000  0.356548  0.422559  1
