# generated using pymatgen
data_Ho4VTcOs6
_symmetry_space_group_name_H-M   'P 1'
_cell_length_a   5.39483500
_cell_length_b   5.30140441
_cell_length_c   8.87641600
_cell_angle_alpha   90.00000000
_cell_angle_beta   90.00000000
_cell_angle_gamma   121.52990389
_symmetry_Int_Tables_number   1
_chemical_formula_structural   Ho4VTcOs6
_chemical_formula_sum   'Ho4 V1 Tc1 Os6'
_cell_volume   216.38818887
_cell_formula_units_Z   1
loop_
 _symmetry_equiv_pos_site_id
 _symmetry_equiv_pos_as_xyz
  1  'x, y, z'
loop_
 _atom_site_type_symbol
 _atom_site_label
 _atom_site_symmetry_multiplicity
 _atom_site_fract_x
 _atom_site_fract_y
 _atom_site_fract_z
 _atom_site_occupancy
  Ho  Ho0  1  0.334195  0.663811  0.434974  1
  Ho  Ho1  1  0.667135  0.336224  0.563622  1
  Ho  Ho2  1  0.667135  0.336224  0.936378  1
  Ho  Ho3  1  0.334195  0.663811  0.065026  1
  V  V4  1  0.165099  0.335029  0.750000  1
  Tc  Tc5  1  0.343275  0.170084  0.250000  1
  Os  Os6  1  0.171690  0.826414  0.750000  1
  Os  Os7  1  0.829886  0.660575  0.250000  1
  Os  Os8  1  0.646974  0.822257  0.750000  1
  Os  Os9  1  0.007044  0.006732  0.997248  1
  Os  Os10  1  0.826323  0.172108  0.250000  1
  Os  Os11  1  0.007044  0.006732  0.502752  1
