# generated using pymatgen
data_Na4Si(TeSe)2
_symmetry_space_group_name_H-M   'P 1'
_cell_length_a   7.42451400
_cell_length_b   9.81495900
_cell_length_c   14.42985900
_cell_angle_alpha   90.00000000
_cell_angle_beta   90.00000000
_cell_angle_gamma   90.00000000
_symmetry_Int_Tables_number   1
_chemical_formula_structural   Na4Si(TeSe)2
_chemical_formula_sum   'Na16 Si4 Te8 Se8'
_cell_volume   1051.52259143
_cell_formula_units_Z   4
loop_
 _symmetry_equiv_pos_site_id
 _symmetry_equiv_pos_as_xyz
  1  'x, y, z'
loop_
 _atom_site_type_symbol
 _atom_site_label
 _atom_site_symmetry_multiplicity
 _atom_site_fract_x
 _atom_site_fract_y
 _atom_site_fract_z
 _atom_site_occupancy
  Na  Na0  1  0.500000  0.500000  0.500000  1
  Na  Na1  1  0.142715  0.466921  0.262578  1
  Na  Na2  1  0.142715  0.033079  0.262578  1
  Na  Na3  1  0.001158  0.750000  0.446179  1
  Na  Na4  1  0.998842  0.250000  0.553821  1
  Na  Na5  1  0.642715  0.966921  0.237422  1
  Na  Na6  1  0.357285  0.033079  0.762578  1
  Na  Na7  1  0.857285  0.966921  0.737422  1
  Na  Na8  1  0.357285  0.466921  0.762578  1
  Na  Na9  1  0.000000  0.500000  0.000000  1
  Na  Na10  1  0.501158  0.250000  0.053821  1
  Na  Na11  1  0.642715  0.533079  0.237422  1
  Na  Na12  1  0.498842  0.750000  0.946179  1
  Na  Na13  1  0.000000  0.000000  0.000000  1
  Na  Na14  1  0.857285  0.533079  0.737422  1
  Na  Na15  1  0.500000  0.000000  0.500000  1
  Si  Si16  1  0.744948  0.250000  0.835791  1
  Si  Si17  1  0.755052  0.250000  0.335791  1
  Si  Si18  1  0.244948  0.750000  0.664209  1
  Si  Si19  1  0.255052  0.750000  0.164209  1
  Te  Te20  1  0.586735  0.750000  0.648602  1
  Te  Te21  1  0.413265  0.250000  0.351398  1
  Te  Te22  1  0.362234  0.750000  0.333265  1
  Te  Te23  1  0.137766  0.750000  0.833265  1
  Te  Te24  1  0.086735  0.250000  0.851398  1
  Te  Te25  1  0.913265  0.750000  0.148602  1
  Te  Te26  1  0.637766  0.250000  0.666735  1
  Te  Te27  1  0.862234  0.250000  0.166735  1
  Se  Se28  1  0.860341  0.442631  0.407157  1
  Se  Se29  1  0.639659  0.057369  0.907157  1
  Se  Se30  1  0.360341  0.942631  0.092843  1
  Se  Se31  1  0.360341  0.557369  0.092843  1
  Se  Se32  1  0.139659  0.557369  0.592843  1
  Se  Se33  1  0.860341  0.057369  0.407157  1
  Se  Se34  1  0.139659  0.942631  0.592843  1
  Se  Se35  1  0.639659  0.442631  0.907157  1
