# generated using pymatgen
data_Lu2Co12Si3P4
_symmetry_space_group_name_H-M   'P 1'
_cell_length_a   9.02729160
_cell_length_b   9.06472476
_cell_length_c   3.57093100
_cell_angle_alpha   90.00000000
_cell_angle_beta   90.00000000
_cell_angle_gamma   120.01510073
_symmetry_Int_Tables_number   1
_chemical_formula_structural   Lu2Co12Si3P4
_chemical_formula_sum   'Lu2 Co12 Si3 P4'
_cell_volume   253.02188021
_cell_formula_units_Z   1
loop_
 _symmetry_equiv_pos_site_id
 _symmetry_equiv_pos_as_xyz
  1  'x, y, z'
loop_
 _atom_site_type_symbol
 _atom_site_label
 _atom_site_symmetry_multiplicity
 _atom_site_fract_x
 _atom_site_fract_y
 _atom_site_fract_z
 _atom_site_occupancy
  Lu  Lu0  1  0.668794  0.334196  0.000000  1
  Lu  Lu1  1  0.001970  0.002823  0.500000  1
  Co  Co2  1  0.766204  0.719911  0.000000  1
  Co  Co3  1  0.278316  0.051272  0.000000  1
  Co  Co4  1  0.959534  0.231220  0.000000  1
  Co  Co5  1  0.715942  0.107491  0.500000  1
  Co  Co6  1  0.893301  0.607453  0.500000  1
  Co  Co7  1  0.387421  0.284239  0.500000  1
  Co  Co8  1  0.485688  0.949622  0.000000  1
  Co  Co9  1  0.053680  0.539033  0.000000  1
  Co  Co10  1  0.455995  0.508160  0.000000  1
  Co  Co11  1  0.566025  0.768500  0.500000  1
  Co  Co12  1  0.230252  0.800816  0.500000  1
  Co  Co13  1  0.201114  0.427446  0.500000  1
  Si  Si14  1  0.334822  0.668485  0.000000  1
  Si  Si15  1  0.734919  0.954296  0.000000  1
  Si  Si16  1  0.045291  0.780904  0.000000  1
  P  P17  1  0.445618  0.071531  0.500000  1
  P  P18  1  0.931044  0.374986  0.500000  1
  P  P19  1  0.624512  0.555110  0.500000  1
  P  P20  1  0.219561  0.262500  0.000000  1
