# generated using pymatgen
data_Ta7Nb(VTe4)2
_symmetry_space_group_name_H-M   'P 1'
_cell_length_a   4.92714600
_cell_length_b   11.03957660
_cell_length_c   19.36323449
_cell_angle_alpha   89.90703661
_cell_angle_beta   90.00000000
_cell_angle_gamma   90.00000000
_symmetry_Int_Tables_number   1
_chemical_formula_structural   Ta7Nb(VTe4)2
_chemical_formula_sum   'Ta14 Nb2 V4 Te16'
_cell_volume   1053.23475509
_cell_formula_units_Z   2
loop_
 _symmetry_equiv_pos_site_id
 _symmetry_equiv_pos_as_xyz
  1  'x, y, z'
loop_
 _atom_site_type_symbol
 _atom_site_label
 _atom_site_symmetry_multiplicity
 _atom_site_fract_x
 _atom_site_fract_y
 _atom_site_fract_z
 _atom_site_occupancy
  Ta  Ta0  1  0.500000  0.435580  0.616389  1
  Ta  Ta1  1  0.500000  0.064633  0.116889  1
  Ta  Ta2  1  0.500000  0.935255  0.883051  1
  Ta  Ta3  1  0.500000  0.705947  0.536704  1
  Ta  Ta4  1  0.500000  0.294707  0.463705  1
  Ta  Ta5  1  0.500000  0.205530  0.963110  1
  Ta  Ta6  1  0.500000  0.794356  0.036860  1
  Ta  Ta7  1  0.000000  0.309216  0.557079  1
  Ta  Ta8  1  0.000000  0.190571  0.056658  1
  Ta  Ta9  1  0.000000  0.809309  0.943286  1
  Ta  Ta10  1  0.000000  0.399667  0.390924  1
  Ta  Ta11  1  0.000000  0.599173  0.608900  1
  Ta  Ta12  1  0.000000  0.900623  0.108533  1
  Ta  Ta13  1  0.000000  0.099200  0.891412  1
  Nb  Nb14  1  0.500000  0.565510  0.382318  1
  Nb  Nb15  1  0.000000  0.693238  0.442414  1
  V  V16  1  0.244951  0.500427  0.499695  1
  V  V17  1  0.747400  0.999938  0.999979  1
  V  V18  1  0.755049  0.500427  0.499695  1
  V  V19  1  0.252600  0.999938  0.999979  1
  Te  Te20  1  0.000000  0.845216  0.562541  1
  Te  Te21  1  0.000000  0.154002  0.438465  1
  Te  Te22  1  0.000000  0.345531  0.937713  1
  Te  Te23  1  0.000000  0.654295  0.062205  1
  Te  Te24  1  0.500000  0.332222  0.317599  1
  Te  Te25  1  0.500000  0.667212  0.682778  1
  Te  Te26  1  0.500000  0.832609  0.183026  1
  Te  Te27  1  0.500000  0.167307  0.816954  1
  Te  Te28  1  0.500000  0.822197  0.404896  1
  Te  Te29  1  0.500000  0.178301  0.596070  1
  Te  Te30  1  0.500000  0.321658  0.095347  1
  Te  Te31  1  0.500000  0.678247  0.904608  1
  Te  Te32  1  0.000000  0.607054  0.303031  1
  Te  Te33  1  0.000000  0.391091  0.697260  1
  Te  Te34  1  0.000000  0.108240  0.196905  1
  Te  Te35  1  0.000000  0.891574  0.803021  1
