# generated using pymatgen
data_Cs3KAlGa3I16
_symmetry_space_group_name_H-M   'P 1'
_cell_length_a   8.40588071
_cell_length_b   9.17295826
_cell_length_c   16.99908420
_cell_angle_alpha   86.19510720
_cell_angle_beta   90.65545193
_cell_angle_gamma   90.23320581
_symmetry_Int_Tables_number   1
_chemical_formula_structural   Cs3KAlGa3I16
_chemical_formula_sum   'Cs3 K1 Al1 Ga3 I16'
_cell_volume   1307.76294887
_cell_formula_units_Z   1
loop_
 _symmetry_equiv_pos_site_id
 _symmetry_equiv_pos_as_xyz
  1  'x, y, z'
loop_
 _atom_site_type_symbol
 _atom_site_label
 _atom_site_symmetry_multiplicity
 _atom_site_fract_x
 _atom_site_fract_y
 _atom_site_fract_z
 _atom_site_occupancy
  Cs  Cs0  1  0.508112  0.256053  0.640121  1
  Cs  Cs1  1  0.009826  0.742966  0.862182  1
  Cs  Cs2  1  0.491607  0.744646  0.357324  1
  K  K3  1  0.998361  0.254613  0.136963  1
  Al  Al4  1  0.349189  0.248866  0.358432  1
  Ga  Ga5  1  0.862532  0.752465  0.139644  1
  Ga  Ga6  1  0.644745  0.750697  0.639497  1
  Ga  Ga7  1  0.141945  0.247704  0.863089  1
  I  I8  1  0.867835  0.150181  0.910450  1
  I  I9  1  0.370824  0.846722  0.588731  1
  I  I10  1  0.133129  0.857866  0.091086  1
  I  I11  1  0.621770  0.154904  0.408055  1
  I  I12  1  0.385295  0.395293  0.225397  1
  I  I13  1  0.901962  0.594818  0.270812  1
  I  I14  1  0.600194  0.602294  0.773044  1
  I  I15  1  0.100926  0.399530  0.730135  1
  I  I16  1  0.671568  0.968974  0.159097  1
  I  I17  1  0.150624  0.041160  0.337392  1
  I  I18  1  0.343766  0.040615  0.842370  1
  I  I19  1  0.845166  0.961194  0.659538  1
  I  I20  1  0.233698  0.414362  0.459665  1
  I  I21  1  0.742287  0.580180  0.039326  1
  I  I22  1  0.765660  0.584111  0.538206  1
  I  I23  1  0.258980  0.409783  0.969444  1
