# generated using pymatgen
data_Y20Ir8Os3Pt
_symmetry_space_group_name_H-M   'P 1'
_cell_length_a   10.92003470
_cell_length_b   10.92097858
_cell_length_c   6.45331795
_cell_angle_alpha   90.04254864
_cell_angle_beta   90.04559494
_cell_angle_gamma   89.95528505
_symmetry_Int_Tables_number   1
_chemical_formula_structural   Y20Ir8Os3Pt
_chemical_formula_sum   'Y20 Ir8 Os3 Pt1'
_cell_volume   769.60565053
_cell_formula_units_Z   1
loop_
 _symmetry_equiv_pos_site_id
 _symmetry_equiv_pos_as_xyz
  1  'x, y, z'
loop_
 _atom_site_type_symbol
 _atom_site_label
 _atom_site_symmetry_multiplicity
 _atom_site_fract_x
 _atom_site_fract_y
 _atom_site_fract_z
 _atom_site_occupancy
  Y  Y0  1  0.293390  0.086054  0.378175  1
  Y  Y1  1  0.294468  0.913832  0.878164  1
  Y  Y2  1  0.704053  0.084955  0.873910  1
  Y  Y3  1  0.704857  0.910904  0.379370  1
  Y  Y4  1  0.585872  0.793723  0.878898  1
  Y  Y5  1  0.583272  0.206278  0.378012  1
  Y  Y6  1  0.412997  0.793617  0.378564  1
  Y  Y7  1  0.413760  0.206087  0.879152  1
  Y  Y8  1  0.208270  0.413087  0.623145  1
  Y  Y9  1  0.207529  0.587907  0.119486  1
  Y  Y10  1  0.792393  0.416136  0.119556  1
  Y  Y11  1  0.791985  0.587337  0.622936  1
  Y  Y12  1  0.913056  0.707792  0.119701  1
  Y  Y13  1  0.913986  0.294016  0.628775  1
  Y  Y14  1  0.087285  0.707473  0.624169  1
  Y  Y15  1  0.090309  0.293980  0.118062  1
  Y  Y16  1  0.001165  0.998307  0.500231  1
  Y  Y17  1  0.001591  0.998733  0.998291  1
  Y  Y18  1  0.499820  0.500109  0.998876  1
  Y  Y19  1  0.499933  0.500150  0.499272  1
  Ir  Ir20  1  0.848517  0.848113  0.749926  1
  Ir  Ir21  1  0.150742  0.152535  0.749342  1
  Ir  Ir22  1  0.151519  0.846792  0.250161  1
  Ir  Ir23  1  0.653729  0.347325  0.749747  1
  Ir  Ir24  1  0.653236  0.651304  0.250008  1
  Ir  Ir25  1  0.346915  0.348588  0.249965  1
  Ir  Ir26  1  0.347093  0.651972  0.749640  1
  Ir  Ir27  1  0.000139  0.499627  0.376090  1
  Os  Os28  1  0.500143  0.999844  0.127230  1
  Os  Os29  1  0.499968  0.999766  0.625621  1
  Os  Os30  1  0.000220  0.499955  0.875207  1
  Pt  Pt31  1  0.847789  0.153702  0.250321  1
