# generated using pymatgen
data_Lu6Al24Ru3Rh5
_symmetry_space_group_name_H-M   'P 1'
_cell_length_a   8.74029900
_cell_length_b   8.76735028
_cell_length_c   9.48833704
_cell_angle_alpha   90.17346562
_cell_angle_beta   90.00000000
_cell_angle_gamma   119.89799006
_symmetry_Int_Tables_number   1
_chemical_formula_structural   Lu6Al24Ru3Rh5
_chemical_formula_sum   'Lu6 Al24 Ru3 Rh5'
_cell_volume   630.31586293
_cell_formula_units_Z   1
loop_
 _symmetry_equiv_pos_site_id
 _symmetry_equiv_pos_as_xyz
  1  'x, y, z'
loop_
 _atom_site_type_symbol
 _atom_site_label
 _atom_site_symmetry_multiplicity
 _atom_site_fract_x
 _atom_site_fract_y
 _atom_site_fract_z
 _atom_site_occupancy
  Lu  Lu0  1  0.803358  0.191352  0.749564  1
  Lu  Lu1  1  0.196642  0.808648  0.250436  1
  Lu  Lu2  1  0.387994  0.191352  0.749564  1
  Lu  Lu3  1  0.612006  0.808648  0.250436  1
  Lu  Lu4  1  0.806592  0.613183  0.749811  1
  Lu  Lu5  1  0.193408  0.386817  0.250189  1
  Al  Al6  1  0.666537  0.333072  0.970080  1
  Al  Al7  1  0.333463  0.666928  0.029920  1
  Al  Al8  1  0.334083  0.668168  0.471213  1
  Al  Al9  1  0.665917  0.331832  0.528787  1
  Al  Al10  1  0.835509  0.162040  0.421204  1
  Al  Al11  1  0.164491  0.837960  0.578796  1
  Al  Al12  1  0.326530  0.162040  0.421204  1
  Al  Al13  1  0.162536  0.835472  0.921437  1
  Al  Al14  1  0.673470  0.837960  0.578796  1
  Al  Al15  1  0.837464  0.164528  0.078563  1
  Al  Al16  1  0.837165  0.674331  0.421305  1
  Al  Al17  1  0.672936  0.835472  0.921437  1
  Al  Al18  1  0.162835  0.325669  0.578695  1
  Al  Al19  1  0.327064  0.164528  0.078563  1
  Al  Al20  1  0.162744  0.325486  0.920886  1
  Al  Al21  1  0.837256  0.674514  0.079114  1
  Al  Al22  1  0.438013  0.560735  0.750878  1
  Al  Al23  1  0.561987  0.439265  0.249122  1
  Al  Al24  1  0.122720  0.560735  0.750878  1
  Al  Al25  1  0.877280  0.439265  0.249122  1
  Al  Al26  1  0.437610  0.875220  0.749857  1
  Al  Al27  1  0.562390  0.124780  0.250143  1
  Al  Al28  1  0.999388  0.998776  0.750022  1
  Al  Al29  1  0.000612  0.001224  0.249978  1
  Ru  Ru30  1  0.500000  0.000000  0.500000  1
  Ru  Ru31  1  0.000000  0.000000  0.000000  1
  Ru  Ru32  1  0.000000  0.000000  0.500000  1
  Rh  Rh33  1  0.500000  0.500000  0.000000  1
  Rh  Rh34  1  0.000000  0.500000  0.000000  1
  Rh  Rh35  1  0.500000  0.500000  0.500000  1
  Rh  Rh36  1  0.500000  0.000000  0.000000  1
  Rh  Rh37  1  0.000000  0.500000  0.500000  1
