# generated using pymatgen
data_NaLiFe7Ni5P7
_symmetry_space_group_name_H-M   'P 1'
_cell_length_a   8.98321821
_cell_length_b   8.95602542
_cell_length_c   3.56117100
_cell_angle_alpha   90.00000000
_cell_angle_beta   90.00000000
_cell_angle_gamma   119.69911242
_symmetry_Int_Tables_number   1
_chemical_formula_structural   NaLiFe7Ni5P7
_chemical_formula_sum   'Na1 Li1 Fe7 Ni5 P7'
_cell_volume   248.87399193
_cell_formula_units_Z   1
loop_
 _symmetry_equiv_pos_site_id
 _symmetry_equiv_pos_as_xyz
  1  'x, y, z'
loop_
 _atom_site_type_symbol
 _atom_site_label
 _atom_site_symmetry_multiplicity
 _atom_site_fract_x
 _atom_site_fract_y
 _atom_site_fract_z
 _atom_site_occupancy
  Na  Na0  1  0.999413  0.999389  0.000000  1
  Li  Li1  1  0.331818  0.667558  0.500000  1
  Fe  Fe2  1  0.823950  0.212631  0.000000  1
  Fe  Fe3  1  0.783363  0.607344  0.000000  1
  Fe  Fe4  1  0.397074  0.181923  0.000000  1
  Fe  Fe5  1  0.233659  0.943185  0.500000  1
  Fe  Fe6  1  0.898312  0.462817  0.500000  1
  Fe  Fe7  1  0.537659  0.433367  0.500000  1
  Fe  Fe8  1  0.574919  0.118755  0.500000  1
  Ni  Ni9  1  0.101080  0.705321  0.000000  1
  Ni  Ni10  1  0.288907  0.395783  0.000000  1
  Ni  Ni11  1  0.600317  0.894144  0.000000  1
  Ni  Ni12  1  0.055746  0.282182  0.500000  1
  Ni  Ni13  1  0.713631  0.770460  0.500000  1
  P  P14  1  0.072572  0.449094  0.000000  1
  P  P15  1  0.546072  0.622900  0.000000  1
  P  P16  1  0.371518  0.925178  0.000000  1
  P  P17  1  0.780346  0.047645  0.500000  1
  P  P18  1  0.955146  0.737625  0.500000  1
  P  P19  1  0.263239  0.208018  0.500000  1
  P  P20  1  0.671259  0.334679  0.000000  1
