# generated using pymatgen
data_YZn3HgRh
_symmetry_space_group_name_H-M   'P 1'
_cell_length_a   5.22760685
_cell_length_b   5.33374478
_cell_length_c   5.22760700
_cell_angle_alpha   60.65610283
_cell_angle_beta   59.99999272
_cell_angle_gamma   60.65609452
_symmetry_Int_Tables_number   1
_chemical_formula_structural   YZn3HgRh
_chemical_formula_sum   'Y1 Zn3 Hg1 Rh1'
_cell_volume   104.07813008
_cell_formula_units_Z   1
loop_
 _symmetry_equiv_pos_site_id
 _symmetry_equiv_pos_as_xyz
  1  'x, y, z'
loop_
 _atom_site_type_symbol
 _atom_site_label
 _atom_site_symmetry_multiplicity
 _atom_site_fract_x
 _atom_site_fract_y
 _atom_site_fract_z
 _atom_site_occupancy
  Y  Y0  1  0.746882  0.759354  0.746882  1
  Zn  Zn1  1  0.374450  0.372481  0.878619  1
  Zn  Zn2  1  0.878619  0.372481  0.374450  1
  Zn  Zn3  1  0.374450  0.372481  0.374450  1
  Hg  Hg4  1  0.998604  0.004187  0.998604  1
  Rh  Rh5  1  0.376996  0.869013  0.376996  1
