# generated using pymatgen
data_CePr5(NdSe6)2
_symmetry_space_group_name_H-M   'P 1'
_cell_length_a   11.56879971
_cell_length_b   4.18297800
_cell_length_c   11.29030700
_cell_angle_alpha   90.00000000
_cell_angle_beta   89.94827491
_cell_angle_gamma   90.00000000
_symmetry_Int_Tables_number   1
_chemical_formula_structural   CePr5(NdSe6)2
_chemical_formula_sum   'Ce1 Pr5 Nd2 Se12'
_cell_volume   546.36070538
_cell_formula_units_Z   1
loop_
 _symmetry_equiv_pos_site_id
 _symmetry_equiv_pos_as_xyz
  1  'x, y, z'
loop_
 _atom_site_type_symbol
 _atom_site_label
 _atom_site_symmetry_multiplicity
 _atom_site_fract_x
 _atom_site_fract_y
 _atom_site_fract_z
 _atom_site_occupancy
  Ce  Ce0  1  0.192587  0.750000  0.000927  1
  Pr  Pr1  1  0.512636  0.750000  0.813982  1
  Pr  Pr2  1  0.010816  0.750000  0.686207  1
  Pr  Pr3  1  0.693020  0.750000  0.494736  1
  Pr  Pr4  1  0.306884  0.250000  0.506254  1
  Pr  Pr5  1  0.806804  0.250000  0.999267  1
  Nd  Nd6  1  0.487482  0.250000  0.186843  1
  Nd  Nd7  1  0.988987  0.250000  0.313307  1
  Se  Se8  1  0.546054  0.250000  0.625289  1
  Se  Se9  1  0.046989  0.250000  0.875278  1
  Se  Se10  1  0.453228  0.750000  0.373221  1
  Se  Se11  1  0.956902  0.750000  0.126600  1
  Se  Se12  1  0.619585  0.750000  0.057122  1
  Se  Se13  1  0.121656  0.750000  0.443493  1
  Se  Se14  1  0.378494  0.250000  0.945196  1
  Se  Se15  1  0.878772  0.250000  0.554227  1
  Se  Se16  1  0.729082  0.250000  0.297872  1
  Se  Se17  1  0.226340  0.250000  0.194866  1
  Se  Se18  1  0.270843  0.750000  0.702913  1
  Se  Se19  1  0.772841  0.750000  0.802401  1
