# generated using pymatgen
data_Zr6CBr12
_symmetry_space_group_name_H-M   'P 1'
_cell_length_a   8.66063713
_cell_length_b   8.66063687
_cell_length_c   8.66063746
_cell_angle_alpha   106.78009375
_cell_angle_beta   106.78009301
_cell_angle_gamma   106.78009319
_symmetry_Int_Tables_number   1
_chemical_formula_structural   Zr6CBr12
_chemical_formula_sum   'Zr6 C1 Br12'
_cell_volume   544.21020137
_cell_formula_units_Z   1
loop_
 _symmetry_equiv_pos_site_id
 _symmetry_equiv_pos_as_xyz
  1  'x, y, z'
loop_
 _atom_site_type_symbol
 _atom_site_label
 _atom_site_symmetry_multiplicity
 _atom_site_fract_x
 _atom_site_fract_y
 _atom_site_fract_z
 _atom_site_occupancy
  Zr  Zr0  1  0.973771  0.718925  0.907772  1
  Zr  Zr1  1  0.281075  0.092228  0.026229  1
  Zr  Zr2  1  0.092228  0.026229  0.281075  1
  Zr  Zr3  1  0.907772  0.973771  0.718925  1
  Zr  Zr4  1  0.718925  0.907772  0.973771  1
  Zr  Zr5  1  0.026229  0.281075  0.092228  1
  C  C6  1  0.000000  0.000000  0.000000  1
  Br  Br7  1  0.922573  0.313410  0.777566  1
  Br  Br8  1  0.686590  0.222434  0.077427  1
  Br  Br9  1  0.440612  0.141589  0.364914  1
  Br  Br10  1  0.858411  0.635086  0.559388  1
  Br  Br11  1  0.222434  0.077427  0.686590  1
  Br  Br12  1  0.635086  0.559388  0.858411  1
  Br  Br13  1  0.364914  0.440612  0.141589  1
  Br  Br14  1  0.777566  0.922573  0.313410  1
  Br  Br15  1  0.141589  0.364914  0.440612  1
  Br  Br16  1  0.559388  0.858411  0.635086  1
  Br  Br17  1  0.313410  0.777566  0.922573  1
  Br  Br18  1  0.077427  0.686590  0.222434  1
