# generated using pymatgen
data_Lu4Tc2MoRu5
_symmetry_space_group_name_H-M   'P 1'
_cell_length_a   5.43732895
_cell_length_b   5.22133643
_cell_length_c   8.96357400
_cell_angle_alpha   90.00000000
_cell_angle_beta   90.00000000
_cell_angle_gamma   122.92155457
_symmetry_Int_Tables_number   1
_chemical_formula_structural   Lu4Tc2MoRu5
_chemical_formula_sum   'Lu4 Tc2 Mo1 Ru5'
_cell_volume   213.61190796
_cell_formula_units_Z   1
loop_
 _symmetry_equiv_pos_site_id
 _symmetry_equiv_pos_as_xyz
  1  'x, y, z'
loop_
 _atom_site_type_symbol
 _atom_site_label
 _atom_site_symmetry_multiplicity
 _atom_site_fract_x
 _atom_site_fract_y
 _atom_site_fract_z
 _atom_site_occupancy
  Lu  Lu0  1  0.335161  0.663313  0.433739  1
  Lu  Lu1  1  0.669791  0.343251  0.564789  1
  Lu  Lu2  1  0.669791  0.343251  0.935211  1
  Lu  Lu3  1  0.335161  0.663313  0.066261  1
  Tc  Tc4  1  0.338416  0.170662  0.250000  1
  Tc  Tc5  1  0.821251  0.656907  0.250000  1
  Mo  Mo6  1  0.159867  0.328593  0.750000  1
  Ru  Ru7  1  0.168953  0.822250  0.750000  1
  Ru  Ru8  1  0.648381  0.819980  0.750000  1
  Ru  Ru9  1  0.014009  0.008017  0.000032  1
  Ru  Ru10  1  0.825210  0.172445  0.250000  1
  Ru  Ru11  1  0.014009  0.008017  0.499968  1
