# generated using pymatgen
data_Nb8Fe2Co5Si14Tc
_symmetry_space_group_name_H-M   'P 1'
_cell_length_a   9.30193102
_cell_length_b   9.29787222
_cell_length_c   9.32284386
_cell_angle_alpha   94.20211016
_cell_angle_beta   94.22490271
_cell_angle_gamma   148.50563559
_symmetry_Int_Tables_number   1
_chemical_formula_structural   Nb8Fe2Co5Si14Tc
_chemical_formula_sum   'Nb8 Fe2 Co5 Si14 Tc1'
_cell_volume   405.50082484
_cell_formula_units_Z   1
loop_
 _symmetry_equiv_pos_site_id
 _symmetry_equiv_pos_as_xyz
  1  'x, y, z'
loop_
 _atom_site_type_symbol
 _atom_site_label
 _atom_site_symmetry_multiplicity
 _atom_site_fract_x
 _atom_site_fract_y
 _atom_site_fract_z
 _atom_site_occupancy
  Nb  Nb0  1  0.134143  0.134142  0.268286  1
  Nb  Nb1  1  0.866026  0.866025  0.732049  1
  Nb  Nb2  1  0.864479  0.132753  0.001807  1
  Nb  Nb3  1  0.137330  0.869055  0.001808  1
  Nb  Nb4  1  0.503333  0.692861  0.193617  1
  Nb  Nb5  1  0.497139  0.308189  0.808916  1
  Nb  Nb6  1  0.311777  0.500725  0.808914  1
  Nb  Nb7  1  0.690283  0.500755  0.193616  1
  Fe  Fe8  1  0.899788  0.399793  0.799589  1
  Fe  Fe9  1  0.598527  0.098530  0.197058  1
  Co  Co10  1  0.103873  0.603874  0.207744  1
  Co  Co11  1  0.099876  0.896284  0.499358  1
  Co  Co12  1  0.399484  0.603077  0.499360  1
  Co  Co13  1  0.595638  0.397256  0.497683  1
  Co  Co14  1  0.902049  0.100427  0.497683  1
  Si  Si15  1  0.291371  0.291369  0.582733  1
  Si  Si16  1  0.708779  0.708778  0.417562  1
  Si  Si17  1  0.723021  0.310474  0.006906  1
  Si  Si18  1  0.283887  0.696431  0.006906  1
  Si  Si19  1  0.997194  0.294690  0.296333  1
  Si  Si20  1  0.983835  0.696110  0.702510  1
  Si  Si21  1  0.718680  0.006405  0.702513  1
  Si  Si22  1  0.299140  0.001644  0.296335  1
  Si  Si23  1  0.511240  0.917086  0.403027  1
  Si  Si24  1  0.512378  0.107199  0.587811  1
  Si  Si25  1  0.075421  0.480603  0.587809  1
  Si  Si26  1  0.891788  0.485943  0.403025  1
  Si  Si27  1  0.751163  0.751311  0.000816  1
  Si  Si28  1  0.249654  0.249505  0.000815  1
  Tc  Tc29  1  0.398703  0.898702  0.797408  1
