# generated using pymatgen
data_Ba2Ir7O18
_symmetry_space_group_name_H-M   'P 1'
_cell_length_a   6.86651888
_cell_length_b   7.17322548
_cell_length_c   7.70041027
_cell_angle_alpha   92.67501901
_cell_angle_beta   95.78484889
_cell_angle_gamma   114.95035371
_symmetry_Int_Tables_number   1
_chemical_formula_structural   Ba2Ir7O18
_chemical_formula_sum   'Ba2 Ir7 O18'
_cell_volume   340.45943788
_cell_formula_units_Z   1
loop_
 _symmetry_equiv_pos_site_id
 _symmetry_equiv_pos_as_xyz
  1  'x, y, z'
loop_
 _atom_site_type_symbol
 _atom_site_label
 _atom_site_symmetry_multiplicity
 _atom_site_fract_x
 _atom_site_fract_y
 _atom_site_fract_z
 _atom_site_occupancy
  Ba  Ba0  1  0.314881  0.687035  0.621350  1
  Ba  Ba1  1  0.685119  0.312965  0.378650  1
  Ir  Ir2  1  0.395778  0.280947  0.883530  1
  Ir  Ir3  1  0.807268  0.127440  0.815953  1
  Ir  Ir4  1  0.192732  0.872560  0.184047  1
  Ir  Ir5  1  0.604222  0.719053  0.116470  1
  Ir  Ir6  1  0.000000  0.000000  0.500000  1
  Ir  Ir7  1  0.825809  0.623320  0.802182  1
  Ir  Ir8  1  0.174191  0.376680  0.197818  1
  O  O9  1  0.923280  0.724922  0.578909  1
  O  O10  1  0.279072  0.165891  0.111102  1
  O  O11  1  0.317756  0.506778  0.984992  1
  O  O12  1  0.472525  0.554520  0.309464  1
  O  O13  1  0.493889  0.920672  0.168781  1
  O  O14  1  0.905344  0.401140  0.724252  1
  O  O15  1  0.720928  0.834109  0.888898  1
  O  O16  1  0.902096  0.233301  0.056941  1
  O  O17  1  0.682244  0.493222  0.015008  1
  O  O18  1  0.076720  0.275078  0.421091  1
  O  O19  1  0.097838  0.129033  0.749721  1
  O  O20  1  0.727242  0.000032  0.571769  1
  O  O21  1  0.094656  0.598860  0.275748  1
  O  O22  1  0.902162  0.870967  0.250279  1
  O  O23  1  0.097904  0.766699  0.943059  1
  O  O24  1  0.506111  0.079328  0.831219  1
  O  O25  1  0.272758  0.999968  0.428231  1
  O  O26  1  0.527475  0.445480  0.690536  1
