# generated using pymatgen
data_Er8Ti11Si16Os
_symmetry_space_group_name_H-M   'P 1'
_cell_length_a   6.99671049
_cell_length_b   6.99671049
_cell_length_c   12.83927880
_cell_angle_alpha   90.02860439
_cell_angle_beta   89.97139561
_cell_angle_gamma   89.93100340
_symmetry_Int_Tables_number   1
_chemical_formula_structural   Er8Ti11Si16Os
_chemical_formula_sum   'Er8 Ti11 Si16 Os1'
_cell_volume   628.53289785
_cell_formula_units_Z   1
loop_
 _symmetry_equiv_pos_site_id
 _symmetry_equiv_pos_as_xyz
  1  'x, y, z'
loop_
 _atom_site_type_symbol
 _atom_site_label
 _atom_site_symmetry_multiplicity
 _atom_site_fract_x
 _atom_site_fract_y
 _atom_site_fract_z
 _atom_site_occupancy
  Er  Er0  1  0.340946  0.003721  0.467289  1
  Er  Er1  1  0.497042  0.840939  0.718223  1
  Er  Er2  1  0.499959  0.159126  0.214992  1
  Er  Er3  1  0.840939  0.497042  0.281777  1
  Er  Er4  1  0.159126  0.499959  0.785008  1
  Er  Er5  1  0.658149  0.998742  0.968798  1
  Er  Er6  1  0.003721  0.340946  0.532711  1
  Er  Er7  1  0.998742  0.658149  0.031202  1
  Ti  Ti8  1  0.174275  0.827642  0.248366  1
  Ti  Ti9  1  0.827642  0.174275  0.751634  1
  Ti  Ti10  1  0.674011  0.674011  0.500000  1
  Ti  Ti11  1  0.151006  0.003109  0.875365  1
  Ti  Ti12  1  0.492535  0.655412  0.124362  1
  Ti  Ti13  1  0.506484  0.349051  0.627927  1
  Ti  Ti14  1  0.655412  0.492535  0.875638  1
  Ti  Ti15  1  0.349051  0.506484  0.372073  1
  Ti  Ti16  1  0.848631  0.994409  0.375252  1
  Ti  Ti17  1  0.003109  0.151006  0.124635  1
  Ti  Ti18  1  0.994409  0.848631  0.624748  1
  Si  Si19  1  0.203088  0.132340  0.684425  1
  Si  Si20  1  0.371755  0.699825  0.932930  1
  Si  Si21  1  0.631768  0.296794  0.433999  1
  Si  Si22  1  0.699825  0.371755  0.067070  1
  Si  Si23  1  0.296794  0.631768  0.566001  1
  Si  Si24  1  0.796220  0.867735  0.183365  1
  Si  Si25  1  0.132340  0.203088  0.315575  1
  Si  Si26  1  0.867735  0.796220  0.816635  1
  Si  Si27  1  0.287930  0.955302  0.064521  1
  Si  Si28  1  0.546933  0.792792  0.315425  1
  Si  Si29  1  0.450761  0.208404  0.818280  1
  Si  Si30  1  0.792792  0.546933  0.684575  1
  Si  Si31  1  0.208404  0.450761  0.181720  1
  Si  Si32  1  0.707918  0.048020  0.565718  1
  Si  Si33  1  0.955302  0.287930  0.935479  1
  Si  Si34  1  0.048020  0.707918  0.434282  1
  Os  Os35  1  0.327229  0.327229  0.000000  1
