# generated using pymatgen
data_YbErRe2Si2C
_symmetry_space_group_name_H-M   'P 1'
_cell_length_a   3.95051633
_cell_length_b   5.80275020
_cell_length_c   6.02400749
_cell_angle_alpha   72.65897998
_cell_angle_beta   70.85878679
_cell_angle_gamma   70.09872786
_symmetry_Int_Tables_number   1
_chemical_formula_structural   YbErRe2Si2C
_chemical_formula_sum   'Yb1 Er1 Re2 Si2 C1'
_cell_volume   119.93549118
_cell_formula_units_Z   1
loop_
 _symmetry_equiv_pos_site_id
 _symmetry_equiv_pos_as_xyz
  1  'x, y, z'
loop_
 _atom_site_type_symbol
 _atom_site_label
 _atom_site_symmetry_multiplicity
 _atom_site_fract_x
 _atom_site_fract_y
 _atom_site_fract_z
 _atom_site_occupancy
  Yb  Yb0  1  0.426492  0.847851  0.299165  1
  Er  Er1  1  0.573871  0.149051  0.703207  1
  Re  Re2  1  0.793773  0.325320  0.087134  1
  Re  Re3  1  0.206800  0.673787  0.912614  1
  Si  Si4  1  0.859964  0.599862  0.680210  1
  Si  Si5  1  0.137990  0.401483  0.322538  1
  C  C6  1  0.001110  0.002646  0.995133  1
