# generated using pymatgen
data_Pu3U(VN2)4
_symmetry_space_group_name_H-M   'P 1'
_cell_length_a   3.20160500
_cell_length_b   5.47538718
_cell_length_c   10.53359936
_cell_angle_alpha   89.97012655
_cell_angle_beta   90.00000000
_cell_angle_gamma   90.00000000
_symmetry_Int_Tables_number   1
_chemical_formula_structural   Pu3U(VN2)4
_chemical_formula_sum   'Pu3 U1 V4 N8'
_cell_volume   184.65425597
_cell_formula_units_Z   1
loop_
 _symmetry_equiv_pos_site_id
 _symmetry_equiv_pos_as_xyz
  1  'x, y, z'
loop_
 _atom_site_type_symbol
 _atom_site_label
 _atom_site_symmetry_multiplicity
 _atom_site_fract_x
 _atom_site_fract_y
 _atom_site_fract_z
 _atom_site_occupancy
  Pu  Pu0  1  0.750000  0.079409  0.857052  1
  Pu  Pu1  1  0.750000  0.579511  0.644023  1
  Pu  Pu2  1  0.250000  0.921566  0.141664  1
  U  U3  1  0.250000  0.421477  0.358652  1
  V  V4  1  0.250000  0.076330  0.597222  1
  V  V5  1  0.750000  0.423296  0.097924  1
  V  V6  1  0.250000  0.577702  0.901627  1
  V  V7  1  0.750000  0.921362  0.400785  1
  N  N8  1  0.250000  0.335851  0.745963  1
  N  N9  1  0.750000  0.167477  0.248904  1
  N  N10  1  0.250000  0.266148  0.008780  1
  N  N11  1  0.750000  0.660026  0.256713  1
  N  N12  1  0.250000  0.837483  0.752839  1
  N  N13  1  0.750000  0.733712  0.990494  1
  N  N14  1  0.750000  0.236037  0.508221  1
  N  N15  1  0.250000  0.762613  0.489137  1
