# generated using pymatgen
data_Pu4MoW3C8
_symmetry_space_group_name_H-M   'P 1'
_cell_length_a   3.27677200
_cell_length_b   5.70666524
_cell_length_c   10.94939630
_cell_angle_alpha   90.02393155
_cell_angle_beta   90.00000000
_cell_angle_gamma   90.00000000
_symmetry_Int_Tables_number   1
_chemical_formula_structural   Pu4MoW3C8
_chemical_formula_sum   'Pu4 Mo1 W3 C8'
_cell_volume   204.74757098
_cell_formula_units_Z   1
loop_
 _symmetry_equiv_pos_site_id
 _symmetry_equiv_pos_as_xyz
  1  'x, y, z'
loop_
 _atom_site_type_symbol
 _atom_site_label
 _atom_site_symmetry_multiplicity
 _atom_site_fract_x
 _atom_site_fract_y
 _atom_site_fract_z
 _atom_site_occupancy
  Pu  Pu0  1  0.250000  0.083653  0.860296  1
  Pu  Pu1  1  0.250000  0.583858  0.639825  1
  Pu  Pu2  1  0.750000  0.916974  0.139498  1
  Pu  Pu3  1  0.750000  0.416420  0.359770  1
  Mo  Mo4  1  0.250000  0.414176  0.106374  1
  W  W5  1  0.250000  0.914737  0.393635  1
  W  W6  1  0.750000  0.585020  0.894234  1
  W  W7  1  0.750000  0.085830  0.606898  1
  C  C8  1  0.250000  0.162839  0.246196  1
  C  C9  1  0.250000  0.665137  0.254558  1
  C  C10  1  0.750000  0.835282  0.754251  1
  C  C11  1  0.750000  0.336036  0.745922  1
  C  C12  1  0.250000  0.736251  0.988049  1
  C  C13  1  0.250000  0.235857  0.511265  1
  C  C14  1  0.750000  0.263436  0.010022  1
  C  C15  1  0.750000  0.764493  0.489208  1
