# generated using pymatgen
data_Ho4Sc4IrPt3
_symmetry_space_group_name_H-M   'P 1'
_cell_length_a   4.55996601
_cell_length_b   6.97132225
_cell_length_c   8.43499898
_cell_angle_alpha   89.68502778
_cell_angle_beta   90.00709084
_cell_angle_gamma   89.99912556
_symmetry_Int_Tables_number   1
_chemical_formula_structural   Ho4Sc4IrPt3
_chemical_formula_sum   'Ho4 Sc4 Ir1 Pt3'
_cell_volume   268.13606564
_cell_formula_units_Z   1
loop_
 _symmetry_equiv_pos_site_id
 _symmetry_equiv_pos_as_xyz
  1  'x, y, z'
loop_
 _atom_site_type_symbol
 _atom_site_label
 _atom_site_symmetry_multiplicity
 _atom_site_fract_x
 _atom_site_fract_y
 _atom_site_fract_z
 _atom_site_occupancy
  Ho  Ho0  1  0.249960  0.017790  0.672965  1
  Ho  Ho1  1  0.249951  0.516339  0.823303  1
  Ho  Ho2  1  0.749961  0.988809  0.326743  1
  Ho  Ho3  1  0.750004  0.480073  0.177932  1
  Sc  Sc4  1  0.249962  0.140234  0.074507  1
  Sc  Sc5  1  0.249960  0.640336  0.425052  1
  Sc  Sc6  1  0.749998  0.858541  0.927536  1
  Sc  Sc7  1  0.749942  0.357796  0.569957  1
  Ir  Ir8  1  0.249717  0.256114  0.402229  1
  Pt  Pt9  1  0.250239  0.753523  0.097781  1
  Pt  Pt10  1  0.750304  0.744966  0.600339  1
  Pt  Pt11  1  0.750002  0.245481  0.901657  1
