# generated using pymatgen
data_Sc12Mn2PtPb2
_symmetry_space_group_name_H-M   'P 1'
_cell_length_a   7.85268438
_cell_length_b   7.85268358
_cell_length_c   7.85268400
_cell_angle_alpha   108.79832336
_cell_angle_beta   108.79832137
_cell_angle_gamma   110.82557203
_symmetry_Int_Tables_number   1
_chemical_formula_structural   Sc12Mn2PtPb2
_chemical_formula_sum   'Sc12 Mn2 Pt1 Pb2'
_cell_volume   372.60605900
_cell_formula_units_Z   1
loop_
 _symmetry_equiv_pos_site_id
 _symmetry_equiv_pos_as_xyz
  1  'x, y, z'
loop_
 _atom_site_type_symbol
 _atom_site_label
 _atom_site_symmetry_multiplicity
 _atom_site_fract_x
 _atom_site_fract_y
 _atom_site_fract_z
 _atom_site_occupancy
  Sc  Sc0  1  0.305516  0.305516  0.611030  1
  Sc  Sc1  1  0.694484  0.694484  0.388970  1
  Sc  Sc2  1  0.305516  0.694484  0.000000  1
  Sc  Sc3  1  0.694484  0.305516  0.000000  1
  Sc  Sc4  1  0.439425  0.202372  0.237054  1
  Sc  Sc5  1  0.560575  0.797628  0.762946  1
  Sc  Sc6  1  0.965316  0.202372  0.762946  1
  Sc  Sc7  1  0.202372  0.965316  0.762946  1
  Sc  Sc8  1  0.034684  0.797628  0.237054  1
  Sc  Sc9  1  0.797628  0.034684  0.237054  1
  Sc  Sc10  1  0.202372  0.439425  0.237054  1
  Sc  Sc11  1  0.797628  0.560575  0.762946  1
  Mn  Mn12  1  0.384232  0.384232  0.000000  1
  Mn  Mn13  1  0.615768  0.615768  0.000000  1
  Pt  Pt14  1  0.000000  0.000000  0.000000  1
  Pb  Pb15  1  0.500000  0.000000  0.500000  1
  Pb  Pb16  1  0.000000  0.500000  0.500000  1
