# generated using pymatgen
data_BaPrTi4N7
_symmetry_space_group_name_H-M   'P 1'
_cell_length_a   6.56219300
_cell_length_b   6.56219375
_cell_length_c   10.68568400
_cell_angle_alpha   90.00000000
_cell_angle_beta   90.00000000
_cell_angle_gamma   119.99999117
_symmetry_Int_Tables_number   1
_chemical_formula_structural   BaPrTi4N7
_chemical_formula_sum   'Ba2 Pr2 Ti8 N14'
_cell_volume   398.50249567
_cell_formula_units_Z   2
loop_
 _symmetry_equiv_pos_site_id
 _symmetry_equiv_pos_as_xyz
  1  'x, y, z'
loop_
 _atom_site_type_symbol
 _atom_site_label
 _atom_site_symmetry_multiplicity
 _atom_site_fract_x
 _atom_site_fract_y
 _atom_site_fract_z
 _atom_site_occupancy
  Ba  Ba0  1  0.333333  0.666667  0.374183  1
  Ba  Ba1  1  0.666667  0.333333  0.874183  1
  Pr  Pr2  1  0.333333  0.666667  0.735820  1
  Pr  Pr3  1  0.666667  0.333333  0.235820  1
  Ti  Ti4  1  0.831356  0.662711  0.549543  1
  Ti  Ti5  1  0.168644  0.831356  0.049543  1
  Ti  Ti6  1  0.662711  0.831356  0.049543  1
  Ti  Ti7  1  0.337289  0.168644  0.549543  1
  Ti  Ti8  1  0.831356  0.168644  0.549543  1
  Ti  Ti9  1  0.168644  0.337289  0.049543  1
  Ti  Ti10  1  0.000000  0.000000  0.811001  1
  Ti  Ti11  1  0.000000  0.000000  0.311001  1
  N  N12  1  0.000000  0.000000  0.619556  1
  N  N13  1  0.000000  0.000000  0.119556  1
  N  N14  1  0.155881  0.311762  0.872705  1
  N  N15  1  0.844119  0.155881  0.372705  1
  N  N16  1  0.311762  0.155881  0.372705  1
  N  N17  1  0.688238  0.844119  0.872705  1
  N  N18  1  0.155881  0.844119  0.872705  1
  N  N19  1  0.844119  0.688238  0.372705  1
  N  N20  1  0.983815  0.491908  0.595534  1
  N  N21  1  0.491908  0.983815  0.095534  1
  N  N22  1  0.491908  0.508092  0.095534  1
  N  N23  1  0.508092  0.491908  0.595534  1
  N  N24  1  0.016185  0.508092  0.095534  1
  N  N25  1  0.508092  0.016185  0.595534  1
