# generated using pymatgen
data_Pr6ThPt3
_symmetry_space_group_name_H-M   'P 1'
_cell_length_a   6.53673300
_cell_length_b   10.25708557
_cell_length_c   10.25708498
_cell_angle_alpha   119.99097178
_cell_angle_beta   90.00000000
_cell_angle_gamma   90.00000000
_symmetry_Int_Tables_number   1
_chemical_formula_structural   Pr6ThPt3
_chemical_formula_sum   'Pr12 Th2 Pt6'
_cell_volume   595.63308462
_cell_formula_units_Z   2
loop_
 _symmetry_equiv_pos_site_id
 _symmetry_equiv_pos_as_xyz
  1  'x, y, z'
loop_
 _atom_site_type_symbol
 _atom_site_label
 _atom_site_symmetry_multiplicity
 _atom_site_fract_x
 _atom_site_fract_y
 _atom_site_fract_z
 _atom_site_occupancy
  Pr  Pr0  1  0.247544  0.128320  0.871680  1
  Pr  Pr1  1  0.247494  0.743628  0.871808  1
  Pr  Pr2  1  0.247494  0.128192  0.256372  1
  Pr  Pr3  1  0.747544  0.871680  0.128320  1
  Pr  Pr4  1  0.747494  0.256372  0.128192  1
  Pr  Pr5  1  0.747494  0.871808  0.743628  1
  Pr  Pr6  1  0.446515  0.538068  0.461932  1
  Pr  Pr7  1  0.446397  0.923839  0.461983  1
  Pr  Pr8  1  0.446397  0.538017  0.076161  1
  Pr  Pr9  1  0.946515  0.461932  0.538068  1
  Pr  Pr10  1  0.946397  0.076161  0.538017  1
  Pr  Pr11  1  0.946397  0.461983  0.923839  1
  Th  Th12  1  0.467250  0.333378  0.666622  1
  Th  Th13  1  0.967250  0.666622  0.333378  1
  Pt  Pt14  1  0.181425  0.808422  0.191578  1
  Pt  Pt15  1  0.181241  0.383050  0.191563  1
  Pt  Pt16  1  0.181241  0.808437  0.616950  1
  Pt  Pt17  1  0.681425  0.191578  0.808422  1
  Pt  Pt18  1  0.681241  0.616950  0.808437  1
  Pt  Pt19  1  0.681241  0.191563  0.383050  1
