# generated using pymatgen
data_Nd3ThTe6
_symmetry_space_group_name_H-M   'P 1'
_cell_length_a   4.40112700
_cell_length_b   12.02617613
_cell_length_c   12.33066073
_cell_angle_alpha   89.74174755
_cell_angle_beta   90.00000000
_cell_angle_gamma   90.00000000
_symmetry_Int_Tables_number   1
_chemical_formula_structural   Nd3ThTe6
_chemical_formula_sum   'Nd6 Th2 Te12'
_cell_volume   652.63956444
_cell_formula_units_Z   2
loop_
 _symmetry_equiv_pos_site_id
 _symmetry_equiv_pos_as_xyz
  1  'x, y, z'
loop_
 _atom_site_type_symbol
 _atom_site_label
 _atom_site_symmetry_multiplicity
 _atom_site_fract_x
 _atom_site_fract_y
 _atom_site_fract_z
 _atom_site_occupancy
  Nd  Nd0  1  0.750000  0.004288  0.804446  1
  Nd  Nd1  1  0.250000  0.995712  0.195554  1
  Nd  Nd2  1  0.250000  0.185254  0.518351  1
  Nd  Nd3  1  0.750000  0.814746  0.481649  1
  Nd  Nd4  1  0.750000  0.690939  0.978468  1
  Nd  Nd5  1  0.250000  0.309061  0.021532  1
  Th  Th6  1  0.250000  0.489599  0.697798  1
  Th  Th7  1  0.750000  0.510401  0.302202  1
  Te  Te8  1  0.250000  0.877660  0.953240  1
  Te  Te9  1  0.750000  0.122340  0.046760  1
  Te  Te10  1  0.750000  0.378100  0.541361  1
  Te  Te11  1  0.250000  0.621900  0.458639  1
  Te  Te12  1  0.250000  0.208109  0.774033  1
  Te  Te13  1  0.750000  0.791891  0.225967  1
  Te  Te14  1  0.750000  0.689917  0.718167  1
  Te  Te15  1  0.250000  0.310083  0.281833  1
  Te  Te16  1  0.250000  0.555433  0.116419  1
  Te  Te17  1  0.750000  0.444567  0.883581  1
  Te  Te18  1  0.750000  0.056892  0.377684  1
  Te  Te19  1  0.250000  0.943108  0.622316  1
