# generated using pymatgen
data_Ho(Ta3N4)3
_symmetry_space_group_name_H-M   'P 1'
_cell_length_a   5.27832700
_cell_length_b   5.27832701
_cell_length_c   10.51957500
_cell_angle_alpha   90.00000000
_cell_angle_beta   90.00000000
_cell_angle_gamma   120.00000617
_symmetry_Int_Tables_number   1
_chemical_formula_structural   Ho(Ta3N4)3
_chemical_formula_sum   'Ho1 Ta9 N12'
_cell_volume   253.81739586
_cell_formula_units_Z   1
loop_
 _symmetry_equiv_pos_site_id
 _symmetry_equiv_pos_as_xyz
  1  'x, y, z'
loop_
 _atom_site_type_symbol
 _atom_site_label
 _atom_site_symmetry_multiplicity
 _atom_site_fract_x
 _atom_site_fract_y
 _atom_site_fract_z
 _atom_site_occupancy
  Ho  Ho0  1  0.333333  0.666667  0.500000  1
  Ta  Ta1  1  0.666667  0.333333  0.000000  1
  Ta  Ta2  1  0.666667  0.333333  0.500000  1
  Ta  Ta3  1  0.333333  0.666667  0.000000  1
  Ta  Ta4  1  0.675210  0.997933  0.754870  1
  Ta  Ta5  1  0.675210  0.677277  0.245130  1
  Ta  Ta6  1  0.002067  0.324790  0.245130  1
  Ta  Ta7  1  0.002067  0.677277  0.754870  1
  Ta  Ta8  1  0.322723  0.324790  0.754870  1
  Ta  Ta9  1  0.322723  0.997933  0.245130  1
  N  N10  1  0.351076  0.333293  0.369512  1
  N  N11  1  0.666707  0.017782  0.369512  1
  N  N12  1  0.982218  0.648924  0.369512  1
  N  N13  1  0.999776  0.340479  0.882095  1
  N  N14  1  0.659521  0.000224  0.117905  1
  N  N15  1  0.659521  0.659298  0.882095  1
  N  N16  1  0.340702  0.000224  0.882095  1
  N  N17  1  0.666707  0.648924  0.630488  1
  N  N18  1  0.982218  0.333293  0.630488  1
  N  N19  1  0.999776  0.659298  0.117905  1
  N  N20  1  0.351076  0.017782  0.630488  1
  N  N21  1  0.340702  0.340479  0.117905  1
