# generated using pymatgen
data_Hf13Sc5Re4(PW2)2
_symmetry_space_group_name_H-M   'P 1'
_cell_length_a   8.68436357
_cell_length_b   8.69226596
_cell_length_c   8.56758600
_cell_angle_alpha   90.00000000
_cell_angle_beta   90.00000000
_cell_angle_gamma   120.03141279
_symmetry_Int_Tables_number   1
_chemical_formula_structural   Hf13Sc5Re4(PW2)2
_chemical_formula_sum   'Hf13 Sc5 Re4 P2 W4'
_cell_volume   559.91557772
_cell_formula_units_Z   1
loop_
 _symmetry_equiv_pos_site_id
 _symmetry_equiv_pos_as_xyz
  1  'x, y, z'
loop_
 _atom_site_type_symbol
 _atom_site_label
 _atom_site_symmetry_multiplicity
 _atom_site_fract_x
 _atom_site_fract_y
 _atom_site_fract_z
 _atom_site_occupancy
  Hf  Hf0  1  0.196543  0.804016  0.453651  1
  Hf  Hf1  1  0.196542  0.392529  0.453662  1
  Hf  Hf2  1  0.605461  0.802731  0.454450  1
  Hf  Hf3  1  0.803711  0.196455  0.550056  1
  Hf  Hf4  1  0.803719  0.607265  0.550073  1
  Hf  Hf5  1  0.391586  0.195793  0.548695  1
  Hf  Hf6  1  0.803711  0.196455  0.949944  1
  Hf  Hf7  1  0.803719  0.607265  0.949927  1
  Hf  Hf8  1  0.391586  0.195793  0.951305  1
  Hf  Hf9  1  0.196543  0.804016  0.046349  1
  Hf  Hf10  1  0.196542  0.392529  0.046338  1
  Hf  Hf11  1  0.605461  0.802731  0.045550  1
  Hf  Hf12  1  0.926919  0.463456  0.250000  1
  Sc  Sc13  1  0.539677  0.458984  0.250000  1
  Sc  Sc14  1  0.539683  0.080700  0.250000  1
  Sc  Sc15  1  0.458264  0.540784  0.750000  1
  Sc  Sc16  1  0.458268  0.917479  0.750000  1
  Sc  Sc17  1  0.082927  0.541461  0.750000  1
  Re  Re18  1  0.221028  0.110509  0.250000  1
  Re  Re19  1  0.110817  0.889840  0.750000  1
  Re  Re20  1  0.110816  0.220973  0.750000  1
  Re  Re21  1  0.778930  0.889461  0.750000  1
  P  P22  1  0.329257  0.664629  0.250000  1
  P  P23  1  0.665898  0.332947  0.750000  1
  W  W24  1  0.891066  0.110671  0.250000  1
  W  W25  1  0.891058  0.780396  0.250000  1
  W  W26  1  0.000136  0.000065  0.501630  1
  W  W27  1  0.000136  0.000065  0.998370  1
