# generated using pymatgen
data_Ba8CrMo3O16
_symmetry_space_group_name_H-M   'P 1'
_cell_length_a   5.73185801
_cell_length_b   9.33016520
_cell_length_c   9.33018400
_cell_angle_alpha   86.76797296
_cell_angle_beta   72.08472047
_cell_angle_gamma   107.91662121
_symmetry_Int_Tables_number   1
_chemical_formula_structural   Ba8CrMo3O16
_chemical_formula_sum   'Ba8 Cr1 Mo3 O16'
_cell_volume   445.42422681
_cell_formula_units_Z   1
loop_
 _symmetry_equiv_pos_site_id
 _symmetry_equiv_pos_as_xyz
  1  'x, y, z'
loop_
 _atom_site_type_symbol
 _atom_site_label
 _atom_site_symmetry_multiplicity
 _atom_site_fract_x
 _atom_site_fract_y
 _atom_site_fract_z
 _atom_site_occupancy
  Ba  Ba0  1  0.257999  0.404727  0.889173  1
  Ba  Ba1  1  0.000139  0.643536  0.643774  1
  Ba  Ba2  1  0.742818  0.889175  0.404747  1
  Ba  Ba3  1  0.499866  0.150328  0.150541  1
  Ba  Ba4  1  0.999804  0.356431  0.356230  1
  Ba  Ba5  1  0.742097  0.595319  0.110754  1
  Ba  Ba6  1  0.500175  0.849674  0.849445  1
  Ba  Ba7  1  0.257156  0.110785  0.595326  1
  Cr  Cr8  1  0.499910  0.499953  0.500023  1
  Mo  Mo9  1  0.248236  0.748276  0.251701  1
  Mo  Mo10  1  0.000000  0.000029  0.000033  1
  Mo  Mo11  1  0.751828  0.251751  0.748302  1
  O  O12  1  0.250657  0.592640  0.089897  1
  O  O13  1  0.000155  0.854005  0.854221  1
  O  O14  1  0.748581  0.090347  0.592249  1
  O  O15  1  0.499471  0.345832  0.345817  1
  O  O16  1  0.999878  0.146008  0.145802  1
  O  O17  1  0.749356  0.407360  0.910116  1
  O  O18  1  0.500472  0.654159  0.654111  1
  O  O19  1  0.251441  0.909658  0.407781  1
  O  O20  1  0.874595  0.124108  0.876468  1
  O  O21  1  0.624704  0.374525  0.624712  1
  O  O22  1  0.375268  0.625452  0.375242  1
  O  O23  1  0.125419  0.875928  0.123545  1
  O  O24  1  0.374062  0.123061  0.876688  1
  O  O25  1  0.124153  0.375843  0.624624  1
  O  O26  1  0.875814  0.624143  0.375326  1
  O  O27  1  0.625943  0.876944  0.123350  1
