# generated using pymatgen
data_Yb3Er(ScIr)4
_symmetry_space_group_name_H-M   'P 1'
_cell_length_a   4.25437600
_cell_length_b   7.36448007
_cell_length_c   8.42682336
_cell_angle_alpha   88.96124025
_cell_angle_beta   90.00000000
_cell_angle_gamma   90.00000000
_symmetry_Int_Tables_number   1
_chemical_formula_structural   Yb3Er(ScIr)4
_chemical_formula_sum   'Yb3 Er1 Sc4 Ir4'
_cell_volume   263.97966534
_cell_formula_units_Z   1
loop_
 _symmetry_equiv_pos_site_id
 _symmetry_equiv_pos_as_xyz
  1  'x, y, z'
loop_
 _atom_site_type_symbol
 _atom_site_label
 _atom_site_symmetry_multiplicity
 _atom_site_fract_x
 _atom_site_fract_y
 _atom_site_fract_z
 _atom_site_occupancy
  Yb  Yb0  1  0.250000  0.974576  0.329081  1
  Yb  Yb1  1  0.250000  0.473750  0.173446  1
  Yb  Yb2  1  0.750000  0.025994  0.672969  1
  Er  Er3  1  0.750000  0.529903  0.828233  1
  Sc  Sc4  1  0.250000  0.352592  0.566167  1
  Sc  Sc5  1  0.250000  0.863791  0.932275  1
  Sc  Sc6  1  0.750000  0.640623  0.433276  1
  Sc  Sc7  1  0.750000  0.142628  0.067690  1
  Ir  Ir8  1  0.250000  0.235586  0.886160  1
  Ir  Ir9  1  0.250000  0.708431  0.623859  1
  Ir  Ir10  1  0.750000  0.772842  0.104118  1
  Ir  Ir11  1  0.750000  0.279287  0.382727  1
