# generated using pymatgen
data_Yb8Sb(Pd11Pb)2
_symmetry_space_group_name_H-M   'P 1'
_cell_length_a   8.12138100
_cell_length_b   8.52200900
_cell_length_c   8.50023600
_cell_angle_alpha   90.00000000
_cell_angle_beta   90.00000000
_cell_angle_gamma   90.00000000
_symmetry_Int_Tables_number   1
_chemical_formula_structural   Yb8Sb(Pd11Pb)2
_chemical_formula_sum   'Yb8 Sb1 Pd22 Pb2'
_cell_volume   588.30543046
_cell_formula_units_Z   1
loop_
 _symmetry_equiv_pos_site_id
 _symmetry_equiv_pos_as_xyz
  1  'x, y, z'
loop_
 _atom_site_type_symbol
 _atom_site_label
 _atom_site_symmetry_multiplicity
 _atom_site_fract_x
 _atom_site_fract_y
 _atom_site_fract_z
 _atom_site_occupancy
  Yb  Yb0  1  0.251616  0.224212  0.253106  1
  Yb  Yb1  1  0.746232  0.744626  0.745485  1
  Yb  Yb2  1  0.746232  0.744626  0.254515  1
  Yb  Yb3  1  0.746232  0.255374  0.745485  1
  Yb  Yb4  1  0.251616  0.224212  0.746894  1
  Yb  Yb5  1  0.251616  0.775788  0.253106  1
  Yb  Yb6  1  0.251616  0.775788  0.746894  1
  Yb  Yb7  1  0.746232  0.255374  0.254515  1
  Sb  Sb8  1  0.000612  0.000000  0.000000  1
  Pd  Pd9  1  0.737571  0.500000  0.000000  1
  Pd  Pd10  1  0.002040  0.258937  0.500000  1
  Pd  Pd11  1  0.500697  0.264207  0.000000  1
  Pd  Pd12  1  0.002040  0.741063  0.500000  1
  Pd  Pd13  1  0.500697  0.735793  0.000000  1
  Pd  Pd14  1  0.505161  0.000000  0.267087  1
  Pd  Pd15  1  0.260279  0.000000  0.500000  1
  Pd  Pd16  1  0.505161  0.000000  0.732913  1
  Pd  Pd17  1  0.733992  0.000000  0.500000  1
  Pd  Pd18  1  0.008496  0.500000  0.261328  1
  Pd  Pd19  1  0.008496  0.500000  0.738672  1
  Pd  Pd20  1  0.747747  0.500000  0.500000  1
  Pd  Pd21  1  0.497543  0.250298  0.500000  1
  Pd  Pd22  1  0.497543  0.749702  0.500000  1
  Pd  Pd23  1  0.494148  0.500000  0.256168  1
  Pd  Pd24  1  0.494148  0.500000  0.743832  1
  Pd  Pd25  1  0.316004  0.000000  0.000000  1
  Pd  Pd26  1  0.688235  0.000000  0.000000  1
  Pd  Pd27  1  0.000365  0.299016  0.000000  1
  Pd  Pd28  1  0.000365  0.700984  0.000000  1
  Pd  Pd29  1  0.990574  0.000000  0.300997  1
  Pd  Pd30  1  0.990574  0.000000  0.699003  1
  Pb  Pb31  1  0.268949  0.500000  0.000000  1
  Pb  Pb32  1  0.257172  0.500000  0.500000  1
