# generated using pymatgen
data_Ga(Ni3P)2
_symmetry_space_group_name_H-M   'P 1'
_cell_length_a   6.01552200
_cell_length_b   6.01552211
_cell_length_c   3.28664300
_cell_angle_alpha   90.00000000
_cell_angle_beta   90.00000000
_cell_angle_gamma   119.99999938
_symmetry_Int_Tables_number   1
_chemical_formula_structural   Ga(Ni3P)2
_chemical_formula_sum   'Ga1 Ni6 P2'
_cell_volume   102.99824255
_cell_formula_units_Z   1
loop_
 _symmetry_equiv_pos_site_id
 _symmetry_equiv_pos_as_xyz
  1  'x, y, z'
loop_
 _atom_site_type_symbol
 _atom_site_label
 _atom_site_symmetry_multiplicity
 _atom_site_fract_x
 _atom_site_fract_y
 _atom_site_fract_z
 _atom_site_occupancy
  Ga  Ga0  1  0.666667  0.333333  0.000000  1
  Ni  Ni1  1  0.383342  0.975059  0.500000  1
  Ni  Ni2  1  0.591718  0.616658  0.500000  1
  Ni  Ni3  1  0.024941  0.408282  0.500000  1
  Ni  Ni4  1  0.013144  0.753672  0.000000  1
  Ni  Ni5  1  0.246328  0.259471  0.000000  1
  Ni  Ni6  1  0.740529  0.986856  0.000000  1
  P  P7  1  0.000000  0.000000  0.500000  1
  P  P8  1  0.333333  0.666667  0.000000  1
