# generated using pymatgen
data_GdDy5(BO3)6
_symmetry_space_group_name_H-M   'P 1'
_cell_length_a   6.60496721
_cell_length_b   6.59162299
_cell_length_c   9.65515603
_cell_angle_alpha   70.37465679
_cell_angle_beta   70.39004560
_cell_angle_gamma   60.13456480
_symmetry_Int_Tables_number   1
_chemical_formula_structural   GdDy5(BO3)6
_chemical_formula_sum   'Gd1 Dy5 B6 O18'
_cell_volume   335.98639583
_cell_formula_units_Z   1
loop_
 _symmetry_equiv_pos_site_id
 _symmetry_equiv_pos_as_xyz
  1  'x, y, z'
loop_
 _atom_site_type_symbol
 _atom_site_label
 _atom_site_symmetry_multiplicity
 _atom_site_fract_x
 _atom_site_fract_y
 _atom_site_fract_z
 _atom_site_occupancy
  Gd  Gd0  1  0.342723  0.829101  0.500859  1
  Dy  Dy1  1  0.000416  0.499795  0.499990  1
  Dy  Dy2  1  0.500153  0.000029  0.999995  1
  Dy  Dy3  1  0.828966  0.342673  0.000817  1
  Dy  Dy4  1  0.658051  0.170495  0.499223  1
  Dy  Dy5  1  0.171082  0.657153  0.999196  1
  B  B6  1  0.082001  0.157794  0.251939  1
  B  B7  1  0.845222  0.917429  0.246021  1
  B  B8  1  0.915720  0.843330  0.748039  1
  B  B9  1  0.155776  0.083749  0.754362  1
  B  B10  1  0.323679  0.675714  0.248906  1
  B  B11  1  0.677579  0.322013  0.750748  1
  O  O12  1  0.032440  0.220355  0.394770  1
  O  O13  1  0.782754  0.965298  0.103604  1
  O  O14  1  0.962511  0.782104  0.605201  1
  O  O15  1  0.217569  0.034932  0.897046  1
  O  O16  1  0.130243  0.314611  0.110482  1
  O  O17  1  0.690180  0.869426  0.388780  1
  O  O18  1  0.868780  0.685980  0.889510  1
  O  O19  1  0.312428  0.133185  0.612747  1
  O  O20  1  0.481730  0.614411  0.107672  1
  O  O21  1  0.385018  0.516316  0.390350  1
  O  O22  1  0.518796  0.384816  0.891650  1
  O  O23  1  0.618918  0.477817  0.608066  1
  O  O24  1  0.084398  0.699974  0.246920  1
  O  O25  1  0.298955  0.916977  0.250202  1
  O  O26  1  0.916018  0.299850  0.753162  1
  O  O27  1  0.699889  0.083024  0.748641  1
  O  O28  1  0.866521  0.134653  0.249050  1
  O  O29  1  0.131485  0.866997  0.752054  1
