# generated using pymatgen
data_Sc3In3Ag2Rh
_symmetry_space_group_name_H-M   'P 1'
_cell_length_a   7.90253000
_cell_length_b   7.90253060
_cell_length_c   3.42030300
_cell_angle_alpha   90.00000000
_cell_angle_beta   90.00000000
_cell_angle_gamma   119.99998913
_symmetry_Int_Tables_number   1
_chemical_formula_structural   Sc3In3Ag2Rh
_chemical_formula_sum   'Sc3 In3 Ag2 Rh1'
_cell_volume   184.98120311
_cell_formula_units_Z   1
loop_
 _symmetry_equiv_pos_site_id
 _symmetry_equiv_pos_as_xyz
  1  'x, y, z'
loop_
 _atom_site_type_symbol
 _atom_site_label
 _atom_site_symmetry_multiplicity
 _atom_site_fract_x
 _atom_site_fract_y
 _atom_site_fract_z
 _atom_site_occupancy
  Sc  Sc0  1  0.962767  0.377082  0.500000  1
  Sc  Sc1  1  0.622918  0.585685  0.500000  1
  Sc  Sc2  1  0.414315  0.037233  0.500000  1
  In  In3  1  0.276587  0.287204  0.000000  1
  In  In4  1  0.010617  0.723413  0.000000  1
  In  In5  1  0.712796  0.989383  0.000000  1
  Ag  Ag6  1  0.333333  0.666667  0.000000  1
  Ag  Ag7  1  0.000000  0.000000  0.500000  1
  Rh  Rh8  1  0.666667  0.333333  0.000000  1
