# generated using pymatgen
data_Tb2Y3Zr3(Co4As3)4
_symmetry_space_group_name_H-M   'P 1'
_cell_length_a   12.73819500
_cell_length_b   12.73819398
_cell_length_c   3.83874600
_cell_angle_alpha   90.00000000
_cell_angle_beta   90.00000000
_cell_angle_gamma   120.00000525
_symmetry_Int_Tables_number   1
_chemical_formula_structural   Tb2Y3Zr3(Co4As3)4
_chemical_formula_sum   'Tb2 Y3 Zr3 Co16 As12'
_cell_volume   539.43079600
_cell_formula_units_Z   1
loop_
 _symmetry_equiv_pos_site_id
 _symmetry_equiv_pos_as_xyz
  1  'x, y, z'
loop_
 _atom_site_type_symbol
 _atom_site_label
 _atom_site_symmetry_multiplicity
 _atom_site_fract_x
 _atom_site_fract_y
 _atom_site_fract_z
 _atom_site_occupancy
  Tb  Tb0  1  0.333333  0.666667  0.000000  1
  Tb  Tb1  1  0.666667  0.333333  0.000000  1
  Y  Y2  1  0.183353  0.183353  0.500000  1
  Y  Y3  1  0.816647  0.000000  0.500000  1
  Y  Y4  1  0.000000  0.816647  0.500000  1
  Zr  Zr5  1  0.561975  0.561975  0.000000  1
  Zr  Zr6  1  0.438025  0.000000  0.000000  1
  Zr  Zr7  1  0.000000  0.438025  0.000000  1
  Co  Co8  1  0.720216  0.720216  0.500000  1
  Co  Co9  1  0.279784  0.000000  0.500000  1
  Co  Co10  1  0.000000  0.279784  0.500000  1
  Co  Co11  1  0.178114  0.373793  0.000000  1
  Co  Co12  1  0.626207  0.804321  0.000000  1
  Co  Co13  1  0.195679  0.821886  0.000000  1
  Co  Co14  1  0.804321  0.626207  0.000000  1
  Co  Co15  1  0.821886  0.195679  0.000000  1
  Co  Co16  1  0.373793  0.178114  0.000000  1
  Co  Co17  1  0.357766  0.480019  0.500000  1
  Co  Co18  1  0.519981  0.877749  0.500000  1
  Co  Co19  1  0.122251  0.642234  0.500000  1
  Co  Co20  1  0.877749  0.519981  0.500000  1
  Co  Co21  1  0.642234  0.122251  0.500000  1
  Co  Co22  1  0.480019  0.357766  0.500000  1
  Co  Co23  1  0.000000  0.000000  0.000000  1
  As  As24  1  0.822700  0.822700  0.000000  1
  As  As25  1  0.177300  0.000000  0.000000  1
  As  As26  1  0.000000  0.177300  0.000000  1
  As  As27  1  0.173449  0.481094  0.500000  1
  As  As28  1  0.518906  0.692356  0.500000  1
  As  As29  1  0.307644  0.826551  0.500000  1
  As  As30  1  0.692356  0.518906  0.500000  1
  As  As31  1  0.826551  0.307644  0.500000  1
  As  As32  1  0.481094  0.173449  0.500000  1
  As  As33  1  0.352932  0.352932  0.000000  1
  As  As34  1  0.647068  0.000000  0.000000  1
  As  As35  1  0.000000  0.647068  0.000000  1
