# generated using pymatgen
data_Tb8InCo2Ag
_symmetry_space_group_name_H-M   'P 1'
_cell_length_a   9.49837094
_cell_length_b   9.49837078
_cell_length_c   9.50721900
_cell_angle_alpha   59.96918322
_cell_angle_beta   59.96918377
_cell_angle_gamma   60.13122163
_symmetry_Int_Tables_number   1
_chemical_formula_structural   Tb8InCo2Ag
_chemical_formula_sum   'Tb16 In2 Co4 Ag2'
_cell_volume   606.82398362
_cell_formula_units_Z   2
loop_
 _symmetry_equiv_pos_site_id
 _symmetry_equiv_pos_as_xyz
  1  'x, y, z'
loop_
 _atom_site_type_symbol
 _atom_site_label
 _atom_site_symmetry_multiplicity
 _atom_site_fract_x
 _atom_site_fract_y
 _atom_site_fract_z
 _atom_site_occupancy
  Tb  Tb0  1  0.809012  0.809012  0.190988  1
  Tb  Tb1  1  0.811311  0.189204  0.810029  1
  Tb  Tb2  1  0.187306  0.187306  0.812694  1
  Tb  Tb3  1  0.652554  0.042529  0.652459  1
  Tb  Tb4  1  0.063038  0.063038  0.436962  1
  Tb  Tb5  1  0.440549  0.440549  0.059451  1
  Tb  Tb6  1  0.653285  0.653285  0.652331  1
  Tb  Tb7  1  0.811311  0.189204  0.189455  1
  Tb  Tb8  1  0.189204  0.811311  0.810029  1
  Tb  Tb9  1  0.042529  0.652554  0.652459  1
  Tb  Tb10  1  0.439309  0.064663  0.057835  1
  Tb  Tb11  1  0.439309  0.064663  0.438193  1
  Tb  Tb12  1  0.064663  0.439309  0.057835  1
  Tb  Tb13  1  0.653285  0.653285  0.041100  1
  Tb  Tb14  1  0.189204  0.811311  0.189455  1
  Tb  Tb15  1  0.064663  0.439309  0.438193  1
  In  In16  1  0.416433  0.740594  0.421486  1
  In  In17  1  0.740594  0.416433  0.421486  1
  Co  Co18  1  0.858730  0.422366  0.859452  1
  Co  Co19  1  0.858412  0.858412  0.860975  1
  Co  Co20  1  0.858412  0.858412  0.422202  1
  Co  Co21  1  0.422366  0.858730  0.859452  1
  Ag  Ag22  1  0.417259  0.417259  0.418717  1
  Ag  Ag23  1  0.417259  0.417259  0.746762  1
