# generated using pymatgen
data_La5PrDy4(Sn5Rh2)4
_symmetry_space_group_name_H-M   'P 1'
_cell_length_a   14.25444200
_cell_length_b   14.25444200
_cell_length_c   4.60052900
_cell_angle_alpha   90.00000000
_cell_angle_beta   90.00000000
_cell_angle_gamma   90.00000000
_symmetry_Int_Tables_number   1
_chemical_formula_structural   La5PrDy4(Sn5Rh2)4
_chemical_formula_sum   'La5 Pr1 Dy4 Sn20 Rh8'
_cell_volume   934.77742401
_cell_formula_units_Z   1
loop_
 _symmetry_equiv_pos_site_id
 _symmetry_equiv_pos_as_xyz
  1  'x, y, z'
loop_
 _atom_site_type_symbol
 _atom_site_label
 _atom_site_symmetry_multiplicity
 _atom_site_fract_x
 _atom_site_fract_y
 _atom_site_fract_z
 _atom_site_occupancy
  La  La0  1  0.500000  0.500000  0.000000  1
  La  La1  1  0.888422  0.388586  0.500000  1
  La  La2  1  0.111578  0.611414  0.500000  1
  La  La3  1  0.388586  0.111578  0.500000  1
  La  La4  1  0.611414  0.888422  0.500000  1
  Pr  Pr5  1  0.000000  0.000000  0.000000  1
  Dy  Dy6  1  0.676682  0.176833  0.500000  1
  Dy  Dy7  1  0.323318  0.823167  0.500000  1
  Dy  Dy8  1  0.176833  0.323318  0.500000  1
  Dy  Dy9  1  0.823167  0.676682  0.500000  1
  Sn  Sn10  1  0.570600  0.070473  0.000000  1
  Sn  Sn11  1  0.429400  0.929527  0.000000  1
  Sn  Sn12  1  0.070473  0.429400  0.000000  1
  Sn  Sn13  1  0.929527  0.570600  0.000000  1
  Sn  Sn14  1  0.654523  0.697657  0.000000  1
  Sn  Sn15  1  0.345477  0.302343  0.000000  1
  Sn  Sn16  1  0.154708  0.802189  0.000000  1
  Sn  Sn17  1  0.845292  0.197811  0.000000  1
  Sn  Sn18  1  0.302343  0.654523  0.000000  1
  Sn  Sn19  1  0.697657  0.345477  0.000000  1
  Sn  Sn20  1  0.197811  0.154708  0.000000  1
  Sn  Sn21  1  0.802189  0.845292  0.000000  1
  Sn  Sn22  1  0.664370  0.506621  0.500000  1
  Sn  Sn23  1  0.335630  0.493379  0.500000  1
  Sn  Sn24  1  0.164215  0.993561  0.500000  1
  Sn  Sn25  1  0.835785  0.006439  0.500000  1
  Sn  Sn26  1  0.493379  0.664370  0.500000  1
  Sn  Sn27  1  0.506621  0.335630  0.500000  1
  Sn  Sn28  1  0.006439  0.164215  0.500000  1
  Sn  Sn29  1  0.993561  0.835785  0.500000  1
  Rh  Rh30  1  0.747354  0.529332  0.000000  1
  Rh  Rh31  1  0.252646  0.470668  0.000000  1
  Rh  Rh32  1  0.246790  0.970744  0.000000  1
  Rh  Rh33  1  0.753210  0.029256  0.000000  1
  Rh  Rh34  1  0.470668  0.747354  0.000000  1
  Rh  Rh35  1  0.529332  0.252646  0.000000  1
  Rh  Rh36  1  0.029256  0.246790  0.000000  1
  Rh  Rh37  1  0.970744  0.753210  0.000000  1
