# generated using pymatgen
data_TbErMnC2
_symmetry_space_group_name_H-M   'P 1'
_cell_length_a   5.02641400
_cell_length_b   6.35438800
_cell_length_c   9.61438300
_cell_angle_alpha   90.00000000
_cell_angle_beta   90.00000000
_cell_angle_gamma   90.00000000
_symmetry_Int_Tables_number   1
_chemical_formula_structural   TbErMnC2
_chemical_formula_sum   'Tb4 Er4 Mn4 C8'
_cell_volume   307.08132405
_cell_formula_units_Z   4
loop_
 _symmetry_equiv_pos_site_id
 _symmetry_equiv_pos_as_xyz
  1  'x, y, z'
loop_
 _atom_site_type_symbol
 _atom_site_label
 _atom_site_symmetry_multiplicity
 _atom_site_fract_x
 _atom_site_fract_y
 _atom_site_fract_z
 _atom_site_occupancy
  Tb  Tb0  1  0.750000  0.476499  0.788729  1
  Tb  Tb1  1  0.250000  0.023501  0.288729  1
  Tb  Tb2  1  0.750000  0.976499  0.711271  1
  Tb  Tb3  1  0.250000  0.523501  0.211271  1
  Er  Er4  1  0.750000  0.821068  0.056195  1
  Er  Er5  1  0.250000  0.678932  0.556195  1
  Er  Er6  1  0.750000  0.321068  0.443805  1
  Er  Er7  1  0.250000  0.178932  0.943805  1
  Mn  Mn8  1  0.750000  0.270706  0.142740  1
  Mn  Mn9  1  0.250000  0.229294  0.642740  1
  Mn  Mn10  1  0.750000  0.770706  0.357260  1
  Mn  Mn11  1  0.250000  0.729294  0.857260  1
  C  C12  1  0.750000  0.187067  0.964715  1
  C  C13  1  0.250000  0.812933  0.035285  1
  C  C14  1  0.750000  0.687067  0.535285  1
  C  C15  1  0.250000  0.312933  0.464715  1
  C  C16  1  0.750000  0.037368  0.260925  1
  C  C17  1  0.250000  0.462632  0.760925  1
  C  C18  1  0.750000  0.537368  0.239075  1
  C  C19  1  0.250000  0.962632  0.739075  1
