# generated using pymatgen
data_Pr5Nd3(Si3Rh)4
_symmetry_space_group_name_H-M   'P 1'
_cell_length_a   8.27429500
_cell_length_b   8.27436117
_cell_length_c   8.48389700
_cell_angle_alpha   90.00000000
_cell_angle_beta   90.00000000
_cell_angle_gamma   120.00031814
_symmetry_Int_Tables_number   1
_chemical_formula_structural   Pr5Nd3(Si3Rh)4
_chemical_formula_sum   'Pr5 Nd3 Si12 Rh4'
_cell_volume   503.02561510
_cell_formula_units_Z   1
loop_
 _symmetry_equiv_pos_site_id
 _symmetry_equiv_pos_as_xyz
  1  'x, y, z'
loop_
 _atom_site_type_symbol
 _atom_site_label
 _atom_site_symmetry_multiplicity
 _atom_site_fract_x
 _atom_site_fract_y
 _atom_site_fract_z
 _atom_site_occupancy
  Pr  Pr0  1  0.000002  0.000001  0.750000  1
  Pr  Pr1  1  0.000002  0.999999  0.250000  1
  Pr  Pr2  1  0.499684  0.500319  0.750000  1
  Pr  Pr3  1  0.499681  0.999366  0.750000  1
  Pr  Pr4  1  0.000634  0.500321  0.750000  1
  Nd  Nd5  1  0.500304  0.499691  0.250000  1
  Nd  Nd6  1  0.999403  0.499702  0.250000  1
  Nd  Nd7  1  0.500306  0.000605  0.250000  1
  Si  Si8  1  0.833333  0.166667  0.001637  1
  Si  Si9  1  0.833333  0.666667  0.001637  1
  Si  Si10  1  0.333336  0.166669  0.001636  1
  Si  Si11  1  0.833333  0.166667  0.498363  1
  Si  Si12  1  0.833333  0.666667  0.498363  1
  Si  Si13  1  0.333336  0.166669  0.498364  1
  Si  Si14  1  0.166651  0.833350  0.498633  1
  Si  Si15  1  0.666690  0.833346  0.498630  1
  Si  Si16  1  0.166651  0.333301  0.498633  1
  Si  Si17  1  0.166651  0.833350  0.001367  1
  Si  Si18  1  0.666690  0.833346  0.001370  1
  Si  Si19  1  0.166651  0.333301  0.001367  1
  Rh  Rh20  1  0.666668  0.333335  0.002286  1
  Rh  Rh21  1  0.666668  0.333335  0.497714  1
  Rh  Rh22  1  0.333330  0.666664  0.496571  1
  Rh  Rh23  1  0.333330  0.666664  0.003429  1
