# generated using pymatgen
data_Lu4Ga4Co3Rh
_symmetry_space_group_name_H-M   'P 1'
_cell_length_a   4.12040100
_cell_length_b   6.60317778
_cell_length_c   7.62580422
_cell_angle_alpha   89.90409373
_cell_angle_beta   90.00000000
_cell_angle_gamma   90.00000000
_symmetry_Int_Tables_number   1
_chemical_formula_structural   Lu4Ga4Co3Rh
_chemical_formula_sum   'Lu4 Ga4 Co3 Rh1'
_cell_volume   207.48061043
_cell_formula_units_Z   1
loop_
 _symmetry_equiv_pos_site_id
 _symmetry_equiv_pos_as_xyz
  1  'x, y, z'
loop_
 _atom_site_type_symbol
 _atom_site_label
 _atom_site_symmetry_multiplicity
 _atom_site_fract_x
 _atom_site_fract_y
 _atom_site_fract_z
 _atom_site_occupancy
  Lu  Lu0  1  0.250000  0.967933  0.313740  1
  Lu  Lu1  1  0.250000  0.474737  0.180998  1
  Lu  Lu2  1  0.750000  0.023500  0.685932  1
  Lu  Lu3  1  0.750000  0.528591  0.816982  1
  Ga  Ga4  1  0.250000  0.353424  0.574232  1
  Ga  Ga5  1  0.250000  0.845352  0.935455  1
  Ga  Ga6  1  0.750000  0.660555  0.436428  1
  Ga  Ga7  1  0.750000  0.149239  0.055567  1
  Co  Co8  1  0.250000  0.228929  0.881524  1
  Co  Co9  1  0.250000  0.732185  0.620007  1
  Co  Co10  1  0.750000  0.769738  0.117884  1
  Rh  Rh11  1  0.750000  0.265815  0.381251  1
