# generated using pymatgen
data_Ta4Ti7Nb3P8
_symmetry_space_group_name_H-M   'P 1'
_cell_length_a   7.57944009
_cell_length_b   7.57944065
_cell_length_c   13.72099815
_cell_angle_alpha   76.07197370
_cell_angle_beta   76.07197257
_cell_angle_gamma   26.10627158
_symmetry_Int_Tables_number   1
_chemical_formula_structural   Ta4Ti7Nb3P8
_chemical_formula_sum   'Ta4 Ti7 Nb3 P8'
_cell_volume   336.10144307
_cell_formula_units_Z   1
loop_
 _symmetry_equiv_pos_site_id
 _symmetry_equiv_pos_as_xyz
  1  'x, y, z'
loop_
 _atom_site_type_symbol
 _atom_site_label
 _atom_site_symmetry_multiplicity
 _atom_site_fract_x
 _atom_site_fract_y
 _atom_site_fract_z
 _atom_site_occupancy
  Ta  Ta0  1  0.661997  0.661997  0.029925  1
  Ta  Ta1  1  0.336781  0.336781  0.971164  1
  Ta  Ta2  1  0.998611  0.998611  0.663167  1
  Ta  Ta3  1  0.999932  0.999932  0.000580  1
  Ti  Ti4  1  0.002464  0.002464  0.337174  1
  Ti  Ti5  1  0.823673  0.823673  0.541191  1
  Ti  Ti6  1  0.177148  0.177148  0.457206  1
  Ti  Ti7  1  0.207283  0.207283  0.203823  1
  Ti  Ti8  1  0.791755  0.791755  0.797004  1
  Ti  Ti9  1  0.197739  0.197739  0.690960  1
  Ti  Ti10  1  0.802488  0.802488  0.309195  1
  Nb  Nb11  1  0.427213  0.427213  0.173110  1
  Nb  Nb12  1  0.571889  0.571889  0.826134  1
  Nb  Nb13  1  0.500484  0.500484  0.498808  1
  P  P14  1  0.063119  0.063119  0.155376  1
  P  P15  1  0.934861  0.934861  0.847770  1
  P  P16  1  0.368383  0.368383  0.662329  1
  P  P17  1  0.630933  0.630933  0.337542  1
  P  P18  1  0.371383  0.371383  0.395568  1
  P  P19  1  0.632869  0.632869  0.600967  1
  P  P20  1  0.179786  0.179786  0.886552  1
  P  P21  1  0.819211  0.819211  0.114452  1
