# generated using pymatgen
data_Tb3Ga3(CoNi5)2
_symmetry_space_group_name_H-M   'P 1'
_cell_length_a   8.57979013
_cell_length_b   8.57978998
_cell_length_c   4.03133700
_cell_angle_alpha   90.00000000
_cell_angle_beta   90.00000000
_cell_angle_gamma   120.41816493
_symmetry_Int_Tables_number   1
_chemical_formula_structural   Tb3Ga3(CoNi5)2
_chemical_formula_sum   'Tb3 Ga3 Co2 Ni10'
_cell_volume   255.91020360
_cell_formula_units_Z   1
loop_
 _symmetry_equiv_pos_site_id
 _symmetry_equiv_pos_as_xyz
  1  'x, y, z'
loop_
 _atom_site_type_symbol
 _atom_site_label
 _atom_site_symmetry_multiplicity
 _atom_site_fract_x
 _atom_site_fract_y
 _atom_site_fract_z
 _atom_site_occupancy
  Tb  Tb0  1  0.332889  0.667111  0.000000  1
  Tb  Tb1  1  0.667111  0.332889  0.000000  1
  Tb  Tb2  1  0.000000  0.000000  0.000000  1
  Ga  Ga3  1  0.500000  0.000000  0.500000  1
  Ga  Ga4  1  0.000000  0.500000  0.500000  1
  Ga  Ga5  1  0.500000  0.500000  0.500000  1
  Co  Co6  1  0.168481  0.831519  0.500000  1
  Co  Co7  1  0.831519  0.168481  0.500000  1
  Ni  Ni8  1  0.323800  0.996395  0.000000  1
  Ni  Ni9  1  0.676200  0.003605  0.000000  1
  Ni  Ni10  1  0.996395  0.323800  0.000000  1
  Ni  Ni11  1  0.003605  0.676200  0.000000  1
  Ni  Ni12  1  0.671942  0.671942  0.000000  1
  Ni  Ni13  1  0.328058  0.328058  0.000000  1
  Ni  Ni14  1  0.165441  0.333060  0.500000  1
  Ni  Ni15  1  0.834559  0.666940  0.500000  1
  Ni  Ni16  1  0.666940  0.834559  0.500000  1
  Ni  Ni17  1  0.333060  0.165441  0.500000  1
