# generated using pymatgen
data_HoEr11InCo4Pd
_symmetry_space_group_name_H-M   'P 1'
_cell_length_a   8.23050980
_cell_length_b   8.23050988
_cell_length_c   8.22726592
_cell_angle_alpha   110.96930961
_cell_angle_beta   110.79437469
_cell_angle_gamma   106.70224721
_symmetry_Int_Tables_number   1
_chemical_formula_structural   HoEr11InCo4Pd
_chemical_formula_sum   'Ho1 Er11 In1 Co4 Pd1'
_cell_volume   428.18794303
_cell_formula_units_Z   1
loop_
 _symmetry_equiv_pos_site_id
 _symmetry_equiv_pos_as_xyz
  1  'x, y, z'
loop_
 _atom_site_type_symbol
 _atom_site_label
 _atom_site_symmetry_multiplicity
 _atom_site_fract_x
 _atom_site_fract_y
 _atom_site_fract_z
 _atom_site_occupancy
  Ho  Ho0  1  0.187685  0.292504  0.480189  1
  Er  Er1  1  0.812138  0.708033  0.520171  1
  Er  Er2  1  0.187824  0.708287  0.896112  1
  Er  Er3  1  0.811663  0.292316  0.103979  1
  Er  Er4  1  0.314167  0.618755  0.304184  1
  Er  Er5  1  0.686288  0.382017  0.696163  1
  Er  Er6  1  0.314146  0.009874  0.696163  1
  Er  Er7  1  0.685429  0.990018  0.304184  1
  Er  Er8  1  0.416041  0.216407  0.199592  1
  Er  Er9  1  0.584902  0.783958  0.801257  1
  Er  Er10  1  0.017298  0.216354  0.801257  1
  Er  Er11  1  0.983184  0.783551  0.199592  1
  In  In12  1  0.500346  0.499668  0.000014  1
  Co  Co13  1  0.111655  0.612715  0.499630  1
  Co  Co14  1  0.886915  0.387974  0.499630  1
  Co  Co15  1  0.378713  0.999830  0.378543  1
  Co  Co16  1  0.621062  0.000259  0.621320  1
  Pd  Pd17  1  0.000542  0.997480  0.998023  1
