# generated using pymatgen
data_Li12AsRuN8
_symmetry_space_group_name_H-M   'P 1'
_cell_length_a   6.59680900
_cell_length_b   6.59680900
_cell_length_c   4.90085900
_cell_angle_alpha   90.00000000
_cell_angle_beta   90.00000000
_cell_angle_gamma   90.00000000
_symmetry_Int_Tables_number   1
_chemical_formula_structural   Li12AsRuN8
_chemical_formula_sum   'Li12 As1 Ru1 N8'
_cell_volume   213.27503788
_cell_formula_units_Z   1
loop_
 _symmetry_equiv_pos_site_id
 _symmetry_equiv_pos_as_xyz
  1  'x, y, z'
loop_
 _atom_site_type_symbol
 _atom_site_label
 _atom_site_symmetry_multiplicity
 _atom_site_fract_x
 _atom_site_fract_y
 _atom_site_fract_z
 _atom_site_occupancy
  Li  Li0  1  0.000000  0.500000  0.581988  1
  Li  Li1  1  0.500000  0.000000  0.893958  1
  Li  Li2  1  0.500000  0.000000  0.418012  1
  Li  Li3  1  0.000000  0.500000  0.106042  1
  Li  Li4  1  0.219549  0.219549  0.500000  1
  Li  Li5  1  0.780451  0.780451  0.500000  1
  Li  Li6  1  0.707533  0.707533  0.000000  1
  Li  Li7  1  0.292467  0.292467  0.000000  1
  Li  Li8  1  0.780451  0.219549  0.500000  1
  Li  Li9  1  0.219549  0.780451  0.500000  1
  Li  Li10  1  0.292467  0.707533  0.000000  1
  Li  Li11  1  0.707533  0.292467  0.000000  1
  As  As12  1  0.500000  0.500000  0.500000  1
  Ru  Ru13  1  0.000000  0.000000  0.000000  1
  N  N14  1  0.257643  0.500000  0.308855  1
  N  N15  1  0.742357  0.500000  0.308855  1
  N  N16  1  0.758400  0.000000  0.191170  1
  N  N17  1  0.241600  0.000000  0.191170  1
  N  N18  1  0.500000  0.257643  0.691145  1
  N  N19  1  0.500000  0.742357  0.691145  1
  N  N20  1  0.000000  0.758400  0.808830  1
  N  N21  1  0.000000  0.241600  0.808830  1
