# generated using pymatgen
data_Ca12Ni3Sn8Pd5
_symmetry_space_group_name_H-M   'P 1'
_cell_length_a   5.85344423
_cell_length_b   8.60257957
_cell_length_c   13.78992442
_cell_angle_alpha   90.12183084
_cell_angle_beta   90.43875904
_cell_angle_gamma   89.92358341
_symmetry_Int_Tables_number   1
_chemical_formula_structural   Ca12Ni3Sn8Pd5
_chemical_formula_sum   'Ca12 Ni3 Sn8 Pd5'
_cell_volume   694.36524765
_cell_formula_units_Z   1
loop_
 _symmetry_equiv_pos_site_id
 _symmetry_equiv_pos_as_xyz
  1  'x, y, z'
loop_
 _atom_site_type_symbol
 _atom_site_label
 _atom_site_symmetry_multiplicity
 _atom_site_fract_x
 _atom_site_fract_y
 _atom_site_fract_z
 _atom_site_occupancy
  Ca  Ca0  1  0.142060  0.398169  0.596566  1
  Ca  Ca1  1  0.858246  0.599573  0.100702  1
  Ca  Ca2  1  0.138714  0.099257  0.401222  1
  Ca  Ca3  1  0.858698  0.898684  0.901185  1
  Ca  Ca4  1  0.840537  0.608229  0.399088  1
  Ca  Ca5  1  0.155862  0.390524  0.899258  1
  Ca  Ca6  1  0.842577  0.894773  0.599359  1
  Ca  Ca7  1  0.157485  0.107034  0.102600  1
  Ca  Ca8  1  0.647890  0.257545  0.748624  1
  Ca  Ca9  1  0.352685  0.743389  0.250932  1
  Ca  Ca10  1  0.645765  0.243957  0.251961  1
  Ca  Ca11  1  0.361816  0.755868  0.750399  1
  Ni  Ni12  1  0.375749  0.028891  0.582357  1
  Ni  Ni13  1  0.620426  0.971102  0.084376  1
  Ni  Ni14  1  0.376990  0.473163  0.417065  1
  Sn  Sn15  1  0.619651  0.249727  0.499230  1
  Sn  Sn16  1  0.368974  0.754770  0.005177  1
  Sn  Sn17  1  0.344186  0.750649  0.499792  1
  Sn  Sn18  1  0.653419  0.244044  0.004048  1
  Sn  Sn19  1  0.155585  0.102366  0.740377  1
  Sn  Sn20  1  0.844298  0.896782  0.241309  1
  Sn  Sn21  1  0.153263  0.396583  0.260016  1
  Sn  Sn22  1  0.862305  0.606477  0.751298  1
  Pd  Pd23  1  0.628258  0.529440  0.913187  1
  Pd  Pd24  1  0.617598  0.966074  0.409759  1
  Pd  Pd25  1  0.379335  0.033360  0.910241  1
  Pd  Pd26  1  0.620557  0.533737  0.588088  1
  Pd  Pd27  1  0.377070  0.465833  0.091782  1
