# generated using pymatgen
data_Zr16ZnFe4Os3
_symmetry_space_group_name_H-M   'P 1'
_cell_length_a   8.71088648
_cell_length_b   8.71520469
_cell_length_c   8.71520500
_cell_angle_alpha   60.00000261
_cell_angle_beta   59.98360278
_cell_angle_gamma   59.98360235
_symmetry_Int_Tables_number   1
_chemical_formula_structural   Zr16ZnFe4Os3
_chemical_formula_sum   'Zr16 Zn1 Fe4 Os3'
_cell_volume   467.72962728
_cell_formula_units_Z   1
loop_
 _symmetry_equiv_pos_site_id
 _symmetry_equiv_pos_as_xyz
  1  'x, y, z'
loop_
 _atom_site_type_symbol
 _atom_site_label
 _atom_site_symmetry_multiplicity
 _atom_site_fract_x
 _atom_site_fract_y
 _atom_site_fract_z
 _atom_site_occupancy
  Zr  Zr0  1  0.053341  0.648886  0.648886  1
  Zr  Zr1  1  0.646737  0.054041  0.649611  1
  Zr  Zr2  1  0.646737  0.649611  0.054041  1
  Zr  Zr3  1  0.646737  0.649611  0.649611  1
  Zr  Zr4  1  0.798636  0.807659  0.196853  1
  Zr  Zr5  1  0.199026  0.199760  0.800607  1
  Zr  Zr6  1  0.798636  0.196853  0.807659  1
  Zr  Zr7  1  0.199026  0.800607  0.199760  1
  Zr  Zr8  1  0.199026  0.800607  0.800607  1
  Zr  Zr9  1  0.798636  0.196853  0.196853  1
  Zr  Zr10  1  0.438490  0.437529  0.061991  1
  Zr  Zr11  1  0.073670  0.051216  0.437557  1
  Zr  Zr12  1  0.438490  0.061991  0.437529  1
  Zr  Zr13  1  0.073670  0.437557  0.051216  1
  Zr  Zr14  1  0.073670  0.437557  0.437557  1
  Zr  Zr15  1  0.438490  0.061991  0.061991  1
  Zn  Zn16  1  0.730632  0.423123  0.423123  1
  Fe  Fe17  1  0.419441  0.860186  0.860186  1
  Fe  Fe18  1  0.860054  0.418513  0.860717  1
  Fe  Fe19  1  0.860054  0.860717  0.418513  1
  Fe  Fe20  1  0.860054  0.860717  0.860717  1
  Os  Os21  1  0.415584  0.746699  0.418859  1
  Os  Os22  1  0.415584  0.418859  0.746699  1
  Os  Os23  1  0.415584  0.418859  0.418859  1
