# generated using pymatgen
data_LaYb2(LuSi2)2
_symmetry_space_group_name_H-M   'P 1'
_cell_length_a   7.36199400
_cell_length_b   7.82168200
_cell_length_c   14.88837000
_cell_angle_alpha   90.00000000
_cell_angle_beta   90.00000000
_cell_angle_gamma   90.00000000
_symmetry_Int_Tables_number   1
_chemical_formula_structural   LaYb2(LuSi2)2
_chemical_formula_sum   'La4 Yb8 Lu8 Si16'
_cell_volume   857.31962938
_cell_formula_units_Z   4
loop_
 _symmetry_equiv_pos_site_id
 _symmetry_equiv_pos_as_xyz
  1  'x, y, z'
loop_
 _atom_site_type_symbol
 _atom_site_label
 _atom_site_symmetry_multiplicity
 _atom_site_fract_x
 _atom_site_fract_y
 _atom_site_fract_z
 _atom_site_occupancy
  La  La0  1  0.977999  0.819028  0.404020  1
  La  La1  1  0.477999  0.680972  0.095980  1
  La  La2  1  0.522001  0.319028  0.595980  1
  La  La3  1  0.022001  0.180972  0.904020  1
  Yb  Yb4  1  0.022253  0.179704  0.596154  1
  Yb  Yb5  1  0.522253  0.320296  0.903846  1
  Yb  Yb6  1  0.477747  0.679704  0.403846  1
  Yb  Yb7  1  0.977747  0.820296  0.096154  1
  Yb  Yb8  1  0.347079  0.017253  0.748982  1
  Yb  Yb9  1  0.847079  0.482747  0.751018  1
  Yb  Yb10  1  0.152921  0.517253  0.251018  1
  Yb  Yb11  1  0.652921  0.982747  0.248982  1
  Lu  Lu12  1  0.319417  0.180191  0.121489  1
  Lu  Lu13  1  0.819417  0.319809  0.378511  1
  Lu  Lu14  1  0.180583  0.680191  0.878511  1
  Lu  Lu15  1  0.680583  0.819809  0.621489  1
  Lu  Lu16  1  0.317919  0.178797  0.376678  1
  Lu  Lu17  1  0.817919  0.321203  0.123322  1
  Lu  Lu18  1  0.182081  0.678797  0.623322  1
  Lu  Lu19  1  0.682081  0.821203  0.876678  1
  Si  Si20  1  0.854320  0.530677  0.537156  1
  Si  Si21  1  0.354320  0.969323  0.962844  1
  Si  Si22  1  0.645680  0.030677  0.462844  1
  Si  Si23  1  0.145680  0.469323  0.037156  1
  Si  Si24  1  0.149151  0.466249  0.463977  1
  Si  Si25  1  0.649151  0.033751  0.036023  1
  Si  Si26  1  0.350849  0.966249  0.536023  1
  Si  Si27  1  0.850849  0.533751  0.963977  1
  Si  Si28  1  0.971859  0.880159  0.750292  1
  Si  Si29  1  0.471859  0.619841  0.749708  1
  Si  Si30  1  0.528141  0.380159  0.249708  1
  Si  Si31  1  0.028141  0.119841  0.250292  1
  Si  Si32  1  0.241085  0.395516  0.752253  1
  Si  Si33  1  0.741085  0.104484  0.747747  1
  Si  Si34  1  0.258915  0.895516  0.247747  1
  Si  Si35  1  0.758915  0.604484  0.252253  1
