# generated using pymatgen
data_SmHf2Zr(Al3Rh)6
_symmetry_space_group_name_H-M   'P 1'
_cell_length_a   7.49331808
_cell_length_b   7.48216343
_cell_length_c   9.32091600
_cell_angle_alpha   90.00000000
_cell_angle_beta   90.00000000
_cell_angle_gamma   119.69698688
_symmetry_Int_Tables_number   1
_chemical_formula_structural   SmHf2Zr(Al3Rh)6
_chemical_formula_sum   'Sm1 Hf2 Zr1 Al18 Rh6'
_cell_volume   453.95056445
_cell_formula_units_Z   1
loop_
 _symmetry_equiv_pos_site_id
 _symmetry_equiv_pos_as_xyz
  1  'x, y, z'
loop_
 _atom_site_type_symbol
 _atom_site_label
 _atom_site_symmetry_multiplicity
 _atom_site_fract_x
 _atom_site_fract_y
 _atom_site_fract_z
 _atom_site_occupancy
  Sm  Sm0  1  0.329238  0.006554  0.750000  1
  Hf  Hf1  1  0.993694  0.671919  0.250000  1
  Hf  Hf2  1  0.672300  0.994377  0.250000  1
  Zr  Zr3  1  0.005750  0.329241  0.750000  1
  Al  Al4  1  0.121268  0.123034  0.250000  1
  Al  Al5  1  0.870565  0.875347  0.750000  1
  Al  Al6  1  0.996390  0.334840  0.078665  1
  Al  Al7  1  0.999323  0.661769  0.927990  1
  Al  Al8  1  0.999323  0.661769  0.572010  1
  Al  Al9  1  0.335244  0.996926  0.416779  1
  Al  Al10  1  0.996390  0.334840  0.421335  1
  Al  Al11  1  0.668843  0.002359  0.571975  1
  Al  Al12  1  0.668843  0.002359  0.928025  1
  Al  Al13  1  0.335244  0.996926  0.083221  1
  Al  Al14  1  0.331176  0.334381  0.550922  1
  Al  Al15  1  0.669208  0.669222  0.438553  1
  Al  Al16  1  0.669208  0.669222  0.061447  1
  Al  Al17  1  0.331176  0.334381  0.949078  1
  Al  Al18  1  0.338176  0.554457  0.250000  1
  Al  Al19  1  0.667813  0.452859  0.750000  1
  Al  Al20  1  0.556194  0.339874  0.250000  1
  Al  Al21  1  0.445580  0.654679  0.750000  1
  Rh  Rh22  1  0.673298  0.328206  0.002653  1
  Rh  Rh23  1  0.328203  0.673389  0.002984  1
  Rh  Rh24  1  0.328203  0.673389  0.497016  1
  Rh  Rh25  1  0.673298  0.328206  0.497347  1
  Rh  Rh26  1  0.998026  0.997735  0.003164  1
  Rh  Rh27  1  0.998026  0.997735  0.496836  1
