# generated using pymatgen
data_Sm5Tm3Sc12Si15Se
_symmetry_space_group_name_H-M   'P 1'
_cell_length_a   7.19791889
_cell_length_b   7.38055207
_cell_length_c   14.03231083
_cell_angle_alpha   89.85321566
_cell_angle_beta   88.25497071
_cell_angle_gamma   90.09958745
_symmetry_Int_Tables_number   1
_chemical_formula_structural   Sm5Tm3Sc12Si15Se
_chemical_formula_sum   'Sm5 Tm3 Sc12 Si15 Se1'
_cell_volume   745.11172079
_cell_formula_units_Z   1
loop_
 _symmetry_equiv_pos_site_id
 _symmetry_equiv_pos_as_xyz
  1  'x, y, z'
loop_
 _atom_site_type_symbol
 _atom_site_label
 _atom_site_symmetry_multiplicity
 _atom_site_fract_x
 _atom_site_fract_y
 _atom_site_fract_z
 _atom_site_occupancy
  Sm  Sm0  1  0.009059  0.174193  0.098021  1
  Sm  Sm1  1  0.991360  0.827416  0.901446  1
  Sm  Sm2  1  0.491368  0.673630  0.903392  1
  Sm  Sm3  1  0.999760  0.824224  0.595121  1
  Sm  Sm4  1  0.508783  0.326829  0.098198  1
  Tm  Tm5  1  0.993538  0.174328  0.400793  1
  Tm  Tm6  1  0.499234  0.315528  0.400236  1
  Tm  Tm7  1  0.511329  0.682719  0.598560  1
  Sc  Sc8  1  0.170530  0.500002  0.751587  1
  Sc  Sc9  1  0.829252  0.499001  0.254689  1
  Sc  Sc10  1  0.327993  0.999189  0.253497  1
  Sc  Sc11  1  0.671987  0.000697  0.747627  1
  Sc  Sc12  1  0.353022  0.166437  0.625243  1
  Sc  Sc13  1  0.649496  0.829513  0.375446  1
  Sc  Sc14  1  0.148022  0.669162  0.377987  1
  Sc  Sc15  1  0.664270  0.824118  0.127098  1
  Sc  Sc16  1  0.845793  0.332503  0.620161  1
  Sc  Sc17  1  0.335306  0.175553  0.872858  1
  Sc  Sc18  1  0.835558  0.324474  0.873377  1
  Sc  Sc19  1  0.164416  0.675628  0.126982  1
  Si  Si20  1  0.044878  0.123181  0.747081  1
  Si  Si21  1  0.955128  0.879836  0.251535  1
  Si  Si22  1  0.453236  0.617749  0.251486  1
  Si  Si23  1  0.545012  0.382769  0.747938  1
  Si  Si24  1  0.297841  0.872535  0.748544  1
  Si  Si25  1  0.705023  0.125439  0.251370  1
  Si  Si26  1  0.203878  0.373452  0.253035  1
  Si  Si27  1  0.795923  0.624546  0.748708  1
  Si  Si28  1  0.797173  0.536643  0.456292  1
  Si  Si29  1  0.317307  0.963229  0.458597  1
  Si  Si30  1  0.844849  0.536681  0.039393  1
  Si  Si31  1  0.679592  0.042161  0.539683  1
  Si  Si32  1  0.153859  0.464819  0.960404  1
  Si  Si33  1  0.654461  0.036782  0.960067  1
  Si  Si34  1  0.345021  0.964400  0.040018  1
  Se  Se35  1  0.206742  0.460631  0.543526  1
