# generated using pymatgen
data_Nd4AsBr6
_symmetry_space_group_name_H-M   'P 1'
_cell_length_a   4.24849700
_cell_length_b   13.53915400
_cell_length_c   14.50063500
_cell_angle_alpha   90.00000000
_cell_angle_beta   90.00000000
_cell_angle_gamma   90.00000000
_symmetry_Int_Tables_number   1
_chemical_formula_structural   Nd4AsBr6
_chemical_formula_sum   'Nd8 As2 Br12'
_cell_volume   834.09182557
_cell_formula_units_Z   2
loop_
 _symmetry_equiv_pos_site_id
 _symmetry_equiv_pos_as_xyz
  1  'x, y, z'
loop_
 _atom_site_type_symbol
 _atom_site_label
 _atom_site_symmetry_multiplicity
 _atom_site_fract_x
 _atom_site_fract_y
 _atom_site_fract_z
 _atom_site_occupancy
  Nd  Nd0  1  0.500000  0.119552  0.339996  1
  Nd  Nd1  1  0.500000  0.880448  0.660004  1
  Nd  Nd2  1  0.500000  0.619552  0.160004  1
  Nd  Nd3  1  0.500000  0.380448  0.839996  1
  Nd  Nd4  1  0.000000  0.117673  0.578364  1
  Nd  Nd5  1  0.000000  0.882327  0.421636  1
  Nd  Nd6  1  0.000000  0.617673  0.921636  1
  Nd  Nd7  1  0.000000  0.382327  0.078364  1
  As  As8  1  0.500000  0.000000  0.500000  1
  As  As9  1  0.500000  0.500000  0.000000  1
  Br  Br10  1  0.500000  0.243750  0.161724  1
  Br  Br11  1  0.500000  0.756250  0.838276  1
  Br  Br12  1  0.500000  0.743750  0.338276  1
  Br  Br13  1  0.500000  0.256250  0.661724  1
  Br  Br14  1  0.000000  0.255435  0.411527  1
  Br  Br15  1  0.000000  0.744565  0.588473  1
  Br  Br16  1  0.000000  0.755435  0.088473  1
  Br  Br17  1  0.000000  0.244565  0.911527  1
  Br  Br18  1  0.000000  0.001801  0.243422  1
  Br  Br19  1  0.000000  0.998199  0.756578  1
  Br  Br20  1  0.000000  0.501801  0.256578  1
  Br  Br21  1  0.000000  0.498199  0.743422  1
