# generated using pymatgen
data_La10Mg3AlRu6
_symmetry_space_group_name_H-M   'P 1'
_cell_length_a   8.72516430
_cell_length_b   8.74376829
_cell_length_c   8.72516523
_cell_angle_alpha   109.51442233
_cell_angle_beta   109.42799112
_cell_angle_gamma   109.51441978
_symmetry_Int_Tables_number   1
_chemical_formula_structural   La10Mg3AlRu6
_chemical_formula_sum   'La10 Mg3 Al1 Ru6'
_cell_volume   512.14409695
_cell_formula_units_Z   1
loop_
 _symmetry_equiv_pos_site_id
 _symmetry_equiv_pos_as_xyz
  1  'x, y, z'
loop_
 _atom_site_type_symbol
 _atom_site_label
 _atom_site_symmetry_multiplicity
 _atom_site_fract_x
 _atom_site_fract_y
 _atom_site_fract_z
 _atom_site_occupancy
  La  La0  1  0.245525  0.684302  0.437784  1
  La  La1  1  0.752813  0.817869  0.072812  1
  La  La2  1  0.427189  0.245057  0.680001  1
  La  La3  1  0.692259  0.438779  0.254475  1
  La  La4  1  0.062217  0.746519  0.807741  1
  La  La5  1  0.819999  0.065057  0.747187  1
  La  La6  1  0.206692  0.208536  0.207084  1
  La  La7  1  0.500393  0.001843  0.293308  1
  La  La8  1  0.292916  0.501453  0.999608  1
  La  La9  1  0.000000  0.284531  0.500001  1
  Mg  Mg10  1  0.500528  0.000861  0.910879  1
  Mg  Mg11  1  0.589121  0.589982  0.589649  1
  Mg  Mg12  1  0.910351  0.500334  0.999473  1
  Al  Al13  1  0.000000  0.909992  0.500001  1
  Ru  Ru14  1  0.237925  0.123232  0.861406  1
  Ru  Ru15  1  0.747291  0.364906  0.612907  1
  Ru  Ru16  1  0.887092  0.252001  0.134384  1
  Ru  Ru17  1  0.123483  0.885308  0.262077  1
  Ru  Ru18  1  0.638593  0.761825  0.376516  1
  Ru  Ru19  1  0.365615  0.617615  0.752709  1
