# generated using pymatgen
data_Sm2NiB8Ru7
_symmetry_space_group_name_H-M   'P 1'
_cell_length_a   9.22553614
_cell_length_b   7.48811694
_cell_length_c   7.49253455
_cell_angle_alpha   90.01918722
_cell_angle_beta   113.98568798
_cell_angle_gamma   114.53585046
_symmetry_Int_Tables_number   1
_chemical_formula_structural   Sm2NiB8Ru7
_chemical_formula_sum   'Sm4 Ni2 B16 Ru14'
_cell_volume   421.19756630
_cell_formula_units_Z   2
loop_
 _symmetry_equiv_pos_site_id
 _symmetry_equiv_pos_as_xyz
  1  'x, y, z'
loop_
 _atom_site_type_symbol
 _atom_site_label
 _atom_site_symmetry_multiplicity
 _atom_site_fract_x
 _atom_site_fract_y
 _atom_site_fract_z
 _atom_site_occupancy
  Sm  Sm0  1  0.749704  0.875677  0.123453  1
  Sm  Sm1  1  0.248383  0.625470  0.371039  1
  Sm  Sm2  1  0.747823  0.374824  0.629062  1
  Sm  Sm3  1  0.248297  0.117826  0.874807  1
  Ni  Ni4  1  0.878199  0.549909  0.042777  1
  Ni  Ni5  1  0.375917  0.836583  0.050275  1
  B  B6  1  0.916327  0.288758  0.072208  1
  B  B7  1  0.417568  0.563235  0.126457  1
  B  B8  1  0.087071  0.210105  0.150430  1
  B  B9  1  0.583173  0.151641  0.206077  1
  B  B10  1  0.407234  0.056277  0.284352  1
  B  B11  1  0.917799  0.627279  0.358216  1
  B  B12  1  0.586602  0.647649  0.375033  1
  B  B13  1  0.087625  0.878681  0.443139  1
  B  B14  1  0.911373  0.123786  0.557900  1
  B  B15  1  0.413024  0.351085  0.622613  1
  B  B16  1  0.087842  0.376734  0.654574  1
  B  B17  1  0.587360  0.939624  0.707489  1
  B  B18  1  0.416666  0.849258  0.788793  1
  B  B19  1  0.908553  0.788234  0.848823  1
  B  B20  1  0.585738  0.435636  0.875336  1
  B  B21  1  0.081006  0.706155  0.934499  1
  Ru  Ru22  1  0.116595  0.938442  0.164658  1
  Ru  Ru23  1  0.632138  0.462098  0.176159  1
  Ru  Ru24  1  0.372751  0.329474  0.317288  1
  Ru  Ru25  1  0.873122  0.325227  0.335083  1
  Ru  Ru26  1  0.621519  0.956334  0.438600  1
  Ru  Ru27  1  0.126902  0.179558  0.458523  1
  Ru  Ru28  1  0.872809  0.821433  0.540374  1
  Ru  Ru29  1  0.373679  0.040057  0.551080  1
  Ru  Ru30  1  0.132792  0.681260  0.675992  1
  Ru  Ru31  1  0.621222  0.667497  0.673776  1
  Ru  Ru32  1  0.375685  0.541721  0.827530  1
  Ru  Ru33  1  0.873235  0.055542  0.830484  1
  Ru  Ru34  1  0.632848  0.173274  0.949615  1
  Ru  Ru35  1  0.131421  0.453662  0.963488  1
