# generated using pymatgen
data_HoAgAuO4
_symmetry_space_group_name_H-M   'P 1'
_cell_length_a   6.53338735
_cell_length_b   6.53338755
_cell_length_c   6.67955421
_cell_angle_alpha   126.63103075
_cell_angle_beta   124.86914079
_cell_angle_gamma   78.78436256
_symmetry_Int_Tables_number   1
_chemical_formula_structural   HoAgAuO4
_chemical_formula_sum   'Ho2 Ag2 Au2 O8'
_cell_volume   183.01252962
_cell_formula_units_Z   2
loop_
 _symmetry_equiv_pos_site_id
 _symmetry_equiv_pos_as_xyz
  1  'x, y, z'
loop_
 _atom_site_type_symbol
 _atom_site_label
 _atom_site_symmetry_multiplicity
 _atom_site_fract_x
 _atom_site_fract_y
 _atom_site_fract_z
 _atom_site_occupancy
  Ho  Ho0  1  0.749792  0.249792  0.500000  1
  Ho  Ho1  1  0.000208  0.000208  0.000000  1
  Ag  Ag2  1  0.375000  0.625000  0.250000  1
  Ag  Ag3  1  0.375000  0.125000  0.750000  1
  Au  Au4  1  0.375000  0.625000  0.750000  1
  Au  Au5  1  0.875000  0.625000  0.250000  1
  O  O6  1  0.125501  0.593536  0.827611  1
  O  O7  1  0.765924  0.297891  0.172389  1
  O  O8  1  0.365827  0.009123  0.994920  1
  O  O9  1  0.735797  0.879094  0.494920  1
  O  O10  1  0.014203  0.370906  0.005080  1
  O  O11  1  0.384173  0.240877  0.505080  1
  O  O12  1  0.984076  0.952109  0.327611  1
  O  O13  1  0.624499  0.656464  0.672389  1
