# generated using pymatgen
data_DyHo(GaBr)2
_symmetry_space_group_name_H-M   'P 1'
_cell_length_a   4.11810200
_cell_length_b   4.11810118
_cell_length_c   11.44593700
_cell_angle_alpha   90.00000000
_cell_angle_beta   90.00000000
_cell_angle_gamma   120.00000659
_symmetry_Int_Tables_number   1
_chemical_formula_structural   DyHo(GaBr)2
_chemical_formula_sum   'Dy1 Ho1 Ga2 Br2'
_cell_volume   168.10323306
_cell_formula_units_Z   1
loop_
 _symmetry_equiv_pos_site_id
 _symmetry_equiv_pos_as_xyz
  1  'x, y, z'
loop_
 _atom_site_type_symbol
 _atom_site_label
 _atom_site_symmetry_multiplicity
 _atom_site_fract_x
 _atom_site_fract_y
 _atom_site_fract_z
 _atom_site_occupancy
  Dy  Dy0  1  0.000000  0.000000  0.322012  1
  Ho  Ho1  1  0.000000  0.000000  0.677990  1
  Ga  Ga2  1  0.333333  0.666666  0.468900  1
  Ga  Ga3  1  0.666667  0.333334  0.531468  1
  Br  Br4  1  0.666667  0.333334  0.167660  1
  Br  Br5  1  0.333333  0.666666  0.831974  1
