# generated using pymatgen
data_Ho7ErSc12Si15Ru
_symmetry_space_group_name_H-M   'P 1'
_cell_length_a   7.05473930
_cell_length_b   7.42859742
_cell_length_c   13.90928507
_cell_angle_alpha   89.98893171
_cell_angle_beta   90.00109038
_cell_angle_gamma   90.18565922
_symmetry_Int_Tables_number   1
_chemical_formula_structural   Ho7ErSc12Si15Ru
_chemical_formula_sum   'Ho7 Er1 Sc12 Si15 Ru1'
_cell_volume   728.93753271
_cell_formula_units_Z   1
loop_
 _symmetry_equiv_pos_site_id
 _symmetry_equiv_pos_as_xyz
  1  'x, y, z'
loop_
 _atom_site_type_symbol
 _atom_site_label
 _atom_site_symmetry_multiplicity
 _atom_site_fract_x
 _atom_site_fract_y
 _atom_site_fract_z
 _atom_site_occupancy
  Ho  Ho0  1  0.011075  0.179037  0.095780  1
  Ho  Ho1  1  0.991542  0.826814  0.904667  1
  Ho  Ho2  1  0.489289  0.677199  0.904605  1
  Ho  Ho3  1  0.991542  0.826763  0.595324  1
  Ho  Ho4  1  0.510858  0.322241  0.095916  1
  Ho  Ho5  1  0.011125  0.179037  0.404236  1
  Ho  Ho6  1  0.510828  0.322269  0.404142  1
  Er  Er7  1  0.489195  0.677393  0.595420  1
  Sc  Sc8  1  0.157957  0.502689  0.749974  1
  Sc  Sc9  1  0.837856  0.494721  0.249985  1
  Sc  Sc10  1  0.339133  0.005793  0.249996  1
  Sc  Sc11  1  0.670117  0.998154  0.749964  1
  Sc  Sc12  1  0.316574  0.171887  0.628019  1
  Sc  Sc13  1  0.671431  0.825477  0.374104  1
  Sc  Sc14  1  0.171090  0.677928  0.374177  1
  Sc  Sc15  1  0.671545  0.825559  0.125933  1
  Sc  Sc16  1  0.837785  0.319756  0.627699  1
  Sc  Sc17  1  0.316552  0.171861  0.871960  1
  Sc  Sc18  1  0.837797  0.319735  0.872299  1
  Sc  Sc19  1  0.171033  0.677895  0.125855  1
  Si  Si20  1  0.968576  0.885960  0.249998  1
  Si  Si21  1  0.469048  0.613295  0.250009  1
  Si  Si22  1  0.529519  0.389252  0.749925  1
  Si  Si23  1  0.286941  0.866149  0.749882  1
  Si  Si24  1  0.713312  0.130323  0.249996  1
  Si  Si25  1  0.213896  0.370028  0.249999  1
  Si  Si26  1  0.779788  0.628117  0.749878  1
  Si  Si27  1  0.160864  0.468598  0.537458  1
  Si  Si28  1  0.842968  0.535499  0.461657  1
  Si  Si29  1  0.343627  0.965780  0.460394  1
  Si  Si30  1  0.843069  0.535483  0.038382  1
  Si  Si31  1  0.656564  0.034371  0.538772  1
  Si  Si32  1  0.160505  0.468416  0.962622  1
  Si  Si33  1  0.656674  0.034645  0.961288  1
  Si  Si34  1  0.343585  0.965998  0.039676  1
  Ru  Ru35  1  0.026740  0.105875  0.750011  1
