# generated using pymatgen
data_Hf5Zr5Zn2(SnSb)3
_symmetry_space_group_name_H-M   'P 1'
_cell_length_a   8.66227800
_cell_length_b   8.66174470
_cell_length_c   5.83144100
_cell_angle_alpha   90.00000000
_cell_angle_beta   90.00000000
_cell_angle_gamma   120.00203671
_symmetry_Int_Tables_number   1
_chemical_formula_structural   Hf5Zr5Zn2(SnSb)3
_chemical_formula_sum   'Hf5 Zr5 Zn2 Sn3 Sb3'
_cell_volume   378.90915704
_cell_formula_units_Z   1
loop_
 _symmetry_equiv_pos_site_id
 _symmetry_equiv_pos_as_xyz
  1  'x, y, z'
loop_
 _atom_site_type_symbol
 _atom_site_label
 _atom_site_symmetry_multiplicity
 _atom_site_fract_x
 _atom_site_fract_y
 _atom_site_fract_z
 _atom_site_occupancy
  Hf  Hf0  1  0.270424  0.000000  0.250000  1
  Hf  Hf1  1  0.333509  0.666748  0.499521  1
  Hf  Hf2  1  0.666762  0.333252  0.000479  1
  Hf  Hf3  1  0.666762  0.333252  0.499521  1
  Hf  Hf4  1  0.333509  0.666748  0.000479  1
  Zr  Zr5  1  0.729737  0.730981  0.250000  1
  Zr  Zr6  1  0.731640  0.000000  0.750000  1
  Zr  Zr7  1  0.998757  0.269019  0.250000  1
  Zr  Zr8  1  0.999422  0.730762  0.750000  1
  Zr  Zr9  1  0.268658  0.269238  0.750000  1
  Zn  Zn10  1  0.002725  0.000000  0.002145  1
  Zn  Zn11  1  0.002725  0.000000  0.497855  1
  Sn  Sn12  1  0.383852  0.000000  0.750000  1
  Sn  Sn13  1  0.383796  0.382916  0.250000  1
  Sn  Sn14  1  0.000880  0.617084  0.250000  1
  Sb  Sb15  1  0.000494  0.386775  0.750000  1
  Sb  Sb16  1  0.613719  0.613225  0.750000  1
  Sb  Sb17  1  0.612631  0.000000  0.250000  1
