# generated using pymatgen
data_Tb5YbDyRuI12
_symmetry_space_group_name_H-M   'P 1'
_cell_length_a   9.78681020
_cell_length_b   9.88730484
_cell_length_c   9.81580360
_cell_angle_alpha   107.55339860
_cell_angle_beta   106.73760253
_cell_angle_gamma   106.95612916
_symmetry_Int_Tables_number   1
_chemical_formula_structural   Tb5YbDyRuI12
_chemical_formula_sum   'Tb5 Yb1 Dy1 Ru1 I12'
_cell_volume   789.20833139
_cell_formula_units_Z   1
loop_
 _symmetry_equiv_pos_site_id
 _symmetry_equiv_pos_as_xyz
  1  'x, y, z'
loop_
 _atom_site_type_symbol
 _atom_site_label
 _atom_site_symmetry_multiplicity
 _atom_site_fract_x
 _atom_site_fract_y
 _atom_site_fract_z
 _atom_site_occupancy
  Tb  Tb0  1  0.974448  0.904604  0.704306  1
  Tb  Tb1  1  0.705513  0.975082  0.903615  1
  Tb  Tb2  1  0.098866  0.304904  0.024925  1
  Tb  Tb3  1  0.025384  0.094919  0.295544  1
  Tb  Tb4  1  0.294342  0.024733  0.096327  1
  Yb  Yb5  1  0.500009  0.499977  0.500022  1
  Dy  Dy6  1  0.901545  0.696440  0.975155  1
  Ru  Ru7  1  0.999840  0.999812  0.999814  1
  I  I8  1  0.619148  0.846321  0.541551  1
  I  I9  1  0.542161  0.620503  0.847670  1
  I  I10  1  0.847840  0.542411  0.620290  1
  I  I11  1  0.380831  0.153628  0.458405  1
  I  I12  1  0.458856  0.379403  0.152806  1
  I  I13  1  0.152263  0.457553  0.380649  1
  I  I14  1  0.681582  0.073452  0.224340  1
  I  I15  1  0.224401  0.681206  0.073431  1
  I  I16  1  0.073114  0.223481  0.680071  1
  I  I17  1  0.318439  0.926528  0.775675  1
  I  I18  1  0.774735  0.319192  0.926349  1
  I  I19  1  0.926682  0.775851  0.319056  1
