# generated using pymatgen
data_Nd10CuSn3Bi3Se
_symmetry_space_group_name_H-M   'P 1'
_cell_length_a   9.58202300
_cell_length_b   9.58202332
_cell_length_c   6.66523800
_cell_angle_alpha   90.00000000
_cell_angle_beta   90.00000000
_cell_angle_gamma   119.99999543
_symmetry_Int_Tables_number   1
_chemical_formula_structural   Nd10CuSn3Bi3Se
_chemical_formula_sum   'Nd10 Cu1 Sn3 Bi3 Se1'
_cell_volume   529.98154389
_cell_formula_units_Z   1
loop_
 _symmetry_equiv_pos_site_id
 _symmetry_equiv_pos_as_xyz
  1  'x, y, z'
loop_
 _atom_site_type_symbol
 _atom_site_label
 _atom_site_symmetry_multiplicity
 _atom_site_fract_x
 _atom_site_fract_y
 _atom_site_fract_z
 _atom_site_occupancy
  Nd  Nd0  1  0.666667  0.333333  0.995453  1
  Nd  Nd1  1  0.333333  0.666667  0.995453  1
  Nd  Nd2  1  0.333333  0.666667  0.504335  1
  Nd  Nd3  1  0.666667  0.333333  0.504335  1
  Nd  Nd4  1  0.744470  0.744470  0.747847  1
  Nd  Nd5  1  0.255530  0.000000  0.747847  1
  Nd  Nd6  1  0.000000  0.255530  0.747847  1
  Nd  Nd7  1  0.254520  0.254520  0.252116  1
  Nd  Nd8  1  0.745480  0.000000  0.252116  1
  Nd  Nd9  1  0.000000  0.745480  0.252116  1
  Cu  Cu10  1  0.000000  0.000000  0.501285  1
  Sn  Sn11  1  0.386216  0.386216  0.747650  1
  Sn  Sn12  1  0.613784  0.000000  0.747650  1
  Sn  Sn13  1  0.000000  0.613784  0.747650  1
  Bi  Bi14  1  0.612732  0.612732  0.252015  1
  Bi  Bi15  1  0.387268  0.000000  0.252015  1
  Bi  Bi16  1  0.000000  0.387268  0.252015  1
  Se  Se17  1  0.000000  0.000000  0.000253  1
