# generated using pymatgen
data_BaNaSrGaAs3
_symmetry_space_group_name_H-M   'P 1'
_cell_length_a   8.46843360
_cell_length_b   8.46843344
_cell_length_c   12.16215662
_cell_angle_alpha   76.69808121
_cell_angle_beta   76.69808420
_cell_angle_gamma   68.73427456
_symmetry_Int_Tables_number   1
_chemical_formula_structural   BaNaSrGaAs3
_chemical_formula_sum   'Ba4 Na4 Sr4 Ga4 As12'
_cell_volume   780.59727745
_cell_formula_units_Z   4
loop_
 _symmetry_equiv_pos_site_id
 _symmetry_equiv_pos_as_xyz
  1  'x, y, z'
loop_
 _atom_site_type_symbol
 _atom_site_label
 _atom_site_symmetry_multiplicity
 _atom_site_fract_x
 _atom_site_fract_y
 _atom_site_fract_z
 _atom_site_occupancy
  Ba  Ba0  1  0.740471  0.193120  0.688429  1
  Ba  Ba1  1  0.259529  0.806880  0.311571  1
  Ba  Ba2  1  0.193120  0.740471  0.688429  1
  Ba  Ba3  1  0.806880  0.259529  0.311571  1
  Na  Na4  1  0.291275  0.708725  0.000000  1
  Na  Na5  1  0.355215  0.355215  0.228952  1
  Na  Na6  1  0.644785  0.644785  0.771048  1
  Na  Na7  1  0.708725  0.291275  0.000000  1
  Sr  Sr8  1  0.500000  0.000000  0.500000  1
  Sr  Sr9  1  0.000000  0.500000  0.000000  1
  Sr  Sr10  1  0.500000  0.000000  0.000000  1
  Sr  Sr11  1  0.000000  0.500000  0.500000  1
  Ga  Ga12  1  0.695347  0.695347  0.265154  1
  Ga  Ga13  1  0.091188  0.091188  0.879047  1
  Ga  Ga14  1  0.908812  0.908812  0.120953  1
  Ga  Ga15  1  0.304653  0.304653  0.734846  1
  As  As16  1  0.021254  0.605423  0.229796  1
  As  As17  1  0.591286  0.591286  0.124589  1
  As  As18  1  0.978746  0.394577  0.770204  1
  As  As19  1  0.093192  0.093192  0.488551  1
  As  As20  1  0.592178  0.592178  0.488006  1
  As  As21  1  0.905385  0.905385  0.910741  1
  As  As22  1  0.094615  0.094615  0.089259  1
  As  As23  1  0.408714  0.408714  0.875411  1
  As  As24  1  0.605423  0.021254  0.229796  1
  As  As25  1  0.906808  0.906808  0.511449  1
  As  As26  1  0.394577  0.978746  0.770204  1
  As  As27  1  0.407822  0.407822  0.511994  1
