# generated using pymatgen
data_HoSc2Co9(SiB2)2
_symmetry_space_group_name_H-M   'P 1'
_cell_length_a   5.04805702
_cell_length_b   5.04720427
_cell_length_c   9.25695700
_cell_angle_alpha   89.99978087
_cell_angle_beta   90.00003715
_cell_angle_gamma   119.99879989
_symmetry_Int_Tables_number   1
_chemical_formula_structural   HoSc2Co9(SiB2)2
_chemical_formula_sum   'Ho1 Sc2 Co9 Si2 B4'
_cell_volume   204.25808834
_cell_formula_units_Z   1
loop_
 _symmetry_equiv_pos_site_id
 _symmetry_equiv_pos_as_xyz
  1  'x, y, z'
loop_
 _atom_site_type_symbol
 _atom_site_label
 _atom_site_symmetry_multiplicity
 _atom_site_fract_x
 _atom_site_fract_y
 _atom_site_fract_z
 _atom_site_occupancy
  Ho  Ho0  1  0.999987  0.999997  0.000004  1
  Sc  Sc1  1  0.999990  0.999996  0.340731  1
  Sc  Sc2  1  0.000003  0.000004  0.659290  1
  Co  Co3  1  0.499996  0.000001  0.499997  1
  Co  Co4  1  0.499996  0.499999  0.500008  1
  Co  Co5  1  0.999996  0.500000  0.499988  1
  Co  Co6  1  0.499992  0.000002  0.198540  1
  Co  Co7  1  0.499992  0.500000  0.198526  1
  Co  Co8  1  0.999993  0.500002  0.198527  1
  Co  Co9  1  0.499998  0.999999  0.801467  1
  Co  Co10  1  0.499997  0.500000  0.801463  1
  Co  Co11  1  0.999997  0.499999  0.801476  1
  Si  Si12  1  0.333300  0.666660  0.999985  1
  Si  Si13  1  0.666683  0.333341  0.999985  1
  B  B14  1  0.333377  0.666692  0.346296  1
  B  B15  1  0.666610  0.333309  0.346297  1
  B  B16  1  0.666660  0.333336  0.653710  1
  B  B17  1  0.333333  0.666664  0.653710  1
