# generated using pymatgen
data_Pr3Nd2Sn15Rh8
_symmetry_space_group_name_H-M   'P 1'
_cell_length_a   4.54580700
_cell_length_b   7.30902393
_cell_length_c   18.78652821
_cell_angle_alpha   89.88789569
_cell_angle_beta   90.00000000
_cell_angle_gamma   90.00000000
_symmetry_Int_Tables_number   1
_chemical_formula_structural   Pr3Nd2Sn15Rh8
_chemical_formula_sum   'Pr3 Nd2 Sn15 Rh8'
_cell_volume   624.18894753
_cell_formula_units_Z   1
loop_
 _symmetry_equiv_pos_site_id
 _symmetry_equiv_pos_as_xyz
  1  'x, y, z'
loop_
 _atom_site_type_symbol
 _atom_site_label
 _atom_site_symmetry_multiplicity
 _atom_site_fract_x
 _atom_site_fract_y
 _atom_site_fract_z
 _atom_site_occupancy
  Pr  Pr0  1  0.500000  0.001826  0.855856  1
  Pr  Pr1  1  0.500000  0.500424  0.357445  1
  Pr  Pr2  1  0.000000  0.000954  0.143591  1
  Nd  Nd3  1  0.000000  0.500150  0.641669  1
  Nd  Nd4  1  0.500000  0.495488  0.930529  1
  Sn  Sn5  1  0.000000  0.717600  0.806416  1
  Sn  Sn6  1  0.000000  0.779826  0.305313  1
  Sn  Sn7  1  0.500000  0.278128  0.194281  1
  Sn  Sn8  1  0.500000  0.219088  0.693576  1
  Sn  Sn9  1  0.000000  0.853616  0.969702  1
  Sn  Sn10  1  0.000000  0.632453  0.468572  1
  Sn  Sn11  1  0.500000  0.134077  0.031857  1
  Sn  Sn12  1  0.500000  0.366553  0.530687  1
  Sn  Sn13  1  0.000000  0.304686  0.819349  1
  Sn  Sn14  1  0.000000  0.198716  0.317688  1
  Sn  Sn15  1  0.500000  0.697055  0.185048  1
  Sn  Sn16  1  0.500000  0.806101  0.679050  1
  Sn  Sn17  1  0.500000  0.018855  0.432943  1
  Sn  Sn18  1  0.000000  0.511073  0.067513  1
  Sn  Sn19  1  0.000000  0.981572  0.568303  1
  Rh  Rh20  1  0.000000  0.230497  0.965679  1
  Rh  Rh21  1  0.000000  0.247499  0.464526  1
  Rh  Rh22  1  0.500000  0.763970  0.044412  1
  Rh  Rh23  1  0.500000  0.750700  0.533441  1
  Rh  Rh24  1  0.000000  0.018591  0.715764  1
  Rh  Rh25  1  0.000000  0.482848  0.213287  1
  Rh  Rh26  1  0.500000  0.986417  0.288920  1
  Rh  Rh27  1  0.500000  0.521236  0.774584  1
