# generated using pymatgen
data_Ta6Be15(GaCo3)2
_symmetry_space_group_name_H-M   'P 1'
_cell_length_a   7.61048470
_cell_length_b   7.60611221
_cell_length_c   7.60616201
_cell_angle_alpha   59.99705003
_cell_angle_beta   60.01390447
_cell_angle_gamma   60.01251420
_symmetry_Int_Tables_number   1
_chemical_formula_structural   Ta6Be15(GaCo3)2
_chemical_formula_sum   'Ta6 Be15 Ga2 Co6'
_cell_volume   311.38853174
_cell_formula_units_Z   1
loop_
 _symmetry_equiv_pos_site_id
 _symmetry_equiv_pos_as_xyz
  1  'x, y, z'
loop_
 _atom_site_type_symbol
 _atom_site_label
 _atom_site_symmetry_multiplicity
 _atom_site_fract_x
 _atom_site_fract_y
 _atom_site_fract_z
 _atom_site_occupancy
  Ta  Ta0  1  0.715317  0.297022  0.297019  1
  Ta  Ta1  1  0.284670  0.703005  0.702989  1
  Ta  Ta2  1  0.284672  0.702983  0.309364  1
  Ta  Ta3  1  0.715321  0.297021  0.690650  1
  Ta  Ta4  1  0.284652  0.309333  0.703001  1
  Ta  Ta5  1  0.715307  0.690647  0.297029  1
  Be  Be6  1  0.317739  0.332084  0.332114  1
  Be  Be7  1  0.682235  0.667864  0.667903  1
  Be  Be8  1  0.317754  0.332095  0.018036  1
  Be  Be9  1  0.317726  0.018075  0.332105  1
  Be  Be10  1  0.682255  0.667894  0.981960  1
  Be  Be11  1  0.682227  0.982007  0.667906  1
  Be  Be12  1  0.029543  0.323471  0.323504  1
  Be  Be13  1  0.970450  0.676502  0.676547  1
  Be  Be14  1  0.499986  0.000035  0.999993  1
  Be  Be15  1  0.999986  0.499931  0.500029  1
  Be  Be16  1  0.000016  0.499963  0.000018  1
  Be  Be17  1  0.499962  0.000015  0.500011  1
  Be  Be18  1  0.999990  0.000059  0.500008  1
  Be  Be19  1  0.500003  0.499983  0.999987  1
  Be  Be20  1  0.000048  0.000049  0.999919  1
  Ga  Ga21  1  0.638472  0.120503  0.120483  1
  Ga  Ga22  1  0.361460  0.879532  0.879504  1
  Co  Co23  1  0.124907  0.120541  0.120544  1
  Co  Co24  1  0.875164  0.879435  0.879446  1
  Co  Co25  1  0.124900  0.120557  0.633984  1
  Co  Co26  1  0.124903  0.633989  0.120550  1
  Co  Co27  1  0.875164  0.879446  0.365950  1
  Co  Co28  1  0.875170  0.365961  0.879446  1
