# generated using pymatgen
data_Ba3LaSb3
_symmetry_space_group_name_H-M   'P 1'
_cell_length_a   9.02784309
_cell_length_b   8.93756895
_cell_length_c   9.02784269
_cell_angle_alpha   108.99973563
_cell_angle_beta   109.91439424
_cell_angle_gamma   109.90615072
_symmetry_Int_Tables_number   1
_chemical_formula_structural   Ba3LaSb3
_chemical_formula_sum   'Ba6 La2 Sb6'
_cell_volume   557.87835359
_cell_formula_units_Z   2
loop_
 _symmetry_equiv_pos_site_id
 _symmetry_equiv_pos_as_xyz
  1  'x, y, z'
loop_
 _atom_site_type_symbol
 _atom_site_label
 _atom_site_symmetry_multiplicity
 _atom_site_fract_x
 _atom_site_fract_y
 _atom_site_fract_z
 _atom_site_occupancy
  Ba  Ba0  1  0.644134  0.500346  0.000321  1
  Ba  Ba1  1  0.499975  0.999654  0.643788  1
  Ba  Ba2  1  0.999561  0.641949  0.499332  1
  Ba  Ba3  1  0.857383  0.858051  0.857612  1
  Ba  Ba4  1  0.497698  0.998357  0.136836  1
  Ba  Ba5  1  0.138479  0.501643  0.999341  1
  La  La6  1  0.000253  0.132926  0.499233  1
  La  La7  1  0.366307  0.367074  0.367328  1
  Sb  Sb8  1  0.897121  0.250000  0.147121  1
  Sb  Sb9  1  0.627381  0.750000  0.377381  1
  Sb  Sb10  1  0.241904  0.133484  0.872063  1
  Sb  Sb11  1  0.738579  0.366516  0.608420  1
  Sb  Sb12  1  0.130224  0.907337  0.268336  1
  Sb  Sb13  1  0.361000  0.592663  0.722887  1
