# generated using pymatgen
data_Zr6Zn21CuGeAu
_symmetry_space_group_name_H-M   'P 1'
_cell_length_a   8.77926025
_cell_length_b   8.82499964
_cell_length_c   8.77925781
_cell_angle_alpha   59.82750146
_cell_angle_beta   60.17409738
_cell_angle_gamma   59.82743909
_symmetry_Int_Tables_number   1
_chemical_formula_structural   Zr6Zn21CuGeAu
_chemical_formula_sum   'Zr6 Zn21 Cu1 Ge1 Au1'
_cell_volume   480.33373820
_cell_formula_units_Z   1
loop_
 _symmetry_equiv_pos_site_id
 _symmetry_equiv_pos_as_xyz
  1  'x, y, z'
loop_
 _atom_site_type_symbol
 _atom_site_label
 _atom_site_symmetry_multiplicity
 _atom_site_fract_x
 _atom_site_fract_y
 _atom_site_fract_z
 _atom_site_occupancy
  Zr  Zr0  1  0.715431  0.286433  0.284577  1
  Zr  Zr1  1  0.284569  0.713567  0.715423  1
  Zr  Zr2  1  0.282761  0.717244  0.282762  1
  Zr  Zr3  1  0.717239  0.282756  0.717238  1
  Zr  Zr4  1  0.284577  0.286434  0.715431  1
  Zr  Zr5  1  0.715423  0.713566  0.284569  1
  Zn  Zn6  1  0.125601  0.125986  0.125600  1
  Zn  Zn7  1  0.874399  0.874014  0.874400  1
  Zn  Zn8  1  0.133857  0.121877  0.622393  1
  Zn  Zn9  1  0.125598  0.622818  0.125599  1
  Zn  Zn10  1  0.866143  0.878123  0.377607  1
  Zn  Zn11  1  0.874402  0.377182  0.874401  1
  Zn  Zn12  1  0.622393  0.121877  0.133857  1
  Zn  Zn13  1  0.377607  0.878123  0.866143  1
  Zn  Zn14  1  0.500000  0.000000  0.000000  1
  Zn  Zn15  1  0.000000  0.500000  0.500000  1
  Zn  Zn16  1  0.000000  0.500000  0.000000  1
  Zn  Zn17  1  0.000000  0.000000  0.500000  1
  Zn  Zn18  1  0.500000  0.500000  0.000000  1
  Zn  Zn19  1  0.341719  0.335007  0.341719  1
  Zn  Zn20  1  0.658281  0.664993  0.658281  1
  Zn  Zn21  1  0.340667  0.337942  0.983456  1
  Zn  Zn22  1  0.341715  0.981571  0.341716  1
  Zn  Zn23  1  0.659333  0.662058  0.016544  1
  Zn  Zn24  1  0.658285  0.018429  0.658284  1
  Zn  Zn25  1  0.983456  0.337941  0.340667  1
  Zn  Zn26  1  0.016544  0.662059  0.659333  1
  Cu  Cu27  1  0.500000  0.000000  0.500000  1
  Ge  Ge28  1  0.500000  0.500000  0.500000  1
  Au  Au29  1  0.000000  0.000000  0.000000  1
