# generated using pymatgen
data_Ho5Er3B24IrRu3
_symmetry_space_group_name_H-M   'P 1'
_cell_length_a   3.64117600
_cell_length_b   9.11668453
_cell_length_c   11.46767201
_cell_angle_alpha   90.04529773
_cell_angle_beta   90.00000000
_cell_angle_gamma   90.00000000
_symmetry_Int_Tables_number   1
_chemical_formula_structural   Ho5Er3B24IrRu3
_chemical_formula_sum   'Ho5 Er3 B24 Ir1 Ru3'
_cell_volume   380.67444738
_cell_formula_units_Z   1
loop_
 _symmetry_equiv_pos_site_id
 _symmetry_equiv_pos_as_xyz
  1  'x, y, z'
loop_
 _atom_site_type_symbol
 _atom_site_label
 _atom_site_symmetry_multiplicity
 _atom_site_fract_x
 _atom_site_fract_y
 _atom_site_fract_z
 _atom_site_occupancy
  Ho  Ho0  1  0.000000  0.319108  0.414426  1
  Ho  Ho1  1  0.000000  0.678974  0.589125  1
  Ho  Ho2  1  0.000000  0.823425  0.084117  1
  Ho  Ho3  1  0.000000  0.178660  0.913026  1
  Ho  Ho4  1  0.000000  0.945458  0.373132  1
  Er  Er5  1  0.000000  0.056210  0.627046  1
  Er  Er6  1  0.000000  0.441854  0.125629  1
  Er  Er7  1  0.000000  0.556065  0.873261  1
  B  B8  1  0.500000  0.553400  0.433868  1
  B  B9  1  0.500000  0.446115  0.566936  1
  B  B10  1  0.500000  0.054031  0.066722  1
  B  B11  1  0.500000  0.946432  0.932885  1
  B  B12  1  0.500000  0.749296  0.421247  1
  B  B13  1  0.500000  0.251379  0.580006  1
  B  B14  1  0.500000  0.248108  0.079761  1
  B  B15  1  0.500000  0.751955  0.920075  1
  B  B16  1  0.500000  0.791837  0.265451  1
  B  B17  1  0.500000  0.208853  0.733706  1
  B  B18  1  0.500000  0.291403  0.234137  1
  B  B19  1  0.500000  0.708659  0.766322  1
  B  B20  1  0.500000  0.631714  0.183647  1
  B  B21  1  0.500000  0.368645  0.814837  1
  B  B22  1  0.500000  0.131693  0.315020  1
  B  B23  1  0.500000  0.868341  0.685249  1
  B  B24  1  0.500000  0.983009  0.212706  1
  B  B25  1  0.500000  0.017204  0.786827  1
  B  B26  1  0.500000  0.481681  0.286866  1
  B  B27  1  0.500000  0.517146  0.713224  1
  B  B28  1  0.500000  0.609130  0.030342  1
  B  B29  1  0.500000  0.390942  0.969963  1
  B  B30  1  0.500000  0.108773  0.470225  1
  B  B31  1  0.500000  0.890645  0.529964  1
  Ir  Ir32  1  0.000000  0.637025  0.321634  1
  Ru  Ru33  1  0.000000  0.362502  0.678552  1
  Ru  Ru34  1  0.000000  0.138146  0.179021  1
  Ru  Ru35  1  0.000000  0.862181  0.821042  1
