# generated using pymatgen
data_Cs3Er(IO3)6
_symmetry_space_group_name_H-M   'P 1'
_cell_length_a   7.43519168
_cell_length_b   7.42478080
_cell_length_c   11.24504082
_cell_angle_alpha   87.70045273
_cell_angle_beta   107.63814544
_cell_angle_gamma   107.45014487
_symmetry_Int_Tables_number   1
_chemical_formula_structural   Cs3Er(IO3)6
_chemical_formula_sum   'Cs3 Er1 I6 O18'
_cell_volume   563.48949105
_cell_formula_units_Z   1
loop_
 _symmetry_equiv_pos_site_id
 _symmetry_equiv_pos_as_xyz
  1  'x, y, z'
loop_
 _atom_site_type_symbol
 _atom_site_label
 _atom_site_symmetry_multiplicity
 _atom_site_fract_x
 _atom_site_fract_y
 _atom_site_fract_z
 _atom_site_occupancy
  Cs  Cs0  1  0.000000  0.000000  0.000000  1
  Cs  Cs1  1  0.834835  0.027899  0.600011  1
  Cs  Cs2  1  0.165165  0.972101  0.399989  1
  Er  Er3  1  0.500000  0.500000  0.000000  1
  I  I4  1  0.019163  0.472601  0.190674  1
  I  I5  1  0.980837  0.527399  0.809326  1
  I  I6  1  0.556480  0.950607  0.189831  1
  I  I7  1  0.443520  0.049393  0.810169  1
  I  I8  1  0.421340  0.554120  0.641502  1
  I  I9  1  0.578660  0.445880  0.358498  1
  O  O10  1  0.829509  0.535336  0.057020  1
  O  O11  1  0.170491  0.464664  0.942980  1
  O  O12  1  0.953421  0.548140  0.319263  1
  O  O13  1  0.046579  0.451860  0.680737  1
  O  O14  1  0.916204  0.215353  0.185257  1
  O  O15  1  0.083796  0.784647  0.814743  1
  O  O16  1  0.568719  0.810247  0.059630  1
  O  O17  1  0.431281  0.189753  0.940370  1
  O  O18  1  0.299520  0.844499  0.186792  1
  O  O19  1  0.700480  0.155501  0.813208  1
  O  O20  1  0.688056  0.842069  0.322416  1
  O  O21  1  0.311944  0.157931  0.677584  1
  O  O22  1  0.518688  0.591561  0.814096  1
  O  O23  1  0.481312  0.408439  0.185904  1
  O  O24  1  0.660366  0.569001  0.618919  1
  O  O25  1  0.339634  0.430999  0.381081  1
  O  O26  1  0.411103  0.793644  0.608595  1
  O  O27  1  0.588897  0.206356  0.391405  1
