# generated using pymatgen
data_La12TlCo6
_symmetry_space_group_name_H-M   'P 1'
_cell_length_a   8.80508546
_cell_length_b   8.80508463
_cell_length_c   8.80508500
_cell_angle_alpha   109.47122609
_cell_angle_beta   109.47122418
_cell_angle_gamma   109.47121899
_symmetry_Int_Tables_number   1
_chemical_formula_structural   La12TlCo6
_chemical_formula_sum   'La12 Tl1 Co6'
_cell_volume   525.50727484
_cell_formula_units_Z   1
loop_
 _symmetry_equiv_pos_site_id
 _symmetry_equiv_pos_as_xyz
  1  'x, y, z'
loop_
 _atom_site_type_symbol
 _atom_site_label
 _atom_site_symmetry_multiplicity
 _atom_site_fract_x
 _atom_site_fract_y
 _atom_site_fract_z
 _atom_site_occupancy
  La  La0  1  0.810840  0.687579  0.498418  1
  La  La1  1  0.189160  0.312421  0.501582  1
  La  La2  1  0.189160  0.687579  0.876739  1
  La  La3  1  0.810840  0.312421  0.123261  1
  La  La4  1  0.687579  0.498418  0.810840  1
  La  La5  1  0.312421  0.501582  0.189160  1
  La  La6  1  0.687579  0.876739  0.189160  1
  La  La7  1  0.312421  0.123261  0.810840  1
  La  La8  1  0.498418  0.810840  0.687579  1
  La  La9  1  0.501582  0.189160  0.312421  1
  La  La10  1  0.123261  0.810840  0.312421  1
  La  La11  1  0.876739  0.189160  0.687579  1
  Tl  Tl12  1  0.000000  0.000000  0.000000  1
  Co  Co13  1  0.882456  0.382456  0.500000  1
  Co  Co14  1  0.117544  0.617544  0.500000  1
  Co  Co15  1  0.382456  0.500000  0.882456  1
  Co  Co16  1  0.617544  0.500000  0.117544  1
  Co  Co17  1  0.500000  0.882456  0.382456  1
  Co  Co18  1  0.500000  0.117544  0.617544  1
