# generated using pymatgen
data_Tb2Al17SiNi6
_symmetry_space_group_name_H-M   'P 1'
_cell_length_a   10.06804755
_cell_length_b   10.05778723
_cell_length_c   10.05379589
_cell_angle_alpha   42.21964723
_cell_angle_beta   42.24006478
_cell_angle_gamma   42.20712371
_symmetry_Int_Tables_number   1
_chemical_formula_structural   Tb2Al17SiNi6
_chemical_formula_sum   'Tb2 Al17 Si1 Ni6'
_cell_volume   416.06712146
_cell_formula_units_Z   1
loop_
 _symmetry_equiv_pos_site_id
 _symmetry_equiv_pos_as_xyz
  1  'x, y, z'
loop_
 _atom_site_type_symbol
 _atom_site_label
 _atom_site_symmetry_multiplicity
 _atom_site_fract_x
 _atom_site_fract_y
 _atom_site_fract_z
 _atom_site_occupancy
  Tb  Tb0  1  0.165601  0.170490  0.162853  1
  Tb  Tb1  1  0.836033  0.828340  0.832765  1
  Al  Al2  1  0.432024  0.760998  0.102950  1
  Al  Al3  1  0.567869  0.898139  0.237174  1
  Al  Al4  1  0.946630  0.950441  0.947883  1
  Al  Al5  1  0.050887  0.052881  0.049297  1
  Al  Al6  1  0.292523  0.709298  0.498782  1
  Al  Al7  1  0.897487  0.237412  0.567671  1
  Al  Al8  1  0.379826  0.386021  0.393302  1
  Al  Al9  1  0.501770  0.290626  0.708446  1
  Al  Al10  1  0.240415  0.569918  0.897805  1
  Al  Al11  1  0.719959  0.715415  0.717011  1
  Al  Al12  1  0.615906  0.612883  0.612255  1
  Al  Al13  1  0.335251  0.996273  0.666551  1
  Al  Al14  1  0.706852  0.500094  0.292560  1
  Al  Al15  1  0.662470  0.334756  0.003193  1
  Al  Al16  1  0.280956  0.281353  0.284148  1
  Al  Al17  1  0.998750  0.667872  0.331378  1
  Al  Al18  1  0.761568  0.102650  0.432081  1
  Si  Si19  1  0.107411  0.434433  0.763320  1
  Ni  Ni20  1  0.408007  0.087502  0.758649  1
  Ni  Ni21  1  0.581015  0.243092  0.921298  1
  Ni  Ni22  1  0.078662  0.747946  0.427532  1
  Ni  Ni23  1  0.769329  0.418461  0.068815  1
  Ni  Ni24  1  0.921246  0.581393  0.240965  1
  Ni  Ni25  1  0.241554  0.921313  0.581314  1
