# generated using pymatgen
data_Dy4HoIn4CoNi
_symmetry_space_group_name_H-M   'P 1'
_cell_length_a   3.59205200
_cell_length_b   8.01215101
_cell_length_c   17.94069802
_cell_angle_alpha   90.00603574
_cell_angle_beta   90.00000000
_cell_angle_gamma   90.00000000
_symmetry_Int_Tables_number   1
_chemical_formula_structural   Dy4HoIn4CoNi
_chemical_formula_sum   'Dy8 Ho2 In8 Co2 Ni2'
_cell_volume   516.33441770
_cell_formula_units_Z   2
loop_
 _symmetry_equiv_pos_site_id
 _symmetry_equiv_pos_as_xyz
  1  'x, y, z'
loop_
 _atom_site_type_symbol
 _atom_site_label
 _atom_site_symmetry_multiplicity
 _atom_site_fract_x
 _atom_site_fract_y
 _atom_site_fract_z
 _atom_site_occupancy
  Dy  Dy0  1  0.500000  0.116381  0.089402  1
  Dy  Dy1  1  0.500000  0.759967  0.722498  1
  Dy  Dy2  1  0.500000  0.247116  0.778669  1
  Dy  Dy3  1  0.500000  0.499867  0.999990  1
  Dy  Dy4  1  0.500000  0.739944  0.222455  1
  Dy  Dy5  1  0.500000  0.252963  0.278752  1
  Dy  Dy6  1  0.500000  0.000208  0.499995  1
  Dy  Dy7  1  0.500000  0.615471  0.410206  1
  Ho  Ho8  1  0.500000  0.384046  0.589768  1
  Ho  Ho9  1  0.500000  0.884877  0.909844  1
  In  In10  1  0.000000  0.794386  0.068476  1
  In  In11  1  0.000000  0.927800  0.347555  1
  In  In12  1  0.000000  0.069964  0.651758  1
  In  In13  1  0.000000  0.572884  0.847612  1
  In  In14  1  0.000000  0.704889  0.568713  1
  In  In15  1  0.000000  0.204064  0.930533  1
  In  In16  1  0.000000  0.295092  0.430799  1
  In  In17  1  0.000000  0.430648  0.151860  1
  Co  Co18  1  0.000000  0.979979  0.804862  1
  Co  Co19  1  0.000000  0.519708  0.304669  1
  Ni  Ni20  1  0.000000  0.479959  0.695688  1
  Ni  Ni21  1  0.000000  0.019789  0.195895  1
