# generated using pymatgen
data_TbEr2Cd3Si2Au
_symmetry_space_group_name_H-M   'P 1'
_cell_length_a   7.24716279
_cell_length_b   7.24716259
_cell_length_c   4.32522000
_cell_angle_alpha   90.00000000
_cell_angle_beta   90.00000000
_cell_angle_gamma   120.05338466
_symmetry_Int_Tables_number   1
_chemical_formula_structural   TbEr2Cd3Si2Au
_chemical_formula_sum   'Tb1 Er2 Cd3 Si2 Au1'
_cell_volume   196.62601624
_cell_formula_units_Z   1
loop_
 _symmetry_equiv_pos_site_id
 _symmetry_equiv_pos_as_xyz
  1  'x, y, z'
loop_
 _atom_site_type_symbol
 _atom_site_label
 _atom_site_symmetry_multiplicity
 _atom_site_fract_x
 _atom_site_fract_y
 _atom_site_fract_z
 _atom_site_occupancy
  Tb  Tb0  1  0.416901  0.416901  0.000000  1
  Er  Er1  1  0.583968  0.000311  0.000000  1
  Er  Er2  1  0.000311  0.583968  0.000000  1
  Cd  Cd3  1  0.255474  0.999616  0.500000  1
  Cd  Cd4  1  0.999616  0.255474  0.500000  1
  Cd  Cd5  1  0.744931  0.744931  0.500000  1
  Si  Si6  1  0.332776  0.667453  0.500000  1
  Si  Si7  1  0.667453  0.332776  0.500000  1
  Au  Au8  1  0.998570  0.998570  0.000000  1
