# generated using pymatgen
data_LiEr2Ag3O8
_symmetry_space_group_name_H-M   'P 1'
_cell_length_a   6.60153519
_cell_length_b   6.48164221
_cell_length_c   6.52759022
_cell_angle_alpha   126.40705846
_cell_angle_beta   126.93669734
_cell_angle_gamma   80.45651994
_symmetry_Int_Tables_number   1
_chemical_formula_structural   LiEr2Ag3O8
_chemical_formula_sum   'Li1 Er2 Ag3 O8'
_cell_volume   171.58573396
_cell_formula_units_Z   1
loop_
 _symmetry_equiv_pos_site_id
 _symmetry_equiv_pos_as_xyz
  1  'x, y, z'
loop_
 _atom_site_type_symbol
 _atom_site_label
 _atom_site_symmetry_multiplicity
 _atom_site_fract_x
 _atom_site_fract_y
 _atom_site_fract_z
 _atom_site_occupancy
  Li  Li0  1  0.375000  0.625000  0.750000  1
  Er  Er1  1  0.734492  0.261697  0.498344  1
  Er  Er2  1  0.015508  0.988303  0.001656  1
  Ag  Ag3  1  0.375000  0.625000  0.250000  1
  Ag  Ag4  1  0.875000  0.625000  0.250000  1
  Ag  Ag5  1  0.375000  0.125000  0.750000  1
  O  O6  1  0.124663  0.597055  0.842556  1
  O  O7  1  0.763725  0.285669  0.157958  1
  O  O8  1  0.343552  0.004119  0.959420  1
  O  O9  1  0.708814  0.863833  0.453592  1
  O  O10  1  0.041186  0.386167  0.046408  1
  O  O11  1  0.406448  0.245881  0.540580  1
  O  O12  1  0.986275  0.964331  0.342042  1
  O  O13  1  0.625337  0.652945  0.657444  1
