# generated using pymatgen
data_Tm12ZnNi4Hg
_symmetry_space_group_name_H-M   'P 1'
_cell_length_a   8.18504134
_cell_length_b   8.20163707
_cell_length_c   8.19663246
_cell_angle_alpha   106.42753509
_cell_angle_beta   109.73837413
_cell_angle_gamma   112.39922058
_symmetry_Int_Tables_number   1
_chemical_formula_structural   Tm12ZnNi4Hg
_chemical_formula_sum   'Tm12 Zn1 Ni4 Hg1'
_cell_volume   421.92410768
_cell_formula_units_Z   1
loop_
 _symmetry_equiv_pos_site_id
 _symmetry_equiv_pos_as_xyz
  1  'x, y, z'
loop_
 _atom_site_type_symbol
 _atom_site_label
 _atom_site_symmetry_multiplicity
 _atom_site_fract_x
 _atom_site_fract_y
 _atom_site_fract_z
 _atom_site_occupancy
  Tm  Tm0  1  0.695337  0.266117  0.961339  1
  Tm  Tm1  1  0.304815  0.733883  0.038801  1
  Tm  Tm2  1  0.695456  0.733931  0.429267  1
  Tm  Tm3  1  0.304640  0.265975  0.570724  1
  Tm  Tm4  1  0.805606  0.130527  0.325001  1
  Tm  Tm5  1  0.805625  0.480687  0.675059  1
  Tm  Tm6  1  0.194448  0.869457  0.675078  1
  Tm  Tm7  1  0.194471  0.519339  0.325018  1
  Tm  Tm8  1  0.606449  0.786363  0.820108  1
  Tm  Tm9  1  0.966614  0.786469  0.180012  1
  Tm  Tm10  1  0.033439  0.213503  0.819950  1
  Tm  Tm11  1  0.393552  0.213558  0.179851  1
  Zn  Zn12  1  0.500013  0.499946  0.999954  1
  Ni  Ni13  1  0.851147  0.499926  0.351072  1
  Ni  Ni14  1  0.148803  0.500129  0.649012  1
  Ni  Ni15  1  0.999824  0.123845  0.123659  1
  Ni  Ni16  1  0.999700  0.876372  0.876063  1
  Hg  Hg17  1  0.500064  0.999974  0.500032  1
