# generated using pymatgen
data_Ac8PdAu7
_symmetry_space_group_name_H-M   'P 1'
_cell_length_a   6.49289910
_cell_length_b   6.49289826
_cell_length_c   11.87024210
_cell_angle_alpha   89.98054212
_cell_angle_beta   89.98053626
_cell_angle_gamma   99.64779431
_symmetry_Int_Tables_number   1
_chemical_formula_structural   Ac8PdAu7
_chemical_formula_sum   'Ac8 Pd1 Au7'
_cell_volume   493.34474725
_cell_formula_units_Z   1
loop_
 _symmetry_equiv_pos_site_id
 _symmetry_equiv_pos_as_xyz
  1  'x, y, z'
loop_
 _atom_site_type_symbol
 _atom_site_label
 _atom_site_symmetry_multiplicity
 _atom_site_fract_x
 _atom_site_fract_y
 _atom_site_fract_z
 _atom_site_occupancy
  Ac  Ac0  1  0.375571  0.872627  0.273749  1
  Ac  Ac1  1  0.122145  0.122145  0.006010  1
  Ac  Ac2  1  0.872627  0.375571  0.273749  1
  Ac  Ac3  1  0.127660  0.624256  0.774193  1
  Ac  Ac4  1  0.374453  0.374453  0.505139  1
  Ac  Ac5  1  0.627523  0.627523  0.006109  1
  Ac  Ac6  1  0.624256  0.127660  0.774193  1
  Ac  Ac7  1  0.875738  0.875738  0.497095  1
  Pd  Pd8  1  0.876085  0.876085  0.224909  1
  Au  Au9  1  0.122295  0.122295  0.727146  1
  Au  Au10  1  0.371561  0.371561  0.228874  1
  Au  Au11  1  0.124653  0.624926  0.052142  1
  Au  Au12  1  0.629717  0.629717  0.727470  1
  Au  Au13  1  0.375877  0.874912  0.550537  1
  Au  Au14  1  0.874912  0.375877  0.550537  1
  Au  Au15  1  0.624926  0.124653  0.052142  1
