# generated using pymatgen
data_Pr3Nd2Mg(P2Ru3)6
_symmetry_space_group_name_H-M   'P 1'
_cell_length_a   12.76367903
_cell_length_b   12.60587519
_cell_length_c   4.03043400
_cell_angle_alpha   90.00000000
_cell_angle_beta   90.00000000
_cell_angle_gamma   119.59185720
_symmetry_Int_Tables_number   1
_chemical_formula_structural   Pr3Nd2Mg(P2Ru3)6
_chemical_formula_sum   'Pr3 Nd2 Mg1 P12 Ru18'
_cell_volume   563.90091779
_cell_formula_units_Z   1
loop_
 _symmetry_equiv_pos_site_id
 _symmetry_equiv_pos_as_xyz
  1  'x, y, z'
loop_
 _atom_site_type_symbol
 _atom_site_label
 _atom_site_symmetry_multiplicity
 _atom_site_fract_x
 _atom_site_fract_y
 _atom_site_fract_z
 _atom_site_occupancy
  Pr  Pr0  1  0.000000  0.180777  0.500000  1
  Pr  Pr1  1  0.815759  0.815607  0.500000  1
  Pr  Pr2  1  0.184241  0.999848  0.500000  1
  Nd  Nd3  1  0.660271  0.329252  0.000000  1
  Nd  Nd4  1  0.339729  0.668983  0.000000  1
  Mg  Mg5  1  0.000000  0.561880  0.000000  1
  P  P6  1  0.000000  0.807693  0.000000  1
  P  P7  1  0.186598  0.187072  0.000000  1
  P  P8  1  0.813402  0.000473  0.000000  1
  P  P9  1  0.692205  0.171318  0.500000  1
  P  P10  1  0.818365  0.520300  0.500000  1
  P  P11  1  0.473350  0.305693  0.500000  1
  P  P12  1  0.181635  0.701935  0.500000  1
  P  P13  1  0.526650  0.832343  0.500000  1
  P  P14  1  0.307795  0.479113  0.500000  1
  P  P15  1  0.000000  0.362819  0.000000  1
  P  P16  1  0.622512  0.623657  0.000000  1
  P  P17  1  0.377488  0.001145  0.000000  1
  Ru  Ru18  1  0.443877  0.444884  0.000000  1
  Ru  Ru19  1  0.556123  0.001007  0.000000  1
  Ru  Ru20  1  0.000000  0.712390  0.500000  1
  Ru  Ru21  1  0.283965  0.285994  0.500000  1
  Ru  Ru22  1  0.716035  0.002028  0.500000  1
  Ru  Ru23  1  0.803830  0.184759  0.000000  1
  Ru  Ru24  1  0.813198  0.618156  0.000000  1
  Ru  Ru25  1  0.375620  0.192190  0.000000  1
  Ru  Ru26  1  0.186802  0.804958  0.000000  1
  Ru  Ru27  1  0.624380  0.816570  0.000000  1
  Ru  Ru28  1  0.196170  0.380930  0.000000  1
  Ru  Ru29  1  0.876399  0.366811  0.500000  1
  Ru  Ru30  1  0.629787  0.509721  0.500000  1
  Ru  Ru31  1  0.491608  0.126974  0.500000  1
  Ru  Ru32  1  0.370213  0.879935  0.500000  1
  Ru  Ru33  1  0.508392  0.635366  0.500000  1
  Ru  Ru34  1  0.123601  0.490412  0.500000  1
  Ru  Ru35  1  0.000000  0.997007  0.000000  1
