# generated using pymatgen
data_Zr8Fe2Co5Si14Tc
_symmetry_space_group_name_H-M   'P 1'
_cell_length_a   9.55468463
_cell_length_b   9.54567296
_cell_length_c   9.55076657
_cell_angle_alpha   94.08296347
_cell_angle_beta   94.35042409
_cell_angle_gamma   148.63805518
_symmetry_Int_Tables_number   1
_chemical_formula_structural   Zr8Fe2Co5Si14Tc
_chemical_formula_sum   'Zr8 Fe2 Co5 Si14 Tc1'
_cell_volume   436.25064711
_cell_formula_units_Z   1
loop_
 _symmetry_equiv_pos_site_id
 _symmetry_equiv_pos_as_xyz
  1  'x, y, z'
loop_
 _atom_site_type_symbol
 _atom_site_label
 _atom_site_symmetry_multiplicity
 _atom_site_fract_x
 _atom_site_fract_y
 _atom_site_fract_z
 _atom_site_occupancy
  Zr  Zr0  1  0.137966  0.137598  0.276119  1
  Zr  Zr1  1  0.862366  0.862809  0.725619  1
  Zr  Zr2  1  0.861195  0.137946  0.000912  1
  Zr  Zr3  1  0.138643  0.863054  0.001570  1
  Zr  Zr4  1  0.499552  0.302772  0.802690  1
  Zr  Zr5  1  0.503223  0.698177  0.197439  1
  Zr  Zr6  1  0.695389  0.499654  0.198837  1
  Zr  Zr7  1  0.302665  0.499596  0.803240  1
  Fe  Fe8  1  0.104500  0.603692  0.207202  1
  Fe  Fe9  1  0.102542  0.896553  0.501240  1
  Co  Co10  1  0.400106  0.602576  0.499545  1
  Co  Co11  1  0.599930  0.395392  0.497672  1
  Co  Co12  1  0.898056  0.103426  0.498137  1
  Co  Co13  1  0.895541  0.396880  0.794614  1
  Co  Co14  1  0.602699  0.103760  0.204296  1
  Si  Si15  1  0.510923  0.104152  0.584197  1
  Si  Si16  1  0.499899  0.906710  0.406323  1
  Si  Si17  1  0.914586  0.506851  0.408786  1
  Si  Si18  1  0.073902  0.480040  0.586707  1
  Si  Si19  1  0.749762  0.750405  0.000961  1
  Si  Si20  1  0.250569  0.250243  0.000750  1
  Si  Si21  1  0.286898  0.286271  0.577972  1
  Si  Si22  1  0.714846  0.714105  0.423098  1
  Si  Si23  1  0.723339  0.303897  0.005132  1
  Si  Si24  1  0.281883  0.702174  0.005008  1
  Si  Si25  1  0.002523  0.304870  0.302244  1
  Si  Si26  1  0.983466  0.688993  0.697457  1
  Si  Si27  1  0.708962  0.005196  0.696172  1
  Si  Si28  1  0.298300  0.995990  0.302633  1
  Tc  Tc29  1  0.395770  0.896219  0.793430  1
