# generated using pymatgen
data_Pr2Y4PtRh17
_symmetry_space_group_name_H-M   'P 1'
_cell_length_a   5.32648500
_cell_length_b   5.32648484
_cell_length_c   17.56030200
_cell_angle_alpha   90.00000000
_cell_angle_beta   90.00000000
_cell_angle_gamma   119.99998238
_symmetry_Int_Tables_number   1
_chemical_formula_structural   Pr2Y4PtRh17
_chemical_formula_sum   'Pr2 Y4 Pt1 Rh17'
_cell_volume   431.46353038
_cell_formula_units_Z   1
loop_
 _symmetry_equiv_pos_site_id
 _symmetry_equiv_pos_as_xyz
  1  'x, y, z'
loop_
 _atom_site_type_symbol
 _atom_site_label
 _atom_site_symmetry_multiplicity
 _atom_site_fract_x
 _atom_site_fract_y
 _atom_site_fract_z
 _atom_site_occupancy
  Pr  Pr0  1  0.333333  0.666667  0.751235  1
  Pr  Pr1  1  0.666667  0.333333  0.248765  1
  Y  Y2  1  0.333333  0.666667  0.958895  1
  Y  Y3  1  0.666667  0.333333  0.041105  1
  Y  Y4  1  0.666667  0.333333  0.456938  1
  Y  Y5  1  0.333333  0.666667  0.543062  1
  Pt  Pt6  1  0.000000  0.000000  0.500000  1
  Rh  Rh7  1  0.167577  0.832423  0.373533  1
  Rh  Rh8  1  0.167577  0.335153  0.373533  1
  Rh  Rh9  1  0.664847  0.832423  0.373533  1
  Rh  Rh10  1  0.832423  0.167577  0.626467  1
  Rh  Rh11  1  0.832423  0.664847  0.626467  1
  Rh  Rh12  1  0.335153  0.167577  0.626467  1
  Rh  Rh13  1  0.832743  0.167257  0.875018  1
  Rh  Rh14  1  0.832743  0.665488  0.875018  1
  Rh  Rh15  1  0.334512  0.167257  0.875018  1
  Rh  Rh16  1  0.167257  0.832743  0.124982  1
  Rh  Rh17  1  0.167257  0.334512  0.124982  1
  Rh  Rh18  1  0.665488  0.832743  0.124982  1
  Rh  Rh19  1  0.333333  0.666667  0.249816  1
  Rh  Rh20  1  0.666667  0.333333  0.750184  1
  Rh  Rh21  1  0.000000  0.000000  0.249293  1
  Rh  Rh22  1  0.000000  0.000000  0.750707  1
  Rh  Rh23  1  0.000000  0.000000  0.000000  1
