# generated using pymatgen
data_Nd4AsIO8
_symmetry_space_group_name_H-M   'P 1'
_cell_length_a   8.35836800
_cell_length_b   8.35836800
_cell_length_c   13.27452300
_cell_angle_alpha   90.00000000
_cell_angle_beta   90.00000000
_cell_angle_gamma   90.00000000
_symmetry_Int_Tables_number   1
_chemical_formula_structural   Nd4AsIO8
_chemical_formula_sum   'Nd16 As4 I4 O32'
_cell_volume   927.38891558
_cell_formula_units_Z   4
loop_
 _symmetry_equiv_pos_site_id
 _symmetry_equiv_pos_as_xyz
  1  'x, y, z'
loop_
 _atom_site_type_symbol
 _atom_site_label
 _atom_site_symmetry_multiplicity
 _atom_site_fract_x
 _atom_site_fract_y
 _atom_site_fract_z
 _atom_site_occupancy
  Nd  Nd0  1  0.012247  0.243682  0.168566  1
  Nd  Nd1  1  0.987753  0.756318  0.168566  1
  Nd  Nd2  1  0.484007  0.243491  0.170066  1
  Nd  Nd3  1  0.515993  0.756508  0.170066  1
  Nd  Nd4  1  0.756508  0.484007  0.329934  1
  Nd  Nd5  1  0.243491  0.515993  0.329934  1
  Nd  Nd6  1  0.756318  0.012247  0.331434  1
  Nd  Nd7  1  0.243682  0.987753  0.331434  1
  Nd  Nd8  1  0.756318  0.012247  0.668566  1
  Nd  Nd9  1  0.243682  0.987753  0.668566  1
  Nd  Nd10  1  0.756508  0.484007  0.670065  1
  Nd  Nd11  1  0.243491  0.515993  0.670065  1
  Nd  Nd12  1  0.484007  0.243491  0.829934  1
  Nd  Nd13  1  0.515993  0.756508  0.829934  1
  Nd  Nd14  1  0.012247  0.243682  0.831434  1
  Nd  Nd15  1  0.987753  0.756318  0.831434  1
  As  As16  1  0.747652  0.043342  0.000000  1
  As  As17  1  0.252348  0.956658  0.000000  1
  As  As18  1  0.043342  0.252348  0.500000  1
  As  As19  1  0.956658  0.747652  0.500000  1
  I  I20  1  0.251900  0.456365  0.000000  1
  I  I21  1  0.748100  0.543635  0.000000  1
  I  I22  1  0.543635  0.251900  0.500000  1
  I  I23  1  0.456365  0.748100  0.500000  1
  O  O24  1  0.579577  0.165202  0.000000  1
  O  O25  1  0.916368  0.164625  0.000000  1
  O  O26  1  0.083631  0.835374  0.000000  1
  O  O27  1  0.420423  0.834798  0.000000  1
  O  O28  1  0.251910  0.071263  0.106536  1
  O  O29  1  0.748089  0.928737  0.106536  1
  O  O30  1  0.744206  0.248561  0.229906  1
  O  O31  1  0.255794  0.751439  0.229906  1
  O  O32  1  0.000000  0.500000  0.238037  1
  O  O33  1  0.000000  0.000000  0.250000  1
  O  O34  1  0.500000  0.500000  0.250000  1
  O  O35  1  0.500000  0.000000  0.261963  1
  O  O36  1  0.248561  0.255794  0.270095  1
  O  O37  1  0.751439  0.744206  0.270095  1
  O  O38  1  0.928737  0.251910  0.393464  1
  O  O39  1  0.071263  0.748089  0.393464  1
  O  O40  1  0.164625  0.083631  0.500000  1
  O  O41  1  0.165202  0.420423  0.500000  1
  O  O42  1  0.834798  0.579577  0.500000  1
  O  O43  1  0.835374  0.916368  0.500000  1
  O  O44  1  0.928737  0.251910  0.606536  1
  O  O45  1  0.071263  0.748089  0.606536  1
  O  O46  1  0.248561  0.255794  0.729906  1
  O  O47  1  0.751439  0.744206  0.729906  1
  O  O48  1  0.500000  0.000000  0.738037  1
  O  O49  1  0.000000  0.000000  0.750000  1
  O  O50  1  0.500000  0.500000  0.750000  1
  O  O51  1  0.000000  0.500000  0.761964  1
  O  O52  1  0.744206  0.248561  0.770095  1
  O  O53  1  0.255794  0.751439  0.770095  1
  O  O54  1  0.251910  0.071263  0.893464  1
  O  O55  1  0.748089  0.928737  0.893464  1
