# generated using pymatgen
data_Nd4Ga4IrPt3
_symmetry_space_group_name_H-M   'P 1'
_cell_length_a   4.53076600
_cell_length_b   7.07383459
_cell_length_c   7.85613365
_cell_angle_alpha   90.04673394
_cell_angle_beta   90.00000000
_cell_angle_gamma   90.00000000
_symmetry_Int_Tables_number   1
_chemical_formula_structural   Nd4Ga4IrPt3
_chemical_formula_sum   'Nd4 Ga4 Ir1 Pt3'
_cell_volume   251.78812970
_cell_formula_units_Z   1
loop_
 _symmetry_equiv_pos_site_id
 _symmetry_equiv_pos_as_xyz
  1  'x, y, z'
loop_
 _atom_site_type_symbol
 _atom_site_label
 _atom_site_symmetry_multiplicity
 _atom_site_fract_x
 _atom_site_fract_y
 _atom_site_fract_z
 _atom_site_occupancy
  Nd  Nd0  1  0.250000  0.031166  0.684920  1
  Nd  Nd1  1  0.250000  0.527132  0.811825  1
  Nd  Nd2  1  0.750000  0.978204  0.312225  1
  Nd  Nd3  1  0.750000  0.470680  0.190992  1
  Ga  Ga4  1  0.250000  0.159197  0.071093  1
  Ga  Ga5  1  0.250000  0.652086  0.432153  1
  Ga  Ga6  1  0.750000  0.842868  0.932831  1
  Ga  Ga7  1  0.750000  0.340486  0.565666  1
  Ir  Ir8  1  0.250000  0.278186  0.388792  1
  Pt  Pt9  1  0.250000  0.780233  0.110193  1
  Pt  Pt10  1  0.750000  0.720384  0.610857  1
  Pt  Pt11  1  0.750000  0.219379  0.888455  1
