# generated using pymatgen
data_MnNb6Fe(BRu2)4
_symmetry_space_group_name_H-M   'P 1'
_cell_length_a   9.32358412
_cell_length_b   9.32358412
_cell_length_c   3.02657500
_cell_angle_alpha   90.00000000
_cell_angle_beta   90.00000000
_cell_angle_gamma   89.50177822
_symmetry_Int_Tables_number   1
_chemical_formula_structural   MnNb6Fe(BRu2)4
_chemical_formula_sum   'Mn1 Nb6 Fe1 B4 Ru8'
_cell_volume   263.08785995
_cell_formula_units_Z   1
loop_
 _symmetry_equiv_pos_site_id
 _symmetry_equiv_pos_as_xyz
  1  'x, y, z'
loop_
 _atom_site_type_symbol
 _atom_site_label
 _atom_site_symmetry_multiplicity
 _atom_site_fract_x
 _atom_site_fract_y
 _atom_site_fract_z
 _atom_site_occupancy
  Mn  Mn0  1  0.000000  0.500000  0.500000  1
  Nb  Nb1  1  0.829888  0.670112  0.000000  1
  Nb  Nb2  1  0.170112  0.329888  0.000000  1
  Nb  Nb3  1  0.327336  0.827336  0.000000  1
  Nb  Nb4  1  0.672664  0.172664  0.000000  1
  Nb  Nb5  1  0.500000  0.500000  0.000000  1
  Nb  Nb6  1  0.000000  0.000000  0.000000  1
  Fe  Fe7  1  0.500000  0.000000  0.500000  1
  B  B8  1  0.612283  0.887717  0.000000  1
  B  B9  1  0.387717  0.112283  0.000000  1
  B  B10  1  0.112590  0.612590  0.000000  1
  B  B11  1  0.887410  0.387410  0.000000  1
  Ru  Ru12  1  0.569749  0.722943  0.500000  1
  Ru  Ru13  1  0.430251  0.277057  0.500000  1
  Ru  Ru14  1  0.069698  0.778908  0.500000  1
  Ru  Ru15  1  0.930302  0.221092  0.500000  1
  Ru  Ru16  1  0.278908  0.569698  0.500000  1
  Ru  Ru17  1  0.721092  0.430302  0.500000  1
  Ru  Ru18  1  0.222943  0.069749  0.500000  1
  Ru  Ru19  1  0.777057  0.930251  0.500000  1
