# generated using pymatgen
data_Pr9Nd(Ga2Sn)2
_symmetry_space_group_name_H-M   'P 1'
_cell_length_a   9.23827146
_cell_length_b   9.23827126
_cell_length_c   9.23827071
_cell_angle_alpha   127.51072811
_cell_angle_beta   127.51073870
_cell_angle_gamma   77.41897632
_symmetry_Int_Tables_number   1
_chemical_formula_structural   Pr9Nd(Ga2Sn)2
_chemical_formula_sum   'Pr9 Nd1 Ga4 Sn2'
_cell_volume   481.23292249
_cell_formula_units_Z   1
loop_
 _symmetry_equiv_pos_site_id
 _symmetry_equiv_pos_as_xyz
  1  'x, y, z'
loop_
 _atom_site_type_symbol
 _atom_site_label
 _atom_site_symmetry_multiplicity
 _atom_site_fract_x
 _atom_site_fract_y
 _atom_site_fract_z
 _atom_site_occupancy
  Pr  Pr0  1  0.000000  0.000000  0.000000  1
  Pr  Pr1  1  0.524382  0.024539  0.840027  1
  Pr  Pr2  1  0.184510  0.684353  0.159973  1
  Pr  Pr3  1  0.024539  0.184510  0.500157  1
  Pr  Pr4  1  0.684353  0.524382  0.499843  1
  Pr  Pr5  1  0.475618  0.975461  0.159973  1
  Pr  Pr6  1  0.815490  0.315647  0.840027  1
  Pr  Pr7  1  0.975461  0.815490  0.499843  1
  Pr  Pr8  1  0.315647  0.475618  0.500157  1
  Nd  Nd9  1  0.500000  0.500000  0.000000  1
  Ga  Ga10  1  0.879094  0.379640  0.258734  1
  Ga  Ga11  1  0.120906  0.620360  0.741266  1
  Ga  Ga12  1  0.379640  0.120906  0.500546  1
  Ga  Ga13  1  0.620360  0.879094  0.499454  1
  Sn  Sn14  1  0.250116  0.250116  0.000000  1
  Sn  Sn15  1  0.749884  0.749884  0.000000  1
