# generated using pymatgen
data_Rb2BaAs6Ru5Rh
_symmetry_space_group_name_H-M   'P 1'
_cell_length_a   9.24413652
_cell_length_b   9.24413638
_cell_length_c   7.23896159
_cell_angle_alpha   67.35843114
_cell_angle_beta   67.35843270
_cell_angle_gamma   36.74391705
_symmetry_Int_Tables_number   1
_chemical_formula_structural   Rb2BaAs6Ru5Rh
_chemical_formula_sum   'Rb2 Ba1 As6 Ru5 Rh1'
_cell_volume   338.25625929
_cell_formula_units_Z   1
loop_
 _symmetry_equiv_pos_site_id
 _symmetry_equiv_pos_as_xyz
  1  'x, y, z'
loop_
 _atom_site_type_symbol
 _atom_site_label
 _atom_site_symmetry_multiplicity
 _atom_site_fract_x
 _atom_site_fract_y
 _atom_site_fract_z
 _atom_site_occupancy
  Rb  Rb0  1  0.671956  0.668014  0.003320  1
  Rb  Rb1  1  0.331986  0.328044  0.996680  1
  Ba  Ba2  1  0.996388  0.003612  0.000000  1
  As  As3  1  0.886924  0.879091  0.694252  1
  As  As4  1  0.217073  0.217818  0.696809  1
  As  As5  1  0.547199  0.554545  0.698697  1
  As  As6  1  0.445455  0.452801  0.301303  1
  As  As7  1  0.782182  0.782927  0.303191  1
  As  As8  1  0.120909  0.113076  0.305748  1
  Ru  Ru9  1  0.083500  0.583507  0.496239  1
  Ru  Ru10  1  0.416493  0.916500  0.503761  1
  Ru  Ru11  1  0.584123  0.085086  0.496593  1
  Ru  Ru12  1  0.914914  0.415877  0.503407  1
  Ru  Ru13  1  0.250939  0.749061  0.500000  1
  Rh  Rh14  1  0.749960  0.250040  0.500000  1
