# generated using pymatgen
data_YErTm3(In2Rh)2
_symmetry_space_group_name_H-M   'P 1'
_cell_length_a   3.60152700
_cell_length_b   7.97455028
_cell_length_c   18.23240203
_cell_angle_alpha   89.91914462
_cell_angle_beta   90.00000000
_cell_angle_gamma   90.00000000
_symmetry_Int_Tables_number   1
_chemical_formula_structural   YErTm3(In2Rh)2
_chemical_formula_sum   'Y2 Er2 Tm6 In8 Rh4'
_cell_volume   523.64424137
_cell_formula_units_Z   2
loop_
 _symmetry_equiv_pos_site_id
 _symmetry_equiv_pos_as_xyz
  1  'x, y, z'
loop_
 _atom_site_type_symbol
 _atom_site_label
 _atom_site_symmetry_multiplicity
 _atom_site_fract_x
 _atom_site_fract_y
 _atom_site_fract_z
 _atom_site_occupancy
  Y  Y0  1  0.000000  0.000000  0.000000  1
  Y  Y1  1  0.000000  0.500000  0.500000  1
  Er  Er2  1  0.000000  0.253260  0.721381  1
  Er  Er3  1  0.000000  0.746740  0.278619  1
  Tm  Tm4  1  0.000000  0.116804  0.410791  1
  Tm  Tm5  1  0.000000  0.883196  0.589209  1
  Tm  Tm6  1  0.000000  0.383668  0.910830  1
  Tm  Tm7  1  0.000000  0.616332  0.089170  1
  Tm  Tm8  1  0.000000  0.246624  0.221433  1
  Tm  Tm9  1  0.000000  0.753376  0.778567  1
  In  In10  1  0.500000  0.427031  0.349371  1
  In  In11  1  0.500000  0.572969  0.650629  1
  In  In12  1  0.500000  0.072427  0.849536  1
  In  In13  1  0.500000  0.927573  0.150464  1
  In  In14  1  0.500000  0.294475  0.067793  1
  In  In15  1  0.500000  0.705525  0.932207  1
  In  In16  1  0.500000  0.204877  0.567629  1
  In  In17  1  0.500000  0.795123  0.432371  1
  Rh  Rh18  1  0.500000  0.025340  0.304766  1
  Rh  Rh19  1  0.500000  0.974660  0.695234  1
  Rh  Rh20  1  0.500000  0.477333  0.805470  1
  Rh  Rh21  1  0.500000  0.522667  0.194530  1
