# generated using pymatgen
data_ThPaCo2Sn
_symmetry_space_group_name_H-M   'P 1'
_cell_length_a   7.55462000
_cell_length_b   7.55477991
_cell_length_c   3.59025500
_cell_angle_alpha   90.00000000
_cell_angle_beta   90.00000000
_cell_angle_gamma   95.59027392
_symmetry_Int_Tables_number   1
_chemical_formula_structural   ThPaCo2Sn
_chemical_formula_sum   'Th2 Pa2 Co4 Sn2'
_cell_volume   203.93383337
_cell_formula_units_Z   2
loop_
 _symmetry_equiv_pos_site_id
 _symmetry_equiv_pos_as_xyz
  1  'x, y, z'
loop_
 _atom_site_type_symbol
 _atom_site_label
 _atom_site_symmetry_multiplicity
 _atom_site_fract_x
 _atom_site_fract_y
 _atom_site_fract_z
 _atom_site_occupancy
  Th  Th0  1  0.171079  0.328984  0.500000  1
  Th  Th1  1  0.829154  0.670923  0.500000  1
  Pa  Pa2  1  0.669999  0.170124  0.500000  1
  Pa  Pa3  1  0.329794  0.829895  0.500000  1
  Co  Co4  1  0.854316  0.354212  0.000000  1
  Co  Co5  1  0.145639  0.645526  0.000000  1
  Co  Co6  1  0.379765  0.120438  0.000000  1
  Co  Co7  1  0.620357  0.879820  0.000000  1
  Sn  Sn8  1  0.500122  0.499941  0.000000  1
  Sn  Sn9  1  0.999774  0.000141  0.000000  1
