# generated using pymatgen
data_Ta4Si2Ir3Ru7
_symmetry_space_group_name_H-M   'P 1'
_cell_length_a   4.04003800
_cell_length_b   5.44539905
_cell_length_c   10.71132260
_cell_angle_alpha   89.65375940
_cell_angle_beta   90.00000000
_cell_angle_gamma   90.00000000
_symmetry_Int_Tables_number   1
_chemical_formula_structural   Ta4Si2Ir3Ru7
_chemical_formula_sum   'Ta4 Si2 Ir3 Ru7'
_cell_volume   235.64071453
_cell_formula_units_Z   1
loop_
 _symmetry_equiv_pos_site_id
 _symmetry_equiv_pos_as_xyz
  1  'x, y, z'
loop_
 _atom_site_type_symbol
 _atom_site_label
 _atom_site_symmetry_multiplicity
 _atom_site_fract_x
 _atom_site_fract_y
 _atom_site_fract_z
 _atom_site_occupancy
  Ta  Ta0  1  0.500000  0.825114  0.364153  1
  Ta  Ta1  1  0.500000  0.167133  0.639695  1
  Ta  Ta2  1  0.500000  0.328333  0.136107  1
  Ta  Ta3  1  0.500000  0.679753  0.860279  1
  Si  Si4  1  0.000000  0.498420  0.501757  1
  Si  Si5  1  0.000000  0.003477  0.999000  1
  Ir  Ir6  1  0.000000  0.573739  0.249991  1
  Ir  Ir7  1  0.000000  0.423413  0.749548  1
  Ir  Ir8  1  0.000000  0.074107  0.249294  1
  Ru  Ru9  1  0.000000  0.506752  0.998739  1
  Ru  Ru10  1  0.000000  0.997552  0.500082  1
  Ru  Ru11  1  0.000000  0.922775  0.751254  1
  Ru  Ru12  1  0.500000  0.823326  0.106514  1
  Ru  Ru13  1  0.500000  0.181427  0.894522  1
  Ru  Ru14  1  0.500000  0.319855  0.393507  1
  Ru  Ru15  1  0.500000  0.674822  0.605558  1
