# generated using pymatgen
data_Dy18Er2Ir11Os
_symmetry_space_group_name_H-M   'P 1'
_cell_length_a   10.87196600
_cell_length_b   10.87128000
_cell_length_c   6.39338500
_cell_angle_alpha   90.00000000
_cell_angle_beta   90.00000000
_cell_angle_gamma   90.00009486
_symmetry_Int_Tables_number   1
_chemical_formula_structural   Dy18Er2Ir11Os
_chemical_formula_sum   'Dy18 Er2 Ir11 Os1'
_cell_volume   755.64815252
_cell_formula_units_Z   1
loop_
 _symmetry_equiv_pos_site_id
 _symmetry_equiv_pos_as_xyz
  1  'x, y, z'
loop_
 _atom_site_type_symbol
 _atom_site_label
 _atom_site_symmetry_multiplicity
 _atom_site_fract_x
 _atom_site_fract_y
 _atom_site_fract_z
 _atom_site_occupancy
  Dy  Dy0  1  0.292177  0.087250  0.376671  1
  Dy  Dy1  1  0.292676  0.912790  0.880447  1
  Dy  Dy2  1  0.707324  0.087210  0.880447  1
  Dy  Dy3  1  0.707823  0.912750  0.376671  1
  Dy  Dy4  1  0.587331  0.793042  0.880458  1
  Dy  Dy5  1  0.587374  0.207455  0.376680  1
  Dy  Dy6  1  0.412626  0.792545  0.376680  1
  Dy  Dy7  1  0.412669  0.206958  0.880458  1
  Dy  Dy8  1  0.208941  0.411546  0.621404  1
  Dy  Dy9  1  0.208853  0.588213  0.121087  1
  Dy  Dy10  1  0.791147  0.411787  0.121087  1
  Dy  Dy11  1  0.791059  0.588454  0.621404  1
  Dy  Dy12  1  0.911922  0.709222  0.121089  1
  Dy  Dy13  1  0.911684  0.290705  0.621396  1
  Dy  Dy14  1  0.088316  0.709295  0.621396  1
  Dy  Dy15  1  0.088078  0.290778  0.121089  1
  Dy  Dy16  1  0.500000  0.500000  0.999292  1
  Dy  Dy17  1  0.500000  0.500000  0.499405  1
  Er  Er18  1  0.000000  0.000000  0.499265  1
  Er  Er19  1  0.000000  0.000000  0.999302  1
  Ir  Ir20  1  0.848263  0.153167  0.250203  1
  Ir  Ir21  1  0.848262  0.847138  0.749846  1
  Ir  Ir22  1  0.151738  0.152862  0.749846  1
  Ir  Ir23  1  0.151737  0.846833  0.250203  1
  Ir  Ir24  1  0.653570  0.347551  0.749884  1
  Ir  Ir25  1  0.653874  0.652462  0.250253  1
  Ir  Ir26  1  0.346126  0.347538  0.250253  1
  Ir  Ir27  1  0.346430  0.652449  0.749884  1
  Ir  Ir28  1  0.500000  0.000000  0.624105  1
  Ir  Ir29  1  0.000000  0.500000  0.876821  1
  Ir  Ir30  1  0.000000  0.500000  0.377209  1
  Os  Os31  1  0.500000  0.000000  0.125760  1
