# generated using pymatgen
data_Nd6Zn4Pt10Rh3
_symmetry_space_group_name_H-M   'P 1'
_cell_length_a   8.38725203
_cell_length_b   8.38725287
_cell_length_c   8.38725264
_cell_angle_alpha   109.60035454
_cell_angle_beta   109.60034720
_cell_angle_gamma   109.60036061
_symmetry_Int_Tables_number   1
_chemical_formula_structural   Nd6Zn4Pt10Rh3
_chemical_formula_sum   'Nd6 Zn4 Pt10 Rh3'
_cell_volume   452.00514466
_cell_formula_units_Z   1
loop_
 _symmetry_equiv_pos_site_id
 _symmetry_equiv_pos_as_xyz
  1  'x, y, z'
loop_
 _atom_site_type_symbol
 _atom_site_label
 _atom_site_symmetry_multiplicity
 _atom_site_fract_x
 _atom_site_fract_y
 _atom_site_fract_z
 _atom_site_occupancy
  Nd  Nd0  1  0.698022  0.698022  0.000995  1
  Nd  Nd1  1  0.305365  0.003259  0.305365  1
  Nd  Nd2  1  0.003259  0.305365  0.305365  1
  Nd  Nd3  1  0.305365  0.305365  0.003259  1
  Nd  Nd4  1  0.698022  0.000995  0.698022  1
  Nd  Nd5  1  0.000995  0.698022  0.698022  1
  Zn  Zn6  1  0.997063  0.997063  0.500640  1
  Zn  Zn7  1  0.997063  0.500640  0.997063  1
  Zn  Zn8  1  0.500640  0.997063  0.997063  1
  Zn  Zn9  1  0.507136  0.507136  0.507136  1
  Pt  Pt10  1  0.332247  0.332247  0.660622  1
  Pt  Pt11  1  0.670950  0.001839  0.333105  1
  Pt  Pt12  1  0.001839  0.670950  0.333105  1
  Pt  Pt13  1  0.670950  0.333105  0.001839  1
  Pt  Pt14  1  0.332247  0.660622  0.332247  1
  Pt  Pt15  1  0.001839  0.333105  0.670950  1
  Pt  Pt16  1  0.333105  0.670950  0.001839  1
  Pt  Pt17  1  0.333105  0.001839  0.670950  1
  Pt  Pt18  1  0.660622  0.332247  0.332247  1
  Pt  Pt19  1  0.000747  0.000747  0.000747  1
  Rh  Rh20  1  0.662415  0.662415  0.324588  1
  Rh  Rh21  1  0.662415  0.324588  0.662415  1
  Rh  Rh22  1  0.324588  0.662415  0.662415  1
