# generated using pymatgen
data_Er4Fe5(Co3B2)3
_symmetry_space_group_name_H-M   'P 1'
_cell_length_a   5.03935500
_cell_length_b   5.03935573
_cell_length_c   12.73800300
_cell_angle_alpha   90.00000000
_cell_angle_beta   90.00000000
_cell_angle_gamma   120.00000179
_symmetry_Int_Tables_number   1
_chemical_formula_structural   Er4Fe5(Co3B2)3
_chemical_formula_sum   'Er4 Fe5 Co9 B6'
_cell_volume   280.14439676
_cell_formula_units_Z   1
loop_
 _symmetry_equiv_pos_site_id
 _symmetry_equiv_pos_as_xyz
  1  'x, y, z'
loop_
 _atom_site_type_symbol
 _atom_site_label
 _atom_site_symmetry_multiplicity
 _atom_site_fract_x
 _atom_site_fract_y
 _atom_site_fract_z
 _atom_site_occupancy
  Er  Er0  1  0.000000  0.000000  0.000950  1
  Er  Er1  1  0.000000  0.000000  0.498607  1
  Er  Er2  1  0.000000  0.000000  0.733905  1
  Er  Er3  1  0.000000  0.000000  0.261048  1
  Fe  Fe4  1  0.666667  0.333333  0.003252  1
  Fe  Fe5  1  0.333333  0.666667  0.003252  1
  Fe  Fe6  1  0.500000  0.500000  0.846025  1
  Fe  Fe7  1  0.500000  0.000000  0.846025  1
  Fe  Fe8  1  0.000000  0.500000  0.846025  1
  Co  Co9  1  0.500000  0.500000  0.157416  1
  Co  Co10  1  0.500000  0.000000  0.157416  1
  Co  Co11  1  0.000000  0.500000  0.157416  1
  Co  Co12  1  0.500000  0.500000  0.613548  1
  Co  Co13  1  0.500000  0.000000  0.613548  1
  Co  Co14  1  0.000000  0.500000  0.613548  1
  Co  Co15  1  0.500000  0.500000  0.384604  1
  Co  Co16  1  0.500000  0.000000  0.384604  1
  Co  Co17  1  0.000000  0.500000  0.384604  1
  B  B18  1  0.666667  0.333333  0.499067  1
  B  B19  1  0.333333  0.666667  0.499067  1
  B  B20  1  0.666667  0.333333  0.729061  1
  B  B21  1  0.333333  0.666667  0.729061  1
  B  B22  1  0.333333  0.666667  0.268975  1
  B  B23  1  0.666667  0.333333  0.268975  1
