# generated using pymatgen
data_V3GaRuS8
_symmetry_space_group_name_H-M   'P 1'
_cell_length_a   6.84327625
_cell_length_b   6.84327665
_cell_length_c   6.84327829
_cell_angle_alpha   60.13663740
_cell_angle_beta   60.13663718
_cell_angle_gamma   60.13664513
_symmetry_Int_Tables_number   1
_chemical_formula_structural   V3GaRuS8
_chemical_formula_sum   'V3 Ga1 Ru1 S8'
_cell_volume   227.31053489
_cell_formula_units_Z   1
loop_
 _symmetry_equiv_pos_site_id
 _symmetry_equiv_pos_as_xyz
  1  'x, y, z'
loop_
 _atom_site_type_symbol
 _atom_site_label
 _atom_site_symmetry_multiplicity
 _atom_site_fract_x
 _atom_site_fract_y
 _atom_site_fract_z
 _atom_site_occupancy
  V  V0  1  0.604514  0.192285  0.604514  1
  V  V1  1  0.192285  0.604514  0.604514  1
  V  V2  1  0.604514  0.604514  0.192285  1
  Ga  Ga3  1  0.997854  0.997854  0.997854  1
  Ru  Ru4  1  0.608323  0.608323  0.608323  1
  S  S5  1  0.370434  0.370434  0.370434  1
  S  S6  1  0.367225  0.889478  0.367225  1
  S  S7  1  0.889478  0.367225  0.367225  1
  S  S8  1  0.367225  0.367225  0.889478  1
  S  S9  1  0.862665  0.862665  0.862665  1
  S  S10  1  0.861466  0.412551  0.861466  1
  S  S11  1  0.412551  0.861466  0.861466  1
  S  S12  1  0.861466  0.861466  0.412551  1
