# generated using pymatgen
data_Tm5In4NiRh
_symmetry_space_group_name_H-M   'P 1'
_cell_length_a   3.55619200
_cell_length_b   7.99252800
_cell_length_c   17.94348600
_cell_angle_alpha   90.00000000
_cell_angle_beta   90.00000000
_cell_angle_gamma   90.00000000
_symmetry_Int_Tables_number   1
_chemical_formula_structural   Tm5In4NiRh
_chemical_formula_sum   'Tm10 In8 Ni2 Rh2'
_cell_volume   510.00705901
_cell_formula_units_Z   2
loop_
 _symmetry_equiv_pos_site_id
 _symmetry_equiv_pos_as_xyz
  1  'x, y, z'
loop_
 _atom_site_type_symbol
 _atom_site_label
 _atom_site_symmetry_multiplicity
 _atom_site_fract_x
 _atom_site_fract_y
 _atom_site_fract_z
 _atom_site_occupancy
  Tm  Tm0  1  0.500000  0.383719  0.589664  1
  Tm  Tm1  1  0.500000  0.882802  0.913256  1
  Tm  Tm2  1  0.500000  0.116281  0.089664  1
  Tm  Tm3  1  0.500000  0.753760  0.720920  1
  Tm  Tm4  1  0.500000  0.254141  0.777540  1
  Tm  Tm5  1  0.500000  0.500159  0.000046  1
  Tm  Tm6  1  0.500000  0.746240  0.220920  1
  Tm  Tm7  1  0.500000  0.245859  0.277540  1
  Tm  Tm8  1  0.500000  0.999841  0.500046  1
  Tm  Tm9  1  0.500000  0.617198  0.413256  1
  In  In10  1  0.000000  0.795119  0.068343  1
  In  In11  1  0.000000  0.926600  0.348320  1
  In  In12  1  0.000000  0.071481  0.649609  1
  In  In13  1  0.000000  0.573400  0.848320  1
  In  In14  1  0.000000  0.704881  0.568343  1
  In  In15  1  0.000000  0.207181  0.932391  1
  In  In16  1  0.000000  0.292819  0.432391  1
  In  In17  1  0.000000  0.428519  0.149609  1
  Ni  Ni18  1  0.000000  0.478089  0.695337  1
  Ni  Ni19  1  0.000000  0.021911  0.195337  1
  Rh  Rh20  1  0.000000  0.975355  0.804573  1
  Rh  Rh21  1  0.000000  0.524645  0.304573  1
