# generated using pymatgen
data_Tm2Lu2Ru2Pb5
_symmetry_space_group_name_H-M   'P 1'
_cell_length_a   8.14564273
_cell_length_b   3.50312600
_cell_length_c   9.83065400
_cell_angle_alpha   90.00000000
_cell_angle_beta   93.79429341
_cell_angle_gamma   90.00000000
_symmetry_Int_Tables_number   1
_chemical_formula_structural   Tm2Lu2Ru2Pb5
_chemical_formula_sum   'Tm2 Lu2 Ru2 Pb5'
_cell_volume   279.90492265
_cell_formula_units_Z   1
loop_
 _symmetry_equiv_pos_site_id
 _symmetry_equiv_pos_as_xyz
  1  'x, y, z'
loop_
 _atom_site_type_symbol
 _atom_site_label
 _atom_site_symmetry_multiplicity
 _atom_site_fract_x
 _atom_site_fract_y
 _atom_site_fract_z
 _atom_site_occupancy
  Tm  Tm0  1  0.308409  0.500000  0.562971  1
  Tm  Tm1  1  0.697085  0.500000  0.838682  1
  Lu  Lu2  1  0.303664  0.500000  0.162329  1
  Lu  Lu3  1  0.689650  0.500000  0.437353  1
  Ru  Ru4  1  0.419125  0.000000  0.357347  1
  Ru  Ru5  1  0.582310  0.000000  0.641147  1
  Pb  Pb6  1  0.000884  0.000000  0.000485  1
  Pb  Pb7  1  0.643280  0.000000  0.137748  1
  Pb  Pb8  1  0.042582  0.000000  0.337983  1
  Pb  Pb9  1  0.956767  0.000000  0.661328  1
  Pb  Pb10  1  0.356246  0.000000  0.862629  1
