# generated using pymatgen
data_K2BaB2Pt7
_symmetry_space_group_name_H-M   'P 1'
_cell_length_a   8.45218413
_cell_length_b   8.45218291
_cell_length_c   8.45218304
_cell_angle_alpha   39.33053758
_cell_angle_beta   39.33054783
_cell_angle_gamma   39.33053729
_symmetry_Int_Tables_number   1
_chemical_formula_structural   K2BaB2Pt7
_chemical_formula_sum   'K2 Ba1 B2 Pt7'
_cell_volume   218.26548839
_cell_formula_units_Z   1
loop_
 _symmetry_equiv_pos_site_id
 _symmetry_equiv_pos_as_xyz
  1  'x, y, z'
loop_
 _atom_site_type_symbol
 _atom_site_label
 _atom_site_symmetry_multiplicity
 _atom_site_fract_x
 _atom_site_fract_y
 _atom_site_fract_z
 _atom_site_occupancy
  K  K0  1  0.139526  0.139526  0.139526  1
  K  K1  1  0.003250  0.003250  0.003250  1
  Ba  Ba2  1  0.857852  0.857852  0.857852  1
  B  B3  1  0.669223  0.669223  0.669223  1
  B  B4  1  0.330572  0.330572  0.330572  1
  Pt  Pt5  1  0.439679  0.932038  0.439679  1
  Pt  Pt6  1  0.439679  0.439679  0.932038  1
  Pt  Pt7  1  0.932038  0.439679  0.439679  1
  Pt  Pt8  1  0.559691  0.069016  0.559691  1
  Pt  Pt9  1  0.559691  0.559691  0.069016  1
  Pt  Pt10  1  0.069016  0.559691  0.559691  1
  Pt  Pt11  1  0.499781  0.499781  0.499781  1
