# generated using pymatgen
data_K2Ce3OF12
_symmetry_space_group_name_H-M   'P 1'
_cell_length_a   11.16955724
_cell_length_b   11.16955750
_cell_length_c   11.16955737
_cell_angle_alpha   43.60131132
_cell_angle_beta   43.60130872
_cell_angle_gamma   43.60130951
_symmetry_Int_Tables_number   1
_chemical_formula_structural   K2Ce3OF12
_chemical_formula_sum   'K4 Ce6 O2 F24'
_cell_volume   601.45713086
_cell_formula_units_Z   2
loop_
 _symmetry_equiv_pos_site_id
 _symmetry_equiv_pos_as_xyz
  1  'x, y, z'
loop_
 _atom_site_type_symbol
 _atom_site_label
 _atom_site_symmetry_multiplicity
 _atom_site_fract_x
 _atom_site_fract_y
 _atom_site_fract_z
 _atom_site_occupancy
  K  K0  1  0.000000  0.000000  0.000000  1
  K  K1  1  0.500000  0.500000  0.500000  1
  K  K2  1  0.138390  0.138390  0.138390  1
  K  K3  1  0.861610  0.861610  0.861610  1
  Ce  Ce4  1  0.579180  0.579180  0.035539  1
  Ce  Ce5  1  0.035539  0.579180  0.579180  1
  Ce  Ce6  1  0.579180  0.035539  0.579180  1
  Ce  Ce7  1  0.420820  0.964461  0.420820  1
  Ce  Ce8  1  0.964461  0.420820  0.420820  1
  Ce  Ce9  1  0.420820  0.420820  0.964461  1
  O  O10  1  0.717342  0.717342  0.717342  1
  O  O11  1  0.282658  0.282658  0.282658  1
  F  F12  1  0.698189  0.698189  0.368638  1
  F  F13  1  0.368638  0.698189  0.698189  1
  F  F14  1  0.698189  0.368638  0.698189  1
  F  F15  1  0.301811  0.631362  0.301811  1
  F  F16  1  0.301811  0.301811  0.631362  1
  F  F17  1  0.631362  0.301811  0.301811  1
  F  F18  1  0.917055  0.917055  0.404502  1
  F  F19  1  0.404502  0.917055  0.917055  1
  F  F20  1  0.650353  0.349647  0.000000  1
  F  F21  1  0.349647  0.000000  0.650353  1
  F  F22  1  0.000000  0.650353  0.349647  1
  F  F23  1  0.349647  0.650353  0.000000  1
  F  F24  1  0.650353  0.000000  0.349647  1
  F  F25  1  0.000000  0.349647  0.650353  1
  F  F26  1  0.910399  0.342025  0.342025  1
  F  F27  1  0.342025  0.342025  0.910399  1
  F  F28  1  0.342025  0.910399  0.342025  1
  F  F29  1  0.657975  0.089601  0.657975  1
  F  F30  1  0.089601  0.657975  0.657975  1
  F  F31  1  0.657975  0.657975  0.089601  1
  F  F32  1  0.595498  0.082945  0.082945  1
  F  F33  1  0.082945  0.082945  0.595498  1
  F  F34  1  0.082945  0.595498  0.082945  1
  F  F35  1  0.917055  0.404502  0.917055  1
