# generated using pymatgen
data_SrYb(Si7Ir3)2
_symmetry_space_group_name_H-M   'P 1'
_cell_length_a   8.05742778
_cell_length_b   8.05742769
_cell_length_c   8.05742714
_cell_angle_alpha   56.85378689
_cell_angle_beta   56.85378531
_cell_angle_gamma   56.85378467
_symmetry_Int_Tables_number   1
_chemical_formula_structural   SrYb(Si7Ir3)2
_chemical_formula_sum   'Sr1 Yb1 Si14 Ir6'
_cell_volume   343.03851875
_cell_formula_units_Z   1
loop_
 _symmetry_equiv_pos_site_id
 _symmetry_equiv_pos_as_xyz
  1  'x, y, z'
loop_
 _atom_site_type_symbol
 _atom_site_label
 _atom_site_symmetry_multiplicity
 _atom_site_fract_x
 _atom_site_fract_y
 _atom_site_fract_z
 _atom_site_occupancy
  Sr  Sr0  1  0.000000  0.000000  0.000000  1
  Yb  Yb1  1  0.500000  0.500000  0.500000  1
  Si  Si2  1  0.066116  0.848750  0.672536  1
  Si  Si3  1  0.672536  0.066116  0.848750  1
  Si  Si4  1  0.848750  0.672536  0.066116  1
  Si  Si5  1  0.174789  0.351396  0.563177  1
  Si  Si6  1  0.563177  0.174789  0.351396  1
  Si  Si7  1  0.351396  0.563177  0.174789  1
  Si  Si8  1  0.933884  0.151250  0.327464  1
  Si  Si9  1  0.327464  0.933884  0.151250  1
  Si  Si10  1  0.151250  0.327464  0.933884  1
  Si  Si11  1  0.825211  0.648604  0.436823  1
  Si  Si12  1  0.436823  0.825211  0.648604  1
  Si  Si13  1  0.648604  0.436823  0.825211  1
  Si  Si14  1  0.750166  0.750166  0.750166  1
  Si  Si15  1  0.249834  0.249834  0.249834  1
  Ir  Ir16  1  0.071744  0.747819  0.431791  1
  Ir  Ir17  1  0.431791  0.071744  0.747819  1
  Ir  Ir18  1  0.747819  0.431791  0.071744  1
  Ir  Ir19  1  0.928256  0.252181  0.568209  1
  Ir  Ir20  1  0.568209  0.928256  0.252181  1
  Ir  Ir21  1  0.252181  0.568209  0.928256  1
