# generated using pymatgen
data_KGePRh2
_symmetry_space_group_name_H-M   'P 1'
_cell_length_a   7.28605503
_cell_length_b   7.28605506
_cell_length_c   7.28605508
_cell_angle_alpha   148.04668176
_cell_angle_beta   148.04668282
_cell_angle_gamma   45.81645588
_symmetry_Int_Tables_number   1
_chemical_formula_structural   KGePRh2
_chemical_formula_sum   'K1 Ge1 P1 Rh2'
_cell_volume   107.96903767
_cell_formula_units_Z   1
loop_
 _symmetry_equiv_pos_site_id
 _symmetry_equiv_pos_as_xyz
  1  'x, y, z'
loop_
 _atom_site_type_symbol
 _atom_site_label
 _atom_site_symmetry_multiplicity
 _atom_site_fract_x
 _atom_site_fract_y
 _atom_site_fract_z
 _atom_site_occupancy
  K  K0  1  0.991869  0.991869  0.000000  1
  Ge  Ge1  1  0.648858  0.648858  0.000000  1
  P  P2  1  0.344620  0.344620  0.000000  1
  Rh  Rh3  1  0.257326  0.757326  0.500000  1
  Rh  Rh4  1  0.757326  0.257326  0.500000  1
