# generated using pymatgen
data_Tb4DyTh3(ZnRu)2
_symmetry_space_group_name_H-M   'P 1'
_cell_length_a   9.56161554
_cell_length_b   9.64667039
_cell_length_c   9.65005619
_cell_angle_alpha   59.40604221
_cell_angle_beta   60.27933030
_cell_angle_gamma   60.31460409
_symmetry_Int_Tables_number   1
_chemical_formula_structural   Tb4DyTh3(ZnRu)2
_chemical_formula_sum   'Tb8 Dy2 Th6 Zn4 Ru4'
_cell_volume   629.29431064
_cell_formula_units_Z   2
loop_
 _symmetry_equiv_pos_site_id
 _symmetry_equiv_pos_as_xyz
  1  'x, y, z'
loop_
 _atom_site_type_symbol
 _atom_site_label
 _atom_site_symmetry_multiplicity
 _atom_site_fract_x
 _atom_site_fract_y
 _atom_site_fract_z
 _atom_site_occupancy
  Tb  Tb0  1  0.442626  0.442626  0.057374  1
  Tb  Tb1  1  0.057374  0.057374  0.442626  1
  Tb  Tb2  1  0.183261  0.816739  0.816739  1
  Tb  Tb3  1  0.816739  0.183261  0.183261  1
  Tb  Tb4  1  0.812595  0.187405  0.812595  1
  Tb  Tb5  1  0.187405  0.812595  0.187405  1
  Tb  Tb6  1  0.812725  0.812725  0.187275  1
  Tb  Tb7  1  0.187275  0.187275  0.812725  1
  Dy  Dy8  1  0.443107  0.056893  0.443107  1
  Dy  Dy9  1  0.056893  0.443107  0.056893  1
  Th  Th10  1  0.595811  0.604453  0.603884  1
  Th  Th11  1  0.604453  0.595811  0.195852  1
  Th  Th12  1  0.603884  0.195852  0.595811  1
  Th  Th13  1  0.195852  0.603884  0.604453  1
  Th  Th14  1  0.063477  0.436523  0.436523  1
  Th  Th15  1  0.436523  0.063477  0.063477  1
  Zn  Zn16  1  0.832784  0.828386  0.828948  1
  Zn  Zn17  1  0.828386  0.832784  0.509881  1
  Zn  Zn18  1  0.828948  0.509881  0.832784  1
  Zn  Zn19  1  0.509881  0.828948  0.828386  1
  Ru  Ru20  1  0.378808  0.397961  0.399930  1
  Ru  Ru21  1  0.397961  0.378808  0.823301  1
  Ru  Ru22  1  0.399930  0.823301  0.378808  1
  Ru  Ru23  1  0.823301  0.399930  0.397961  1
