# generated using pymatgen
data_TmLuZn2IrPt
_symmetry_space_group_name_H-M   'P 1'
_cell_length_a   4.02779200
_cell_length_b   6.87259551
_cell_length_c   8.15703022
_cell_angle_alpha   89.70732160
_cell_angle_beta   90.00000000
_cell_angle_gamma   90.00000000
_symmetry_Int_Tables_number   1
_chemical_formula_structural   TmLuZn2IrPt
_chemical_formula_sum   'Tm2 Lu2 Zn4 Ir2 Pt2'
_cell_volume   225.79494983
_cell_formula_units_Z   2
loop_
 _symmetry_equiv_pos_site_id
 _symmetry_equiv_pos_as_xyz
  1  'x, y, z'
loop_
 _atom_site_type_symbol
 _atom_site_label
 _atom_site_symmetry_multiplicity
 _atom_site_fract_x
 _atom_site_fract_y
 _atom_site_fract_z
 _atom_site_occupancy
  Tm  Tm0  1  0.250000  0.539091  0.177340  1
  Tm  Tm1  1  0.750000  0.460909  0.822660  1
  Lu  Lu2  1  0.750000  0.955622  0.686366  1
  Lu  Lu3  1  0.250000  0.044378  0.313634  1
  Zn  Zn4  1  0.250000  0.639269  0.567372  1
  Zn  Zn5  1  0.750000  0.360731  0.432628  1
  Zn  Zn6  1  0.750000  0.865504  0.061489  1
  Zn  Zn7  1  0.250000  0.134496  0.938511  1
  Ir  Ir8  1  0.250000  0.752872  0.875079  1
  Ir  Ir9  1  0.750000  0.247128  0.124921  1
  Pt  Pt10  1  0.750000  0.749504  0.378561  1
  Pt  Pt11  1  0.250000  0.250496  0.621439  1
