# generated using pymatgen
data_Yb3(BO3)2
_symmetry_space_group_name_H-M   'P 1'
_cell_length_a   6.26955237
_cell_length_b   6.26955254
_cell_length_c   6.26955201
_cell_angle_alpha   86.14926376
_cell_angle_beta   86.14926090
_cell_angle_gamma   86.14926707
_symmetry_Int_Tables_number   1
_chemical_formula_structural   Yb3(BO3)2
_chemical_formula_sum   'Yb6 B4 O12'
_cell_volume   244.84134535
_cell_formula_units_Z   2
loop_
 _symmetry_equiv_pos_site_id
 _symmetry_equiv_pos_as_xyz
  1  'x, y, z'
loop_
 _atom_site_type_symbol
 _atom_site_label
 _atom_site_symmetry_multiplicity
 _atom_site_fract_x
 _atom_site_fract_y
 _atom_site_fract_z
 _atom_site_occupancy
  Yb  Yb0  1  0.250000  0.610421  0.889579  1
  Yb  Yb1  1  0.889579  0.250000  0.610421  1
  Yb  Yb2  1  0.610421  0.889579  0.250000  1
  Yb  Yb3  1  0.750000  0.389579  0.110421  1
  Yb  Yb4  1  0.110421  0.750000  0.389579  1
  Yb  Yb5  1  0.389579  0.110421  0.750000  1
  B  B6  1  0.883380  0.883380  0.883380  1
  B  B7  1  0.116620  0.116620  0.116620  1
  B  B8  1  0.383380  0.383380  0.383380  1
  B  B9  1  0.616620  0.616620  0.616620  1
  O  O10  1  0.216823  0.399084  0.540908  1
  O  O11  1  0.540908  0.216823  0.399084  1
  O  O12  1  0.399084  0.540908  0.216823  1
  O  O13  1  0.100916  0.283177  0.959092  1
  O  O14  1  0.283177  0.959092  0.100916  1
  O  O15  1  0.959092  0.100916  0.283177  1
  O  O16  1  0.459092  0.783177  0.600916  1
  O  O17  1  0.783177  0.600916  0.459092  1
  O  O18  1  0.600916  0.459092  0.783177  1
  O  O19  1  0.716823  0.040908  0.899084  1
  O  O20  1  0.040908  0.899084  0.716823  1
  O  O21  1  0.899084  0.716823  0.040908  1
