# generated using pymatgen
data_CdSbO2F
_symmetry_space_group_name_H-M   'P 1'
_cell_length_a   5.52042212
_cell_length_b   3.99808400
_cell_length_c   7.54981823
_cell_angle_alpha   90.00000000
_cell_angle_beta   97.64483461
_cell_angle_gamma   90.00000000
_symmetry_Int_Tables_number   1
_chemical_formula_structural   CdSbO2F
_chemical_formula_sum   'Cd2 Sb2 O4 F2'
_cell_volume   165.15180330
_cell_formula_units_Z   2
loop_
 _symmetry_equiv_pos_site_id
 _symmetry_equiv_pos_as_xyz
  1  'x, y, z'
loop_
 _atom_site_type_symbol
 _atom_site_label
 _atom_site_symmetry_multiplicity
 _atom_site_fract_x
 _atom_site_fract_y
 _atom_site_fract_z
 _atom_site_occupancy
  Cd  Cd0  1  0.209512  0.250000  0.423663  1
  Cd  Cd1  1  0.790489  0.749999  0.576336  1
  Sb  Sb2  1  0.809414  0.749999  0.108245  1
  Sb  Sb3  1  0.190586  0.250000  0.891754  1
  O  O4  1  0.951640  0.250000  0.085361  1
  O  O5  1  0.023008  0.749999  0.342571  1
  O  O6  1  0.976992  0.250000  0.657428  1
  O  O7  1  0.048361  0.749999  0.914639  1
  F  F8  1  0.584433  0.250000  0.361462  1
  F  F9  1  0.415568  0.749999  0.638539  1
