# generated using pymatgen
data_CePr(In2Br5)2
_symmetry_space_group_name_H-M   'P 1'
_cell_length_a   8.71856000
_cell_length_b   9.25350300
_cell_length_c   13.54510100
_cell_angle_alpha   90.00000000
_cell_angle_beta   90.00000000
_cell_angle_gamma   90.00000000
_symmetry_Int_Tables_number   1
_chemical_formula_structural   CePr(In2Br5)2
_chemical_formula_sum   'Ce2 Pr2 In8 Br20'
_cell_volume   1092.78110841
_cell_formula_units_Z   2
loop_
 _symmetry_equiv_pos_site_id
 _symmetry_equiv_pos_as_xyz
  1  'x, y, z'
loop_
 _atom_site_type_symbol
 _atom_site_label
 _atom_site_symmetry_multiplicity
 _atom_site_fract_x
 _atom_site_fract_y
 _atom_site_fract_z
 _atom_site_occupancy
  Ce  Ce0  1  0.924823  0.750000  0.505349  1
  Ce  Ce1  1  0.575177  0.750000  0.005349  1
  Pr  Pr2  1  0.078028  0.250000  0.494163  1
  Pr  Pr3  1  0.421972  0.250000  0.994163  1
  In  In4  1  0.942558  0.004245  0.828171  1
  In  In5  1  0.057017  0.994543  0.171594  1
  In  In6  1  0.557442  0.495755  0.328171  1
  In  In7  1  0.057017  0.505457  0.171594  1
  In  In8  1  0.942558  0.495755  0.828171  1
  In  In9  1  0.442983  0.505457  0.671594  1
  In  In10  1  0.557442  0.004245  0.328171  1
  In  In11  1  0.442983  0.994543  0.671594  1
  Br  Br12  1  0.575993  0.750000  0.504829  1
  Br  Br13  1  0.169938  0.953915  0.426459  1
  Br  Br14  1  0.830760  0.046182  0.573152  1
  Br  Br15  1  0.330062  0.546085  0.926459  1
  Br  Br16  1  0.169938  0.546085  0.426459  1
  Br  Br17  1  0.342554  0.250000  0.207265  1
  Br  Br18  1  0.330062  0.953915  0.926459  1
  Br  Br19  1  0.830760  0.453818  0.573152  1
  Br  Br20  1  0.390744  0.750000  0.189384  1
  Br  Br21  1  0.669240  0.046182  0.073152  1
  Br  Br22  1  0.157446  0.250000  0.707265  1
  Br  Br23  1  0.609974  0.250000  0.811199  1
  Br  Br24  1  0.424139  0.250000  0.495838  1
  Br  Br25  1  0.109256  0.750000  0.689384  1
  Br  Br26  1  0.669240  0.453818  0.073152  1
  Br  Br27  1  0.075861  0.250000  0.995838  1
  Br  Br28  1  0.924007  0.750000  0.004829  1
  Br  Br29  1  0.842332  0.750000  0.293220  1
  Br  Br30  1  0.657668  0.750000  0.793220  1
  Br  Br31  1  0.890026  0.250000  0.311199  1
