# generated using pymatgen
data_Zr6GaSi2As
_symmetry_space_group_name_H-M   'P 1'
_cell_length_a   7.20383589
_cell_length_b   7.20383672
_cell_length_c   3.70207400
_cell_angle_alpha   90.00000000
_cell_angle_beta   90.00000000
_cell_angle_gamma   89.76835381
_symmetry_Int_Tables_number   1
_chemical_formula_structural   Zr6GaSi2As
_chemical_formula_sum   'Zr6 Ga1 Si2 As1'
_cell_volume   192.11851339
_cell_formula_units_Z   1
loop_
 _symmetry_equiv_pos_site_id
 _symmetry_equiv_pos_as_xyz
  1  'x, y, z'
loop_
 _atom_site_type_symbol
 _atom_site_label
 _atom_site_symmetry_multiplicity
 _atom_site_fract_x
 _atom_site_fract_y
 _atom_site_fract_z
 _atom_site_occupancy
  Zr  Zr0  1  0.669433  0.169433  0.500000  1
  Zr  Zr1  1  0.332478  0.832478  0.500000  1
  Zr  Zr2  1  0.175594  0.319300  0.500000  1
  Zr  Zr3  1  0.819300  0.675594  0.500000  1
  Zr  Zr4  1  0.998899  0.001369  0.000000  1
  Zr  Zr5  1  0.501369  0.498899  0.000000  1
  Ga  Ga6  1  0.129274  0.629274  0.000000  1
  Si  Si7  1  0.622174  0.876912  0.000000  1
  Si  Si8  1  0.376912  0.122174  0.000000  1
  As  As9  1  0.874566  0.374566  0.000000  1
