# generated using pymatgen
data_Lu6MnFeB14
_symmetry_space_group_name_H-M   'P 1'
_cell_length_a   7.84940419
_cell_length_b   7.84940435
_cell_length_c   9.13768100
_cell_angle_alpha   90.00000000
_cell_angle_beta   90.00000000
_cell_angle_gamma   155.21960706
_symmetry_Int_Tables_number   1
_chemical_formula_structural   Lu6MnFeB14
_chemical_formula_sum   'Lu6 Mn1 Fe1 B14'
_cell_volume   235.97715284
_cell_formula_units_Z   1
loop_
 _symmetry_equiv_pos_site_id
 _symmetry_equiv_pos_as_xyz
  1  'x, y, z'
loop_
 _atom_site_type_symbol
 _atom_site_label
 _atom_site_symmetry_multiplicity
 _atom_site_fract_x
 _atom_site_fract_y
 _atom_site_fract_z
 _atom_site_occupancy
  Lu  Lu0  1  0.894926  0.105074  0.439199  1
  Lu  Lu1  1  0.105043  0.894957  0.558656  1
  Lu  Lu2  1  0.894926  0.105074  0.060801  1
  Lu  Lu3  1  0.105043  0.894957  0.941344  1
  Lu  Lu4  1  0.242168  0.757832  0.250000  1
  Lu  Lu5  1  0.757062  0.242938  0.750000  1
  Mn  Mn6  1  0.052712  0.947288  0.250000  1
  Fe  Fe7  1  0.947418  0.052582  0.750000  1
  B  B8  1  0.728079  0.271921  0.466931  1
  B  B9  1  0.272455  0.727545  0.534132  1
  B  B10  1  0.728079  0.271921  0.033069  1
  B  B11  1  0.272455  0.727545  0.965868  1
  B  B12  1  0.630578  0.369422  0.152469  1
  B  B13  1  0.369684  0.630316  0.847582  1
  B  B14  1  0.630578  0.369422  0.347531  1
  B  B15  1  0.369684  0.630316  0.652418  1
  B  B16  1  0.520076  0.479924  0.096900  1
  B  B17  1  0.479823  0.520177  0.902982  1
  B  B18  1  0.520076  0.479924  0.403100  1
  B  B19  1  0.479823  0.520177  0.597018  1
  B  B20  1  0.454941  0.545059  0.250000  1
  B  B21  1  0.544371  0.455629  0.750000  1
