# generated using pymatgen
data_TbTm6Co4Tc2Sn23
_symmetry_space_group_name_H-M   'P 1'
_cell_length_a   9.72648334
_cell_length_b   9.72648320
_cell_length_c   9.99254979
_cell_angle_alpha   89.83725070
_cell_angle_beta   90.16274733
_cell_angle_gamma   119.52455098
_symmetry_Int_Tables_number   1
_chemical_formula_structural   TbTm6Co4Tc2Sn23
_chemical_formula_sum   'Tb1 Tm6 Co4 Tc2 Sn23'
_cell_volume   822.57801645
_cell_formula_units_Z   1
loop_
 _symmetry_equiv_pos_site_id
 _symmetry_equiv_pos_as_xyz
  1  'x, y, z'
loop_
 _atom_site_type_symbol
 _atom_site_label
 _atom_site_symmetry_multiplicity
 _atom_site_fract_x
 _atom_site_fract_y
 _atom_site_fract_z
 _atom_site_occupancy
  Tb  Tb0  1  0.000000  0.000000  0.000000  1
  Tm  Tm1  1  0.481765  0.518235  0.307389  1
  Tm  Tm2  1  0.518235  0.481765  0.692611  1
  Tm  Tm3  1  0.484278  0.962593  0.305449  1
  Tm  Tm4  1  0.515722  0.037407  0.694551  1
  Tm  Tm5  1  0.037407  0.515722  0.305449  1
  Tm  Tm6  1  0.962593  0.484278  0.694551  1
  Co  Co7  1  0.829434  0.658292  0.198723  1
  Co  Co8  1  0.170566  0.341708  0.801277  1
  Co  Co9  1  0.341708  0.170566  0.198723  1
  Co  Co10  1  0.658292  0.829434  0.801277  1
  Tc  Tc11  1  0.834793  0.165207  0.204001  1
  Tc  Tc12  1  0.165207  0.834793  0.795999  1
  Sn  Sn13  1  0.347881  0.000892  0.004022  1
  Sn  Sn14  1  0.652119  0.999108  0.995978  1
  Sn  Sn15  1  0.000892  0.347881  0.995978  1
  Sn  Sn16  1  0.999108  0.652119  0.004022  1
  Sn  Sn17  1  0.651097  0.651097  0.000000  1
  Sn  Sn18  1  0.348903  0.348903  0.000000  1
  Sn  Sn19  1  0.333517  0.666483  0.816638  1
  Sn  Sn20  1  0.666483  0.333517  0.183362  1
  Sn  Sn21  1  0.000000  0.000000  0.500000  1
  Sn  Sn22  1  0.779489  0.220511  0.461754  1
  Sn  Sn23  1  0.220511  0.779489  0.538246  1
  Sn  Sn24  1  0.781980  0.563598  0.453626  1
  Sn  Sn25  1  0.218020  0.436402  0.546374  1
  Sn  Sn26  1  0.436402  0.218020  0.453626  1
  Sn  Sn27  1  0.563598  0.781980  0.546374  1
  Sn  Sn28  1  0.333282  0.666718  0.123084  1
  Sn  Sn29  1  0.666718  0.333282  0.876916  1
  Sn  Sn30  1  0.118183  0.881817  0.273088  1
  Sn  Sn31  1  0.881817  0.118183  0.726912  1
  Sn  Sn32  1  0.130206  0.241158  0.270763  1
  Sn  Sn33  1  0.869794  0.758842  0.729237  1
  Sn  Sn34  1  0.758842  0.869794  0.270763  1
  Sn  Sn35  1  0.241158  0.130206  0.729237  1
