# generated using pymatgen
data_Er5Lu5(InBi2)2
_symmetry_space_group_name_H-M   'P 1'
_cell_length_a   6.43788703
_cell_length_b   8.97358570
_cell_length_c   8.95584507
_cell_angle_alpha   119.97569353
_cell_angle_beta   89.99732154
_cell_angle_gamma   89.99856774
_symmetry_Int_Tables_number   1
_chemical_formula_structural   Er5Lu5(InBi2)2
_chemical_formula_sum   'Er5 Lu5 In2 Bi4'
_cell_volume   448.18042852
_cell_formula_units_Z   1
loop_
 _symmetry_equiv_pos_site_id
 _symmetry_equiv_pos_as_xyz
  1  'x, y, z'
loop_
 _atom_site_type_symbol
 _atom_site_label
 _atom_site_symmetry_multiplicity
 _atom_site_fract_x
 _atom_site_fract_y
 _atom_site_fract_z
 _atom_site_occupancy
  Er  Er0  1  0.750148  0.236141  0.000248  1
  Er  Er1  1  0.750088  0.764750  0.762278  1
  Er  Er2  1  0.750065  0.002613  0.237376  1
  Er  Er3  1  0.250320  0.766053  0.999324  1
  Er  Er4  1  0.250157  0.232463  0.242491  1
  Lu  Lu5  1  0.496516  0.332208  0.660121  1
  Lu  Lu6  1  0.496490  0.673054  0.340501  1
  Lu  Lu7  1  0.003435  0.672831  0.340304  1
  Lu  Lu8  1  0.003398  0.332264  0.660327  1
  Lu  Lu9  1  0.250117  0.989097  0.757213  1
  In  In10  1  0.249588  0.603950  0.604685  1
  In  In11  1  0.249547  0.998493  0.396638  1
  Bi  Bi12  1  0.750058  0.605642  0.000397  1
  Bi  Bi13  1  0.749945  0.397052  0.393166  1
  Bi  Bi14  1  0.749912  0.004617  0.605988  1
  Bi  Bi15  1  0.250219  0.388775  0.998943  1
