# generated using pymatgen
data_TbEu2Er(SiPd2)4
_symmetry_space_group_name_H-M   'P 1'
_cell_length_a   5.58720041
_cell_length_b   7.01238500
_cell_length_c   7.51955424
_cell_angle_alpha   90.00000000
_cell_angle_beta   89.96372340
_cell_angle_gamma   90.00000000
_symmetry_Int_Tables_number   1
_chemical_formula_structural   TbEu2Er(SiPd2)4
_chemical_formula_sum   'Tb1 Eu2 Er1 Si4 Pd8'
_cell_volume   294.61307058
_cell_formula_units_Z   1
loop_
 _symmetry_equiv_pos_site_id
 _symmetry_equiv_pos_as_xyz
  1  'x, y, z'
loop_
 _atom_site_type_symbol
 _atom_site_label
 _atom_site_symmetry_multiplicity
 _atom_site_fract_x
 _atom_site_fract_y
 _atom_site_fract_z
 _atom_site_occupancy
  Tb  Tb0  1  0.856833  0.250000  0.470624  1
  Eu  Eu1  1  0.135697  0.750000  0.531175  1
  Eu  Eu2  1  0.635642  0.250000  0.969264  1
  Er  Er3  1  0.354053  0.750000  0.030166  1
  Si  Si4  1  0.855985  0.750000  0.879391  1
  Si  Si5  1  0.357697  0.250000  0.621618  1
  Si  Si6  1  0.138548  0.250000  0.126309  1
  Si  Si7  1  0.638464  0.750000  0.371938  1
  Pd  Pd8  1  0.905238  0.946665  0.174474  1
  Pd  Pd9  1  0.404309  0.052527  0.323737  1
  Pd  Pd10  1  0.103197  0.447781  0.831078  1
  Pd  Pd11  1  0.600796  0.553309  0.670469  1
  Pd  Pd12  1  0.103197  0.052219  0.831078  1
  Pd  Pd13  1  0.600796  0.946691  0.670469  1
  Pd  Pd14  1  0.905238  0.553335  0.174474  1
  Pd  Pd15  1  0.404309  0.447473  0.323737  1
