# generated using pymatgen
data_Dy5In4IrPd
_symmetry_space_group_name_H-M   'P 1'
_cell_length_a   3.63461600
_cell_length_b   8.12307531
_cell_length_c   18.29797400
_cell_angle_alpha   89.96749061
_cell_angle_beta   90.00000000
_cell_angle_gamma   90.00000000
_symmetry_Int_Tables_number   1
_chemical_formula_structural   Dy5In4IrPd
_chemical_formula_sum   'Dy10 In8 Ir2 Pd2'
_cell_volume   540.23404541
_cell_formula_units_Z   2
loop_
 _symmetry_equiv_pos_site_id
 _symmetry_equiv_pos_as_xyz
  1  'x, y, z'
loop_
 _atom_site_type_symbol
 _atom_site_label
 _atom_site_symmetry_multiplicity
 _atom_site_fract_x
 _atom_site_fract_y
 _atom_site_fract_z
 _atom_site_occupancy
  Dy  Dy0  1  0.000000  0.500000  0.500000  1
  Dy  Dy1  1  0.000000  0.000000  0.000000  1
  Dy  Dy2  1  0.000000  0.732469  0.277577  1
  Dy  Dy3  1  0.000000  0.267531  0.722423  1
  Dy  Dy4  1  0.000000  0.745204  0.779869  1
  Dy  Dy5  1  0.000000  0.254796  0.220131  1
  Dy  Dy6  1  0.000000  0.614922  0.086930  1
  Dy  Dy7  1  0.000000  0.385078  0.913070  1
  Dy  Dy8  1  0.000000  0.882856  0.584475  1
  Dy  Dy9  1  0.000000  0.117144  0.415525  1
  In  In10  1  0.500000  0.708901  0.931437  1
  In  In11  1  0.500000  0.291099  0.068563  1
  In  In12  1  0.500000  0.791563  0.431783  1
  In  In13  1  0.500000  0.208437  0.568217  1
  In  In14  1  0.500000  0.575411  0.648886  1
  In  In15  1  0.500000  0.424589  0.351114  1
  In  In16  1  0.500000  0.924384  0.149767  1
  In  In17  1  0.500000  0.075616  0.850233  1
  Ir  Ir18  1  0.500000  0.521752  0.195504  1
  Ir  Ir19  1  0.500000  0.478248  0.804496  1
  Pd  Pd20  1  0.500000  0.978012  0.696287  1
  Pd  Pd21  1  0.500000  0.021988  0.303713  1
