# generated using pymatgen
data_Ce5ReTcB6
_symmetry_space_group_name_H-M   'P 1'
_cell_length_a   5.48049829
_cell_length_b   5.48049827
_cell_length_c   8.59409358
_cell_angle_alpha   71.40644744
_cell_angle_beta   71.40644575
_cell_angle_gamma   60.00000023
_symmetry_Int_Tables_number   1
_chemical_formula_structural   Ce5ReTcB6
_chemical_formula_sum   'Ce5 Re1 Tc1 B6'
_cell_volume   207.84483020
_cell_formula_units_Z   1
loop_
 _symmetry_equiv_pos_site_id
 _symmetry_equiv_pos_as_xyz
  1  'x, y, z'
loop_
 _atom_site_type_symbol
 _atom_site_label
 _atom_site_symmetry_multiplicity
 _atom_site_fract_x
 _atom_site_fract_y
 _atom_site_fract_z
 _atom_site_occupancy
  Ce  Ce0  1  0.003695  0.003695  0.988914  1
  Ce  Ce1  1  0.748638  0.748638  0.754085  1
  Ce  Ce2  1  0.252204  0.252204  0.243388  1
  Ce  Ce3  1  0.585238  0.585238  0.244284  1
  Ce  Ce4  1  0.415049  0.415049  0.754854  1
  Re  Re5  1  0.889168  0.889168  0.332499  1
  Tc  Tc6  1  0.107828  0.107828  0.676516  1
  B  B7  1  0.499133  0.170945  0.500910  1
  B  B8  1  0.829011  0.499133  0.500910  1
  B  B9  1  0.170945  0.829011  0.500910  1
  B  B10  1  0.170945  0.499133  0.500910  1
  B  B11  1  0.829011  0.170945  0.500910  1
  B  B12  1  0.499133  0.829011  0.500910  1
