# generated using pymatgen
data_Er2FeCoGe2C
_symmetry_space_group_name_H-M   'P 1'
_cell_length_a   5.65618744
_cell_length_b   5.65618842
_cell_length_c   6.78676718
_cell_angle_alpha   125.17263825
_cell_angle_beta   125.17264508
_cell_angle_gamma   40.36645576
_symmetry_Int_Tables_number   1
_chemical_formula_structural   Er2FeCoGe2C
_chemical_formula_sum   'Er2 Fe1 Co1 Ge2 C1'
_cell_volume   111.02698310
_cell_formula_units_Z   1
loop_
 _symmetry_equiv_pos_site_id
 _symmetry_equiv_pos_as_xyz
  1  'x, y, z'
loop_
 _atom_site_type_symbol
 _atom_site_label
 _atom_site_symmetry_multiplicity
 _atom_site_fract_x
 _atom_site_fract_y
 _atom_site_fract_z
 _atom_site_occupancy
  Er  Er0  1  0.557255  0.557255  0.287692  1
  Er  Er1  1  0.442652  0.442652  0.712308  1
  Fe  Fe2  1  0.193458  0.193458  0.082533  1
  Co  Co3  1  0.805240  0.805240  0.915206  1
  Ge  Ge4  1  0.838380  0.838380  0.298847  1
  Ge  Ge5  1  0.160564  0.160564  0.700717  1
  C  C6  1  0.002449  0.002449  0.002693  1
