# generated using pymatgen
data_Ho3Er3Th2(MgRu)2
_symmetry_space_group_name_H-M   'P 1'
_cell_length_a   9.72887222
_cell_length_b   9.72956267
_cell_length_c   9.72936054
_cell_angle_alpha   59.83561756
_cell_angle_beta   59.82895497
_cell_angle_gamma   59.83897460
_symmetry_Int_Tables_number   1
_chemical_formula_structural   Ho3Er3Th2(MgRu)2
_chemical_formula_sum   'Ho6 Er6 Th4 Mg4 Ru4'
_cell_volume   648.77021744
_cell_formula_units_Z   2
loop_
 _symmetry_equiv_pos_site_id
 _symmetry_equiv_pos_as_xyz
  1  'x, y, z'
loop_
 _atom_site_type_symbol
 _atom_site_label
 _atom_site_symmetry_multiplicity
 _atom_site_fract_x
 _atom_site_fract_y
 _atom_site_fract_z
 _atom_site_occupancy
  Ho  Ho0  1  0.934563  0.565241  0.565212  1
  Ho  Ho1  1  0.563329  0.935617  0.935614  1
  Ho  Ho2  1  0.565224  0.934565  0.565238  1
  Ho  Ho3  1  0.935605  0.563350  0.935606  1
  Ho  Ho4  1  0.565213  0.565245  0.934559  1
  Ho  Ho5  1  0.935603  0.935612  0.563338  1
  Er  Er6  1  0.813100  0.186149  0.186140  1
  Er  Er7  1  0.185339  0.814054  0.814068  1
  Er  Er8  1  0.186133  0.813098  0.186129  1
  Er  Er9  1  0.814068  0.185347  0.814050  1
  Er  Er10  1  0.186139  0.186134  0.813098  1
  Er  Er11  1  0.814084  0.814060  0.185335  1
  Th  Th12  1  0.346223  0.346197  0.346240  1
  Th  Th13  1  0.346862  0.346813  0.960189  1
  Th  Th14  1  0.346858  0.960194  0.346840  1
  Th  Th15  1  0.960204  0.346827  0.346856  1
  Mg  Mg16  1  0.579967  0.579973  0.579960  1
  Mg  Mg17  1  0.579483  0.579490  0.260252  1
  Mg  Mg18  1  0.579467  0.260212  0.579494  1
  Mg  Mg19  1  0.260228  0.579488  0.579478  1
  Ru  Ru20  1  0.142975  0.142969  0.142985  1
  Ru  Ru21  1  0.144431  0.144427  0.570483  1
  Ru  Ru22  1  0.144410  0.570507  0.144407  1
  Ru  Ru23  1  0.570494  0.144432  0.144427  1
