# generated using pymatgen
data_ErTm(Ga3Rh)3
_symmetry_space_group_name_H-M   'P 1'
_cell_length_a   7.53857444
_cell_length_b   7.53936457
_cell_length_c   9.51712500
_cell_angle_alpha   90.00000000
_cell_angle_beta   90.00000000
_cell_angle_gamma   119.85365184
_symmetry_Int_Tables_number   1
_chemical_formula_structural   ErTm(Ga3Rh)3
_chemical_formula_sum   'Er2 Tm2 Ga18 Rh6'
_cell_volume   469.13619904
_cell_formula_units_Z   2
loop_
 _symmetry_equiv_pos_site_id
 _symmetry_equiv_pos_as_xyz
  1  'x, y, z'
loop_
 _atom_site_type_symbol
 _atom_site_label
 _atom_site_symmetry_multiplicity
 _atom_site_fract_x
 _atom_site_fract_y
 _atom_site_fract_z
 _atom_site_occupancy
  Er  Er0  1  0.997157  0.668108  0.250000  1
  Er  Er1  1  0.002843  0.331892  0.750000  1
  Tm  Tm2  1  0.668063  0.997081  0.250000  1
  Tm  Tm3  1  0.331937  0.002919  0.750000  1
  Ga  Ga4  1  0.124716  0.124795  0.250000  1
  Ga  Ga5  1  0.875284  0.875205  0.750000  1
  Ga  Ga6  1  0.999578  0.333865  0.079869  1
  Ga  Ga7  1  0.000422  0.666135  0.920131  1
  Ga  Ga8  1  0.000422  0.666135  0.579869  1
  Ga  Ga9  1  0.334192  0.999736  0.420229  1
  Ga  Ga10  1  0.999578  0.333865  0.420131  1
  Ga  Ga11  1  0.665808  0.000264  0.579771  1
  Ga  Ga12  1  0.665808  0.000264  0.920229  1
  Ga  Ga13  1  0.334192  0.999736  0.079771  1
  Ga  Ga14  1  0.332982  0.332837  0.564500  1
  Ga  Ga15  1  0.667018  0.667163  0.435500  1
  Ga  Ga16  1  0.667018  0.667163  0.064500  1
  Ga  Ga17  1  0.332982  0.332837  0.935500  1
  Ga  Ga18  1  0.338212  0.547716  0.250000  1
  Ga  Ga19  1  0.661788  0.452284  0.750000  1
  Ga  Ga20  1  0.547575  0.337985  0.250000  1
  Ga  Ga21  1  0.452425  0.662015  0.750000  1
  Rh  Rh22  1  0.671703  0.328215  0.999993  1
  Rh  Rh23  1  0.328297  0.671785  0.000007  1
  Rh  Rh24  1  0.328297  0.671785  0.499993  1
  Rh  Rh25  1  0.671703  0.328215  0.500007  1
  Rh  Rh26  1  0.000000  0.000000  0.000000  1
  Rh  Rh27  1  0.000000  0.000000  0.500000  1
