# generated using pymatgen
data_Ca6MnOsN6
_symmetry_space_group_name_H-M   'P 1'
_cell_length_a   6.68789117
_cell_length_b   6.68789081
_cell_length_c   5.03535800
_cell_angle_alpha   90.00000000
_cell_angle_beta   90.00000000
_cell_angle_gamma   101.34182708
_symmetry_Int_Tables_number   1
_chemical_formula_structural   Ca6MnOsN6
_chemical_formula_sum   'Ca6 Mn1 Os1 N6'
_cell_volume   220.82265841
_cell_formula_units_Z   1
loop_
 _symmetry_equiv_pos_site_id
 _symmetry_equiv_pos_as_xyz
  1  'x, y, z'
loop_
 _atom_site_type_symbol
 _atom_site_label
 _atom_site_symmetry_multiplicity
 _atom_site_fract_x
 _atom_site_fract_y
 _atom_site_fract_z
 _atom_site_occupancy
  Ca  Ca0  1  0.669239  0.902750  0.750000  1
  Ca  Ca1  1  0.393405  0.606595  0.250000  1
  Ca  Ca2  1  0.903268  0.672145  0.250000  1
  Ca  Ca3  1  0.607334  0.392666  0.750000  1
  Ca  Ca4  1  0.327855  0.096732  0.250000  1
  Ca  Ca5  1  0.097250  0.330761  0.750000  1
  Mn  Mn6  1  0.198074  0.801926  0.750000  1
  Os  Os7  1  0.806624  0.193376  0.250000  1
  N  N8  1  0.674906  0.918205  0.250000  1
  N  N9  1  0.371073  0.628927  0.750000  1
  N  N10  1  0.618611  0.381389  0.250000  1
  N  N11  1  0.934101  0.683532  0.750000  1
  N  N12  1  0.316468  0.065899  0.750000  1
  N  N13  1  0.081795  0.325094  0.250000  1
