# generated using pymatgen
data_PrNd(SiIr2)2
_symmetry_space_group_name_H-M   'P 1'
_cell_length_a   4.01731260
_cell_length_b   4.11869000
_cell_length_c   9.09287800
_cell_angle_alpha   90.00000000
_cell_angle_beta   102.76214324
_cell_angle_gamma   90.00000000
_symmetry_Int_Tables_number   1
_chemical_formula_structural   PrNd(SiIr2)2
_chemical_formula_sum   'Pr1 Nd1 Si2 Ir4'
_cell_volume   146.73453081
_cell_formula_units_Z   1
loop_
 _symmetry_equiv_pos_site_id
 _symmetry_equiv_pos_as_xyz
  1  'x, y, z'
loop_
 _atom_site_type_symbol
 _atom_site_label
 _atom_site_symmetry_multiplicity
 _atom_site_fract_x
 _atom_site_fract_y
 _atom_site_fract_z
 _atom_site_occupancy
  Pr  Pr0  1  0.400136  0.750000  0.800271  1
  Nd  Nd1  1  0.600023  0.250000  0.200046  1
  Si  Si2  1  0.822776  0.250000  0.645554  1
  Si  Si3  1  0.176951  0.750000  0.353902  1
  Ir  Ir4  1  0.956976  0.250000  0.913954  1
  Ir  Ir5  1  0.043643  0.750000  0.087286  1
  Ir  Ir6  1  0.249518  0.250000  0.499032  1
  Ir  Ir7  1  0.749976  0.750000  0.499956  1
