# generated using pymatgen
data_Nd20(Si3Sn)3
_symmetry_space_group_name_H-M   'P 1'
_cell_length_a   7.85846700
_cell_length_b   7.85846700
_cell_length_c   14.55645000
_cell_angle_alpha   90.00000000
_cell_angle_beta   90.00000000
_cell_angle_gamma   90.00000000
_symmetry_Int_Tables_number   1
_chemical_formula_structural   Nd20(Si3Sn)3
_chemical_formula_sum   'Nd20 Si9 Sn3'
_cell_volume   898.94090023
_cell_formula_units_Z   1
loop_
 _symmetry_equiv_pos_site_id
 _symmetry_equiv_pos_as_xyz
  1  'x, y, z'
loop_
 _atom_site_type_symbol
 _atom_site_label
 _atom_site_symmetry_multiplicity
 _atom_site_fract_x
 _atom_site_fract_y
 _atom_site_fract_z
 _atom_site_occupancy
  Nd  Nd0  1  0.322792  0.677593  0.113755  1
  Nd  Nd1  1  0.177593  0.177208  0.113755  1
  Nd  Nd2  1  0.500000  0.000000  0.731469  1
  Nd  Nd3  1  0.315379  0.671699  0.392842  1
  Nd  Nd4  1  0.673461  0.681752  0.886003  1
  Nd  Nd5  1  0.171699  0.184621  0.392842  1
  Nd  Nd6  1  0.684621  0.328301  0.392842  1
  Nd  Nd7  1  0.167455  0.811295  0.607121  1
  Nd  Nd8  1  0.326539  0.318248  0.886003  1
  Nd  Nd9  1  0.181752  0.826539  0.886003  1
  Nd  Nd10  1  0.500000  0.000000  0.257289  1
  Nd  Nd11  1  0.832545  0.188705  0.607121  1
  Nd  Nd12  1  0.311295  0.332545  0.607121  1
  Nd  Nd13  1  0.828301  0.815379  0.392842  1
  Nd  Nd14  1  0.818248  0.173461  0.886003  1
  Nd  Nd15  1  0.822407  0.822792  0.113755  1
  Nd  Nd16  1  0.000000  0.500000  0.253623  1
  Nd  Nd17  1  0.000000  0.500000  0.762691  1
  Nd  Nd18  1  0.677208  0.322407  0.113755  1
  Nd  Nd19  1  0.688705  0.667455  0.607121  1
  Si  Si20  1  0.115631  0.114330  0.747109  1
  Si  Si21  1  0.385670  0.615631  0.747109  1
  Si  Si22  1  0.614237  0.615743  0.252572  1
  Si  Si23  1  0.115743  0.885763  0.252572  1
  Si  Si24  1  0.614330  0.384369  0.747109  1
  Si  Si25  1  0.884369  0.885670  0.747109  1
  Si  Si26  1  0.385763  0.384257  0.252572  1
  Si  Si27  1  0.884257  0.114237  0.252572  1
  Si  Si28  1  0.000000  0.500000  0.494686  1
  Sn  Sn29  1  0.000000  0.500000  0.999723  1
  Sn  Sn30  1  0.500000  0.000000  0.003770  1
  Sn  Sn31  1  0.500000  0.000000  0.499146  1
