# generated using pymatgen
data_InCu4(PdO4)2
_symmetry_space_group_name_H-M   'P 1'
_cell_length_a   6.67912668
_cell_length_b   6.59724166
_cell_length_c   6.59724160
_cell_angle_alpha   60.82288314
_cell_angle_beta   59.58855496
_cell_angle_gamma   59.58855616
_symmetry_Int_Tables_number   1
_chemical_formula_structural   InCu4(PdO4)2
_chemical_formula_sum   'In1 Cu4 Pd2 O8'
_cell_volume   205.49152935
_cell_formula_units_Z   1
loop_
 _symmetry_equiv_pos_site_id
 _symmetry_equiv_pos_as_xyz
  1  'x, y, z'
loop_
 _atom_site_type_symbol
 _atom_site_label
 _atom_site_symmetry_multiplicity
 _atom_site_fract_x
 _atom_site_fract_y
 _atom_site_fract_z
 _atom_site_occupancy
  In  In0  1  0.000000  0.000000  0.000000  1
  Cu  Cu1  1  0.000000  0.000000  0.500000  1
  Cu  Cu2  1  0.000000  0.500000  0.000000  1
  Cu  Cu3  1  0.500000  0.500000  0.000000  1
  Cu  Cu4  1  0.500000  0.000000  0.500000  1
  Pd  Pd5  1  0.500000  0.000000  0.000000  1
  Pd  Pd6  1  0.000000  0.500000  0.500000  1
  O  O7  1  0.147358  0.129207  0.576078  1
  O  O8  1  0.147358  0.576078  0.129207  1
  O  O9  1  0.576078  0.147358  0.147358  1
  O  O10  1  0.852642  0.423922  0.870793  1
  O  O11  1  0.129207  0.147358  0.147358  1
  O  O12  1  0.870793  0.852642  0.852642  1
  O  O13  1  0.852642  0.870793  0.423922  1
  O  O14  1  0.423922  0.852642  0.852642  1
