# generated using pymatgen
data_UBrCl5
_symmetry_space_group_name_H-M   'P 1'
_cell_length_a   11.93016300
_cell_length_b   11.93016255
_cell_length_c   6.52945400
_cell_angle_alpha   90.00000000
_cell_angle_beta   90.00000000
_cell_angle_gamma   119.99999847
_symmetry_Int_Tables_number   1
_chemical_formula_structural   UBrCl5
_chemical_formula_sum   'U3 Br3 Cl15'
_cell_volume   804.82274883
_cell_formula_units_Z   3
loop_
 _symmetry_equiv_pos_site_id
 _symmetry_equiv_pos_as_xyz
  1  'x, y, z'
loop_
 _atom_site_type_symbol
 _atom_site_label
 _atom_site_symmetry_multiplicity
 _atom_site_fract_x
 _atom_site_fract_y
 _atom_site_fract_z
 _atom_site_occupancy
  U  U0  1  0.666667  0.333333  0.514693  1
  U  U1  1  0.333333  0.666667  0.476404  1
  U  U2  1  0.000000  0.000000  0.000449  1
  Br  Br3  1  0.229763  0.770237  0.712400  1
  Br  Br4  1  0.229763  0.459525  0.712400  1
  Br  Br5  1  0.540475  0.770237  0.712400  1
  Cl  Cl6  1  0.097551  0.902449  0.218770  1
  Cl  Cl7  1  0.097551  0.195103  0.218770  1
  Cl  Cl8  1  0.804897  0.902449  0.218770  1
  Cl  Cl9  1  0.195017  0.097508  0.781503  1
  Cl  Cl10  1  0.902492  0.804983  0.781503  1
  Cl  Cl11  1  0.902492  0.097508  0.781503  1
  Cl  Cl12  1  0.431482  0.568518  0.260172  1
  Cl  Cl13  1  0.431482  0.862965  0.260172  1
  Cl  Cl14  1  0.137035  0.568518  0.260172  1
  Cl  Cl15  1  0.861619  0.430809  0.733749  1
  Cl  Cl16  1  0.569191  0.138381  0.733749  1
  Cl  Cl17  1  0.569191  0.430809  0.733749  1
  Cl  Cl18  1  0.764276  0.235724  0.296224  1
  Cl  Cl19  1  0.764276  0.528552  0.296224  1
  Cl  Cl20  1  0.471448  0.235724  0.296224  1
