# generated using pymatgen
data_Ba3Gd2WO9
_symmetry_space_group_name_H-M   'P 1'
_cell_length_a   6.15916500
_cell_length_b   6.15916531
_cell_length_c   7.53074800
_cell_angle_alpha   90.00000000
_cell_angle_beta   90.00000000
_cell_angle_gamma   119.99999298
_symmetry_Int_Tables_number   1
_chemical_formula_structural   Ba3Gd2WO9
_chemical_formula_sum   'Ba3 Gd2 W1 O9'
_cell_volume   247.40728114
_cell_formula_units_Z   1
loop_
 _symmetry_equiv_pos_site_id
 _symmetry_equiv_pos_as_xyz
  1  'x, y, z'
loop_
 _atom_site_type_symbol
 _atom_site_label
 _atom_site_symmetry_multiplicity
 _atom_site_fract_x
 _atom_site_fract_y
 _atom_site_fract_z
 _atom_site_occupancy
  Ba  Ba0  1  0.000000  0.000000  0.500000  1
  Ba  Ba1  1  0.666667  0.333333  0.816681  1
  Ba  Ba2  1  0.333333  0.666667  0.183319  1
  Gd  Gd3  1  0.666667  0.333333  0.328958  1
  Gd  Gd4  1  0.333333  0.666667  0.671042  1
  W  W5  1  0.000000  0.000000  0.000000  1
  O  O6  1  0.698120  0.849061  0.851009  1
  O  O7  1  0.301880  0.150939  0.148991  1
  O  O8  1  0.000000  0.500000  0.500000  1
  O  O9  1  0.500000  0.000000  0.500000  1
  O  O10  1  0.150939  0.301880  0.851009  1
  O  O11  1  0.849061  0.698120  0.148991  1
  O  O12  1  0.500000  0.500000  0.500000  1
  O  O13  1  0.150939  0.849061  0.851009  1
  O  O14  1  0.849061  0.150939  0.148991  1
