# generated using pymatgen
data_Ba2CdSeS2
_symmetry_space_group_name_H-M   'P 1'
_cell_length_a   4.48042500
_cell_length_b   9.14336100
_cell_length_c   17.68084100
_cell_angle_alpha   90.00000000
_cell_angle_beta   90.00000000
_cell_angle_gamma   90.00000000
_symmetry_Int_Tables_number   1
_chemical_formula_structural   Ba2CdSeS2
_chemical_formula_sum   'Ba8 Cd4 Se4 S8'
_cell_volume   724.31586445
_cell_formula_units_Z   4
loop_
 _symmetry_equiv_pos_site_id
 _symmetry_equiv_pos_as_xyz
  1  'x, y, z'
loop_
 _atom_site_type_symbol
 _atom_site_label
 _atom_site_symmetry_multiplicity
 _atom_site_fract_x
 _atom_site_fract_y
 _atom_site_fract_z
 _atom_site_occupancy
  Ba  Ba0  1  0.250000  0.773374  0.958782  1
  Ba  Ba1  1  0.750000  0.726626  0.458782  1
  Ba  Ba2  1  0.250000  0.273374  0.541218  1
  Ba  Ba3  1  0.750000  0.226626  0.041218  1
  Ba  Ba4  1  0.250000  0.419427  0.284980  1
  Ba  Ba5  1  0.750000  0.580573  0.715020  1
  Ba  Ba6  1  0.250000  0.919427  0.215020  1
  Ba  Ba7  1  0.750000  0.080573  0.784980  1
  Cd  Cd8  1  0.750000  0.126195  0.366907  1
  Cd  Cd9  1  0.750000  0.626195  0.133093  1
  Cd  Cd10  1  0.250000  0.873805  0.633093  1
  Cd  Cd11  1  0.250000  0.373805  0.866907  1
  Se  Se12  1  0.250000  0.981426  0.405019  1
  Se  Se13  1  0.750000  0.018574  0.594981  1
  Se  Se14  1  0.250000  0.481426  0.094981  1
  Se  Se15  1  0.750000  0.518574  0.905019  1
  S  S16  1  0.250000  0.120322  0.928152  1
  S  S17  1  0.750000  0.879678  0.071848  1
  S  S18  1  0.250000  0.620322  0.571848  1
  S  S19  1  0.750000  0.181206  0.224778  1
  S  S20  1  0.250000  0.318794  0.724778  1
  S  S21  1  0.750000  0.681206  0.275222  1
  S  S22  1  0.250000  0.818794  0.775222  1
  S  S23  1  0.750000  0.379678  0.428152  1
