# generated using pymatgen
data_Ho12Tc3Sb
_symmetry_space_group_name_H-M   'P 1'
_cell_length_a   6.27428005
_cell_length_b   7.65261976
_cell_length_c   9.16098000
_cell_angle_alpha   90.00000000
_cell_angle_beta   90.00000000
_cell_angle_gamma   89.24742708
_symmetry_Int_Tables_number   1
_chemical_formula_structural   Ho12Tc3Sb
_chemical_formula_sum   'Ho12 Tc3 Sb1'
_cell_volume   439.82357529
_cell_formula_units_Z   1
loop_
 _symmetry_equiv_pos_site_id
 _symmetry_equiv_pos_as_xyz
  1  'x, y, z'
loop_
 _atom_site_type_symbol
 _atom_site_label
 _atom_site_symmetry_multiplicity
 _atom_site_fract_x
 _atom_site_fract_y
 _atom_site_fract_z
 _atom_site_occupancy
  Ho  Ho0  1  0.335790  0.672675  0.069628  1
  Ho  Ho1  1  0.162384  0.181807  0.431787  1
  Ho  Ho2  1  0.657436  0.298509  0.552877  1
  Ho  Ho3  1  0.861105  0.845449  0.943842  1
  Ho  Ho4  1  0.657436  0.298509  0.947123  1
  Ho  Ho5  1  0.861105  0.845449  0.556158  1
  Ho  Ho6  1  0.335790  0.672675  0.430372  1
  Ho  Ho7  1  0.162384  0.181807  0.068213  1
  Ho  Ho8  1  0.867404  0.543431  0.250000  1
  Ho  Ho9  1  0.617831  0.029385  0.250000  1
  Ho  Ho10  1  0.102814  0.456396  0.750000  1
  Ho  Ho11  1  0.364810  0.981931  0.750000  1
  Tc  Tc12  1  0.037071  0.879583  0.250000  1
  Tc  Tc13  1  0.462106  0.376117  0.250000  1
  Tc  Tc14  1  0.945539  0.121830  0.750000  1
  Sb  Sb15  1  0.568995  0.614443  0.750000  1
