# generated using pymatgen
data_HoLu7Ta4(TiSi2)8
_symmetry_space_group_name_H-M   'P 1'
_cell_length_a   6.98344104
_cell_length_b   6.98540075
_cell_length_c   12.84734101
_cell_angle_alpha   89.96376502
_cell_angle_beta   90.00419115
_cell_angle_gamma   89.98098245
_symmetry_Int_Tables_number   1
_chemical_formula_structural   HoLu7Ta4(TiSi2)8
_chemical_formula_sum   'Ho1 Lu7 Ta4 Ti8 Si16'
_cell_volume   626.72055211
_cell_formula_units_Z   1
loop_
 _symmetry_equiv_pos_site_id
 _symmetry_equiv_pos_as_xyz
  1  'x, y, z'
loop_
 _atom_site_type_symbol
 _atom_site_label
 _atom_site_symmetry_multiplicity
 _atom_site_fract_x
 _atom_site_fract_y
 _atom_site_fract_z
 _atom_site_occupancy
  Ho  Ho0  1  0.996906  0.659145  0.032942  1
  Lu  Lu1  1  0.341310  0.001781  0.467060  1
  Lu  Lu2  1  0.498276  0.841351  0.716879  1
  Lu  Lu3  1  0.501606  0.158759  0.217256  1
  Lu  Lu4  1  0.841210  0.498195  0.283173  1
  Lu  Lu5  1  0.158938  0.501513  0.782781  1
  Lu  Lu6  1  0.658451  0.998480  0.966829  1
  Lu  Lu7  1  0.001779  0.341299  0.532971  1
  Ta  Ta8  1  0.327011  0.326545  0.999941  1
  Ta  Ta9  1  0.173384  0.826888  0.250242  1
  Ta  Ta10  1  0.826631  0.173157  0.749785  1
  Ta  Ta11  1  0.673239  0.673199  0.499953  1
  Ti  Ti12  1  0.152003  0.007464  0.875017  1
  Ti  Ti13  1  0.492471  0.651516  0.125460  1
  Ti  Ti14  1  0.507584  0.348551  0.625221  1
  Ti  Ti15  1  0.651360  0.491911  0.874384  1
  Ti  Ti16  1  0.348701  0.507578  0.374920  1
  Ti  Ti17  1  0.848477  0.992654  0.375562  1
  Ti  Ti18  1  0.007717  0.152037  0.124819  1
  Ti  Ti19  1  0.992497  0.848611  0.624521  1
  Si  Si20  1  0.203328  0.132201  0.682680  1
  Si  Si21  1  0.369174  0.703600  0.932531  1
  Si  Si22  1  0.632301  0.296641  0.432855  1
  Si  Si23  1  0.702267  0.366730  0.067084  1
  Si  Si24  1  0.296656  0.632328  0.567236  1
  Si  Si25  1  0.795926  0.869089  0.183835  1
  Si  Si26  1  0.132303  0.203200  0.317346  1
  Si  Si27  1  0.867820  0.796984  0.816574  1
  Si  Si28  1  0.294783  0.954166  0.064322  1
  Si  Si29  1  0.546204  0.794229  0.314388  1
  Si  Si30  1  0.453396  0.205837  0.814043  1
  Si  Si31  1  0.794141  0.546532  0.685668  1
  Si  Si32  1  0.206595  0.452871  0.186322  1
  Si  Si33  1  0.705794  0.046544  0.564212  1
  Si  Si34  1  0.953267  0.292550  0.935379  1
  Si  Si35  1  0.046491  0.705866  0.435802  1
