# generated using pymatgen
data_Li4Dy7Y(ScSi2)8
_symmetry_space_group_name_H-M   'P 1'
_cell_length_a   6.89704200
_cell_length_b   7.40106600
_cell_length_c   14.07686800
_cell_angle_alpha   90.00024596
_cell_angle_beta   90.00238882
_cell_angle_gamma   90.00144270
_symmetry_Int_Tables_number   1
_chemical_formula_structural   Li4Dy7Y(ScSi2)8
_chemical_formula_sum   'Li4 Dy7 Y1 Sc8 Si16'
_cell_volume   718.56024488
_cell_formula_units_Z   1
loop_
 _symmetry_equiv_pos_site_id
 _symmetry_equiv_pos_as_xyz
  1  'x, y, z'
loop_
 _atom_site_type_symbol
 _atom_site_label
 _atom_site_symmetry_multiplicity
 _atom_site_fract_x
 _atom_site_fract_y
 _atom_site_fract_z
 _atom_site_occupancy
  Li  Li0  1  0.159243  0.505081  0.749997  1
  Li  Li1  1  0.840756  0.494917  0.250003  1
  Li  Li2  1  0.340757  0.005092  0.250001  1
  Li  Li3  1  0.659252  0.994913  0.749998  1
  Dy  Dy4  1  0.986203  0.818255  0.900735  1
  Dy  Dy5  1  0.486204  0.681728  0.900745  1
  Dy  Dy6  1  0.986230  0.818257  0.599254  1
  Dy  Dy7  1  0.513774  0.318287  0.099271  1
  Dy  Dy8  1  0.013798  0.181754  0.400745  1
  Dy  Dy9  1  0.513779  0.318256  0.400734  1
  Dy  Dy10  1  0.486215  0.681744  0.599254  1
  Y  Y11  1  0.013735  0.181632  0.099221  1
  Sc  Sc12  1  0.330232  0.179151  0.626427  1
  Sc  Sc13  1  0.669753  0.820852  0.373549  1
  Sc  Sc14  1  0.169769  0.679146  0.373551  1
  Sc  Sc15  1  0.669737  0.820832  0.126479  1
  Sc  Sc16  1  0.830243  0.320856  0.626421  1
  Sc  Sc17  1  0.330234  0.179129  0.873547  1
  Sc  Sc18  1  0.830215  0.320884  0.873537  1
  Sc  Sc19  1  0.169767  0.679153  0.126474  1
  Si  Si20  1  0.031604  0.104550  0.750009  1
  Si  Si21  1  0.968349  0.895356  0.250041  1
  Si  Si22  1  0.468383  0.604538  0.249987  1
  Si  Si23  1  0.531614  0.395436  0.750005  1
  Si  Si24  1  0.282134  0.881516  0.750005  1
  Si  Si25  1  0.717771  0.118491  0.250039  1
  Si  Si26  1  0.218003  0.381642  0.250102  1
  Si  Si27  1  0.782120  0.618497  0.750004  1
  Si  Si28  1  0.158021  0.463142  0.535323  1
  Si  Si29  1  0.841978  0.536857  0.464670  1
  Si  Si30  1  0.341978  0.963125  0.464672  1
  Si  Si31  1  0.841912  0.536996  0.035306  1
  Si  Si32  1  0.658024  0.036860  0.535321  1
  Si  Si33  1  0.158068  0.463214  0.964633  1
  Si  Si34  1  0.657996  0.036829  0.964648  1
  Si  Si35  1  0.342149  0.963030  0.035291  1
