# generated using pymatgen
data_Tb4B16Os3Ru
_symmetry_space_group_name_H-M   'P 1'
_cell_length_a   3.57422400
_cell_length_b   5.97578001
_cell_length_c   11.55982702
_cell_angle_alpha   90.00618016
_cell_angle_beta   90.00000000
_cell_angle_gamma   90.00000000
_symmetry_Int_Tables_number   1
_chemical_formula_structural   Tb4B16Os3Ru
_chemical_formula_sum   'Tb4 B16 Os3 Ru1'
_cell_volume   246.90375818
_cell_formula_units_Z   1
loop_
 _symmetry_equiv_pos_site_id
 _symmetry_equiv_pos_as_xyz
  1  'x, y, z'
loop_
 _atom_site_type_symbol
 _atom_site_label
 _atom_site_symmetry_multiplicity
 _atom_site_fract_x
 _atom_site_fract_y
 _atom_site_fract_z
 _atom_site_occupancy
  Tb  Tb0  1  0.500000  0.128185  0.149884  1
  Tb  Tb1  1  0.500000  0.871860  0.850177  1
  Tb  Tb2  1  0.500000  0.628276  0.349597  1
  Tb  Tb3  1  0.500000  0.371659  0.650406  1
  B  B4  1  0.000000  0.475750  0.191281  1
  B  B5  1  0.000000  0.523930  0.808660  1
  B  B6  1  0.000000  0.975494  0.308748  1
  B  B7  1  0.000000  0.024816  0.691342  1
  B  B8  1  0.000000  0.288562  0.314162  1
  B  B9  1  0.000000  0.711427  0.685774  1
  B  B10  1  0.000000  0.788475  0.185518  1
  B  B11  1  0.000000  0.211528  0.814588  1
  B  B12  1  0.000000  0.363297  0.469914  1
  B  B13  1  0.000000  0.636685  0.530198  1
  B  B14  1  0.000000  0.863416  0.030294  1
  B  B15  1  0.000000  0.136506  0.969464  1
  B  B16  1  0.000000  0.388289  0.046403  1
  B  B17  1  0.000000  0.611812  0.953631  1
  B  B18  1  0.000000  0.888146  0.453523  1
  B  B19  1  0.000000  0.111886  0.546589  1
  Os  Os20  1  0.500000  0.141025  0.407125  1
  Os  Os21  1  0.500000  0.859024  0.592815  1
  Os  Os22  1  0.500000  0.640110  0.092821  1
  Ru  Ru23  1  0.500000  0.359840  0.907086  1
