# generated using pymatgen
data_Ce3B6(Ir3Ru)2
_symmetry_space_group_name_H-M   'P 1'
_cell_length_a   9.98121317
_cell_length_b   9.13610350
_cell_length_c   5.67431358
_cell_angle_alpha   81.09951606
_cell_angle_beta   64.73023602
_cell_angle_gamma   33.68813705
_symmetry_Int_Tables_number   1
_chemical_formula_structural   Ce3B6(Ir3Ru)2
_chemical_formula_sum   'Ce3 B6 Ir6 Ru2'
_cell_volume   237.91231386
_cell_formula_units_Z   1
loop_
 _symmetry_equiv_pos_site_id
 _symmetry_equiv_pos_as_xyz
  1  'x, y, z'
loop_
 _atom_site_type_symbol
 _atom_site_label
 _atom_site_symmetry_multiplicity
 _atom_site_fract_x
 _atom_site_fract_y
 _atom_site_fract_z
 _atom_site_occupancy
  Ce  Ce0  1  0.000000  0.000000  0.000000  1
  Ce  Ce1  1  0.824957  0.824957  0.175043  1
  Ce  Ce2  1  0.175043  0.175043  0.824957  1
  B  B3  1  0.663378  0.336622  0.677316  1
  B  B4  1  0.336622  0.663378  0.322684  1
  B  B5  1  0.174302  0.482011  0.509310  1
  B  B6  1  0.482011  0.174302  0.834377  1
  B  B7  1  0.825698  0.517989  0.490690  1
  B  B8  1  0.517989  0.825698  0.165623  1
  Ir  Ir9  1  0.914840  0.914840  0.585160  1
  Ir  Ir10  1  0.413546  0.413546  0.586454  1
  Ir  Ir11  1  0.586454  0.586454  0.413546  1
  Ir  Ir12  1  0.249449  0.249449  0.250551  1
  Ir  Ir13  1  0.750551  0.750551  0.749449  1
  Ir  Ir14  1  0.085160  0.085160  0.414840  1
  Ru  Ru15  1  0.585852  0.585852  0.914148  1
  Ru  Ru16  1  0.414148  0.414148  0.085852  1
