# generated using pymatgen
data_DyY3(Tc3Ir)2
_symmetry_space_group_name_H-M   'P 1'
_cell_length_a   5.25126000
_cell_length_b   5.25126075
_cell_length_c   9.27888800
_cell_angle_alpha   90.00000000
_cell_angle_beta   90.00000000
_cell_angle_gamma   119.99998271
_symmetry_Int_Tables_number   1
_chemical_formula_structural   DyY3(Tc3Ir)2
_chemical_formula_sum   'Dy1 Y3 Tc6 Ir2'
_cell_volume   221.59183037
_cell_formula_units_Z   1
loop_
 _symmetry_equiv_pos_site_id
 _symmetry_equiv_pos_as_xyz
  1  'x, y, z'
loop_
 _atom_site_type_symbol
 _atom_site_label
 _atom_site_symmetry_multiplicity
 _atom_site_fract_x
 _atom_site_fract_y
 _atom_site_fract_z
 _atom_site_occupancy
  Dy  Dy0  1  0.333333  0.666667  0.064598  1
  Y  Y1  1  0.333333  0.666667  0.435419  1
  Y  Y2  1  0.666667  0.333333  0.564622  1
  Y  Y3  1  0.666667  0.333333  0.935585  1
  Tc  Tc4  1  0.829609  0.170391  0.249820  1
  Tc  Tc5  1  0.829609  0.659218  0.249820  1
  Tc  Tc6  1  0.340782  0.170391  0.249820  1
  Tc  Tc7  1  0.170434  0.829566  0.750050  1
  Tc  Tc8  1  0.170434  0.340867  0.750050  1
  Tc  Tc9  1  0.659133  0.829566  0.750050  1
  Ir  Ir10  1  0.000000  0.000000  0.500093  1
  Ir  Ir11  1  0.000000  0.000000  0.000072  1
