# generated using pymatgen
data_Ca2ZnSbPt2
_symmetry_space_group_name_H-M   'P 1'
_cell_length_a   4.48382000
_cell_length_b   7.44014400
_cell_length_c   7.83139200
_cell_angle_alpha   90.00000000
_cell_angle_beta   90.00000000
_cell_angle_gamma   90.00000000
_symmetry_Int_Tables_number   1
_chemical_formula_structural   Ca2ZnSbPt2
_chemical_formula_sum   'Ca4 Zn2 Sb2 Pt4'
_cell_volume   261.25732395
_cell_formula_units_Z   2
loop_
 _symmetry_equiv_pos_site_id
 _symmetry_equiv_pos_as_xyz
  1  'x, y, z'
loop_
 _atom_site_type_symbol
 _atom_site_label
 _atom_site_symmetry_multiplicity
 _atom_site_fract_x
 _atom_site_fract_y
 _atom_site_fract_z
 _atom_site_occupancy
  Ca  Ca0  1  0.750000  0.998348  0.691552  1
  Ca  Ca1  1  0.250000  0.018451  0.308446  1
  Ca  Ca2  1  0.750000  0.481549  0.808446  1
  Ca  Ca3  1  0.250000  0.501652  0.191552  1
  Zn  Zn4  1  0.750000  0.325103  0.413606  1
  Zn  Zn5  1  0.250000  0.174897  0.913606  1
  Sb  Sb6  1  0.250000  0.676533  0.584991  1
  Sb  Sb7  1  0.750000  0.823467  0.084991  1
  Pt  Pt8  1  0.250000  0.794094  0.906600  1
  Pt  Pt9  1  0.250000  0.297165  0.594806  1
  Pt  Pt10  1  0.750000  0.705906  0.406600  1
  Pt  Pt11  1  0.750000  0.202835  0.094806  1
