# generated using pymatgen
data_Yb2Tc7Ni5P7
_symmetry_space_group_name_H-M   'P 1'
_cell_length_a   9.47347089
_cell_length_b   9.44015584
_cell_length_c   3.75289800
_cell_angle_alpha   90.00000000
_cell_angle_beta   90.00000000
_cell_angle_gamma   120.44221450
_symmetry_Int_Tables_number   1
_chemical_formula_structural   Yb2Tc7Ni5P7
_chemical_formula_sum   'Yb2 Tc7 Ni5 P7'
_cell_volume   289.35643568
_cell_formula_units_Z   1
loop_
 _symmetry_equiv_pos_site_id
 _symmetry_equiv_pos_as_xyz
  1  'x, y, z'
loop_
 _atom_site_type_symbol
 _atom_site_label
 _atom_site_symmetry_multiplicity
 _atom_site_fract_x
 _atom_site_fract_y
 _atom_site_fract_z
 _atom_site_occupancy
  Yb  Yb0  1  0.000514  0.997998  0.000000  1
  Yb  Yb1  1  0.337155  0.673441  0.500000  1
  Tc  Tc2  1  0.093308  0.393237  0.000000  1
  Tc  Tc3  1  0.057161  0.767678  0.500000  1
  Tc  Tc4  1  0.709205  0.941372  0.500000  1
  Tc  Tc5  1  0.238812  0.286751  0.500000  1
  Tc  Tc6  1  0.863015  0.414522  0.500000  1
  Tc  Tc7  1  0.544264  0.124307  0.500000  1
  Tc  Tc8  1  0.577849  0.455638  0.500000  1
  Ni  Ni9  1  0.304569  0.908353  0.000000  1
  Ni  Ni10  1  0.604378  0.696856  0.000000  1
  Ni  Ni11  1  0.823339  0.608834  0.000000  1
  Ni  Ni12  1  0.776626  0.174006  0.000000  1
  Ni  Ni13  1  0.398252  0.216877  0.000000  1
  P  P14  1  0.077497  0.632849  0.000000  1
  P  P15  1  0.551577  0.922179  0.000000  1
  P  P16  1  0.372267  0.450215  0.000000  1
  P  P17  1  0.787258  0.738487  0.500000  1
  P  P18  1  0.952193  0.214222  0.500000  1
  P  P19  1  0.263712  0.047413  0.500000  1
  P  P20  1  0.667044  0.334766  0.000000  1
