# generated using pymatgen
data_Ce5Ho11(CdFe)4
_symmetry_space_group_name_H-M   'P 1'
_cell_length_a   9.60218787
_cell_length_b   9.46344205
_cell_length_c   9.46344112
_cell_angle_alpha   61.72877970
_cell_angle_beta   59.51381422
_cell_angle_gamma   59.51381498
_symmetry_Int_Tables_number   1
_chemical_formula_structural   Ce5Ho11(CdFe)4
_chemical_formula_sum   'Ce5 Ho11 Cd4 Fe4'
_cell_volume   610.92643814
_cell_formula_units_Z   1
loop_
 _symmetry_equiv_pos_site_id
 _symmetry_equiv_pos_as_xyz
  1  'x, y, z'
loop_
 _atom_site_type_symbol
 _atom_site_label
 _atom_site_symmetry_multiplicity
 _atom_site_fract_x
 _atom_site_fract_y
 _atom_site_fract_z
 _atom_site_occupancy
  Ce  Ce0  1  0.366875  0.335092  0.335092  1
  Ce  Ce1  1  0.329071  0.367177  0.974681  1
  Ce  Ce2  1  0.329071  0.974681  0.367177  1
  Ce  Ce3  1  0.962943  0.335092  0.335092  1
  Ce  Ce4  1  0.816268  0.183732  0.183732  1
  Ho  Ho5  1  0.188781  0.811219  0.811219  1
  Ho  Ho6  1  0.191048  0.810008  0.184859  1
  Ho  Ho7  1  0.814084  0.184859  0.810008  1
  Ho  Ho8  1  0.191048  0.184859  0.810008  1
  Ho  Ho9  1  0.814084  0.810008  0.184859  1
  Ho  Ho10  1  0.940742  0.559258  0.559258  1
  Ho  Ho11  1  0.562379  0.937621  0.937621  1
  Ho  Ho12  1  0.567306  0.934072  0.563164  1
  Ho  Ho13  1  0.935457  0.563164  0.934072  1
  Ho  Ho14  1  0.567306  0.563164  0.934072  1
  Ho  Ho15  1  0.935457  0.934072  0.563164  1
  Cd  Cd16  1  0.586074  0.578462  0.578462  1
  Cd  Cd17  1  0.575681  0.593222  0.255415  1
  Cd  Cd18  1  0.575681  0.255415  0.593222  1
  Cd  Cd19  1  0.257002  0.578462  0.578462  1
  Fe  Fe20  1  0.078203  0.169537  0.169537  1
  Fe  Fe21  1  0.166356  0.116267  0.551020  1
  Fe  Fe22  1  0.166356  0.551020  0.116267  1
  Fe  Fe23  1  0.582724  0.169537  0.169537  1
