# generated using pymatgen
data_PrGaSiRh2
_symmetry_space_group_name_H-M   'P 1'
_cell_length_a   5.95938515
_cell_length_b   5.95938546
_cell_length_c   5.95938387
_cell_angle_alpha   138.72943227
_cell_angle_beta   138.72943461
_cell_angle_gamma   59.78766251
_symmetry_Int_Tables_number   1
_chemical_formula_structural   PrGaSiRh2
_chemical_formula_sum   'Pr1 Ga1 Si1 Rh2'
_cell_volume   91.15379332
_cell_formula_units_Z   1
loop_
 _symmetry_equiv_pos_site_id
 _symmetry_equiv_pos_as_xyz
  1  'x, y, z'
loop_
 _atom_site_type_symbol
 _atom_site_label
 _atom_site_symmetry_multiplicity
 _atom_site_fract_x
 _atom_site_fract_y
 _atom_site_fract_z
 _atom_site_occupancy
  Pr  Pr0  1  0.998458  0.998458  0.000000  1
  Ga  Ga1  1  0.622715  0.622715  0.000000  1
  Si  Si2  1  0.365093  0.365093  0.000000  1
  Rh  Rh3  1  0.756866  0.256866  0.500000  1
  Rh  Rh4  1  0.256866  0.756866  0.500000  1
