# generated using pymatgen
data_Dy3Cd2Sb3O14
_symmetry_space_group_name_H-M   'P 1'
_cell_length_a   7.31338832
_cell_length_b   7.31338988
_cell_length_c   7.31338212
_cell_angle_alpha   117.79904818
_cell_angle_beta   62.20090426
_cell_angle_gamma   117.79906438
_symmetry_Int_Tables_number   1
_chemical_formula_structural   Dy3Cd2Sb3O14
_chemical_formula_sum   'Dy3 Cd2 Sb3 O14'
_cell_volume   290.18919708
_cell_formula_units_Z   1
loop_
 _symmetry_equiv_pos_site_id
 _symmetry_equiv_pos_as_xyz
  1  'x, y, z'
loop_
 _atom_site_type_symbol
 _atom_site_label
 _atom_site_symmetry_multiplicity
 _atom_site_fract_x
 _atom_site_fract_y
 _atom_site_fract_z
 _atom_site_occupancy
  Dy  Dy0  1  0.000000  0.500001  0.000000  1
  Dy  Dy1  1  0.499998  0.000001  0.999999  1
  Dy  Dy2  1  0.500001  0.500003  0.499999  1
  Cd  Cd3  1  0.500000  0.500001  0.000000  1
  Cd  Cd4  1  0.999999  0.999998  0.500000  1
  Sb  Sb5  1  0.500002  0.000000  0.500001  1
  Sb  Sb6  1  0.999998  0.500001  0.499998  1
  Sb  Sb7  1  0.000001  0.000000  0.000001  1
  O  O8  1  0.622871  0.377129  0.122870  1
  O  O9  1  0.377131  0.622872  0.877129  1
  O  O10  1  0.082593  0.317626  0.182376  1
  O  O11  1  0.682374  0.917406  0.182375  1
  O  O12  1  0.682376  0.317626  0.582595  1
  O  O13  1  0.917409  0.682375  0.817625  1
  O  O14  1  0.317624  0.082589  0.817625  1
  O  O15  1  0.317626  0.682374  0.417408  1
  O  O16  1  0.628070  0.896341  0.603660  1
  O  O17  1  0.103660  0.371928  0.603659  1
  O  O18  1  0.103660  0.896341  0.128071  1
  O  O19  1  0.371930  0.103661  0.396339  1
  O  O20  1  0.896340  0.628068  0.396341  1
  O  O21  1  0.896340  0.103660  0.871929  1
