# generated using pymatgen
data_La16Yb4Ir11Ru
_symmetry_space_group_name_H-M   'P 1'
_cell_length_a   11.35143800
_cell_length_b   11.35143800
_cell_length_c   6.52588900
_cell_angle_alpha   90.00000000
_cell_angle_beta   90.00000000
_cell_angle_gamma   90.00000000
_symmetry_Int_Tables_number   1
_chemical_formula_structural   La16Yb4Ir11Ru
_chemical_formula_sum   'La16 Yb4 Ir11 Ru1'
_cell_volume   840.89437118
_cell_formula_units_Z   1
loop_
 _symmetry_equiv_pos_site_id
 _symmetry_equiv_pos_as_xyz
  1  'x, y, z'
loop_
 _atom_site_type_symbol
 _atom_site_label
 _atom_site_symmetry_multiplicity
 _atom_site_fract_x
 _atom_site_fract_y
 _atom_site_fract_z
 _atom_site_occupancy
  La  La0  1  0.288968  0.089282  0.387275  1
  La  La1  1  0.289254  0.910915  0.889618  1
  La  La2  1  0.710746  0.089085  0.889618  1
  La  La3  1  0.711032  0.910718  0.387275  1
  La  La4  1  0.589085  0.789254  0.889618  1
  La  La5  1  0.589282  0.211032  0.387275  1
  La  La6  1  0.410718  0.788968  0.387275  1
  La  La7  1  0.410915  0.210746  0.889618  1
  La  La8  1  0.212443  0.410007  0.611890  1
  La  La9  1  0.212344  0.589873  0.111442  1
  La  La10  1  0.787656  0.410127  0.111442  1
  La  La11  1  0.787557  0.589993  0.611890  1
  La  La12  1  0.910127  0.712344  0.111442  1
  La  La13  1  0.910007  0.287557  0.611890  1
  La  La14  1  0.089993  0.712443  0.611890  1
  La  La15  1  0.089873  0.287656  0.111442  1
  Yb  Yb16  1  0.000000  0.000000  0.499865  1
  Yb  Yb17  1  0.000000  0.000000  0.999787  1
  Yb  Yb18  1  0.500000  0.500000  0.999787  1
  Yb  Yb19  1  0.500000  0.500000  0.499865  1
  Ir  Ir20  1  0.844930  0.155691  0.250276  1
  Ir  Ir21  1  0.844934  0.844397  0.749775  1
  Ir  Ir22  1  0.155066  0.155603  0.749775  1
  Ir  Ir23  1  0.155070  0.844309  0.250276  1
  Ir  Ir24  1  0.655603  0.344934  0.749775  1
  Ir  Ir25  1  0.655691  0.655070  0.250276  1
  Ir  Ir26  1  0.344309  0.344930  0.250276  1
  Ir  Ir27  1  0.344397  0.655066  0.749775  1
  Ir  Ir28  1  0.500000  0.000000  0.616791  1
  Ir  Ir29  1  0.000000  0.500000  0.883775  1
  Ir  Ir30  1  0.000000  0.500000  0.384269  1
  Ru  Ru31  1  0.500000  0.000000  0.114756  1
