# generated using pymatgen
data_Sc7CdPd16
_symmetry_space_group_name_H-M   'P 1'
_cell_length_a   4.14189001
_cell_length_b   5.70048743
_cell_length_c   16.97437700
_cell_angle_alpha   91.47600648
_cell_angle_beta   89.99535203
_cell_angle_gamma   90.00267269
_symmetry_Int_Tables_number   1
_chemical_formula_structural   Sc7CdPd16
_chemical_formula_sum   'Sc7 Cd1 Pd16'
_cell_volume   400.64550378
_cell_formula_units_Z   1
loop_
 _symmetry_equiv_pos_site_id
 _symmetry_equiv_pos_as_xyz
  1  'x, y, z'
loop_
 _atom_site_type_symbol
 _atom_site_label
 _atom_site_symmetry_multiplicity
 _atom_site_fract_x
 _atom_site_fract_y
 _atom_site_fract_z
 _atom_site_occupancy
  Sc  Sc0  1  0.525124  0.340044  0.047059  1
  Sc  Sc1  1  0.524947  0.840224  0.207357  1
  Sc  Sc2  1  0.525965  0.357778  0.362099  1
  Sc  Sc3  1  0.026408  0.040114  0.456117  1
  Sc  Sc4  1  0.526855  0.722113  0.550169  1
  Sc  Sc5  1  0.527078  0.238320  0.704900  1
  Sc  Sc6  1  0.526089  0.737756  0.865253  1
  Cd  Cd7  1  0.025535  0.038908  0.956143  1
  Pd  Pd8  1  0.525152  0.822394  0.038761  1
  Pd  Pd9  1  0.024904  0.087278  0.123578  1
  Pd  Pd10  1  0.024915  0.588151  0.124165  1
  Pd  Pd11  1  0.524962  0.338248  0.206344  1
  Pd  Pd12  1  0.025425  0.595571  0.290754  1
  Pd  Pd13  1  0.025342  0.096168  0.292987  1
  Pd  Pd14  1  0.526083  0.840577  0.380611  1
  Pd  Pd15  1  0.026514  0.540123  0.456175  1
  Pd  Pd16  1  0.526742  0.239371  0.531705  1
  Pd  Pd17  1  0.027134  0.983151  0.619323  1
  Pd  Pd18  1  0.027090  0.483719  0.621567  1
  Pd  Pd19  1  0.526997  0.740256  0.705982  1
  Pd  Pd20  1  0.026638  0.489782  0.788125  1
  Pd  Pd21  1  0.026723  0.990663  0.788715  1
  Pd  Pd22  1  0.526099  0.255382  0.873501  1
  Pd  Pd23  1  0.025614  0.538871  0.956149  1
