# generated using pymatgen
data_PrNdPaCo2
_symmetry_space_group_name_H-M   'P 1'
_cell_length_a   6.18570285
_cell_length_b   6.18570268
_cell_length_c   6.18570308
_cell_angle_alpha   145.97170162
_cell_angle_beta   119.68039070
_cell_angle_gamma   71.09968032
_symmetry_Int_Tables_number   1
_chemical_formula_structural   PrNdPaCo2
_chemical_formula_sum   'Pr1 Nd1 Pa1 Co2'
_cell_volume   113.23762500
_cell_formula_units_Z   1
loop_
 _symmetry_equiv_pos_site_id
 _symmetry_equiv_pos_as_xyz
  1  'x, y, z'
loop_
 _atom_site_type_symbol
 _atom_site_label
 _atom_site_symmetry_multiplicity
 _atom_site_fract_x
 _atom_site_fract_y
 _atom_site_fract_z
 _atom_site_occupancy
  Pr  Pr0  1  0.306734  0.806734  0.500000  1
  Nd  Nd1  1  0.692760  0.192760  0.500000  1
  Pa  Pa2  1  0.999968  0.999968  0.000000  1
  Co  Co3  1  0.277507  0.500269  0.777238  1
  Co  Co4  1  0.723031  0.500269  0.222762  1
