# generated using pymatgen
data_Pr2ErLu(AsPt)4
_symmetry_space_group_name_H-M   'P 1'
_cell_length_a   4.28727800
_cell_length_b   4.28727879
_cell_length_c   15.94979000
_cell_angle_alpha   90.00000000
_cell_angle_beta   90.00000000
_cell_angle_gamma   120.00000931
_symmetry_Int_Tables_number   1
_chemical_formula_structural   Pr2ErLu(AsPt)4
_chemical_formula_sum   'Pr2 Er1 Lu1 As4 Pt4'
_cell_volume   253.89195018
_cell_formula_units_Z   1
loop_
 _symmetry_equiv_pos_site_id
 _symmetry_equiv_pos_as_xyz
  1  'x, y, z'
loop_
 _atom_site_type_symbol
 _atom_site_label
 _atom_site_symmetry_multiplicity
 _atom_site_fract_x
 _atom_site_fract_y
 _atom_site_fract_z
 _atom_site_occupancy
  Pr  Pr0  1  0.000000  0.000000  0.501291  1
  Pr  Pr1  1  0.000000  0.000000  0.998709  1
  Er  Er2  1  0.000000  0.000000  0.250000  1
  Lu  Lu3  1  0.000000  0.000000  0.750000  1
  As  As4  1  0.333333  0.666667  0.879021  1
  As  As5  1  0.666667  0.333333  0.120120  1
  As  As6  1  0.666667  0.333333  0.379880  1
  As  As7  1  0.333333  0.666667  0.620979  1
  Pt  Pt8  1  0.333333  0.666667  0.356661  1
  Pt  Pt9  1  0.666667  0.333333  0.647393  1
  Pt  Pt10  1  0.666667  0.333333  0.852607  1
  Pt  Pt11  1  0.333333  0.666667  0.143339  1
