# generated using pymatgen
data_Pr16Y4Si15B
_symmetry_space_group_name_H-M   'P 1'
_cell_length_a   7.79226613
_cell_length_b   7.80378241
_cell_length_c   15.33940877
_cell_angle_alpha   89.84570130
_cell_angle_beta   90.12463293
_cell_angle_gamma   90.55497466
_symmetry_Int_Tables_number   1
_chemical_formula_structural   Pr16Y4Si15B
_chemical_formula_sum   'Pr16 Y4 Si15 B1'
_cell_volume   932.72710454
_cell_formula_units_Z   1
loop_
 _symmetry_equiv_pos_site_id
 _symmetry_equiv_pos_as_xyz
  1  'x, y, z'
loop_
 _atom_site_type_symbol
 _atom_site_label
 _atom_site_symmetry_multiplicity
 _atom_site_fract_x
 _atom_site_fract_y
 _atom_site_fract_z
 _atom_site_occupancy
  Pr  Pr0  1  0.381316  0.012304  0.444768  1
  Pr  Pr1  1  0.482837  0.883942  0.695764  1
  Pr  Pr2  1  0.515055  0.120287  0.194841  1
  Pr  Pr3  1  0.880224  0.485546  0.305721  1
  Pr  Pr4  1  0.121930  0.509381  0.801266  1
  Pr  Pr5  1  0.616662  0.988515  0.941939  1
  Pr  Pr6  1  0.017865  0.376718  0.557532  1
  Pr  Pr7  1  0.986275  0.622533  0.053982  1
  Pr  Pr8  1  0.122419  0.974796  0.876262  1
  Pr  Pr9  1  0.524883  0.625080  0.127972  1
  Pr  Pr10  1  0.464232  0.364486  0.629543  1
  Pr  Pr11  1  0.621265  0.520361  0.868177  1
  Pr  Pr12  1  0.374215  0.475123  0.372743  1
  Pr  Pr13  1  0.877429  0.025926  0.379041  1
  Pr  Pr14  1  0.974173  0.123576  0.120751  1
  Pr  Pr15  1  0.036938  0.892898  0.625411  1
  Y  Y16  1  0.307257  0.308006  0.998826  1
  Y  Y17  1  0.192497  0.808456  0.249982  1
  Y  Y18  1  0.827011  0.190553  0.747874  1
  Y  Y19  1  0.694674  0.689938  0.502179  1
  Si  Si20  1  0.327983  0.687601  0.957346  1
  Si  Si21  1  0.673813  0.313833  0.460223  1
  Si  Si22  1  0.686374  0.328043  0.039462  1
  Si  Si23  1  0.311843  0.672113  0.543116  1
  Si  Si24  1  0.814787  0.826184  0.210001  1
  Si  Si25  1  0.174046  0.186818  0.290277  1
  Si  Si26  1  0.824735  0.811769  0.789636  1
  Si  Si27  1  0.286316  0.919812  0.062701  1
  Si  Si28  1  0.581202  0.784462  0.313964  1
  Si  Si29  1  0.399301  0.213292  0.808117  1
  Si  Si30  1  0.785496  0.579332  0.684985  1
  Si  Si31  1  0.213807  0.420193  0.185837  1
  Si  Si32  1  0.714811  0.079003  0.563869  1
  Si  Si33  1  0.918411  0.286103  0.936243  1
  Si  Si34  1  0.079755  0.715784  0.438329  1
  B  B35  1  0.188165  0.177232  0.721321  1
