# generated using pymatgen
data_Dy8Si12NiPt3
_symmetry_space_group_name_H-M   'P 1'
_cell_length_a   8.10197700
_cell_length_b   8.10197770
_cell_length_c   8.14451100
_cell_angle_alpha   90.00000000
_cell_angle_beta   90.00000000
_cell_angle_gamma   119.99999306
_symmetry_Int_Tables_number   1
_chemical_formula_structural   Dy8Si12NiPt3
_chemical_formula_sum   'Dy8 Si12 Ni1 Pt3'
_cell_volume   462.99651891
_cell_formula_units_Z   1
loop_
 _symmetry_equiv_pos_site_id
 _symmetry_equiv_pos_as_xyz
  1  'x, y, z'
loop_
 _atom_site_type_symbol
 _atom_site_label
 _atom_site_symmetry_multiplicity
 _atom_site_fract_x
 _atom_site_fract_y
 _atom_site_fract_z
 _atom_site_occupancy
  Dy  Dy0  1  0.000000  0.000000  0.252118  1
  Dy  Dy1  1  0.000000  0.000000  0.748017  1
  Dy  Dy2  1  0.000530  0.500265  0.251901  1
  Dy  Dy3  1  0.499735  0.500265  0.251901  1
  Dy  Dy4  1  0.502027  0.004053  0.748093  1
  Dy  Dy5  1  0.499735  0.999470  0.251901  1
  Dy  Dy6  1  0.502027  0.497973  0.748093  1
  Dy  Dy7  1  0.995947  0.497973  0.748093  1
  Si  Si8  1  0.165630  0.331259  0.999094  1
  Si  Si9  1  0.668741  0.834370  0.999094  1
  Si  Si10  1  0.164023  0.328045  0.500939  1
  Si  Si11  1  0.330351  0.165177  0.001097  1
  Si  Si12  1  0.165630  0.834370  0.999094  1
  Si  Si13  1  0.671955  0.835977  0.500939  1
  Si  Si14  1  0.834823  0.669649  0.001097  1
  Si  Si15  1  0.344229  0.172115  0.498909  1
  Si  Si16  1  0.164023  0.835977  0.500939  1
  Si  Si17  1  0.827885  0.655771  0.498909  1
  Si  Si18  1  0.834823  0.165177  0.001097  1
  Si  Si19  1  0.827885  0.172115  0.498909  1
  Ni  Ni20  1  0.666667  0.333333  0.498133  1
  Pt  Pt21  1  0.333333  0.666667  0.997776  1
  Pt  Pt22  1  0.333333  0.666667  0.501971  1
  Pt  Pt23  1  0.666667  0.333333  0.001885  1
