# generated using pymatgen
data_La12Tc3HgBr12
_symmetry_space_group_name_H-M   'P 1'
_cell_length_a   10.70121808
_cell_length_b   10.76266181
_cell_length_c   10.76322817
_cell_angle_alpha   109.57243597
_cell_angle_beta   109.35159739
_cell_angle_gamma   109.37028324
_symmetry_Int_Tables_number   1
_chemical_formula_structural   La12Tc3HgBr12
_chemical_formula_sum   'La12 Tc3 Hg1 Br12'
_cell_volume   955.67471223
_cell_formula_units_Z   1
loop_
 _symmetry_equiv_pos_site_id
 _symmetry_equiv_pos_as_xyz
  1  'x, y, z'
loop_
 _atom_site_type_symbol
 _atom_site_label
 _atom_site_symmetry_multiplicity
 _atom_site_fract_x
 _atom_site_fract_y
 _atom_site_fract_z
 _atom_site_occupancy
  La  La0  1  0.463728  0.465684  0.243710  1
  La  La1  1  0.750122  0.234810  0.265351  1
  La  La2  1  0.750001  0.011444  0.488560  1
  La  La3  1  0.238640  0.477141  0.488531  1
  La  La4  1  0.280115  0.778208  0.243849  1
  La  La5  1  0.036154  0.256315  0.034226  1
  La  La6  1  0.015180  0.030512  0.265404  1
  La  La7  1  0.498110  0.777949  0.034152  1
  La  La8  1  0.484781  0.234666  0.469481  1
  La  La9  1  0.001846  0.465818  0.721953  1
  La  La10  1  0.261347  0.011456  0.022811  1
  La  La11  1  0.219969  0.256104  0.721812  1
  Tc  Tc12  1  0.250228  0.257907  0.242299  1
  Tc  Tc13  1  0.492079  0.984391  0.242358  1
  Tc  Tc14  1  0.007796  0.257740  0.515613  1
  Hg  Hg15  1  0.249960  0.499978  0.999922  1
  Br  Br16  1  0.249997  0.752420  0.747532  1
  Br  Br17  1  0.503387  0.504761  0.748858  1
  Br  Br18  1  0.996612  0.751152  0.995251  1
  Br  Br19  1  0.745498  0.244151  0.748918  1
  Br  Br20  1  0.997523  0.995057  0.747510  1
  Br  Br21  1  0.249966  0.997783  0.502140  1
  Br  Br22  1  0.752114  0.504338  0.502136  1
  Br  Br23  1  0.498647  0.244103  0.995266  1
  Br  Br24  1  0.754490  0.751066  0.255847  1
  Br  Br25  1  0.747896  0.997857  0.995694  1
  Br  Br26  1  0.001393  0.504752  0.255916  1
  Br  Br27  1  0.502423  0.752439  0.504901  1
