# generated using pymatgen
data_LiLa16Cd3Ir4
_symmetry_space_group_name_H-M   'P 1'
_cell_length_a   10.15110112
_cell_length_b   10.15110160
_cell_length_c   10.15110130
_cell_angle_alpha   59.88034372
_cell_angle_beta   59.88034260
_cell_angle_gamma   59.88034469
_symmetry_Int_Tables_number   1
_chemical_formula_structural   LiLa16Cd3Ir4
_chemical_formula_sum   'Li1 La16 Cd3 Ir4'
_cell_volume   737.63888703
_cell_formula_units_Z   1
loop_
 _symmetry_equiv_pos_site_id
 _symmetry_equiv_pos_as_xyz
  1  'x, y, z'
loop_
 _atom_site_type_symbol
 _atom_site_label
 _atom_site_symmetry_multiplicity
 _atom_site_fract_x
 _atom_site_fract_y
 _atom_site_fract_z
 _atom_site_occupancy
  Li  Li0  1  0.820420  0.820420  0.820420  1
  La  La1  1  0.596643  0.596643  0.596643  1
  La  La2  1  0.596609  0.596609  0.210300  1
  La  La3  1  0.596609  0.210300  0.596609  1
  La  La4  1  0.210300  0.596609  0.596609  1
  La  La5  1  0.059019  0.441580  0.441580  1
  La  La6  1  0.437813  0.061661  0.061661  1
  La  La7  1  0.441580  0.059019  0.441580  1
  La  La8  1  0.061661  0.437813  0.061661  1
  La  La9  1  0.441580  0.441580  0.059019  1
  La  La10  1  0.061661  0.061661  0.437813  1
  La  La11  1  0.189891  0.811316  0.811316  1
  La  La12  1  0.809674  0.189900  0.189900  1
  La  La13  1  0.811316  0.189891  0.811316  1
  La  La14  1  0.189900  0.809674  0.189900  1
  La  La15  1  0.811316  0.811316  0.189891  1
  La  La16  1  0.189900  0.189900  0.809674  1
  Cd  Cd17  1  0.830854  0.830854  0.510118  1
  Cd  Cd18  1  0.830854  0.510118  0.830854  1
  Cd  Cd19  1  0.510118  0.830854  0.830854  1
  Ir  Ir20  1  0.391284  0.391284  0.391284  1
  Ir  Ir21  1  0.391506  0.391506  0.827985  1
  Ir  Ir22  1  0.391506  0.827985  0.391506  1
  Ir  Ir23  1  0.827985  0.391506  0.391506  1
