# generated using pymatgen
data_Rb2NbO2F3
_symmetry_space_group_name_H-M   'P 1'
_cell_length_a   6.13782600
_cell_length_b   7.89560300
_cell_length_c   12.33566800
_cell_angle_alpha   90.00000000
_cell_angle_beta   90.00000000
_cell_angle_gamma   90.00000000
_symmetry_Int_Tables_number   1
_chemical_formula_structural   Rb2NbO2F3
_chemical_formula_sum   'Rb8 Nb4 O8 F12'
_cell_volume   597.80913658
_cell_formula_units_Z   4
loop_
 _symmetry_equiv_pos_site_id
 _symmetry_equiv_pos_as_xyz
  1  'x, y, z'
loop_
 _atom_site_type_symbol
 _atom_site_label
 _atom_site_symmetry_multiplicity
 _atom_site_fract_x
 _atom_site_fract_y
 _atom_site_fract_z
 _atom_site_occupancy
  Rb  Rb0  1  0.250000  0.475261  0.274149  1
  Rb  Rb1  1  0.750000  0.524739  0.725851  1
  Rb  Rb2  1  0.250000  0.975261  0.225851  1
  Rb  Rb3  1  0.750000  0.024739  0.774149  1
  Rb  Rb4  1  0.250000  0.171802  0.585095  1
  Rb  Rb5  1  0.750000  0.828198  0.414905  1
  Rb  Rb6  1  0.250000  0.671802  0.914905  1
  Rb  Rb7  1  0.750000  0.328198  0.085095  1
  Nb  Nb8  1  0.250000  0.193343  0.931139  1
  Nb  Nb9  1  0.750000  0.806657  0.068861  1
  Nb  Nb10  1  0.250000  0.693343  0.568861  1
  Nb  Nb11  1  0.750000  0.306657  0.431139  1
  O  O12  1  0.477826  0.821840  0.611027  1
  O  O13  1  0.977826  0.178160  0.388973  1
  O  O14  1  0.522174  0.678160  0.111027  1
  O  O15  1  0.477826  0.321840  0.888973  1
  O  O16  1  0.977826  0.678160  0.111027  1
  O  O17  1  0.022174  0.821840  0.611027  1
  O  O18  1  0.522174  0.178160  0.388973  1
  O  O19  1  0.022174  0.321840  0.888973  1
  F  F20  1  0.750000  0.475225  0.308791  1
  F  F21  1  0.500000  0.000000  0.000000  1
  F  F22  1  0.000000  0.500000  0.500000  1
  F  F23  1  0.500000  0.500000  0.500000  1
  F  F24  1  0.250000  0.524775  0.691209  1
  F  F25  1  0.750000  0.975225  0.191209  1
  F  F26  1  0.250000  0.024775  0.808791  1
  F  F27  1  0.750000  0.238005  0.591154  1
  F  F28  1  0.250000  0.261995  0.091154  1
  F  F29  1  0.750000  0.738005  0.908846  1
  F  F30  1  0.000000  0.000000  0.000000  1
  F  F31  1  0.250000  0.761995  0.408846  1
