# generated using pymatgen
data_Tm3Zr(Al3Rh)6
_symmetry_space_group_name_H-M   'P 1'
_cell_length_a   7.51240630
_cell_length_b   7.51187708
_cell_length_c   9.38249400
_cell_angle_alpha   90.00000000
_cell_angle_beta   90.00000000
_cell_angle_gamma   119.55559503
_symmetry_Int_Tables_number   1
_chemical_formula_structural   Tm3Zr(Al3Rh)6
_chemical_formula_sum   'Tm3 Zr1 Al18 Rh6'
_cell_volume   460.57877888
_cell_formula_units_Z   1
loop_
 _symmetry_equiv_pos_site_id
 _symmetry_equiv_pos_as_xyz
  1  'x, y, z'
loop_
 _atom_site_type_symbol
 _atom_site_label
 _atom_site_symmetry_multiplicity
 _atom_site_fract_x
 _atom_site_fract_y
 _atom_site_fract_z
 _atom_site_occupancy
  Tm  Tm0  1  0.006275  0.327438  0.750000  1
  Tm  Tm1  1  0.671892  0.995662  0.250000  1
  Tm  Tm2  1  0.328606  0.006589  0.750000  1
  Zr  Zr3  1  0.995932  0.671438  0.250000  1
  Al  Al4  1  0.123716  0.121827  0.250000  1
  Al  Al5  1  0.872185  0.871088  0.750000  1
  Al  Al6  1  0.999628  0.337709  0.079597  1
  Al  Al7  1  0.000162  0.664838  0.927274  1
  Al  Al8  1  0.000162  0.664838  0.572726  1
  Al  Al9  1  0.332984  0.997970  0.420240  1
  Al  Al10  1  0.999628  0.337709  0.420403  1
  Al  Al11  1  0.664402  0.999010  0.575925  1
  Al  Al12  1  0.664402  0.999010  0.924075  1
  Al  Al13  1  0.332984  0.997970  0.079760  1
  Al  Al14  1  0.333333  0.333269  0.550294  1
  Al  Al15  1  0.669210  0.667620  0.443386  1
  Al  Al16  1  0.669210  0.667620  0.056614  1
  Al  Al17  1  0.333333  0.333269  0.949706  1
  Al  Al18  1  0.336666  0.551761  0.250000  1
  Al  Al19  1  0.661145  0.450304  0.750000  1
  Al  Al20  1  0.556289  0.343644  0.250000  1
  Al  Al21  1  0.448827  0.659423  0.750000  1
  Rh  Rh22  1  0.672705  0.327650  0.000874  1
  Rh  Rh23  1  0.327715  0.672826  0.001635  1
  Rh  Rh24  1  0.327715  0.672826  0.498365  1
  Rh  Rh25  1  0.672705  0.327650  0.499126  1
  Rh  Rh26  1  0.999096  0.999520  0.000907  1
  Rh  Rh27  1  0.999096  0.999520  0.499093  1
