# generated using pymatgen
data_Tb3YbSc2(Si3Ru)8
_symmetry_space_group_name_H-M   'P 1'
_cell_length_a   10.07286423
_cell_length_b   10.07286526
_cell_length_c   8.10778702
_cell_angle_alpha   89.90283856
_cell_angle_beta   90.09716398
_cell_angle_gamma   132.55527218
_symmetry_Int_Tables_number   1
_chemical_formula_structural   Tb3YbSc2(Si3Ru)8
_chemical_formula_sum   'Tb3 Yb1 Sc2 Si24 Ru8'
_cell_volume   605.97429454
_cell_formula_units_Z   1
loop_
 _symmetry_equiv_pos_site_id
 _symmetry_equiv_pos_as_xyz
  1  'x, y, z'
loop_
 _atom_site_type_symbol
 _atom_site_label
 _atom_site_symmetry_multiplicity
 _atom_site_fract_x
 _atom_site_fract_y
 _atom_site_fract_z
 _atom_site_occupancy
  Tb  Tb0  1  0.998302  0.498302  0.250000  1
  Tb  Tb1  1  0.497405  0.997405  0.250000  1
  Tb  Tb2  1  0.002380  0.502380  0.750000  1
  Yb  Yb3  1  0.502132  0.002132  0.750000  1
  Sc  Sc4  1  0.500329  0.500510  0.500530  1
  Sc  Sc5  1  0.000510  0.000329  0.999470  1
  Si  Si6  1  0.793826  0.203837  0.500510  1
  Si  Si7  1  0.295865  0.706183  0.998513  1
  Si  Si8  1  0.206183  0.795865  0.501487  1
  Si  Si9  1  0.703837  0.293826  0.999490  1
  Si  Si10  1  0.331745  0.333178  0.832245  1
  Si  Si11  1  0.667719  0.669208  0.167690  1
  Si  Si12  1  0.169208  0.167719  0.332310  1
  Si  Si13  1  0.833178  0.831745  0.667755  1
  Si  Si14  1  0.120213  0.887948  0.729796  1
  Si  Si15  1  0.109980  0.878552  0.270435  1
  Si  Si16  1  0.611023  0.379559  0.230192  1
  Si  Si17  1  0.621793  0.389972  0.770443  1
  Si  Si18  1  0.879559  0.111023  0.269808  1
  Si  Si19  1  0.889972  0.121793  0.729557  1
  Si  Si20  1  0.387948  0.620213  0.770204  1
  Si  Si21  1  0.378552  0.609980  0.229565  1
  Si  Si22  1  0.345155  0.113872  0.503664  1
  Si  Si23  1  0.885460  0.654370  0.494638  1
  Si  Si24  1  0.385866  0.154420  0.005127  1
  Si  Si25  1  0.845174  0.614536  0.995141  1
  Si  Si26  1  0.654420  0.885866  0.494873  1
  Si  Si27  1  0.114536  0.345174  0.504859  1
  Si  Si28  1  0.613872  0.845155  0.996336  1
  Si  Si29  1  0.154370  0.385460  0.005362  1
  Ru  Ru30  1  0.668133  0.331305  0.500244  1
  Ru  Ru31  1  0.167608  0.831376  0.000803  1
  Ru  Ru32  1  0.331376  0.667608  0.499197  1
  Ru  Ru33  1  0.831305  0.168133  0.999756  1
  Ru  Ru34  1  0.127370  0.127251  0.627651  1
  Ru  Ru35  1  0.872843  0.873598  0.372591  1
  Ru  Ru36  1  0.373598  0.372843  0.127409  1
  Ru  Ru37  1  0.627251  0.627370  0.872349  1
