# generated using pymatgen
data_LaPr3(Hg2O)4
_symmetry_space_group_name_H-M   'P 1'
_cell_length_a   5.94667306
_cell_length_b   5.86562001
_cell_length_c   10.89062734
_cell_angle_alpha   89.99077034
_cell_angle_beta   97.66034910
_cell_angle_gamma   90.00107863
_symmetry_Int_Tables_number   1
_chemical_formula_structural   LaPr3(Hg2O)4
_chemical_formula_sum   'La1 Pr3 Hg8 O4'
_cell_volume   376.48501979
_cell_formula_units_Z   1
loop_
 _symmetry_equiv_pos_site_id
 _symmetry_equiv_pos_as_xyz
  1  'x, y, z'
loop_
 _atom_site_type_symbol
 _atom_site_label
 _atom_site_symmetry_multiplicity
 _atom_site_fract_x
 _atom_site_fract_y
 _atom_site_fract_z
 _atom_site_occupancy
  La  La0  1  0.474923  0.683457  0.894059  1
  Pr  Pr1  1  0.525288  0.183659  0.107193  1
  Pr  Pr2  1  0.025020  0.683879  0.106950  1
  Pr  Pr3  1  0.975465  0.184122  0.895323  1
  Hg  Hg4  1  0.532104  0.165416  0.417959  1
  Hg  Hg5  1  0.026706  0.655543  0.417697  1
  Hg  Hg6  1  0.971843  0.155367  0.582673  1
  Hg  Hg7  1  0.468349  0.665540  0.578397  1
  Hg  Hg8  1  0.548053  0.675102  0.292369  1
  Hg  Hg9  1  0.050532  0.168768  0.294091  1
  Hg  Hg10  1  0.947577  0.667644  0.705229  1
  Hg  Hg11  1  0.452836  0.175590  0.704740  1
  O  O12  1  0.749965  0.932520  0.000689  1
  O  O13  1  0.250563  0.935188  0.000488  1
  O  O14  1  0.750213  0.435410  0.001187  1
  O  O15  1  0.250574  0.432757  0.000957  1
