# generated using pymatgen
data_CsGaSnF6
_symmetry_space_group_name_H-M   'P 1'
_cell_length_a   8.50653800
_cell_length_b   7.64471100
_cell_length_c   10.51794300
_cell_angle_alpha   90.00000000
_cell_angle_beta   90.00000000
_cell_angle_gamma   90.00000000
_symmetry_Int_Tables_number   1
_chemical_formula_structural   CsGaSnF6
_chemical_formula_sum   'Cs4 Ga4 Sn4 F24'
_cell_volume   683.98209225
_cell_formula_units_Z   4
loop_
 _symmetry_equiv_pos_site_id
 _symmetry_equiv_pos_as_xyz
  1  'x, y, z'
loop_
 _atom_site_type_symbol
 _atom_site_label
 _atom_site_symmetry_multiplicity
 _atom_site_fract_x
 _atom_site_fract_y
 _atom_site_fract_z
 _atom_site_occupancy
  Cs  Cs0  1  0.067461  0.250000  0.644405  1
  Cs  Cs1  1  0.932539  0.750000  0.355595  1
  Cs  Cs2  1  0.432539  0.750000  0.144405  1
  Cs  Cs3  1  0.567461  0.250000  0.855595  1
  Ga  Ga4  1  0.000000  0.000000  0.000000  1
  Ga  Ga5  1  0.500000  0.000000  0.500000  1
  Ga  Ga6  1  0.000000  0.500000  0.000000  1
  Ga  Ga7  1  0.500000  0.500000  0.500000  1
  Sn  Sn8  1  0.227370  0.250000  0.256264  1
  Sn  Sn9  1  0.772630  0.750000  0.743736  1
  Sn  Sn10  1  0.272630  0.750000  0.756264  1
  Sn  Sn11  1  0.727370  0.250000  0.243736  1
  F  F12  1  0.309123  0.045171  0.406393  1
  F  F13  1  0.690877  0.954829  0.593607  1
  F  F14  1  0.190877  0.954829  0.906393  1
  F  F15  1  0.690877  0.545171  0.593607  1
  F  F16  1  0.809123  0.045171  0.093607  1
  F  F17  1  0.309123  0.454829  0.406393  1
  F  F18  1  0.809123  0.454829  0.093607  1
  F  F19  1  0.190877  0.545171  0.906393  1
  F  F20  1  0.557080  0.250000  0.496299  1
  F  F21  1  0.442920  0.750000  0.503701  1
  F  F22  1  0.942920  0.750000  0.996299  1
  F  F23  1  0.057080  0.250000  0.003701  1
  F  F24  1  0.111409  0.529899  0.154779  1
  F  F25  1  0.888591  0.470101  0.845221  1
  F  F26  1  0.388591  0.470101  0.654779  1
  F  F27  1  0.888591  0.029899  0.845221  1
  F  F28  1  0.611409  0.529899  0.345221  1
  F  F29  1  0.111409  0.970101  0.154779  1
  F  F30  1  0.611409  0.970101  0.345221  1
  F  F31  1  0.388591  0.029899  0.654779  1
  F  F32  1  0.521667  0.250000  0.133720  1
  F  F33  1  0.478333  0.750000  0.866280  1
  F  F34  1  0.978333  0.750000  0.633720  1
  F  F35  1  0.021667  0.250000  0.366280  1
