# generated using pymatgen
data_Y4Zn2HgRu
_symmetry_space_group_name_H-M   'P 1'
_cell_length_a   7.18687020
_cell_length_b   7.09865600
_cell_length_c   7.18721719
_cell_angle_alpha   90.00000000
_cell_angle_beta   90.08962228
_cell_angle_gamma   90.00000000
_symmetry_Int_Tables_number   1
_chemical_formula_structural   Y4Zn2HgRu
_chemical_formula_sum   'Y8 Zn4 Hg2 Ru2'
_cell_volume   366.67066832
_cell_formula_units_Z   2
loop_
 _symmetry_equiv_pos_site_id
 _symmetry_equiv_pos_as_xyz
  1  'x, y, z'
loop_
 _atom_site_type_symbol
 _atom_site_label
 _atom_site_symmetry_multiplicity
 _atom_site_fract_x
 _atom_site_fract_y
 _atom_site_fract_z
 _atom_site_occupancy
  Y  Y0  1  0.762374  0.500107  0.262385  1
  Y  Y1  1  0.762374  0.999893  0.262385  1
  Y  Y2  1  0.235894  0.000098  0.264116  1
  Y  Y3  1  0.235894  0.499901  0.264116  1
  Y  Y4  1  0.764101  0.500095  0.735888  1
  Y  Y5  1  0.764101  0.999905  0.735888  1
  Y  Y6  1  0.237627  0.000110  0.737614  1
  Y  Y7  1  0.237627  0.499890  0.737614  1
  Zn  Zn8  1  0.999760  0.250000  0.000004  1
  Zn  Zn9  1  0.000240  0.750001  0.999996  1
  Zn  Zn10  1  0.500263  0.250000  0.499985  1
  Zn  Zn11  1  0.499738  0.750001  0.500015  1
  Hg  Hg12  1  0.500169  0.250000  0.000009  1
  Hg  Hg13  1  0.499831  0.750001  0.999991  1
  Ru  Ru14  1  0.000202  0.750001  0.499996  1
  Ru  Ru15  1  0.999803  0.250000  0.499992  1
