# generated using pymatgen
data_Tm5(AlBi)2
_symmetry_space_group_name_H-M   'P 1'
_cell_length_a   8.74164290
_cell_length_b   8.74164222
_cell_length_c   7.96023000
_cell_angle_alpha   90.00000000
_cell_angle_beta   90.00000000
_cell_angle_gamma   125.83960148
_symmetry_Int_Tables_number   1
_chemical_formula_structural   Tm5(AlBi)2
_chemical_formula_sum   'Tm10 Al4 Bi4'
_cell_volume   493.11712279
_cell_formula_units_Z   2
loop_
 _symmetry_equiv_pos_site_id
 _symmetry_equiv_pos_as_xyz
  1  'x, y, z'
loop_
 _atom_site_type_symbol
 _atom_site_label
 _atom_site_symmetry_multiplicity
 _atom_site_fract_x
 _atom_site_fract_y
 _atom_site_fract_z
 _atom_site_occupancy
  Tm  Tm0  1  0.541325  0.796950  0.168470  1
  Tm  Tm1  1  0.296950  0.041325  0.331530  1
  Tm  Tm2  1  0.203050  0.458675  0.831530  1
  Tm  Tm3  1  0.958675  0.703050  0.668470  1
  Tm  Tm4  1  0.703050  0.958675  0.668470  1
  Tm  Tm5  1  0.458675  0.203050  0.831530  1
  Tm  Tm6  1  0.796950  0.541325  0.168470  1
  Tm  Tm7  1  0.041325  0.296950  0.331530  1
  Tm  Tm8  1  0.500000  0.500000  0.500000  1
  Tm  Tm9  1  0.000000  0.000000  0.000000  1
  Al  Al10  1  0.623105  0.623105  0.876994  1
  Al  Al11  1  0.123105  0.123105  0.623006  1
  Al  Al12  1  0.876895  0.876895  0.376994  1
  Al  Al13  1  0.376895  0.376895  0.123006  1
  Bi  Bi14  1  0.292752  0.707248  0.500000  1
  Bi  Bi15  1  0.207248  0.792752  0.000000  1
  Bi  Bi16  1  0.707248  0.292752  0.500000  1
  Bi  Bi17  1  0.792752  0.207248  0.000000  1
