# generated using pymatgen
data_Sr2Fe3NiAs4
_symmetry_space_group_name_H-M   'P 1'
_cell_length_a   5.63080500
_cell_length_b   6.52278391
_cell_length_c   5.69761919
_cell_angle_alpha   63.95814824
_cell_angle_beta   89.99990842
_cell_angle_gamma   89.99994243
_symmetry_Int_Tables_number   1
_chemical_formula_structural   Sr2Fe3NiAs4
_chemical_formula_sum   'Sr2 Fe3 Ni1 As4'
_cell_volume   188.01920752
_cell_formula_units_Z   1
loop_
 _symmetry_equiv_pos_site_id
 _symmetry_equiv_pos_as_xyz
  1  'x, y, z'
loop_
 _atom_site_type_symbol
 _atom_site_label
 _atom_site_symmetry_multiplicity
 _atom_site_fract_x
 _atom_site_fract_y
 _atom_site_fract_z
 _atom_site_occupancy
  Sr  Sr0  1  0.497070  0.000000  0.500000  1
  Sr  Sr1  1  0.003111  0.000000  0.999999  1
  Fe  Fe2  1  0.749951  0.500000  0.000000  1
  Fe  Fe3  1  0.750184  0.500001  0.500000  1
  Fe  Fe4  1  0.249628  0.499999  0.500001  1
  Ni  Ni5  1  0.250144  0.500001  0.000000  1
  As  As6  1  0.503130  0.716013  0.140964  1
  As  As7  1  0.996826  0.716751  0.641929  1
  As  As8  1  0.996826  0.283248  0.358071  1
  As  As9  1  0.503130  0.283987  0.859036  1
