# generated using pymatgen
data_Tb8Ta10Ti2Si15As
_symmetry_space_group_name_H-M   'P 1'
_cell_length_a   7.06874222
_cell_length_b   7.05575215
_cell_length_c   13.03685206
_cell_angle_alpha   89.96141553
_cell_angle_beta   89.87759692
_cell_angle_gamma   89.93902483
_symmetry_Int_Tables_number   1
_chemical_formula_structural   Tb8Ta10Ti2Si15As
_chemical_formula_sum   'Tb8 Ta10 Ti2 Si15 As1'
_cell_volume   650.21481930
_cell_formula_units_Z   1
loop_
 _symmetry_equiv_pos_site_id
 _symmetry_equiv_pos_as_xyz
  1  'x, y, z'
loop_
 _atom_site_type_symbol
 _atom_site_label
 _atom_site_symmetry_multiplicity
 _atom_site_fract_x
 _atom_site_fract_y
 _atom_site_fract_z
 _atom_site_occupancy
  Tb  Tb0  1  0.341787  0.001896  0.466966  1
  Tb  Tb1  1  0.498238  0.842819  0.718850  1
  Tb  Tb2  1  0.501291  0.158296  0.217997  1
  Tb  Tb3  1  0.841277  0.497655  0.282243  1
  Tb  Tb4  1  0.158962  0.500609  0.781820  1
  Tb  Tb5  1  0.659793  0.996246  0.968653  1
  Tb  Tb6  1  0.999896  0.342781  0.530693  1
  Tb  Tb7  1  0.997346  0.659915  0.032048  1
  Ta  Ta8  1  0.329319  0.329731  0.999716  1
  Ta  Ta9  1  0.172292  0.827488  0.250053  1
  Ta  Ta10  1  0.825185  0.173624  0.750090  1
  Ta  Ta11  1  0.669920  0.669398  0.499724  1
  Ta  Ta12  1  0.155838  0.009038  0.874484  1
  Ta  Ta13  1  0.492338  0.653085  0.124663  1
  Ta  Ta14  1  0.508954  0.347534  0.625110  1
  Ta  Ta15  1  0.654286  0.494433  0.876399  1
  Ta  Ta16  1  0.346318  0.507759  0.375715  1
  Ta  Ta17  1  0.845960  0.992307  0.374034  1
  Ti  Ti18  1  0.008441  0.154257  0.126165  1
  Ti  Ti19  1  0.989776  0.842292  0.625019  1
  Si  Si20  1  0.366652  0.704600  0.932803  1
  Si  Si21  1  0.631863  0.295544  0.432637  1
  Si  Si22  1  0.703677  0.366102  0.067686  1
  Si  Si23  1  0.296516  0.633590  0.567438  1
  Si  Si24  1  0.798202  0.868680  0.182859  1
  Si  Si25  1  0.133114  0.202187  0.316983  1
  Si  Si26  1  0.868146  0.798490  0.816811  1
  Si  Si27  1  0.291619  0.955549  0.064429  1
  Si  Si28  1  0.545858  0.793059  0.313445  1
  Si  Si29  1  0.461703  0.207827  0.817799  1
  Si  Si30  1  0.794717  0.547147  0.685540  1
  Si  Si31  1  0.204815  0.453314  0.185375  1
  Si  Si32  1  0.708304  0.043945  0.563955  1
  Si  Si33  1  0.955040  0.293053  0.937332  1
  Si  Si34  1  0.045069  0.707217  0.436427  1
  As  As35  1  0.197489  0.128536  0.678039  1
