# generated using pymatgen
data_Hf4Mn6Fe2Si7P
_symmetry_space_group_name_H-M   'P 1'
_cell_length_a   5.04207400
_cell_length_b   7.08036411
_cell_length_c   7.45218983
_cell_angle_alpha   89.96485916
_cell_angle_beta   90.00000000
_cell_angle_gamma   90.00000000
_symmetry_Int_Tables_number   1
_chemical_formula_structural   Hf4Mn6Fe2Si7P
_chemical_formula_sum   'Hf4 Mn6 Fe2 Si7 P1'
_cell_volume   266.04103881
_cell_formula_units_Z   1
loop_
 _symmetry_equiv_pos_site_id
 _symmetry_equiv_pos_as_xyz
  1  'x, y, z'
loop_
 _atom_site_type_symbol
 _atom_site_label
 _atom_site_symmetry_multiplicity
 _atom_site_fract_x
 _atom_site_fract_y
 _atom_site_fract_z
 _atom_site_occupancy
  Hf  Hf0  1  0.750000  0.899850  0.252367  1
  Hf  Hf1  1  0.250000  0.097128  0.749801  1
  Hf  Hf2  1  0.750000  0.403306  0.746353  1
  Hf  Hf3  1  0.250000  0.597086  0.253361  1
  Mn  Mn4  1  0.750000  0.510737  0.120976  1
  Mn  Mn5  1  0.250000  0.489574  0.886133  1
  Mn  Mn6  1  0.997507  0.746498  0.613120  1
  Mn  Mn7  1  0.501022  0.254556  0.382615  1
  Mn  Mn8  1  0.998978  0.254556  0.382615  1
  Mn  Mn9  1  0.502493  0.746498  0.613120  1
  Fe  Fe10  1  0.750000  0.010748  0.884050  1
  Fe  Fe11  1  0.250000  0.989534  0.115498  1
  Si  Si12  1  0.250000  0.448328  0.586640  1
  Si  Si13  1  0.750000  0.049289  0.582908  1
  Si  Si14  1  0.250000  0.952445  0.416307  1
  Si  Si15  1  0.999747  0.750567  0.950475  1
  Si  Si16  1  0.500040  0.249701  0.049238  1
  Si  Si17  1  0.999960  0.249701  0.049238  1
  Si  Si18  1  0.500253  0.750567  0.950475  1
  P  P19  1  0.750000  0.549328  0.414711  1
