# generated using pymatgen
data_CaBeAl2Si
_symmetry_space_group_name_H-M   'P 1'
_cell_length_a   4.10529049
_cell_length_b   4.10529039
_cell_length_c   5.92104936
_cell_angle_alpha   69.71626691
_cell_angle_beta   69.71627080
_cell_angle_gamma   89.99999215
_symmetry_Int_Tables_number   1
_chemical_formula_structural   CaBeAl2Si
_chemical_formula_sum   'Ca1 Be1 Al2 Si1'
_cell_volume   86.97423031
_cell_formula_units_Z   1
loop_
 _symmetry_equiv_pos_site_id
 _symmetry_equiv_pos_as_xyz
  1  'x, y, z'
loop_
 _atom_site_type_symbol
 _atom_site_label
 _atom_site_symmetry_multiplicity
 _atom_site_fract_x
 _atom_site_fract_y
 _atom_site_fract_z
 _atom_site_occupancy
  Ca  Ca0  1  0.998138  0.998138  0.003723  1
  Be  Be1  1  0.616384  0.616384  0.767232  1
  Al  Al2  1  0.743069  0.243069  0.513862  1
  Al  Al3  1  0.243069  0.743069  0.513862  1
  Si  Si4  1  0.399339  0.399339  0.201322  1
