# generated using pymatgen
data_Ba4TaMnO8
_symmetry_space_group_name_H-M   'P 1'
_cell_length_a   7.27596022
_cell_length_b   7.27595955
_cell_length_c   5.87714800
_cell_angle_alpha   90.00000000
_cell_angle_beta   90.00000000
_cell_angle_gamma   132.25493162
_symmetry_Int_Tables_number   1
_chemical_formula_structural   Ba4TaMnO8
_chemical_formula_sum   'Ba4 Ta1 Mn1 O8'
_cell_volume   230.28888559
_cell_formula_units_Z   1
loop_
 _symmetry_equiv_pos_site_id
 _symmetry_equiv_pos_as_xyz
  1  'x, y, z'
loop_
 _atom_site_type_symbol
 _atom_site_label
 _atom_site_symmetry_multiplicity
 _atom_site_fract_x
 _atom_site_fract_y
 _atom_site_fract_z
 _atom_site_occupancy
  Ba  Ba0  1  0.642954  0.357046  0.000000  1
  Ba  Ba1  1  0.145529  0.854471  0.500000  1
  Ba  Ba2  1  0.854471  0.145529  0.500000  1
  Ba  Ba3  1  0.357046  0.642954  0.000000  1
  Ta  Ta4  1  0.000000  0.000000  0.000000  1
  Mn  Mn5  1  0.500000  0.500000  0.500000  1
  O  O6  1  0.759680  0.759680  0.758983  1
  O  O7  1  0.240320  0.240320  0.241017  1
  O  O8  1  0.240320  0.240320  0.758983  1
  O  O9  1  0.759680  0.759680  0.241017  1
  O  O10  1  0.846546  0.153454  0.000000  1
  O  O11  1  0.351480  0.648520  0.500000  1
  O  O12  1  0.648520  0.351480  0.500000  1
  O  O13  1  0.153454  0.846546  0.000000  1
