# generated using pymatgen
data_La3Pr2Mg(P2Ru3)6
_symmetry_space_group_name_H-M   'P 1'
_cell_length_a   12.64016300
_cell_length_b   12.79091729
_cell_length_c   4.03615100
_cell_angle_alpha   90.00000000
_cell_angle_beta   90.00000000
_cell_angle_gamma   119.61087816
_symmetry_Int_Tables_number   1
_chemical_formula_structural   La3Pr2Mg(P2Ru3)6
_chemical_formula_sum   'La3 Pr2 Mg1 P12 Ru18'
_cell_volume   567.33813035
_cell_formula_units_Z   1
loop_
 _symmetry_equiv_pos_site_id
 _symmetry_equiv_pos_as_xyz
  1  'x, y, z'
loop_
 _atom_site_type_symbol
 _atom_site_label
 _atom_site_symmetry_multiplicity
 _atom_site_fract_x
 _atom_site_fract_y
 _atom_site_fract_z
 _atom_site_occupancy
  La  La0  1  0.820650  0.000000  0.500000  1
  La  La1  1  0.000479  0.816552  0.500000  1
  La  La2  1  0.183926  0.183448  0.500000  1
  Pr  Pr3  1  0.331099  0.660451  0.000000  1
  Pr  Pr4  1  0.670649  0.339549  0.000000  1
  Mg  Mg5  1  0.437633  0.000000  0.000000  1
  P  P6  1  0.193359  0.000000  0.000000  1
  P  P7  1  0.999604  0.187965  0.000000  1
  P  P8  1  0.811639  0.812035  0.000000  1
  P  P9  1  0.521423  0.692527  0.500000  1
  P  P10  1  0.297414  0.818210  0.500000  1
  P  P11  1  0.167825  0.473098  0.500000  1
  P  P12  1  0.479204  0.181790  0.500000  1
  P  P13  1  0.694727  0.526902  0.500000  1
  P  P14  1  0.828895  0.307473  0.500000  1
  P  P15  1  0.636276  0.000000  0.000000  1
  P  P16  1  0.998562  0.621469  0.000000  1
  P  P17  1  0.377093  0.378531  0.000000  1
  Ru  Ru18  1  0.998942  0.443806  0.000000  1
  Ru  Ru19  1  0.555136  0.556194  0.000000  1
  Ru  Ru20  1  0.288674  0.000000  0.500000  1
  Ru  Ru21  1  0.998091  0.284860  0.500000  1
  Ru  Ru22  1  0.713231  0.715140  0.500000  1
  Ru  Ru23  1  0.618736  0.803675  0.000000  1
  Ru  Ru24  1  0.195037  0.813224  0.000000  1
  Ru  Ru25  1  0.183589  0.376023  0.000000  1
  Ru  Ru26  1  0.381812  0.186776  0.000000  1
  Ru  Ru27  1  0.807565  0.623977  0.000000  1
  Ru  Ru28  1  0.815061  0.196325  0.000000  1
  Ru  Ru29  1  0.509501  0.876741  0.500000  1
  Ru  Ru30  1  0.119849  0.629588  0.500000  1
  Ru  Ru31  1  0.365042  0.491768  0.500000  1
  Ru  Ru32  1  0.490260  0.370412  0.500000  1
  Ru  Ru33  1  0.873274  0.508232  0.500000  1
  Ru  Ru34  1  0.632761  0.123259  0.500000  1
  Ru  Ru35  1  0.002980  0.000000  0.000000  1
