# generated using pymatgen
data_Tl2W4O13
_symmetry_space_group_name_H-M   'P 1'
_cell_length_a   16.01995636
_cell_length_b   16.06615329
_cell_length_c   3.87849700
_cell_angle_alpha   89.96292892
_cell_angle_beta   90.01213515
_cell_angle_gamma   119.95725005
_symmetry_Int_Tables_number   1
_chemical_formula_structural   Tl2W4O13
_chemical_formula_sum   'Tl6 W12 O39'
_cell_volume   864.87661576
_cell_formula_units_Z   3
loop_
 _symmetry_equiv_pos_site_id
 _symmetry_equiv_pos_as_xyz
  1  'x, y, z'
loop_
 _atom_site_type_symbol
 _atom_site_label
 _atom_site_symmetry_multiplicity
 _atom_site_fract_x
 _atom_site_fract_y
 _atom_site_fract_z
 _atom_site_occupancy
  Tl  Tl0  1  0.003820  0.998327  0.499978  1
  Tl  Tl1  1  0.310953  0.517064  0.509143  1
  Tl  Tl2  1  0.486224  0.801653  0.509863  1
  Tl  Tl3  1  0.502961  0.186071  0.488818  1
  Tl  Tl4  1  0.685153  0.494201  0.486413  1
  Tl  Tl5  1  0.810198  0.315940  0.487414  1
  W  W6  1  0.091588  0.821855  0.024117  1
  W  W7  1  0.087961  0.451140  0.002511  1
  W  W8  1  0.360408  0.912546  0.004465  1
  W  W9  1  0.175721  0.266743  0.018319  1
  W  W10  1  0.263766  0.088920  0.986069  1
  W  W11  1  0.555240  0.638030  0.004939  1
  W  W12  1  0.446473  0.360781  0.994042  1
  W  W13  1  0.734027  0.910232  0.016476  1
  W  W14  1  0.827095  0.736339  0.980822  1
  W  W15  1  0.637743  0.085088  0.994761  1
  W  W16  1  0.915580  0.553632  0.988607  1
  W  W17  1  0.910685  0.176057  0.984330  1
  O  O18  1  0.149318  0.968546  0.999822  1
  O  O19  1  0.095422  0.830773  0.506360  1
  O  O20  1  0.036285  0.690595  0.002721  1
  O  O21  1  0.000127  0.500697  0.999113  1
  O  O22  1  0.222305  0.846643  0.001340  1
  O  O23  1  0.075372  0.438090  0.500419  1
  O  O24  1  0.363498  0.925230  0.502078  1
  O  O25  1  0.199844  0.560002  0.000021  1
  O  O26  1  0.031051  0.180105  0.999198  1
  O  O27  1  0.152395  0.374006  0.000113  1
  O  O28  1  0.371940  0.807420  0.003361  1
  O  O29  1  0.169738  0.264533  0.504385  1
  O  O30  1  0.180933  0.150395  0.000650  1
  O  O31  1  0.440313  0.634970  0.001022  1
  O  O32  1  0.309187  0.347502  0.000316  1
  O  O33  1  0.651260  0.960643  0.999941  1
  O  O34  1  0.264020  0.095506  0.496512  1
  O  O35  1  0.563002  0.636475  0.501543  1
  O  O36  1  0.625389  0.777490  0.000288  1
  O  O37  1  0.501425  0.499723  0.999853  1
  O  O38  1  0.375353  0.221723  0.999141  1
  O  O39  1  0.438717  0.362651  0.497813  1
  O  O40  1  0.734236  0.904251  0.503639  1
  O  O41  1  0.346962  0.039316  0.000184  1
  O  O42  1  0.692711  0.653001  0.999325  1
  O  O43  1  0.561596  0.364686  0.998469  1
  O  O44  1  0.819114  0.850255  0.998297  1
  O  O45  1  0.831547  0.736338  0.494577  1
  O  O46  1  0.500033  0.003259  0.999984  1
  O  O47  1  0.636641  0.197488  0.998062  1
  O  O48  1  0.846193  0.624798  0.998138  1
  O  O49  1  0.969745  0.818976  0.000364  1
  O  O50  1  0.803989  0.438859  0.998882  1
  O  O51  1  0.637383  0.075906  0.497879  1
  O  O52  1  0.923077  0.561410  0.496514  1
  O  O53  1  0.777956  0.152354  0.998896  1
  O  O54  1  0.960358  0.307686  0.998330  1
  O  O55  1  0.904880  0.168497  0.495537  1
  O  O56  1  0.848931  0.030167  0.000034  1
