# generated using pymatgen
data_Ce4MnCr4(Co5P4)3
_symmetry_space_group_name_H-M   'P 1'
_cell_length_a   3.68445800
_cell_length_b   10.45369372
_cell_length_c   11.83498482
_cell_angle_alpha   90.04256439
_cell_angle_beta   90.00000000
_cell_angle_gamma   90.00000000
_symmetry_Int_Tables_number   1
_chemical_formula_structural   Ce4MnCr4(Co5P4)3
_chemical_formula_sum   'Ce4 Mn1 Cr4 Co15 P12'
_cell_volume   455.83846268
_cell_formula_units_Z   1
loop_
 _symmetry_equiv_pos_site_id
 _symmetry_equiv_pos_as_xyz
  1  'x, y, z'
loop_
 _atom_site_type_symbol
 _atom_site_label
 _atom_site_symmetry_multiplicity
 _atom_site_fract_x
 _atom_site_fract_y
 _atom_site_fract_z
 _atom_site_occupancy
  Ce  Ce0  1  0.250000  0.583067  0.703574  1
  Ce  Ce1  1  0.250000  0.917597  0.202656  1
  Ce  Ce2  1  0.750000  0.416862  0.297358  1
  Ce  Ce3  1  0.750000  0.082424  0.797425  1
  Mn  Mn4  1  0.250000  0.405357  0.488671  1
  Cr  Cr5  1  0.250000  0.708999  0.988949  1
  Cr  Cr6  1  0.250000  0.792745  0.490145  1
  Cr  Cr7  1  0.750000  0.291206  0.010614  1
  Cr  Cr8  1  0.750000  0.206021  0.509117  1
  Co  Co9  1  0.250000  0.094704  0.987813  1
  Co  Co10  1  0.750000  0.597432  0.512717  1
  Co  Co11  1  0.750000  0.904923  0.012098  1
  Co  Co12  1  0.250000  0.220188  0.175807  1
  Co  Co13  1  0.250000  0.277346  0.677122  1
  Co  Co14  1  0.750000  0.779481  0.823987  1
  Co  Co15  1  0.750000  0.720826  0.323298  1
  Co  Co16  1  0.250000  0.885427  0.699086  1
  Co  Co17  1  0.250000  0.615288  0.198065  1
  Co  Co18  1  0.750000  0.114232  0.300492  1
  Co  Co19  1  0.750000  0.386116  0.800668  1
  Co  Co20  1  0.250000  0.467937  0.932644  1
  Co  Co21  1  0.250000  0.032709  0.431562  1
  Co  Co22  1  0.750000  0.532166  0.067470  1
  Co  Co23  1  0.750000  0.966653  0.568327  1
  P  P24  1  0.250000  0.417040  0.111246  1
  P  P25  1  0.250000  0.081585  0.611132  1
  P  P26  1  0.750000  0.582821  0.889199  1
  P  P27  1  0.750000  0.918242  0.388499  1
  P  P28  1  0.250000  0.274442  0.868492  1
  P  P29  1  0.250000  0.227245  0.368993  1
  P  P30  1  0.750000  0.725513  0.131444  1
  P  P31  1  0.750000  0.774263  0.632550  1
  P  P32  1  0.250000  0.600032  0.392427  1
  P  P33  1  0.250000  0.895533  0.893652  1
  P  P34  1  0.750000  0.399070  0.606000  1
  P  P35  1  0.750000  0.104506  0.106703  1
