# generated using pymatgen
data_CsLiZrF6
_symmetry_space_group_name_H-M   'P 1'
_cell_length_a   11.46998900
_cell_length_b   5.94323447
_cell_length_c   9.73000075
_cell_angle_alpha   88.98758784
_cell_angle_beta   90.00000000
_cell_angle_gamma   90.00000000
_symmetry_Int_Tables_number   1
_chemical_formula_structural   CsLiZrF6
_chemical_formula_sum   'Cs4 Li4 Zr4 F24'
_cell_volume   663.17926114
_cell_formula_units_Z   4
loop_
 _symmetry_equiv_pos_site_id
 _symmetry_equiv_pos_as_xyz
  1  'x, y, z'
loop_
 _atom_site_type_symbol
 _atom_site_label
 _atom_site_symmetry_multiplicity
 _atom_site_fract_x
 _atom_site_fract_y
 _atom_site_fract_z
 _atom_site_occupancy
  Cs  Cs0  1  0.682762  0.300380  0.502531  1
  Cs  Cs1  1  0.817238  0.300380  0.002531  1
  Cs  Cs2  1  0.317238  0.699620  0.497469  1
  Cs  Cs3  1  0.182762  0.699620  0.997469  1
  Li  Li4  1  0.898114  0.739974  0.677439  1
  Li  Li5  1  0.101886  0.260026  0.322561  1
  Li  Li6  1  0.398114  0.260026  0.822561  1
  Li  Li7  1  0.601886  0.739974  0.177439  1
  Zr  Zr8  1  0.912802  0.781639  0.281649  1
  Zr  Zr9  1  0.412802  0.218361  0.218351  1
  Zr  Zr10  1  0.087198  0.218361  0.718351  1
  Zr  Zr11  1  0.587198  0.781639  0.781649  1
  F  F12  1  0.249645  0.357730  0.248169  1
  F  F13  1  0.997638  0.514219  0.750340  1
  F  F14  1  0.069246  0.946897  0.302157  1
  F  F15  1  0.750355  0.642270  0.751831  1
  F  F16  1  0.502362  0.514219  0.250340  1
  F  F17  1  0.605546  0.699316  0.985986  1
  F  F18  1  0.930754  0.053103  0.697843  1
  F  F19  1  0.569246  0.053103  0.197843  1
  F  F20  1  0.837611  0.085990  0.301308  1
  F  F21  1  0.894454  0.699316  0.485986  1
  F  F22  1  0.162389  0.914010  0.698692  1
  F  F23  1  0.417682  0.183151  0.425860  1
  F  F24  1  0.582318  0.816849  0.574140  1
  F  F25  1  0.497638  0.485781  0.749660  1
  F  F26  1  0.250355  0.357730  0.748169  1
  F  F27  1  0.749645  0.642270  0.251831  1
  F  F28  1  0.337611  0.914010  0.198692  1
  F  F29  1  0.002362  0.485781  0.249660  1
  F  F30  1  0.394454  0.300684  0.014014  1
  F  F31  1  0.662389  0.085990  0.801308  1
  F  F32  1  0.105546  0.300684  0.514014  1
  F  F33  1  0.082318  0.183151  0.925860  1
  F  F34  1  0.917682  0.816849  0.074140  1
  F  F35  1  0.430754  0.946897  0.802157  1
