# generated using pymatgen
data_Nd3Y(LuSb)6
_symmetry_space_group_name_H-M   'P 1'
_cell_length_a   8.06778700
_cell_length_b   9.19897800
_cell_length_c   11.88182100
_cell_angle_alpha   90.00000000
_cell_angle_beta   90.00000000
_cell_angle_gamma   90.00000000
_symmetry_Int_Tables_number   1
_chemical_formula_structural   Nd3Y(LuSb)6
_chemical_formula_sum   'Nd6 Y2 Lu12 Sb12'
_cell_volume   881.81404028
_cell_formula_units_Z   2
loop_
 _symmetry_equiv_pos_site_id
 _symmetry_equiv_pos_as_xyz
  1  'x, y, z'
loop_
 _atom_site_type_symbol
 _atom_site_label
 _atom_site_symmetry_multiplicity
 _atom_site_fract_x
 _atom_site_fract_y
 _atom_site_fract_z
 _atom_site_occupancy
  Nd  Nd0  1  0.184231  0.750000  0.720577  1
  Nd  Nd1  1  0.684231  0.750000  0.779423  1
  Nd  Nd2  1  0.817506  0.250000  0.279765  1
  Nd  Nd3  1  0.317506  0.250000  0.220235  1
  Nd  Nd4  1  0.351754  0.750000  0.215253  1
  Nd  Nd5  1  0.851754  0.750000  0.284747  1
  Y  Y6  1  0.648426  0.250000  0.784078  1
  Y  Y7  1  0.148426  0.250000  0.715922  1
  Lu  Lu8  1  0.025637  0.750000  0.986944  1
  Lu  Lu9  1  0.525637  0.750000  0.513056  1
  Lu  Lu10  1  0.974191  0.250000  0.009525  1
  Lu  Lu11  1  0.474191  0.250000  0.490475  1
  Lu  Lu12  1  0.309527  0.436290  0.939528  1
  Lu  Lu13  1  0.809527  0.063710  0.560472  1
  Lu  Lu14  1  0.690220  0.936305  0.057794  1
  Lu  Lu15  1  0.190220  0.563695  0.442206  1
  Lu  Lu16  1  0.690220  0.563695  0.057794  1
  Lu  Lu17  1  0.190220  0.936305  0.442206  1
  Lu  Lu18  1  0.309527  0.063710  0.939528  1
  Lu  Lu19  1  0.809527  0.436290  0.560472  1
  Sb  Sb20  1  0.435830  0.008409  0.669563  1
  Sb  Sb21  1  0.935830  0.491591  0.830437  1
  Sb  Sb22  1  0.563974  0.504315  0.334798  1
  Sb  Sb23  1  0.063974  0.995685  0.165202  1
  Sb  Sb24  1  0.563974  0.995685  0.334798  1
  Sb  Sb25  1  0.063974  0.504315  0.165202  1
  Sb  Sb26  1  0.435830  0.491591  0.669563  1
  Sb  Sb27  1  0.935830  0.008409  0.830437  1
  Sb  Sb28  1  0.405117  0.750000  0.957878  1
  Sb  Sb29  1  0.905117  0.750000  0.542122  1
  Sb  Sb30  1  0.594036  0.250000  0.037240  1
  Sb  Sb31  1  0.094036  0.250000  0.462760  1
