# generated using pymatgen
data_Lu3P4Rh7
_symmetry_space_group_name_H-M   'P 1'
_cell_length_a   7.68492371
_cell_length_b   7.68492255
_cell_length_c   9.10960321
_cell_angle_alpha   56.88227195
_cell_angle_beta   56.88227854
_cell_angle_gamma   29.42505420
_symmetry_Int_Tables_number   1
_chemical_formula_structural   Lu3P4Rh7
_chemical_formula_sum   'Lu3 P4 Rh7'
_cell_volume   218.10013760
_cell_formula_units_Z   1
loop_
 _symmetry_equiv_pos_site_id
 _symmetry_equiv_pos_as_xyz
  1  'x, y, z'
loop_
 _atom_site_type_symbol
 _atom_site_label
 _atom_site_symmetry_multiplicity
 _atom_site_fract_x
 _atom_site_fract_y
 _atom_site_fract_z
 _atom_site_occupancy
  Lu  Lu0  1  0.668631  0.668631  0.335806  1
  Lu  Lu1  1  0.331369  0.331369  0.664194  1
  Lu  Lu2  1  0.000000  0.000000  0.000000  1
  P  P3  1  0.332034  0.332034  0.272806  1
  P  P4  1  0.667966  0.667966  0.727194  1
  P  P5  1  0.891079  0.891079  0.826271  1
  P  P6  1  0.108921  0.108921  0.173729  1
  Rh  Rh7  1  0.299952  0.299952  0.049319  1
  Rh  Rh8  1  0.700048  0.700048  0.950681  1
  Rh  Rh9  1  0.505385  0.505385  0.734471  1
  Rh  Rh10  1  0.831404  0.831404  0.420280  1
  Rh  Rh11  1  0.494615  0.494615  0.265529  1
  Rh  Rh12  1  0.168596  0.168596  0.579720  1
  Rh  Rh13  1  0.000000  0.000000  0.500000  1
