# generated using pymatgen
data_Nb4Ga5Cu3
_symmetry_space_group_name_H-M   'P 1'
_cell_length_a   4.96348107
_cell_length_b   5.08756496
_cell_length_c   8.23297400
_cell_angle_alpha   90.00000000
_cell_angle_beta   90.00000000
_cell_angle_gamma   120.37353224
_symmetry_Int_Tables_number   1
_chemical_formula_structural   Nb4Ga5Cu3
_chemical_formula_sum   'Nb4 Ga5 Cu3'
_cell_volume   179.36459026
_cell_formula_units_Z   1
loop_
 _symmetry_equiv_pos_site_id
 _symmetry_equiv_pos_as_xyz
  1  'x, y, z'
loop_
 _atom_site_type_symbol
 _atom_site_label
 _atom_site_symmetry_multiplicity
 _atom_site_fract_x
 _atom_site_fract_y
 _atom_site_fract_z
 _atom_site_occupancy
  Nb  Nb0  1  0.676180  0.343219  0.565288  1
  Nb  Nb1  1  0.323878  0.659943  0.434331  1
  Nb  Nb2  1  0.323878  0.659943  0.065669  1
  Nb  Nb3  1  0.676180  0.343219  0.934712  1
  Ga  Ga4  1  0.992580  0.005633  0.493120  1
  Ga  Ga5  1  0.992580  0.005633  0.006880  1
  Ga  Ga6  1  0.191347  0.359273  0.750000  1
  Ga  Ga7  1  0.190125  0.839756  0.750000  1
  Ga  Ga8  1  0.807764  0.628184  0.250000  1
  Cu  Cu9  1  0.679339  0.842997  0.750000  1
  Cu  Cu10  1  0.817445  0.158880  0.250000  1
  Cu  Cu11  1  0.328703  0.153324  0.250000  1
