# generated using pymatgen
data_Hf8Ni2IrOsN
_symmetry_space_group_name_H-M   'P 1'
_cell_length_a   8.61937187
_cell_length_b   8.61937267
_cell_length_c   8.61937311
_cell_angle_alpha   120.11411629
_cell_angle_beta   120.04915125
_cell_angle_gamma   89.85867556
_symmetry_Int_Tables_number   1
_chemical_formula_structural   Hf8Ni2IrOsN
_chemical_formula_sum   'Hf16 Ni4 Ir2 Os2 N2'
_cell_volume   452.24538215
_cell_formula_units_Z   2
loop_
 _symmetry_equiv_pos_site_id
 _symmetry_equiv_pos_as_xyz
  1  'x, y, z'
loop_
 _atom_site_type_symbol
 _atom_site_label
 _atom_site_symmetry_multiplicity
 _atom_site_fract_x
 _atom_site_fract_y
 _atom_site_fract_z
 _atom_site_occupancy
  Hf  Hf0  1  0.934225  0.184225  0.750000  1
  Hf  Hf1  1  0.322554  0.572554  0.750000  1
  Hf  Hf2  1  0.930743  0.569265  0.755746  1
  Hf  Hf3  1  0.313519  0.174997  0.744254  1
  Hf  Hf4  1  0.930743  0.174997  0.361478  1
  Hf  Hf5  1  0.313519  0.569265  0.138522  1
  Hf  Hf6  1  0.056961  0.806961  0.250000  1
  Hf  Hf7  1  0.688549  0.438549  0.250000  1
  Hf  Hf8  1  0.055454  0.435017  0.241946  1
  Hf  Hf9  1  0.693071  0.813508  0.258054  1
  Hf  Hf10  1  0.055454  0.813508  0.620437  1
  Hf  Hf11  1  0.693071  0.435017  0.879563  1
  Hf  Hf12  1  0.485719  0.013938  0.028219  1
  Hf  Hf13  1  0.485719  0.457498  0.471781  1
  Hf  Hf14  1  0.482901  0.016279  0.466623  1
  Hf  Hf15  1  0.049655  0.016279  0.033377  1
  Ni  Ni16  1  0.273365  0.235842  0.462477  1
  Ni  Ni17  1  0.273365  0.810888  0.037523  1
  Ni  Ni18  1  0.277658  0.230419  0.047239  1
  Ni  Ni19  1  0.683179  0.230419  0.452761  1
  Ir  Ir20  1  0.708751  0.791685  0.917065  1
  Ir  Ir21  1  0.374621  0.791685  0.582935  1
  Os  Os22  1  0.708844  0.789892  0.581049  1
  Os  Os23  1  0.708844  0.127794  0.918951  1
  N  N24  1  0.999760  0.500413  0.000654  1
  N  N25  1  0.999760  0.999105  0.499346  1
