# generated using pymatgen
data_Hf18TiRe7PtSe
_symmetry_space_group_name_H-M   'P 1'
_cell_length_a   8.67727700
_cell_length_b   8.67726757
_cell_length_c   8.57870500
_cell_angle_alpha   90.00188034
_cell_angle_beta   89.99810737
_cell_angle_gamma   120.00224039
_symmetry_Int_Tables_number   1
_chemical_formula_structural   Hf18TiRe7PtSe
_chemical_formula_sum   'Hf18 Ti1 Re7 Pt1 Se1'
_cell_volume   559.38267495
_cell_formula_units_Z   1
loop_
 _symmetry_equiv_pos_site_id
 _symmetry_equiv_pos_as_xyz
  1  'x, y, z'
loop_
 _atom_site_type_symbol
 _atom_site_label
 _atom_site_symmetry_multiplicity
 _atom_site_fract_x
 _atom_site_fract_y
 _atom_site_fract_z
 _atom_site_occupancy
  Hf  Hf0  1  0.194316  0.805682  0.446333  1
  Hf  Hf1  1  0.194319  0.388644  0.446337  1
  Hf  Hf2  1  0.611356  0.805682  0.446337  1
  Hf  Hf3  1  0.806775  0.193226  0.548287  1
  Hf  Hf4  1  0.806771  0.613540  0.548290  1
  Hf  Hf5  1  0.386460  0.193229  0.548287  1
  Hf  Hf6  1  0.808396  0.191611  0.951283  1
  Hf  Hf7  1  0.808388  0.616788  0.951289  1
  Hf  Hf8  1  0.383214  0.191616  0.951289  1
  Hf  Hf9  1  0.193714  0.806286  0.054183  1
  Hf  Hf10  1  0.193717  0.387423  0.054178  1
  Hf  Hf11  1  0.612578  0.806283  0.054177  1
  Hf  Hf12  1  0.542774  0.457231  0.248914  1
  Hf  Hf13  1  0.542771  0.085543  0.248906  1
  Hf  Hf14  1  0.914456  0.457227  0.248905  1
  Hf  Hf15  1  0.454250  0.545751  0.750470  1
  Hf  Hf16  1  0.454253  0.908500  0.750471  1
  Hf  Hf17  1  0.091501  0.545749  0.750471  1
  Ti  Ti18  1  0.999998  0.000002  0.499073  1
  Re  Re19  1  0.888737  0.111261  0.252353  1
  Re  Re20  1  0.888744  0.777486  0.252350  1
  Re  Re21  1  0.222511  0.111256  0.252348  1
  Re  Re22  1  0.110593  0.889402  0.748393  1
  Re  Re23  1  0.110589  0.221185  0.748381  1
  Re  Re24  1  0.778814  0.889409  0.748381  1
  Re  Re25  1  0.000006  0.999997  0.000188  1
  Pt  Pt26  1  0.333336  0.666657  0.248425  1
  Se  Se27  1  0.666665  0.333333  0.751702  1
