# generated using pymatgen
data_Ho5Er11In6NiOs
_symmetry_space_group_name_H-M   'P 1'
_cell_length_a   10.33901852
_cell_length_b   10.33910153
_cell_length_c   6.98479003
_cell_angle_alpha   89.99408324
_cell_angle_beta   90.00555121
_cell_angle_gamma   119.99699903
_symmetry_Int_Tables_number   1
_chemical_formula_structural   Ho5Er11In6NiOs
_chemical_formula_sum   'Ho5 Er11 In6 Ni1 Os1'
_cell_volume   646.63503320
_cell_formula_units_Z   1
loop_
 _symmetry_equiv_pos_site_id
 _symmetry_equiv_pos_as_xyz
  1  'x, y, z'
loop_
 _atom_site_type_symbol
 _atom_site_label
 _atom_site_symmetry_multiplicity
 _atom_site_fract_x
 _atom_site_fract_y
 _atom_site_fract_z
 _atom_site_occupancy
  Ho  Ho0  1  0.533012  0.066121  0.793641  1
  Ho  Ho1  1  0.933887  0.466979  0.793625  1
  Ho  Ho2  1  0.532927  0.467014  0.793865  1
  Ho  Ho3  1  0.466282  0.932437  0.293472  1
  Ho  Ho4  1  0.067566  0.533760  0.293422  1
  Er  Er5  1  0.466116  0.533930  0.293676  1
  Er  Er6  1  0.822485  0.645270  0.498541  1
  Er  Er7  1  0.354691  0.177509  0.498501  1
  Er  Er8  1  0.822756  0.177294  0.498654  1
  Er  Er9  1  0.177116  0.353980  0.999637  1
  Er  Er10  1  0.646025  0.822882  0.999584  1
  Er  Er11  1  0.176964  0.823039  0.999434  1
  Er  Er12  1  0.666556  0.333441  0.180349  1
  Er  Er13  1  0.333443  0.666551  0.673243  1
  Er  Er14  1  0.999997  0.999955  0.776438  1
  Er  Er15  1  0.999962  0.000033  0.280966  1
  In  In16  1  0.836811  0.673562  0.038743  1
  In  In17  1  0.326407  0.163178  0.038697  1
  In  In18  1  0.836751  0.163253  0.038552  1
  In  In19  1  0.162343  0.324468  0.538929  1
  In  In20  1  0.675594  0.837673  0.538873  1
  In  In21  1  0.162143  0.837848  0.539106  1
  Ni  Ni22  1  0.666643  0.333320  0.566652  1
  Os  Os23  1  0.333522  0.666505  0.069306  1
