# generated using pymatgen
data_TaBe2NbB4(Ru5W)2
_symmetry_space_group_name_H-M   'P 1'
_cell_length_a   9.14439700
_cell_length_b   9.14439672
_cell_length_c   2.93018000
_cell_angle_alpha   90.00000000
_cell_angle_beta   90.00000000
_cell_angle_gamma   90.28195632
_symmetry_Int_Tables_number   1
_chemical_formula_structural   TaBe2NbB4(Ru5W)2
_chemical_formula_sum   'Ta1 Be2 Nb1 B4 Ru10 W2'
_cell_volume   245.01866711
_cell_formula_units_Z   1
loop_
 _symmetry_equiv_pos_site_id
 _symmetry_equiv_pos_as_xyz
  1  'x, y, z'
loop_
 _atom_site_type_symbol
 _atom_site_label
 _atom_site_symmetry_multiplicity
 _atom_site_fract_x
 _atom_site_fract_y
 _atom_site_fract_z
 _atom_site_occupancy
  Ta  Ta0  1  0.676687  0.176687  0.000000  1
  Be  Be1  1  0.499936  0.500056  0.000000  1
  Be  Be2  1  0.000056  0.999936  0.000000  1
  Nb  Nb3  1  0.323311  0.823311  0.000000  1
  B  B4  1  0.628190  0.871688  0.000000  1
  B  B5  1  0.371688  0.128190  0.000000  1
  B  B6  1  0.128234  0.628234  0.000000  1
  B  B7  1  0.871874  0.371874  0.000000  1
  Ru  Ru8  1  0.567840  0.706571  0.500000  1
  Ru  Ru9  1  0.432686  0.293209  0.500000  1
  Ru  Ru10  1  0.061539  0.790930  0.500000  1
  Ru  Ru11  1  0.937520  0.209027  0.500000  1
  Ru  Ru12  1  0.290930  0.561539  0.500000  1
  Ru  Ru13  1  0.709027  0.437520  0.500000  1
  Ru  Ru14  1  0.206571  0.067840  0.500000  1
  Ru  Ru15  1  0.793209  0.932686  0.500000  1
  Ru  Ru16  1  0.500729  0.000729  0.500000  1
  Ru  Ru17  1  0.999977  0.499977  0.500000  1
  W  W18  1  0.821927  0.678067  0.000000  1
  W  W19  1  0.178067  0.321927  0.000000  1
