# generated using pymatgen
data_Pr20Tl5Si6Ge
_symmetry_space_group_name_H-M   'P 1'
_cell_length_a   8.09717658
_cell_length_b   8.09717606
_cell_length_c   14.81428500
_cell_angle_alpha   89.96425902
_cell_angle_beta   90.03574098
_cell_angle_gamma   89.96533565
_symmetry_Int_Tables_number   1
_chemical_formula_structural   Pr20Tl5Si6Ge
_chemical_formula_sum   'Pr20 Tl5 Si6 Ge1'
_cell_volume   971.28714142
_cell_formula_units_Z   1
loop_
 _symmetry_equiv_pos_site_id
 _symmetry_equiv_pos_as_xyz
  1  'x, y, z'
loop_
 _atom_site_type_symbol
 _atom_site_label
 _atom_site_symmetry_multiplicity
 _atom_site_fract_x
 _atom_site_fract_y
 _atom_site_fract_z
 _atom_site_occupancy
  Pr  Pr0  1  0.820953  0.831584  0.612645  1
  Pr  Pr1  1  0.186644  0.823503  0.108546  1
  Pr  Pr2  1  0.170546  0.809698  0.389930  1
  Pr  Pr3  1  0.002184  0.497861  0.734123  1
  Pr  Pr4  1  0.823503  0.186644  0.391454  1
  Pr  Pr5  1  0.673921  0.662200  0.391578  1
  Pr  Pr6  1  0.667293  0.319558  0.613150  1
  Pr  Pr7  1  0.331107  0.679929  0.612798  1
  Pr  Pr8  1  0.994954  0.509593  0.231768  1
  Pr  Pr9  1  0.662200  0.673921  0.108422  1
  Pr  Pr10  1  0.679929  0.331107  0.887202  1
  Pr  Pr11  1  0.831584  0.820953  0.887355  1
  Pr  Pr12  1  0.334605  0.346713  0.396348  1
  Pr  Pr13  1  0.177914  0.166921  0.611787  1
  Pr  Pr14  1  0.809698  0.170546  0.110070  1
  Pr  Pr15  1  0.319558  0.667293  0.886850  1
  Pr  Pr16  1  0.346713  0.334605  0.103652  1
  Pr  Pr17  1  0.509593  0.994954  0.268232  1
  Pr  Pr18  1  0.166921  0.177914  0.888213  1
  Pr  Pr19  1  0.497861  0.002184  0.765877  1
  Tl  Tl20  1  0.997744  0.498485  0.503971  1
  Tl  Tl21  1  0.497711  0.997788  0.498982  1
  Tl  Tl22  1  0.498485  0.997744  0.996029  1
  Tl  Tl23  1  0.130247  0.130247  0.250000  1
  Tl  Tl24  1  0.997788  0.497711  0.001018  1
  Si  Si25  1  0.616609  0.382766  0.250347  1
  Si  Si26  1  0.114789  0.884367  0.749928  1
  Si  Si27  1  0.382137  0.382137  0.750000  1
  Si  Si28  1  0.382766  0.616609  0.249653  1
  Si  Si29  1  0.617172  0.617172  0.750000  1
  Si  Si30  1  0.884367  0.114789  0.750072  1
  Ge  Ge31  1  0.872505  0.872505  0.250000  1
