# generated using pymatgen
data_TbDy6Y(WO6)4
_symmetry_space_group_name_H-M   'P 1'
_cell_length_a   5.40351100
_cell_length_b   7.71349010
_cell_length_c   11.49504300
_cell_angle_alpha   75.50680595
_cell_angle_beta   90.00000000
_cell_angle_gamma   90.00000000
_symmetry_Int_Tables_number   1
_chemical_formula_structural   TbDy6Y(WO6)4
_chemical_formula_sum   'Tb1 Dy6 Y1 W4 O24'
_cell_volume   463.86595217
_cell_formula_units_Z   1
loop_
 _symmetry_equiv_pos_site_id
 _symmetry_equiv_pos_as_xyz
  1  'x, y, z'
loop_
 _atom_site_type_symbol
 _atom_site_label
 _atom_site_symmetry_multiplicity
 _atom_site_fract_x
 _atom_site_fract_y
 _atom_site_fract_z
 _atom_site_occupancy
  Tb  Tb0  1  0.316157  0.500000  0.250000  1
  Dy  Dy1  1  0.738604  0.000000  0.750000  1
  Dy  Dy2  1  0.261384  0.000000  0.250000  1
  Dy  Dy3  1  0.187008  0.796010  0.577681  1
  Dy  Dy4  1  0.812996  0.796067  0.077658  1
  Dy  Dy5  1  0.187008  0.203990  0.922319  1
  Dy  Dy6  1  0.812996  0.203933  0.422342  1
  Y  Y7  1  0.683827  0.500000  0.750000  1
  W  W8  1  0.254149  0.723051  0.885595  1
  W  W9  1  0.745865  0.723074  0.385641  1
  W  W10  1  0.254149  0.276949  0.614405  1
  W  W11  1  0.745865  0.276926  0.114359  1
  O  O12  1  0.041255  0.939293  0.895296  1
  O  O13  1  0.529080  0.849412  0.930705  1
  O  O14  1  0.958776  0.939300  0.395324  1
  O  O15  1  0.459486  0.789147  0.728174  1
  O  O16  1  0.470895  0.849401  0.430701  1
  O  O17  1  0.982831  0.710147  0.771399  1
  O  O18  1  0.540533  0.789145  0.228184  1
  O  O19  1  0.851322  0.635547  0.547864  1
  O  O20  1  0.361729  0.490091  0.886944  1
  O  O21  1  0.016958  0.710297  0.271398  1
  O  O22  1  0.361729  0.509909  0.613056  1
  O  O23  1  0.851322  0.364453  0.952136  1
  O  O24  1  0.148657  0.635544  0.047810  1
  O  O25  1  0.638472  0.490083  0.387003  1
  O  O26  1  0.982831  0.289853  0.728601  1
  O  O27  1  0.638472  0.509917  0.112997  1
  O  O28  1  0.148657  0.364456  0.452190  1
  O  O29  1  0.459486  0.210853  0.771826  1
  O  O30  1  0.016958  0.289703  0.228602  1
  O  O31  1  0.529080  0.150588  0.569295  1
  O  O32  1  0.540533  0.210855  0.271816  1
  O  O33  1  0.041255  0.060707  0.604704  1
  O  O34  1  0.470895  0.150599  0.069299  1
  O  O35  1  0.958776  0.060700  0.104676  1
