# generated using pymatgen
data_DyHo5TcBi2
_symmetry_space_group_name_H-M   'P 1'
_cell_length_a   4.29044900
_cell_length_b   8.28285388
_cell_length_c   8.28295107
_cell_angle_alpha   119.99960334
_cell_angle_beta   90.00000000
_cell_angle_gamma   90.00000000
_symmetry_Int_Tables_number   1
_chemical_formula_structural   DyHo5TcBi2
_chemical_formula_sum   'Dy1 Ho5 Tc1 Bi2'
_cell_volume   254.91782692
_cell_formula_units_Z   1
loop_
 _symmetry_equiv_pos_site_id
 _symmetry_equiv_pos_as_xyz
  1  'x, y, z'
loop_
 _atom_site_type_symbol
 _atom_site_label
 _atom_site_symmetry_multiplicity
 _atom_site_fract_x
 _atom_site_fract_y
 _atom_site_fract_z
 _atom_site_occupancy
  Dy  Dy0  1  0.000000  0.608840  0.000000  1
  Ho  Ho1  1  0.500000  0.768461  0.768217  1
  Ho  Ho2  1  0.500000  0.000244  0.231783  1
  Ho  Ho3  1  0.500000  0.231839  0.000000  1
  Ho  Ho4  1  0.000000  0.390401  0.390527  1
  Ho  Ho5  1  0.000000  0.999874  0.609473  1
  Tc  Tc6  1  0.000000  0.000828  0.000000  1
  Bi  Bi7  1  0.500000  0.666642  0.333770  1
  Bi  Bi8  1  0.500000  0.332872  0.666230  1
