# generated using pymatgen
data_Tb5SiSe4
_symmetry_space_group_name_H-M   'P 1'
_cell_length_a   7.12976362
_cell_length_b   7.12976335
_cell_length_c   7.12976365
_cell_angle_alpha   99.55653935
_cell_angle_beta   99.55653202
_cell_angle_gamma   131.90969290
_symmetry_Int_Tables_number   1
_chemical_formula_structural   Tb5SiSe4
_chemical_formula_sum   'Tb5 Si1 Se4'
_cell_volume   246.31555714
_cell_formula_units_Z   1
loop_
 _symmetry_equiv_pos_site_id
 _symmetry_equiv_pos_as_xyz
  1  'x, y, z'
loop_
 _atom_site_type_symbol
 _atom_site_label
 _atom_site_symmetry_multiplicity
 _atom_site_fract_x
 _atom_site_fract_y
 _atom_site_fract_z
 _atom_site_occupancy
  Tb  Tb0  1  0.404826  0.789581  0.194407  1
  Tb  Tb1  1  0.000000  0.000000  0.000000  1
  Tb  Tb2  1  0.595174  0.210419  0.805593  1
  Tb  Tb3  1  0.210419  0.404826  0.615245  1
  Tb  Tb4  1  0.789581  0.595174  0.384755  1
  Si  Si5  1  0.500000  0.500000  0.000000  1
  Se  Se6  1  0.097618  0.698540  0.796157  1
  Se  Se7  1  0.698540  0.902382  0.600923  1
  Se  Se8  1  0.301460  0.097618  0.399077  1
  Se  Se9  1  0.902382  0.301460  0.203843  1
