# generated using pymatgen
data_Cs2Sc(TeO4)3
_symmetry_space_group_name_H-M   'P 1'
_cell_length_a   7.44607941
_cell_length_b   7.44607949
_cell_length_c   7.44204004
_cell_angle_alpha   59.54646712
_cell_angle_beta   59.54646717
_cell_angle_gamma   59.54995164
_symmetry_Int_Tables_number   1
_chemical_formula_structural   Cs2Sc(TeO4)3
_chemical_formula_sum   'Cs2 Sc1 Te3 O12'
_cell_volume   288.76357999
_cell_formula_units_Z   1
loop_
 _symmetry_equiv_pos_site_id
 _symmetry_equiv_pos_as_xyz
  1  'x, y, z'
loop_
 _atom_site_type_symbol
 _atom_site_label
 _atom_site_symmetry_multiplicity
 _atom_site_fract_x
 _atom_site_fract_y
 _atom_site_fract_z
 _atom_site_occupancy
  Cs  Cs0  1  0.121434  0.137313  0.625659  1
  Cs  Cs1  1  0.862687  0.878566  0.374341  1
  Sc  Sc2  1  0.497484  0.502516  0.000000  1
  Te  Te3  1  0.497830  0.002129  0.000192  1
  Te  Te4  1  0.997871  0.502170  0.999808  1
  Te  Te5  1  0.497674  0.502326  0.500000  1
  O  O6  1  0.818284  0.822268  0.925530  1
  O  O7  1  0.430075  0.432900  0.334999  1
  O  O8  1  0.429808  0.837653  0.930711  1
  O  O9  1  0.817888  0.427578  0.319846  1
  O  O10  1  0.832808  0.433390  0.931397  1
  O  O11  1  0.424201  0.822256  0.320268  1
  O  O12  1  0.177732  0.181716  0.074470  1
  O  O13  1  0.567100  0.569925  0.665001  1
  O  O14  1  0.566610  0.167192  0.068603  1
  O  O15  1  0.177744  0.575799  0.679732  1
  O  O16  1  0.162347  0.570192  0.069289  1
  O  O17  1  0.572422  0.182112  0.680154  1
