# generated using pymatgen
data_LiY6Ni17P12
_symmetry_space_group_name_H-M   'P 1'
_cell_length_a   3.78910200
_cell_length_b   10.52974100
_cell_length_c   12.31494300
_cell_angle_alpha   90.00000000
_cell_angle_beta   90.00000000
_cell_angle_gamma   90.00000000
_symmetry_Int_Tables_number   1
_chemical_formula_structural   LiY6Ni17P12
_chemical_formula_sum   'Li1 Y6 Ni17 P12'
_cell_volume   491.34483074
_cell_formula_units_Z   1
loop_
 _symmetry_equiv_pos_site_id
 _symmetry_equiv_pos_as_xyz
  1  'x, y, z'
loop_
 _atom_site_type_symbol
 _atom_site_label
 _atom_site_symmetry_multiplicity
 _atom_site_fract_x
 _atom_site_fract_y
 _atom_site_fract_z
 _atom_site_occupancy
  Li  Li0  1  0.500000  0.500000  0.149401  1
  Y  Y1  1  0.000000  0.500000  0.522754  1
  Y  Y2  1  0.500000  0.000000  0.478398  1
  Y  Y3  1  0.500000  0.817186  0.206055  1
  Y  Y4  1  0.500000  0.182814  0.206055  1
  Y  Y5  1  0.000000  0.683126  0.796022  1
  Y  Y6  1  0.000000  0.316874  0.796022  1
  Ni  Ni7  1  0.000000  0.000000  0.840167  1
  Ni  Ni8  1  0.500000  0.500000  0.702188  1
  Ni  Ni9  1  0.000000  0.000000  0.300600  1
  Ni  Ni10  1  0.000000  0.500000  0.987083  1
  Ni  Ni11  1  0.500000  0.000000  0.016238  1
  Ni  Ni12  1  0.500000  0.328206  0.994365  1
  Ni  Ni13  1  0.500000  0.671794  0.994365  1
  Ni  Ni14  1  0.000000  0.162615  0.002009  1
  Ni  Ni15  1  0.000000  0.837385  0.002009  1
  Ni  Ni16  1  0.500000  0.300136  0.430130  1
  Ni  Ni17  1  0.500000  0.699864  0.430130  1
  Ni  Ni18  1  0.000000  0.199538  0.570971  1
  Ni  Ni19  1  0.000000  0.800462  0.570971  1
  Ni  Ni20  1  0.500000  0.880077  0.710503  1
  Ni  Ni21  1  0.500000  0.119923  0.710503  1
  Ni  Ni22  1  0.000000  0.619685  0.290321  1
  Ni  Ni23  1  0.000000  0.380315  0.290321  1
  P  P24  1  0.500000  0.500000  0.880663  1
  P  P25  1  0.000000  0.000000  0.123491  1
  P  P26  1  0.500000  0.500000  0.347850  1
  P  P27  1  0.000000  0.000000  0.655684  1
  P  P28  1  0.500000  0.312978  0.616119  1
  P  P29  1  0.500000  0.687022  0.616119  1
  P  P30  1  0.000000  0.187250  0.386065  1
  P  P31  1  0.000000  0.812750  0.386065  1
  P  P32  1  0.500000  0.849930  0.891261  1
  P  P33  1  0.500000  0.150070  0.891261  1
  P  P34  1  0.000000  0.659132  0.103919  1
  P  P35  1  0.000000  0.340868  0.103919  1
