# generated using pymatgen
data_Dy3Er5(InAu2)4
_symmetry_space_group_name_H-M   'P 1'
_cell_length_a   8.00919716
_cell_length_b   8.00919747
_cell_length_c   7.30840900
_cell_angle_alpha   90.00000000
_cell_angle_beta   90.00000000
_cell_angle_gamma   90.09303468
_symmetry_Int_Tables_number   1
_chemical_formula_structural   Dy3Er5(InAu2)4
_chemical_formula_sum   'Dy3 Er5 In4 Au8'
_cell_volume   468.81366009
_cell_formula_units_Z   1
loop_
 _symmetry_equiv_pos_site_id
 _symmetry_equiv_pos_as_xyz
  1  'x, y, z'
loop_
 _atom_site_type_symbol
 _atom_site_label
 _atom_site_symmetry_multiplicity
 _atom_site_fract_x
 _atom_site_fract_y
 _atom_site_fract_z
 _atom_site_occupancy
  Dy  Dy0  1  0.838577  0.161447  0.500000  1
  Dy  Dy1  1  0.161447  0.838577  0.500000  1
  Dy  Dy2  1  0.676498  0.676498  0.500000  1
  Er  Er3  1  0.323879  0.323879  0.500000  1
  Er  Er4  1  0.176739  0.824511  0.000000  1
  Er  Er5  1  0.824511  0.176739  0.000000  1
  Er  Er6  1  0.338787  0.338787  0.000000  1
  Er  Er7  1  0.660455  0.660455  0.000000  1
  In  In8  1  0.500283  0.999993  0.248605  1
  In  In9  1  0.999993  0.500283  0.751395  1
  In  In10  1  0.500283  0.999993  0.751395  1
  In  In11  1  0.999993  0.500283  0.248605  1
  Au  Au12  1  0.628392  0.370092  0.263166  1
  Au  Au13  1  0.370092  0.628392  0.263166  1
  Au  Au14  1  0.129998  0.129998  0.766784  1
  Au  Au15  1  0.870794  0.870794  0.769398  1
  Au  Au16  1  0.370092  0.628392  0.736834  1
  Au  Au17  1  0.628392  0.370092  0.736834  1
  Au  Au18  1  0.870794  0.870794  0.230602  1
  Au  Au19  1  0.129998  0.129998  0.233216  1
