# generated using pymatgen
data_Sm8GaPd5Pt19
_symmetry_space_group_name_H-M   'P 1'
_cell_length_a   8.44064800
_cell_length_b   8.45089000
_cell_length_c   8.46508300
_cell_angle_alpha   90.00000000
_cell_angle_beta   90.00000000
_cell_angle_gamma   90.00000000
_symmetry_Int_Tables_number   1
_chemical_formula_structural   Sm8GaPd5Pt19
_chemical_formula_sum   'Sm8 Ga1 Pd5 Pt19'
_cell_volume   603.82273200
_cell_formula_units_Z   1
loop_
 _symmetry_equiv_pos_site_id
 _symmetry_equiv_pos_as_xyz
  1  'x, y, z'
loop_
 _atom_site_type_symbol
 _atom_site_label
 _atom_site_symmetry_multiplicity
 _atom_site_fract_x
 _atom_site_fract_y
 _atom_site_fract_z
 _atom_site_occupancy
  Sm  Sm0  1  0.250704  0.250908  0.251063  1
  Sm  Sm1  1  0.748779  0.748594  0.748480  1
  Sm  Sm2  1  0.749296  0.749092  0.251063  1
  Sm  Sm3  1  0.748779  0.251406  0.748480  1
  Sm  Sm4  1  0.251221  0.251406  0.748480  1
  Sm  Sm5  1  0.250704  0.749092  0.251063  1
  Sm  Sm6  1  0.251221  0.748594  0.748480  1
  Sm  Sm7  1  0.749296  0.250908  0.251063  1
  Ga  Ga8  1  0.000000  0.000000  0.003018  1
  Pd  Pd9  1  0.500000  0.254556  0.499944  1
  Pd  Pd10  1  0.500000  0.745444  0.499944  1
  Pd  Pd11  1  0.500000  0.500000  0.254992  1
  Pd  Pd12  1  0.500000  0.500000  0.745195  1
  Pd  Pd13  1  0.000000  0.000000  0.704596  1
  Pt  Pt14  1  0.263194  0.500000  0.999966  1
  Pt  Pt15  1  0.736806  0.500000  0.999966  1
  Pt  Pt16  1  0.000000  0.262123  0.500146  1
  Pt  Pt17  1  0.500000  0.262887  0.999942  1
  Pt  Pt18  1  0.000000  0.737877  0.500146  1
  Pt  Pt19  1  0.500000  0.737113  0.999942  1
  Pt  Pt20  1  0.500000  0.000000  0.262681  1
  Pt  Pt21  1  0.262800  0.000000  0.500122  1
  Pt  Pt22  1  0.500000  0.000000  0.735829  1
  Pt  Pt23  1  0.737200  0.000000  0.500122  1
  Pt  Pt24  1  0.000000  0.500000  0.262089  1
  Pt  Pt25  1  0.000000  0.500000  0.736442  1
  Pt  Pt26  1  0.253959  0.500000  0.499938  1
  Pt  Pt27  1  0.746041  0.500000  0.499938  1
  Pt  Pt28  1  0.297551  0.000000  0.999135  1
  Pt  Pt29  1  0.702449  0.000000  0.999135  1
  Pt  Pt30  1  0.000000  0.296790  0.999124  1
  Pt  Pt31  1  0.000000  0.703210  0.999124  1
  Pt  Pt32  1  0.000000  0.000000  0.300354  1
