# generated using pymatgen
data_DyTm(FeOs)2
_symmetry_space_group_name_H-M   'P 1'
_cell_length_a   5.18721284
_cell_length_b   5.26398715
_cell_length_c   5.26398713
_cell_angle_alpha   59.91542631
_cell_angle_beta   60.48131402
_cell_angle_gamma   60.48129498
_symmetry_Int_Tables_number   1
_chemical_formula_structural   DyTm(FeOs)2
_chemical_formula_sum   'Dy1 Tm1 Fe2 Os2'
_cell_volume   102.30287531
_cell_formula_units_Z   1
loop_
 _symmetry_equiv_pos_site_id
 _symmetry_equiv_pos_as_xyz
  1  'x, y, z'
loop_
 _atom_site_type_symbol
 _atom_site_label
 _atom_site_symmetry_multiplicity
 _atom_site_fract_x
 _atom_site_fract_y
 _atom_site_fract_z
 _atom_site_occupancy
  Dy  Dy0  1  0.251863  0.248137  0.248137  1
  Tm  Tm1  1  0.998052  0.001948  0.001948  1
  Fe  Fe2  1  0.124627  0.625053  0.625053  1
  Fe  Fe3  1  0.625268  0.625053  0.625053  1
  Os  Os4  1  0.625095  0.624902  0.124907  1
  Os  Os5  1  0.625095  0.124907  0.624902  1
