# generated using pymatgen
data_Tb11Pr(AlAu5)4
_symmetry_space_group_name_H-M   'P 1'
_cell_length_a   8.51853110
_cell_length_b   8.51853195
_cell_length_c   13.59130700
_cell_angle_alpha   90.00000000
_cell_angle_beta   90.00000000
_cell_angle_gamma   128.57815518
_symmetry_Int_Tables_number   1
_chemical_formula_structural   Tb11Pr(AlAu5)4
_chemical_formula_sum   'Tb11 Pr1 Al4 Au20'
_cell_volume   771.01562779
_cell_formula_units_Z   1
loop_
 _symmetry_equiv_pos_site_id
 _symmetry_equiv_pos_as_xyz
  1  'x, y, z'
loop_
 _atom_site_type_symbol
 _atom_site_label
 _atom_site_symmetry_multiplicity
 _atom_site_fract_x
 _atom_site_fract_y
 _atom_site_fract_z
 _atom_site_occupancy
  Tb  Tb0  1  0.072547  0.927453  0.750000  1
  Tb  Tb1  1  0.319648  0.680352  0.250000  1
  Tb  Tb2  1  0.679377  0.320623  0.750000  1
  Tb  Tb3  1  0.631527  0.368473  0.465405  1
  Tb  Tb4  1  0.368436  0.631564  0.535685  1
  Tb  Tb5  1  0.631527  0.368473  0.034595  1
  Tb  Tb6  1  0.368436  0.631564  0.964315  1
  Tb  Tb7  1  0.880945  0.119055  0.949805  1
  Tb  Tb8  1  0.119256  0.880744  0.048424  1
  Tb  Tb9  1  0.880945  0.119055  0.550195  1
  Tb  Tb10  1  0.119256  0.880744  0.451576  1
  Pr  Pr11  1  0.927503  0.072497  0.250000  1
  Al  Al12  1  0.718625  0.281375  0.250000  1
  Al  Al13  1  0.280120  0.719880  0.750000  1
  Al  Al14  1  0.532722  0.467278  0.250000  1
  Al  Al15  1  0.467181  0.532819  0.750000  1
  Au  Au16  1  0.324715  0.068827  0.250000  1
  Au  Au17  1  0.069660  0.323598  0.750000  1
  Au  Au18  1  0.676402  0.930340  0.750000  1
  Au  Au19  1  0.931173  0.675285  0.250000  1
  Au  Au20  1  0.568962  0.003811  0.397650  1
  Au  Au21  1  0.004070  0.570802  0.603554  1
  Au  Au22  1  0.568962  0.003811  0.102350  1
  Au  Au23  1  0.004070  0.570802  0.896446  1
  Au  Au24  1  0.429198  0.995930  0.603554  1
  Au  Au25  1  0.996189  0.431038  0.397650  1
  Au  Au26  1  0.429198  0.995930  0.896446  1
  Au  Au27  1  0.996189  0.431038  0.102350  1
  Au  Au28  1  0.682022  0.735655  0.397363  1
  Au  Au29  1  0.741146  0.685931  0.605396  1
  Au  Au30  1  0.682022  0.735655  0.102637  1
  Au  Au31  1  0.741146  0.685931  0.894604  1
  Au  Au32  1  0.314069  0.258854  0.605396  1
  Au  Au33  1  0.264345  0.317978  0.397363  1
  Au  Au34  1  0.314069  0.258854  0.894604  1
  Au  Au35  1  0.264345  0.317978  0.102637  1
