# generated using pymatgen
data_Tb2Al8ZnPt3
_symmetry_space_group_name_H-M   'P 1'
_cell_length_a   7.58223825
_cell_length_b   7.58223852
_cell_length_c   9.49513900
_cell_angle_alpha   90.00000000
_cell_angle_beta   90.00000000
_cell_angle_gamma   119.31075070
_symmetry_Int_Tables_number   1
_chemical_formula_structural   Tb2Al8ZnPt3
_chemical_formula_sum   'Tb4 Al16 Zn2 Pt6'
_cell_volume   475.99395854
_cell_formula_units_Z   2
loop_
 _symmetry_equiv_pos_site_id
 _symmetry_equiv_pos_as_xyz
  1  'x, y, z'
loop_
 _atom_site_type_symbol
 _atom_site_label
 _atom_site_symmetry_multiplicity
 _atom_site_fract_x
 _atom_site_fract_y
 _atom_site_fract_z
 _atom_site_occupancy
  Tb  Tb0  1  0.993560  0.670741  0.250000  1
  Tb  Tb1  1  0.006440  0.329259  0.750000  1
  Tb  Tb2  1  0.670741  0.993560  0.250000  1
  Tb  Tb3  1  0.329259  0.006440  0.750000  1
  Al  Al4  1  0.001325  0.332296  0.077865  1
  Al  Al5  1  0.998675  0.667704  0.922135  1
  Al  Al6  1  0.998675  0.667704  0.577865  1
  Al  Al7  1  0.332296  0.001325  0.422135  1
  Al  Al8  1  0.001325  0.332296  0.422135  1
  Al  Al9  1  0.667704  0.998675  0.577865  1
  Al  Al10  1  0.667704  0.998675  0.922135  1
  Al  Al11  1  0.332296  0.001325  0.077865  1
  Al  Al12  1  0.332700  0.332700  0.556223  1
  Al  Al13  1  0.667300  0.667300  0.443777  1
  Al  Al14  1  0.667300  0.667300  0.056223  1
  Al  Al15  1  0.332700  0.332700  0.943777  1
  Al  Al16  1  0.338442  0.545173  0.250000  1
  Al  Al17  1  0.661558  0.454827  0.750000  1
  Al  Al18  1  0.545173  0.338442  0.250000  1
  Al  Al19  1  0.454827  0.661558  0.750000  1
  Zn  Zn20  1  0.139869  0.139869  0.250000  1
  Zn  Zn21  1  0.860131  0.860131  0.750000  1
  Pt  Pt22  1  0.672280  0.327720  0.000000  1
  Pt  Pt23  1  0.327720  0.672280  0.000000  1
  Pt  Pt24  1  0.327720  0.672280  0.500000  1
  Pt  Pt25  1  0.672280  0.327720  0.500000  1
  Pt  Pt26  1  0.000000  0.000000  0.000000  1
  Pt  Pt27  1  0.000000  0.000000  0.500000  1
