# generated using pymatgen
data_Cs6Lu(PBr6)3
_symmetry_space_group_name_H-M   'P 1'
_cell_length_a   7.86140900
_cell_length_b   7.86140970
_cell_length_c   19.51386900
_cell_angle_alpha   90.00000000
_cell_angle_beta   90.00000000
_cell_angle_gamma   119.99999285
_symmetry_Int_Tables_number   1
_chemical_formula_structural   Cs6Lu(PBr6)3
_chemical_formula_sum   'Cs6 Lu1 P3 Br18'
_cell_volume   1044.41925521
_cell_formula_units_Z   1
loop_
 _symmetry_equiv_pos_site_id
 _symmetry_equiv_pos_as_xyz
  1  'x, y, z'
loop_
 _atom_site_type_symbol
 _atom_site_label
 _atom_site_symmetry_multiplicity
 _atom_site_fract_x
 _atom_site_fract_y
 _atom_site_fract_z
 _atom_site_occupancy
  Cs  Cs0  1  0.333333  0.666667  0.078001  1
  Cs  Cs1  1  0.666667  0.333333  0.919319  1
  Cs  Cs2  1  0.666667  0.333333  0.578446  1
  Cs  Cs3  1  0.333333  0.666667  0.407827  1
  Cs  Cs4  1  0.000000  0.000000  0.251443  1
  Cs  Cs5  1  0.000000  0.000000  0.759536  1
  Lu  Lu6  1  0.333333  0.666667  0.839902  1
  P  P7  1  0.333333  0.666667  0.650335  1
  P  P8  1  0.666667  0.333333  0.341756  1
  P  P9  1  0.666667  0.333333  0.156609  1
  Br  Br10  1  0.183155  0.366310  0.586820  1
  Br  Br11  1  0.818572  0.637145  0.410937  1
  Br  Br12  1  0.633690  0.816845  0.586820  1
  Br  Br13  1  0.816851  0.633702  0.091173  1
  Br  Br14  1  0.362855  0.181428  0.410937  1
  Br  Br15  1  0.168025  0.336050  0.914791  1
  Br  Br16  1  0.183155  0.816845  0.586820  1
  Br  Br17  1  0.366298  0.183149  0.091173  1
  Br  Br18  1  0.818572  0.181428  0.410937  1
  Br  Br19  1  0.663950  0.831975  0.914791  1
  Br  Br20  1  0.816851  0.183149  0.091173  1
  Br  Br21  1  0.168025  0.831975  0.914791  1
  Br  Br22  1  0.507506  0.015012  0.252961  1
  Br  Br23  1  0.494568  0.989134  0.748927  1
  Br  Br24  1  0.984988  0.492494  0.252961  1
  Br  Br25  1  0.010866  0.505432  0.748927  1
  Br  Br26  1  0.507506  0.492494  0.252961  1
  Br  Br27  1  0.494568  0.505432  0.748927  1
