# generated using pymatgen
data_Ba3V3(Ga2O5)4
_symmetry_space_group_name_H-M   'P 1'
_cell_length_a   10.08425742
_cell_length_b   10.08425589
_cell_length_c   5.22785489
_cell_angle_alpha   75.63147350
_cell_angle_beta   75.63147498
_cell_angle_gamma   72.13429519
_symmetry_Int_Tables_number   1
_chemical_formula_structural   Ba3V3(Ga2O5)4
_chemical_formula_sum   'Ba3 V3 Ga8 O20'
_cell_volume   481.56093812
_cell_formula_units_Z   1
loop_
 _symmetry_equiv_pos_site_id
 _symmetry_equiv_pos_as_xyz
  1  'x, y, z'
loop_
 _atom_site_type_symbol
 _atom_site_label
 _atom_site_symmetry_multiplicity
 _atom_site_fract_x
 _atom_site_fract_y
 _atom_site_fract_z
 _atom_site_occupancy
  Ba  Ba0  1  0.219991  0.219991  0.265917  1
  Ba  Ba1  1  0.780009  0.780009  0.734083  1
  Ba  Ba2  1  0.500000  0.500000  0.000000  1
  V  V3  1  0.133755  0.866245  0.500000  1
  V  V4  1  0.866245  0.133755  0.500000  1
  V  V5  1  0.000000  0.000000  0.000000  1
  Ga  Ga6  1  0.352268  0.925320  0.834767  1
  Ga  Ga7  1  0.647732  0.074680  0.165233  1
  Ga  Ga8  1  0.074680  0.647732  0.165233  1
  Ga  Ga9  1  0.925320  0.352268  0.834767  1
  Ga  Ga10  1  0.490383  0.215084  0.658382  1
  Ga  Ga11  1  0.509617  0.784916  0.341618  1
  Ga  Ga12  1  0.784916  0.509617  0.341618  1
  Ga  Ga13  1  0.215084  0.490383  0.658382  1
  O  O14  1  0.495093  0.787564  0.991834  1
  O  O15  1  0.504907  0.212436  0.008166  1
  O  O16  1  0.212436  0.504907  0.008166  1
  O  O17  1  0.787564  0.495093  0.991834  1
  O  O18  1  0.374267  0.102813  0.668428  1
  O  O19  1  0.625733  0.897187  0.331572  1
  O  O20  1  0.897187  0.625733  0.331572  1
  O  O21  1  0.102813  0.374267  0.668428  1
  O  O22  1  0.062298  0.062298  0.614837  1
  O  O23  1  0.937702  0.937702  0.385163  1
  O  O24  1  0.667787  0.160119  0.432897  1
  O  O25  1  0.332213  0.839881  0.567103  1
  O  O26  1  0.839881  0.332213  0.567103  1
  O  O27  1  0.160119  0.667787  0.432897  1
  O  O28  1  0.188257  0.955830  0.099214  1
  O  O29  1  0.811743  0.044170  0.900786  1
  O  O30  1  0.044170  0.811743  0.900786  1
  O  O31  1  0.955830  0.188257  0.099214  1
  O  O32  1  0.400220  0.400220  0.518876  1
  O  O33  1  0.599780  0.599780  0.481124  1
