# generated using pymatgen
data_Tb3As4Rh7
_symmetry_space_group_name_H-M   'P 1'
_cell_length_a   7.95989942
_cell_length_b   7.95989886
_cell_length_c   9.42910683
_cell_angle_alpha   56.53155910
_cell_angle_beta   56.53156088
_cell_angle_gamma   29.49158378
_symmetry_Int_Tables_number   1
_chemical_formula_structural   Tb3As4Rh7
_chemical_formula_sum   'Tb3 As4 Rh7'
_cell_volume   241.60208360
_cell_formula_units_Z   1
loop_
 _symmetry_equiv_pos_site_id
 _symmetry_equiv_pos_as_xyz
  1  'x, y, z'
loop_
 _atom_site_type_symbol
 _atom_site_label
 _atom_site_symmetry_multiplicity
 _atom_site_fract_x
 _atom_site_fract_y
 _atom_site_fract_z
 _atom_site_occupancy
  Tb  Tb0  1  0.668759  0.668759  0.336135  1
  Tb  Tb1  1  0.331241  0.331241  0.663865  1
  Tb  Tb2  1  0.000000  0.000000  0.000000  1
  As  As3  1  0.333675  0.333675  0.270804  1
  As  As4  1  0.666325  0.666325  0.729196  1
  As  As5  1  0.890734  0.890734  0.829695  1
  As  As6  1  0.109266  0.109266  0.170305  1
  Rh  Rh7  1  0.302853  0.302853  0.040211  1
  Rh  Rh8  1  0.697147  0.697147  0.959789  1
  Rh  Rh9  1  0.508791  0.508791  0.720554  1
  Rh  Rh10  1  0.833483  0.833483  0.425691  1
  Rh  Rh11  1  0.491209  0.491209  0.279446  1
  Rh  Rh12  1  0.166517  0.166517  0.574309  1
  Rh  Rh13  1  0.000000  0.000000  0.500000  1
