# generated using pymatgen
data_Y16Sc4(SiBi3)3
_symmetry_space_group_name_H-M   'P 1'
_cell_length_a   7.99656335
_cell_length_b   9.25698700
_cell_length_c   11.84440009
_cell_angle_alpha   90.00000000
_cell_angle_beta   90.18366016
_cell_angle_gamma   90.00000000
_symmetry_Int_Tables_number   1
_chemical_formula_structural   Y16Sc4(SiBi3)3
_chemical_formula_sum   'Y16 Sc4 Si3 Bi9'
_cell_volume   876.76635105
_cell_formula_units_Z   1
loop_
 _symmetry_equiv_pos_site_id
 _symmetry_equiv_pos_as_xyz
  1  'x, y, z'
loop_
 _atom_site_type_symbol
 _atom_site_label
 _atom_site_symmetry_multiplicity
 _atom_site_fract_x
 _atom_site_fract_y
 _atom_site_fract_z
 _atom_site_occupancy
  Y  Y0  1  0.173244  0.750000  0.716266  1
  Y  Y1  1  0.671588  0.750000  0.785347  1
  Y  Y2  1  0.808354  0.250000  0.272316  1
  Y  Y3  1  0.330852  0.250000  0.211502  1
  Y  Y4  1  0.314980  0.446215  0.944619  1
  Y  Y5  1  0.806972  0.046728  0.561028  1
  Y  Y6  1  0.685027  0.944619  0.055568  1
  Y  Y7  1  0.188366  0.569718  0.444651  1
  Y  Y8  1  0.685027  0.555381  0.055568  1
  Y  Y9  1  0.188366  0.930282  0.444651  1
  Y  Y10  1  0.314980  0.053785  0.944619  1
  Y  Y11  1  0.806972  0.453272  0.561028  1
  Y  Y12  1  0.349663  0.750000  0.202077  1
  Y  Y13  1  0.853123  0.750000  0.296014  1
  Y  Y14  1  0.649951  0.250000  0.797134  1
  Y  Y15  1  0.149893  0.250000  0.714041  1
  Sc  Sc16  1  0.039582  0.750000  0.988414  1
  Sc  Sc17  1  0.541442  0.750000  0.513125  1
  Sc  Sc18  1  0.962126  0.250000  0.010049  1
  Sc  Sc19  1  0.476796  0.250000  0.488516  1
  Si  Si20  1  0.407769  0.750000  0.961482  1
  Si  Si21  1  0.911418  0.750000  0.537231  1
  Si  Si22  1  0.595859  0.250000  0.037887  1
  Bi  Bi23  1  0.436349  0.003367  0.670543  1
  Bi  Bi24  1  0.937798  0.498399  0.831230  1
  Bi  Bi25  1  0.561140  0.505247  0.330378  1
  Bi  Bi26  1  0.061848  0.997521  0.169049  1
  Bi  Bi27  1  0.561140  0.994753  0.330378  1
  Bi  Bi28  1  0.061848  0.502479  0.169049  1
  Bi  Bi29  1  0.436349  0.496633  0.670543  1
  Bi  Bi30  1  0.937798  0.001601  0.831230  1
  Bi  Bi31  1  0.093376  0.250000  0.454467  1
