# generated using pymatgen
data_CaErHf2(Ga3Rh)6
_symmetry_space_group_name_H-M   'P 1'
_cell_length_a   7.52822672
_cell_length_b   7.50824596
_cell_length_c   9.42565700
_cell_angle_alpha   90.00000000
_cell_angle_beta   90.00000000
_cell_angle_gamma   119.96524837
_symmetry_Int_Tables_number   1
_chemical_formula_structural   CaErHf2(Ga3Rh)6
_chemical_formula_sum   'Ca1 Er1 Hf2 Ga18 Rh6'
_cell_volume   461.55708224
_cell_formula_units_Z   1
loop_
 _symmetry_equiv_pos_site_id
 _symmetry_equiv_pos_as_xyz
  1  'x, y, z'
loop_
 _atom_site_type_symbol
 _atom_site_label
 _atom_site_symmetry_multiplicity
 _atom_site_fract_x
 _atom_site_fract_y
 _atom_site_fract_z
 _atom_site_occupancy
  Ca  Ca0  1  0.668762  0.996149  0.250000  1
  Er  Er1  1  0.331578  0.003731  0.750000  1
  Hf  Hf2  1  0.995618  0.668831  0.250000  1
  Hf  Hf3  1  0.003698  0.330338  0.750000  1
  Ga  Ga4  1  0.124783  0.123808  0.250000  1
  Ga  Ga5  1  0.875445  0.876010  0.750000  1
  Ga  Ga6  1  0.998681  0.337578  0.080049  1
  Ga  Ga7  1  0.001488  0.662602  0.919651  1
  Ga  Ga8  1  0.001488  0.662602  0.580349  1
  Ga  Ga9  1  0.330808  0.996338  0.417232  1
  Ga  Ga10  1  0.998681  0.337578  0.419951  1
  Ga  Ga11  1  0.669092  0.003506  0.582987  1
  Ga  Ga12  1  0.669092  0.003506  0.917013  1
  Ga  Ga13  1  0.330808  0.996338  0.082768  1
  Ga  Ga14  1  0.329729  0.332556  0.569476  1
  Ga  Ga15  1  0.670137  0.667505  0.430920  1
  Ga  Ga16  1  0.670137  0.667505  0.069080  1
  Ga  Ga17  1  0.329729  0.332556  0.930524  1
  Ga  Ga18  1  0.335310  0.547005  0.250000  1
  Ga  Ga19  1  0.664197  0.452770  0.750000  1
  Ga  Ga20  1  0.552477  0.341113  0.250000  1
  Ga  Ga21  1  0.447830  0.659700  0.750000  1
  Rh  Rh22  1  0.671854  0.328725  0.998344  1
  Rh  Rh23  1  0.327521  0.671332  0.999766  1
  Rh  Rh24  1  0.327521  0.671332  0.500234  1
  Rh  Rh25  1  0.671854  0.328725  0.501656  1
  Rh  Rh26  1  0.000842  0.000131  0.999173  1
  Rh  Rh27  1  0.000842  0.000131  0.500827  1
