# generated using pymatgen
data_BaPrGa3O7
_symmetry_space_group_name_H-M   'P 1'
_cell_length_a   8.22569398
_cell_length_b   8.22569522
_cell_length_c   5.46432400
_cell_angle_alpha   90.00000000
_cell_angle_beta   90.00000000
_cell_angle_gamma   91.35549788
_symmetry_Int_Tables_number   1
_chemical_formula_structural   BaPrGa3O7
_chemical_formula_sum   'Ba2 Pr2 Ga6 O14'
_cell_volume   369.62390995
_cell_formula_units_Z   2
loop_
 _symmetry_equiv_pos_site_id
 _symmetry_equiv_pos_as_xyz
  1  'x, y, z'
loop_
 _atom_site_type_symbol
 _atom_site_label
 _atom_site_symmetry_multiplicity
 _atom_site_fract_x
 _atom_site_fract_y
 _atom_site_fract_z
 _atom_site_occupancy
  Ba  Ba0  1  0.162709  0.837291  0.494089  1
  Ba  Ba1  1  0.837291  0.162709  0.494089  1
  Pr  Pr2  1  0.660348  0.660348  0.517494  1
  Pr  Pr3  1  0.339652  0.339652  0.517494  1
  Ga  Ga4  1  0.362267  0.637733  0.033305  1
  Ga  Ga5  1  0.849895  0.849895  0.969677  1
  Ga  Ga6  1  0.637733  0.362267  0.033305  1
  Ga  Ga7  1  0.150105  0.150105  0.969677  1
  Ga  Ga8  1  0.500000  0.000000  0.991543  1
  Ga  Ga9  1  0.000000  0.500000  0.991543  1
  O  O10  1  0.000000  0.000000  0.848585  1
  O  O11  1  0.500000  0.500000  0.210984  1
  O  O12  1  0.376848  0.623152  0.698855  1
  O  O13  1  0.838547  0.838547  0.300385  1
  O  O14  1  0.623152  0.376848  0.698855  1
  O  O15  1  0.161453  0.161453  0.300385  1
  O  O16  1  0.422942  0.832161  0.189274  1
  O  O17  1  0.902561  0.658386  0.793161  1
  O  O18  1  0.577058  0.167839  0.189274  1
  O  O19  1  0.097439  0.341614  0.793161  1
  O  O20  1  0.341614  0.097439  0.793161  1
  O  O21  1  0.832161  0.422942  0.189274  1
  O  O22  1  0.658386  0.902561  0.793161  1
  O  O23  1  0.167839  0.577058  0.189274  1
