# generated using pymatgen
data_Ho3Er5(TcB6)4
_symmetry_space_group_name_H-M   'P 1'
_cell_length_a   3.66469400
_cell_length_b   9.12615400
_cell_length_c   11.50470400
_cell_angle_alpha   89.99918770
_cell_angle_beta   90.00000000
_cell_angle_gamma   90.00000000
_symmetry_Int_Tables_number   1
_chemical_formula_structural   Ho3Er5(TcB6)4
_chemical_formula_sum   'Ho3 Er5 Tc4 B24'
_cell_volume   384.76978399
_cell_formula_units_Z   1
loop_
 _symmetry_equiv_pos_site_id
 _symmetry_equiv_pos_as_xyz
  1  'x, y, z'
loop_
 _atom_site_type_symbol
 _atom_site_label
 _atom_site_symmetry_multiplicity
 _atom_site_fract_x
 _atom_site_fract_y
 _atom_site_fract_z
 _atom_site_occupancy
  Ho  Ho0  1  0.000000  0.323645  0.414030  1
  Ho  Ho1  1  0.000000  0.676358  0.585998  1
  Ho  Ho2  1  0.000000  0.823676  0.085913  1
  Er  Er3  1  0.000000  0.176199  0.914080  1
  Er  Er4  1  0.000000  0.942784  0.369268  1
  Er  Er5  1  0.000000  0.057234  0.630736  1
  Er  Er6  1  0.000000  0.442729  0.130564  1
  Er  Er7  1  0.000000  0.557217  0.869423  1
  Tc  Tc8  1  0.000000  0.638906  0.320456  1
  Tc  Tc9  1  0.000000  0.360995  0.679704  1
  Tc  Tc10  1  0.000000  0.138917  0.179347  1
  Tc  Tc11  1  0.000000  0.861262  0.820533  1
  B  B12  1  0.500000  0.553352  0.432983  1
  B  B13  1  0.500000  0.446575  0.567092  1
  B  B14  1  0.500000  0.053454  0.066802  1
  B  B15  1  0.500000  0.946828  0.933000  1
  B  B16  1  0.500000  0.749474  0.418759  1
  B  B17  1  0.500000  0.250511  0.581340  1
  B  B18  1  0.500000  0.249422  0.080944  1
  B  B19  1  0.500000  0.750635  0.918740  1
  B  B20  1  0.500000  0.792275  0.265192  1
  B  B21  1  0.500000  0.207624  0.735006  1
  B  B22  1  0.500000  0.292246  0.234633  1
  B  B23  1  0.500000  0.707784  0.765274  1
  B  B24  1  0.500000  0.630753  0.185288  1
  B  B25  1  0.500000  0.369074  0.814874  1
  B  B26  1  0.500000  0.130773  0.314604  1
  B  B27  1  0.500000  0.869325  0.685404  1
  B  B28  1  0.500000  0.982020  0.211784  1
  B  B29  1  0.500000  0.018259  0.788273  1
  B  B30  1  0.500000  0.481938  0.288059  1
  B  B31  1  0.500000  0.517981  0.711965  1
  B  B32  1  0.500000  0.599709  0.027815  1
  B  B33  1  0.500000  0.400019  0.972074  1
  B  B34  1  0.500000  0.099659  0.472198  1
  B  B35  1  0.500000  0.900389  0.527843  1
