# generated using pymatgen
data_HoZrAsPt8
_symmetry_space_group_name_H-M   'P 1'
_cell_length_a   4.09034300
_cell_length_b   4.09034300
_cell_length_c   11.25737700
_cell_angle_alpha   90.00000000
_cell_angle_beta   90.00000000
_cell_angle_gamma   90.00000000
_symmetry_Int_Tables_number   1
_chemical_formula_structural   HoZrAsPt8
_chemical_formula_sum   'Ho1 Zr1 As1 Pt8'
_cell_volume   188.34611479
_cell_formula_units_Z   1
loop_
 _symmetry_equiv_pos_site_id
 _symmetry_equiv_pos_as_xyz
  1  'x, y, z'
loop_
 _atom_site_type_symbol
 _atom_site_label
 _atom_site_symmetry_multiplicity
 _atom_site_fract_x
 _atom_site_fract_y
 _atom_site_fract_z
 _atom_site_occupancy
  Ho  Ho0  1  0.500000  0.500000  0.181922  1
  Zr  Zr1  1  0.500000  0.500000  0.819565  1
  As  As2  1  0.000000  0.000000  0.499985  1
  Pt  Pt3  1  0.500000  0.000000  0.994316  1
  Pt  Pt4  1  0.000000  0.500000  0.994316  1
  Pt  Pt5  1  0.500000  0.000000  0.641312  1
  Pt  Pt6  1  0.000000  0.500000  0.641312  1
  Pt  Pt7  1  0.500000  0.000000  0.364702  1
  Pt  Pt8  1  0.000000  0.500000  0.364702  1
  Pt  Pt9  1  0.000000  0.000000  0.818926  1
  Pt  Pt10  1  0.000000  0.000000  0.178940  1
