# generated using pymatgen
data_Ba5SrSn8BiI
_symmetry_space_group_name_H-M   'P 1'
_cell_length_a   9.29459146
_cell_length_b   9.29459015
_cell_length_c   9.38050825
_cell_angle_alpha   119.69748297
_cell_angle_beta   119.69747793
_cell_angle_gamma   90.00000606
_symmetry_Int_Tables_number   1
_chemical_formula_structural   Ba5SrSn8BiI
_chemical_formula_sum   'Ba5 Sr1 Sn8 Bi1 I1'
_cell_volume   578.22350910
_cell_formula_units_Z   1
loop_
 _symmetry_equiv_pos_site_id
 _symmetry_equiv_pos_as_xyz
  1  'x, y, z'
loop_
 _atom_site_type_symbol
 _atom_site_label
 _atom_site_symmetry_multiplicity
 _atom_site_fract_x
 _atom_site_fract_y
 _atom_site_fract_z
 _atom_site_occupancy
  Ba  Ba0  1  0.747038  0.747038  0.494075  1
  Ba  Ba1  1  0.657273  0.166274  0.999784  1
  Ba  Ba2  1  0.342511  0.833510  0.999784  1
  Ba  Ba3  1  0.833510  0.657273  0.999784  1
  Ba  Ba4  1  0.166274  0.342511  0.999784  1
  Sr  Sr5  1  0.253417  0.253417  0.506834  1
  Sn  Sn6  1  0.333528  0.836310  0.387371  1
  Sn  Sn7  1  0.663668  0.166032  0.612217  1
  Sn  Sn8  1  0.053844  0.551062  0.387371  1
  Sn  Sn9  1  0.551062  0.333528  0.387371  1
  Sn  Sn10  1  0.166032  0.948548  0.612217  1
  Sn  Sn11  1  0.948548  0.446184  0.612217  1
  Sn  Sn12  1  0.446184  0.663668  0.612217  1
  Sn  Sn13  1  0.836310  0.053844  0.387371  1
  Bi  Bi14  1  0.494831  0.494831  0.989663  1
  I  I15  1  0.005971  0.005971  0.011942  1
