# generated using pymatgen
data_CsTb(NbCl3)6
_symmetry_space_group_name_H-M   'P 1'
_cell_length_a   10.28801431
_cell_length_b   10.28801394
_cell_length_c   10.28801392
_cell_angle_alpha   55.25758521
_cell_angle_beta   55.25758631
_cell_angle_gamma   55.25759274
_symmetry_Int_Tables_number   1
_chemical_formula_structural   CsTb(NbCl3)6
_chemical_formula_sum   'Cs1 Tb1 Nb6 Cl18'
_cell_volume   685.11016301
_cell_formula_units_Z   1
loop_
 _symmetry_equiv_pos_site_id
 _symmetry_equiv_pos_as_xyz
  1  'x, y, z'
loop_
 _atom_site_type_symbol
 _atom_site_label
 _atom_site_symmetry_multiplicity
 _atom_site_fract_x
 _atom_site_fract_y
 _atom_site_fract_z
 _atom_site_occupancy
  Cs  Cs0  1  0.222460  0.222460  0.222460  1
  Tb  Tb1  1  0.498139  0.498139  0.498139  1
  Nb  Nb2  1  0.801321  0.148908  0.912473  1
  Nb  Nb3  1  0.912473  0.801321  0.148908  1
  Nb  Nb4  1  0.148908  0.912473  0.801321  1
  Nb  Nb5  1  0.200245  0.851614  0.086089  1
  Nb  Nb6  1  0.086089  0.200245  0.851614  1
  Nb  Nb7  1  0.851614  0.086089  0.200245  1
  Cl  Cl8  1  0.864155  0.411499  0.726921  1
  Cl  Cl9  1  0.726921  0.864155  0.411499  1
  Cl  Cl10  1  0.411499  0.726921  0.864155  1
  Cl  Cl11  1  0.134479  0.589263  0.275806  1
  Cl  Cl12  1  0.275806  0.134479  0.589263  1
  Cl  Cl13  1  0.589263  0.275806  0.134479  1
  Cl  Cl14  1  0.537499  0.341801  0.800339  1
  Cl  Cl15  1  0.800339  0.537499  0.341801  1
  Cl  Cl16  1  0.341801  0.800339  0.537499  1
  Cl  Cl17  1  0.461509  0.660682  0.199235  1
  Cl  Cl18  1  0.199235  0.461509  0.660682  1
  Cl  Cl19  1  0.660682  0.199235  0.461509  1
  Cl  Cl20  1  0.664294  0.939089  0.070416  1
  Cl  Cl21  1  0.070416  0.664294  0.939089  1
  Cl  Cl22  1  0.939089  0.070416  0.664294  1
  Cl  Cl23  1  0.340179  0.059416  0.923308  1
  Cl  Cl24  1  0.923308  0.340179  0.059416  1
  Cl  Cl25  1  0.059416  0.923308  0.340179  1
