# generated using pymatgen
data_Zr6V4Ga12Ru7
_symmetry_space_group_name_H-M   'P 1'
_cell_length_a   8.74451154
_cell_length_b   8.74451130
_cell_length_c   8.74451100
_cell_angle_alpha   59.99999735
_cell_angle_beta   59.99999825
_cell_angle_gamma   59.99999138
_symmetry_Int_Tables_number   1
_chemical_formula_structural   Zr6V4Ga12Ru7
_chemical_formula_sum   'Zr6 V4 Ga12 Ru7'
_cell_volume   472.81537016
_cell_formula_units_Z   1
loop_
 _symmetry_equiv_pos_site_id
 _symmetry_equiv_pos_as_xyz
  1  'x, y, z'
loop_
 _atom_site_type_symbol
 _atom_site_label
 _atom_site_symmetry_multiplicity
 _atom_site_fract_x
 _atom_site_fract_y
 _atom_site_fract_z
 _atom_site_occupancy
  Zr  Zr0  1  0.708000  0.708000  0.292000  1
  Zr  Zr1  1  0.292000  0.708000  0.292000  1
  Zr  Zr2  1  0.708000  0.292000  0.292000  1
  Zr  Zr3  1  0.292000  0.292000  0.708000  1
  Zr  Zr4  1  0.708000  0.292000  0.708000  1
  Zr  Zr5  1  0.292000  0.708000  0.708000  1
  V  V6  1  0.878247  0.878247  0.365260  1
  V  V7  1  0.878247  0.365260  0.878247  1
  V  V8  1  0.365260  0.878247  0.878247  1
  V  V9  1  0.878247  0.878247  0.878247  1
  Ga  Ga10  1  0.118933  0.118933  0.643200  1
  Ga  Ga11  1  0.118933  0.643200  0.118933  1
  Ga  Ga12  1  0.643200  0.118933  0.118933  1
  Ga  Ga13  1  0.118933  0.118933  0.118933  1
  Ga  Ga14  1  0.660653  0.660653  0.018038  1
  Ga  Ga15  1  0.660653  0.018038  0.660653  1
  Ga  Ga16  1  0.018038  0.660653  0.660653  1
  Ga  Ga17  1  0.660653  0.660653  0.660653  1
  Ga  Ga18  1  0.339011  0.339011  0.982967  1
  Ga  Ga19  1  0.339011  0.982967  0.339011  1
  Ga  Ga20  1  0.982967  0.339011  0.339011  1
  Ga  Ga21  1  0.339011  0.339011  0.339011  1
  Ru  Ru22  1  0.000000  0.000000  0.000000  1
  Ru  Ru23  1  0.996783  0.996783  0.503217  1
  Ru  Ru24  1  0.503217  0.996783  0.503217  1
  Ru  Ru25  1  0.996783  0.503217  0.503217  1
  Ru  Ru26  1  0.503217  0.503217  0.996783  1
  Ru  Ru27  1  0.996783  0.503217  0.996783  1
  Ru  Ru28  1  0.503217  0.996783  0.996783  1
