# generated using pymatgen
data_Y4Al4Pt3Rh
_symmetry_space_group_name_H-M   'P 1'
_cell_length_a   4.43616800
_cell_length_b   6.87608000
_cell_length_c   7.77807700
_cell_angle_alpha   89.99703555
_cell_angle_beta   90.00000000
_cell_angle_gamma   90.00000000
_symmetry_Int_Tables_number   1
_chemical_formula_structural   Y4Al4Pt3Rh
_chemical_formula_sum   'Y4 Al4 Pt3 Rh1'
_cell_volume   237.25815209
_cell_formula_units_Z   1
loop_
 _symmetry_equiv_pos_site_id
 _symmetry_equiv_pos_as_xyz
  1  'x, y, z'
loop_
 _atom_site_type_symbol
 _atom_site_label
 _atom_site_symmetry_multiplicity
 _atom_site_fract_x
 _atom_site_fract_y
 _atom_site_fract_z
 _atom_site_occupancy
  Y  Y0  1  0.250000  0.030833  0.678860  1
  Y  Y1  1  0.250000  0.529043  0.819239  1
  Y  Y2  1  0.750000  0.973691  0.318411  1
  Y  Y3  1  0.750000  0.471256  0.182833  1
  Al  Al4  1  0.250000  0.147145  0.063317  1
  Al  Al5  1  0.250000  0.640982  0.436460  1
  Al  Al6  1  0.750000  0.853989  0.936391  1
  Al  Al7  1  0.750000  0.354942  0.563012  1
  Pt  Pt8  1  0.250000  0.775618  0.117045  1
  Pt  Pt9  1  0.750000  0.726221  0.616819  1
  Pt  Pt10  1  0.750000  0.226021  0.882938  1
  Rh  Rh11  1  0.250000  0.270259  0.384675  1
