# generated using pymatgen
data_La6TcSnI6
_symmetry_space_group_name_H-M   'P 1'
_cell_length_a   11.09675353
_cell_length_b   11.09675443
_cell_length_c   11.44177601
_cell_angle_alpha   109.51360502
_cell_angle_beta   109.51360643
_cell_angle_gamma   108.12958938
_symmetry_Int_Tables_number   1
_chemical_formula_structural   La6TcSnI6
_chemical_formula_sum   'La12 Tc2 Sn2 I12'
_cell_volume   1100.92585447
_cell_formula_units_Z   2
loop_
 _symmetry_equiv_pos_site_id
 _symmetry_equiv_pos_as_xyz
  1  'x, y, z'
loop_
 _atom_site_type_symbol
 _atom_site_label
 _atom_site_symmetry_multiplicity
 _atom_site_fract_x
 _atom_site_fract_y
 _atom_site_fract_z
 _atom_site_occupancy
  La  La0  1  0.464728  0.463615  0.242804  1
  La  La1  1  0.720810  0.221924  0.257196  1
  La  La2  1  0.719109  0.004768  0.463239  1
  La  La3  1  0.244130  0.458470  0.463239  1
  La  La4  1  0.278076  0.779190  0.242804  1
  La  La5  1  0.041530  0.255870  0.036761  1
  La  La6  1  0.036385  0.035272  0.257196  1
  La  La7  1  0.495232  0.780891  0.036761  1
  La  La8  1  0.479349  0.229349  0.458696  1
  La  La9  1  0.007632  0.492368  0.750000  1
  La  La10  1  0.270651  0.020651  0.041304  1
  La  La11  1  0.242368  0.257632  0.750000  1
  Tc  Tc12  1  0.250105  0.249895  0.250000  1
  Tc  Tc13  1  0.499895  0.000105  0.250000  1
  Sn  Sn14  1  0.999254  0.249254  0.498508  1
  Sn  Sn15  1  0.250746  0.500746  0.001492  1
  I  I16  1  0.249197  0.750357  0.748551  1
  I  I17  1  0.501807  0.500645  0.751449  1
  I  I18  1  0.983294  0.740857  0.989770  1
  I  I19  1  0.749643  0.250803  0.751449  1
  I  I20  1  0.999355  0.998193  0.748551  1
  I  I21  1  0.251088  0.993525  0.510230  1
  I  I22  1  0.759143  0.516706  0.510230  1
  I  I23  1  0.506475  0.248912  0.989770  1
  I  I24  1  0.752523  0.747477  0.250000  1
  I  I25  1  0.746978  0.996978  0.993955  1
  I  I26  1  0.997477  0.502523  0.250000  1
  I  I27  1  0.503022  0.753022  0.506045  1
