# generated using pymatgen
data_Nd5SmCd23Ge
_symmetry_space_group_name_H-M   'P 1'
_cell_length_a   10.09264255
_cell_length_b   10.07430174
_cell_length_c   10.07430173
_cell_angle_alpha   60.12048198
_cell_angle_beta   59.93975853
_cell_angle_gamma   59.93975617
_symmetry_Int_Tables_number   1
_chemical_formula_structural   Nd5SmCd23Ge
_chemical_formula_sum   'Nd5 Sm1 Cd23 Ge1'
_cell_volume   724.29736945
_cell_formula_units_Z   1
loop_
 _symmetry_equiv_pos_site_id
 _symmetry_equiv_pos_as_xyz
  1  'x, y, z'
loop_
 _atom_site_type_symbol
 _atom_site_label
 _atom_site_symmetry_multiplicity
 _atom_site_fract_x
 _atom_site_fract_y
 _atom_site_fract_z
 _atom_site_occupancy
  Nd  Nd0  1  0.792661  0.792369  0.207339  1
  Nd  Nd1  1  0.207631  0.792369  0.207339  1
  Nd  Nd2  1  0.791620  0.208380  0.208380  1
  Nd  Nd3  1  0.207631  0.207339  0.792369  1
  Nd  Nd4  1  0.792661  0.207339  0.792369  1
  Sm  Sm5  1  0.207819  0.792181  0.792181  1
  Cd  Cd6  1  0.834680  0.835709  0.494928  1
  Cd  Cd7  1  0.834680  0.494928  0.835709  1
  Cd  Cd8  1  0.493532  0.834785  0.834785  1
  Cd  Cd9  1  0.836895  0.834785  0.834785  1
  Cd  Cd10  1  0.165215  0.163105  0.506468  1
  Cd  Cd11  1  0.165215  0.506468  0.163105  1
  Cd  Cd12  1  0.505072  0.165320  0.165320  1
  Cd  Cd13  1  0.164291  0.165320  0.165320  1
  Cd  Cd14  1  0.621837  0.623446  0.132881  1
  Cd  Cd15  1  0.621837  0.132881  0.623446  1
  Cd  Cd16  1  0.133605  0.622278  0.622278  1
  Cd  Cd17  1  0.621842  0.622278  0.622278  1
  Cd  Cd18  1  0.377722  0.378158  0.866395  1
  Cd  Cd19  1  0.377722  0.866395  0.378158  1
  Cd  Cd20  1  0.867119  0.378163  0.378163  1
  Cd  Cd21  1  0.376554  0.378163  0.378163  1
  Cd  Cd22  1  0.000213  0.999787  0.500096  1
  Cd  Cd23  1  0.499904  0.999787  0.500096  1
  Cd  Cd24  1  0.000245  0.499755  0.499755  1
  Cd  Cd25  1  0.499904  0.500096  0.999787  1
  Cd  Cd26  1  0.000213  0.500096  0.999787  1
  Cd  Cd27  1  0.500245  0.999755  0.999755  1
  Cd  Cd28  1  0.500251  0.499749  0.499749  1
  Ge  Ge29  1  0.001182  0.998818  0.998818  1
