# generated using pymatgen
data_Dy15LuIn4Ru3Rh
_symmetry_space_group_name_H-M   'P 1'
_cell_length_a   9.65920687
_cell_length_b   9.62668021
_cell_length_c   9.65325790
_cell_angle_alpha   59.82522143
_cell_angle_beta   59.97961323
_cell_angle_gamma   59.88816866
_symmetry_Int_Tables_number   1
_chemical_formula_structural   Dy15LuIn4Ru3Rh
_chemical_formula_sum   'Dy15 Lu1 In4 Ru3 Rh1'
_cell_volume   633.23642206
_cell_formula_units_Z   1
loop_
 _symmetry_equiv_pos_site_id
 _symmetry_equiv_pos_as_xyz
  1  'x, y, z'
loop_
 _atom_site_type_symbol
 _atom_site_label
 _atom_site_symmetry_multiplicity
 _atom_site_fract_x
 _atom_site_fract_y
 _atom_site_fract_z
 _atom_site_occupancy
  Dy  Dy0  1  0.693269  0.689286  0.309262  1
  Dy  Dy1  1  0.308183  0.689286  0.309262  1
  Dy  Dy2  1  0.936496  0.943600  0.559976  1
  Dy  Dy3  1  0.151968  0.152199  0.543864  1
  Dy  Dy4  1  0.559927  0.943600  0.559976  1
  Dy  Dy5  1  0.150261  0.152217  0.150921  1
  Dy  Dy6  1  0.307816  0.309877  0.690911  1
  Dy  Dy7  1  0.941358  0.559082  0.558203  1
  Dy  Dy8  1  0.557853  0.558854  0.943232  1
  Dy  Dy9  1  0.559748  0.942385  0.938118  1
  Dy  Dy10  1  0.940061  0.558854  0.943232  1
  Dy  Dy11  1  0.152616  0.542571  0.152195  1
  Dy  Dy12  1  0.307228  0.690686  0.694857  1
  Dy  Dy13  1  0.691396  0.309877  0.690911  1
  Dy  Dy14  1  0.546601  0.152217  0.150921  1
  Lu  Lu15  1  0.691858  0.308324  0.307960  1
  In  In16  1  0.917111  0.918334  0.247444  1
  In  In17  1  0.246146  0.918645  0.917469  1
  In  In18  1  0.917045  0.248562  0.917347  1
  In  In19  1  0.917739  0.918645  0.917469  1
  Ru  Ru20  1  0.364554  0.357821  0.359513  1
  Ru  Ru21  1  0.918113  0.357821  0.359513  1
  Ru  Ru22  1  0.361797  0.357347  0.919061  1
  Rh  Rh23  1  0.360856  0.919906  0.358384  1
