# generated using pymatgen
data_LiYbEuPd2
_symmetry_space_group_name_H-M   'P 1'
_cell_length_a   5.80193487
_cell_length_b   5.80193598
_cell_length_c   7.93012943
_cell_angle_alpha   77.89413989
_cell_angle_beta   77.89413705
_cell_angle_gamma   58.69306008
_symmetry_Int_Tables_number   1
_chemical_formula_structural   LiYbEuPd2
_chemical_formula_sum   'Li2 Yb2 Eu2 Pd4'
_cell_volume   221.37934934
_cell_formula_units_Z   2
loop_
 _symmetry_equiv_pos_site_id
 _symmetry_equiv_pos_as_xyz
  1  'x, y, z'
loop_
 _atom_site_type_symbol
 _atom_site_label
 _atom_site_symmetry_multiplicity
 _atom_site_fract_x
 _atom_site_fract_y
 _atom_site_fract_z
 _atom_site_occupancy
  Li  Li0  1  0.125837  0.874163  0.250000  1
  Li  Li1  1  0.875293  0.124707  0.750000  1
  Yb  Yb2  1  0.790400  0.512222  0.346185  1
  Yb  Yb3  1  0.487778  0.209600  0.153815  1
  Eu  Eu4  1  0.213602  0.487207  0.649191  1
  Eu  Eu5  1  0.512793  0.786398  0.850809  1
  Pd  Pd6  1  0.000243  0.736346  0.009732  1
  Pd  Pd7  1  0.263654  0.999757  0.490268  1
  Pd  Pd8  1  0.993268  0.262869  0.003680  1
  Pd  Pd9  1  0.737131  0.006732  0.496320  1
