# generated using pymatgen
data_Y9Tm(IrRh2)2
_symmetry_space_group_name_H-M   'P 1'
_cell_length_a   10.92390900
_cell_length_b   10.92390900
_cell_length_c   6.38375600
_cell_angle_alpha   90.00000000
_cell_angle_beta   90.00000000
_cell_angle_gamma   90.00000000
_symmetry_Int_Tables_number   1
_chemical_formula_structural   Y9Tm(IrRh2)2
_chemical_formula_sum   'Y18 Tm2 Ir4 Rh8'
_cell_volume   761.78501662
_cell_formula_units_Z   2
loop_
 _symmetry_equiv_pos_site_id
 _symmetry_equiv_pos_as_xyz
  1  'x, y, z'
loop_
 _atom_site_type_symbol
 _atom_site_label
 _atom_site_symmetry_multiplicity
 _atom_site_fract_x
 _atom_site_fract_y
 _atom_site_fract_z
 _atom_site_occupancy
  Y  Y0  1  0.291507  0.090105  0.379089  1
  Y  Y1  1  0.291507  0.909895  0.879089  1
  Y  Y2  1  0.708493  0.090105  0.879089  1
  Y  Y3  1  0.708493  0.909895  0.379089  1
  Y  Y4  1  0.587509  0.789386  0.880007  1
  Y  Y5  1  0.587509  0.210614  0.380007  1
  Y  Y6  1  0.412491  0.789386  0.380007  1
  Y  Y7  1  0.412491  0.210614  0.880007  1
  Y  Y8  1  0.210614  0.412491  0.619993  1
  Y  Y9  1  0.210614  0.587509  0.119993  1
  Y  Y10  1  0.789386  0.412491  0.119993  1
  Y  Y11  1  0.789386  0.587509  0.619993  1
  Y  Y12  1  0.909895  0.708493  0.120911  1
  Y  Y13  1  0.909895  0.291507  0.620911  1
  Y  Y14  1  0.090105  0.708493  0.620911  1
  Y  Y15  1  0.090105  0.291507  0.120911  1
  Y  Y16  1  0.000000  0.000000  0.500000  1
  Y  Y17  1  0.000000  0.000000  0.000000  1
  Tm  Tm18  1  0.500000  0.500000  0.000000  1
  Tm  Tm19  1  0.500000  0.500000  0.500000  1
  Ir  Ir20  1  0.652638  0.347362  0.750000  1
  Ir  Ir21  1  0.652638  0.652638  0.250000  1
  Ir  Ir22  1  0.347362  0.347362  0.250000  1
  Ir  Ir23  1  0.347362  0.652638  0.750000  1
  Rh  Rh24  1  0.846423  0.153577  0.250000  1
  Rh  Rh25  1  0.846423  0.846423  0.750000  1
  Rh  Rh26  1  0.153577  0.153577  0.750000  1
  Rh  Rh27  1  0.153577  0.846423  0.250000  1
  Rh  Rh28  1  0.500000  0.000000  0.125541  1
  Rh  Rh29  1  0.500000  0.000000  0.625541  1
  Rh  Rh30  1  0.000000  0.500000  0.874459  1
  Rh  Rh31  1  0.000000  0.500000  0.374459  1
