# generated using pymatgen
data_Cu2GeMo3N
_symmetry_space_group_name_H-M   'P 1'
_cell_length_a   7.94344014
_cell_length_b   7.94343933
_cell_length_c   7.94344000
_cell_angle_alpha   59.99999722
_cell_angle_beta   60.00000060
_cell_angle_gamma   60.00000183
_symmetry_Int_Tables_number   1
_chemical_formula_structural   Cu2GeMo3N
_chemical_formula_sum   'Cu8 Ge4 Mo12 N4'
_cell_volume   354.41396894
_cell_formula_units_Z   4
loop_
 _symmetry_equiv_pos_site_id
 _symmetry_equiv_pos_as_xyz
  1  'x, y, z'
loop_
 _atom_site_type_symbol
 _atom_site_label
 _atom_site_symmetry_multiplicity
 _atom_site_fract_x
 _atom_site_fract_y
 _atom_site_fract_z
 _atom_site_occupancy
  Cu  Cu0  1  0.248468  0.917178  0.917178  1
  Cu  Cu1  1  0.917178  0.248468  0.917178  1
  Cu  Cu2  1  0.917178  0.917178  0.917178  1
  Cu  Cu3  1  0.917178  0.917178  0.248468  1
  Cu  Cu4  1  0.001532  0.332822  0.332822  1
  Cu  Cu5  1  0.332822  0.332822  0.001532  1
  Cu  Cu6  1  0.332822  0.001532  0.332822  1
  Cu  Cu7  1  0.332822  0.332822  0.332822  1
  Ge  Ge8  1  0.625000  0.125000  0.125000  1
  Ge  Ge9  1  0.125000  0.125000  0.625000  1
  Ge  Ge10  1  0.125000  0.625000  0.125000  1
  Ge  Ge11  1  0.125000  0.125000  0.125000  1
  Mo  Mo12  1  0.691618  0.308382  0.691618  1
  Mo  Mo13  1  0.558382  0.558382  0.941618  1
  Mo  Mo14  1  0.558382  0.941618  0.558382  1
  Mo  Mo15  1  0.941618  0.941618  0.558382  1
  Mo  Mo16  1  0.941618  0.558382  0.558382  1
  Mo  Mo17  1  0.941618  0.558382  0.941618  1
  Mo  Mo18  1  0.691618  0.308382  0.308382  1
  Mo  Mo19  1  0.308382  0.691618  0.308382  1
  Mo  Mo20  1  0.308382  0.308382  0.691618  1
  Mo  Mo21  1  0.308382  0.691618  0.691618  1
  Mo  Mo22  1  0.691618  0.691618  0.308382  1
  Mo  Mo23  1  0.558382  0.941618  0.941618  1
  N  N24  1  0.625000  0.625000  0.625000  1
  N  N25  1  0.125000  0.625000  0.625000  1
  N  N26  1  0.625000  0.125000  0.625000  1
  N  N27  1  0.625000  0.625000  0.125000  1
