# generated using pymatgen
data_La12TlCo5
_symmetry_space_group_name_H-M   'P 1'
_cell_length_a   8.73141073
_cell_length_b   8.73141044
_cell_length_c   8.73141100
_cell_angle_alpha   108.02992519
_cell_angle_beta   109.20875701
_cell_angle_gamma   111.19082482
_symmetry_Int_Tables_number   1
_chemical_formula_structural   La12TlCo5
_chemical_formula_sum   'La12 Tl1 Co5'
_cell_volume   512.02640617
_cell_formula_units_Z   1
loop_
 _symmetry_equiv_pos_site_id
 _symmetry_equiv_pos_as_xyz
  1  'x, y, z'
loop_
 _atom_site_type_symbol
 _atom_site_label
 _atom_site_symmetry_multiplicity
 _atom_site_fract_x
 _atom_site_fract_y
 _atom_site_fract_z
 _atom_site_occupancy
  La  La0  1  0.488908  0.309110  0.179798  1
  La  La1  1  0.129312  0.309110  0.820202  1
  La  La2  1  0.870688  0.690890  0.179798  1
  La  La3  1  0.511092  0.690890  0.820202  1
  La  La4  1  0.316492  0.642225  0.325732  1
  La  La5  1  0.316492  0.990761  0.674268  1
  La  La6  1  0.683508  0.357775  0.674268  1
  La  La7  1  0.683508  0.009239  0.325732  1
  La  La8  1  0.184283  0.193774  0.378056  1
  La  La9  1  0.815717  0.806226  0.621944  1
  La  La10  1  0.184283  0.806226  0.990508  1
  La  La11  1  0.815717  0.193774  0.009492  1
  Tl  Tl12  1  0.000000  0.500000  0.500000  1
  Co  Co13  1  0.500000  0.626770  0.126770  1
  Co  Co14  1  0.500000  0.373230  0.873230  1
  Co  Co15  1  0.358170  0.000000  0.358170  1
  Co  Co16  1  0.641830  0.000000  0.641830  1
  Co  Co17  1  0.000000  0.000000  0.000000  1
