# generated using pymatgen
data_CeSm4(TcB3)2
_symmetry_space_group_name_H-M   'P 1'
_cell_length_a   5.58882894
_cell_length_b   5.58882817
_cell_length_c   8.49220646
_cell_angle_alpha   70.78849385
_cell_angle_beta   70.78849965
_cell_angle_gamma   60.00000044
_symmetry_Int_Tables_number   1
_chemical_formula_structural   CeSm4(TcB3)2
_chemical_formula_sum   'Ce1 Sm4 Tc2 B6'
_cell_volume   212.48857340
_cell_formula_units_Z   1
loop_
 _symmetry_equiv_pos_site_id
 _symmetry_equiv_pos_as_xyz
  1  'x, y, z'
loop_
 _atom_site_type_symbol
 _atom_site_label
 _atom_site_symmetry_multiplicity
 _atom_site_fract_x
 _atom_site_fract_y
 _atom_site_fract_z
 _atom_site_occupancy
  Ce  Ce0  1  0.000000  0.000000  0.000000  1
  Sm  Sm1  1  0.749600  0.749600  0.751198  1
  Sm  Sm2  1  0.250400  0.250400  0.248802  1
  Sm  Sm3  1  0.583451  0.583451  0.249647  1
  Sm  Sm4  1  0.416549  0.416549  0.750353  1
  Tc  Tc5  1  0.890615  0.890615  0.328158  1
  Tc  Tc6  1  0.109385  0.109385  0.671843  1
  B  B7  1  0.500000  0.169632  0.500000  1
  B  B8  1  0.830368  0.500000  0.500000  1
  B  B9  1  0.169632  0.830368  0.500000  1
  B  B10  1  0.169632  0.500000  0.500000  1
  B  B11  1  0.830368  0.169632  0.500000  1
  B  B12  1  0.500000  0.830368  0.500000  1
