# generated using pymatgen
data_Ho13Er(Lu3Pt8)2
_symmetry_space_group_name_H-M   'P 1'
_cell_length_a   7.41497500
_cell_length_b   7.51388179
_cell_length_c   14.59341300
_cell_angle_alpha   90.05695355
_cell_angle_beta   89.99888731
_cell_angle_gamma   90.00799245
_symmetry_Int_Tables_number   1
_chemical_formula_structural   Ho13Er(Lu3Pt8)2
_chemical_formula_sum   'Ho13 Er1 Lu6 Pt16'
_cell_volume   813.07517970
_cell_formula_units_Z   1
loop_
 _symmetry_equiv_pos_site_id
 _symmetry_equiv_pos_as_xyz
  1  'x, y, z'
loop_
 _atom_site_type_symbol
 _atom_site_label
 _atom_site_symmetry_multiplicity
 _atom_site_fract_x
 _atom_site_fract_y
 _atom_site_fract_z
 _atom_site_occupancy
  Ho  Ho0  1  0.843178  0.668354  0.377818  1
  Ho  Ho1  1  0.343731  0.832164  0.377650  1
  Ho  Ho2  1  0.843887  0.668068  0.122216  1
  Ho  Ho3  1  0.656276  0.168070  0.877338  1
  Ho  Ho4  1  0.156361  0.331858  0.622739  1
  Ho  Ho5  1  0.501979  0.679366  0.593744  1
  Ho  Ho6  1  0.001996  0.820725  0.906323  1
  Ho  Ho7  1  0.498493  0.320894  0.093129  1
  Ho  Ho8  1  0.998609  0.179039  0.406786  1
  Ho  Ho9  1  0.498709  0.320485  0.407608  1
  Ho  Ho10  1  0.999003  0.179091  0.092296  1
  Ho  Ho11  1  0.500686  0.677845  0.906162  1
  Ho  Ho12  1  0.000799  0.822220  0.594092  1
  Er  Er13  1  0.343251  0.831875  0.122340  1
  Lu  Lu14  1  0.656239  0.167863  0.623497  1
  Lu  Lu15  1  0.156208  0.332046  0.876505  1
  Lu  Lu16  1  0.819059  0.510536  0.749892  1
  Lu  Lu17  1  0.319054  0.989411  0.750030  1
  Lu  Lu18  1  0.181256  0.488152  0.250018  1
  Lu  Lu19  1  0.681018  0.011847  0.249864  1
  Pt  Pt20  1  0.684427  0.970181  0.458963  1
  Pt  Pt21  1  0.184968  0.530558  0.040989  1
  Pt  Pt22  1  0.314013  0.034017  0.957513  1
  Pt  Pt23  1  0.814034  0.465811  0.542954  1
  Pt  Pt24  1  0.318534  0.031552  0.543472  1
  Pt  Pt25  1  0.818688  0.468248  0.956590  1
  Pt  Pt26  1  0.682418  0.968494  0.042606  1
  Pt  Pt27  1  0.183158  0.531215  0.457523  1
  Pt  Pt28  1  0.454042  0.387166  0.750133  1
  Pt  Pt29  1  0.954093  0.112875  0.750043  1
  Pt  Pt30  1  0.545177  0.610943  0.249721  1
  Pt  Pt31  1  0.045584  0.889225  0.249703  1
  Pt  Pt32  1  0.681050  0.855777  0.749444  1
  Pt  Pt33  1  0.181163  0.644168  0.750820  1
  Pt  Pt34  1  0.319497  0.145109  0.249708  1
  Pt  Pt35  1  0.819364  0.354752  0.249766  1
