# generated using pymatgen
data_La7TbGaPd24
_symmetry_space_group_name_H-M   'P 1'
_cell_length_a   8.54270385
_cell_length_b   8.54270385
_cell_length_c   8.54270385
_cell_angle_alpha   89.92300481
_cell_angle_beta   89.92300481
_cell_angle_gamma   89.92300481
_symmetry_Int_Tables_number   1
_chemical_formula_structural   La7TbGaPd24
_chemical_formula_sum   'La7 Tb1 Ga1 Pd24'
_cell_volume   623.42595333
_cell_formula_units_Z   1
loop_
 _symmetry_equiv_pos_site_id
 _symmetry_equiv_pos_as_xyz
  1  'x, y, z'
loop_
 _atom_site_type_symbol
 _atom_site_label
 _atom_site_symmetry_multiplicity
 _atom_site_fract_x
 _atom_site_fract_y
 _atom_site_fract_z
 _atom_site_occupancy
  La  La0  1  0.252162  0.252162  0.747826  1
  La  La1  1  0.252162  0.747826  0.252162  1
  La  La2  1  0.747826  0.252162  0.252162  1
  La  La3  1  0.748221  0.748221  0.748221  1
  La  La4  1  0.747779  0.747779  0.252120  1
  La  La5  1  0.747779  0.252120  0.747779  1
  La  La6  1  0.252120  0.747779  0.747779  1
  Tb  Tb7  1  0.251761  0.251761  0.251761  1
  Ga  Ga8  1  0.000039  0.000039  0.000039  1
  Pd  Pd9  1  0.499994  0.499994  0.746125  1
  Pd  Pd10  1  0.496995  0.253890  0.496995  1
  Pd  Pd11  1  0.253890  0.496995  0.496995  1
  Pd  Pd12  1  0.496995  0.496995  0.253890  1
  Pd  Pd13  1  0.499994  0.746125  0.499994  1
  Pd  Pd14  1  0.746125  0.499994  0.499994  1
  Pd  Pd15  1  0.000119  0.000119  0.705164  1
  Pd  Pd16  1  0.002839  0.293841  0.002839  1
  Pd  Pd17  1  0.293841  0.002839  0.002839  1
  Pd  Pd18  1  0.002839  0.002839  0.293841  1
  Pd  Pd19  1  0.000119  0.705164  0.000119  1
  Pd  Pd20  1  0.705164  0.000119  0.000119  1
  Pd  Pd21  1  0.000027  0.499780  0.738897  1
  Pd  Pd22  1  0.497605  0.261271  0.003039  1
  Pd  Pd23  1  0.261271  0.003039  0.497605  1
  Pd  Pd24  1  0.003039  0.261271  0.497605  1
  Pd  Pd25  1  0.499780  0.000027  0.738897  1
  Pd  Pd26  1  0.261271  0.497605  0.003039  1
  Pd  Pd27  1  0.003039  0.497605  0.261271  1
  Pd  Pd28  1  0.499780  0.738897  0.000027  1
  Pd  Pd29  1  0.000027  0.738897  0.499780  1
  Pd  Pd30  1  0.497605  0.003039  0.261271  1
  Pd  Pd31  1  0.738897  0.000027  0.499780  1
  Pd  Pd32  1  0.738897  0.499780  0.000027  1
