# generated using pymatgen
data_Nd9Y2Cd9Ni4
_symmetry_space_group_name_H-M   'P 1'
_cell_length_a   13.33079992
_cell_length_b   13.38548821
_cell_length_c   3.72252000
_cell_angle_alpha   90.00000000
_cell_angle_beta   90.00000000
_cell_angle_gamma   112.88223262
_symmetry_Int_Tables_number   1
_chemical_formula_structural   Nd9Y2Cd9Ni4
_chemical_formula_sum   'Nd9 Y2 Cd9 Ni4'
_cell_volume   611.97175576
_cell_formula_units_Z   1
loop_
 _symmetry_equiv_pos_site_id
 _symmetry_equiv_pos_as_xyz
  1  'x, y, z'
loop_
 _atom_site_type_symbol
 _atom_site_label
 _atom_site_symmetry_multiplicity
 _atom_site_fract_x
 _atom_site_fract_y
 _atom_site_fract_z
 _atom_site_occupancy
  Nd  Nd0  1  0.419593  0.081765  0.000000  1
  Nd  Nd1  1  0.580407  0.918235  0.000000  1
  Nd  Nd2  1  0.627752  0.376277  0.000000  1
  Nd  Nd3  1  0.372248  0.623723  0.000000  1
  Nd  Nd4  1  0.838162  0.162407  0.000000  1
  Nd  Nd5  1  0.161838  0.837593  0.000000  1
  Nd  Nd6  1  0.000000  0.000000  0.000000  1
  Nd  Nd7  1  0.309044  0.310769  0.000000  1
  Nd  Nd8  1  0.690956  0.689231  0.000000  1
  Y  Y9  1  0.081081  0.418170  0.000000  1
  Y  Y10  1  0.918919  0.581830  0.000000  1
  Cd  Cd11  1  0.843780  0.370594  0.500000  1
  Cd  Cd12  1  0.156220  0.629406  0.500000  1
  Cd  Cd13  1  0.363681  0.834495  0.500000  1
  Cd  Cd14  1  0.636319  0.165505  0.500000  1
  Cd  Cd15  1  0.075012  0.220446  0.500000  1
  Cd  Cd16  1  0.924988  0.779554  0.500000  1
  Cd  Cd17  1  0.218383  0.078485  0.500000  1
  Cd  Cd18  1  0.781617  0.921515  0.500000  1
  Cd  Cd19  1  0.500000  0.500000  0.500000  1
  Ni  Ni20  1  0.246002  0.451487  0.500000  1
  Ni  Ni21  1  0.753998  0.548513  0.500000  1
  Ni  Ni22  1  0.453338  0.250507  0.500000  1
  Ni  Ni23  1  0.546662  0.749493  0.500000  1
