# generated using pymatgen
data_Sr3Pt4PbO14
_symmetry_space_group_name_H-M   'P 1'
_cell_length_a   7.45303724
_cell_length_b   7.45303583
_cell_length_c   7.43005995
_cell_angle_alpha   59.89764355
_cell_angle_beta   59.89765294
_cell_angle_gamma   59.99999312
_symmetry_Int_Tables_number   1
_chemical_formula_structural   Sr3Pt4PbO14
_chemical_formula_sum   'Sr3 Pt4 Pb1 O14'
_cell_volume   291.38701115
_cell_formula_units_Z   1
loop_
 _symmetry_equiv_pos_site_id
 _symmetry_equiv_pos_as_xyz
  1  'x, y, z'
loop_
 _atom_site_type_symbol
 _atom_site_label
 _atom_site_symmetry_multiplicity
 _atom_site_fract_x
 _atom_site_fract_y
 _atom_site_fract_z
 _atom_site_occupancy
  Sr  Sr0  1  0.625000  0.125000  0.125000  1
  Sr  Sr1  1  0.125000  0.625000  0.125000  1
  Sr  Sr2  1  0.125000  0.125000  0.125000  1
  Pt  Pt3  1  0.125000  0.625000  0.625000  1
  Pt  Pt4  1  0.625000  0.125000  0.625000  1
  Pt  Pt5  1  0.625000  0.625000  0.125000  1
  Pt  Pt6  1  0.625000  0.625000  0.625000  1
  Pb  Pb7  1  0.125000  0.125000  0.625000  1
  O  O8  1  0.702664  0.702664  0.298085  1
  O  O9  1  0.296982  0.296982  0.690909  1
  O  O10  1  0.715126  0.296982  0.690909  1
  O  O11  1  0.296588  0.702664  0.298085  1
  O  O12  1  0.296982  0.715126  0.690909  1
  O  O13  1  0.702664  0.296588  0.298085  1
  O  O14  1  0.547336  0.547336  0.951915  1
  O  O15  1  0.953018  0.953018  0.559091  1
  O  O16  1  0.534874  0.953018  0.559091  1
  O  O17  1  0.953412  0.547336  0.951915  1
  O  O18  1  0.953018  0.534874  0.559091  1
  O  O19  1  0.547336  0.953412  0.951915  1
  O  O20  1  0.236528  0.236528  0.290416  1
  O  O21  1  0.013472  0.013472  0.959584  1
