# generated using pymatgen
data_Dy3Ho(Er3Pt4)2
_symmetry_space_group_name_H-M   'P 1'
_cell_length_a   7.44027400
_cell_length_b   7.53246700
_cell_length_c   14.67793000
_cell_angle_alpha   89.99773461
_cell_angle_beta   89.99952706
_cell_angle_gamma   89.99987754
_symmetry_Int_Tables_number   1
_chemical_formula_structural   Dy3Ho(Er3Pt4)2
_chemical_formula_sum   'Dy6 Ho2 Er12 Pt16'
_cell_volume   822.60430713
_cell_formula_units_Z   2
loop_
 _symmetry_equiv_pos_site_id
 _symmetry_equiv_pos_as_xyz
  1  'x, y, z'
loop_
 _atom_site_type_symbol
 _atom_site_label
 _atom_site_symmetry_multiplicity
 _atom_site_fract_x
 _atom_site_fract_y
 _atom_site_fract_z
 _atom_site_occupancy
  Dy  Dy0  1  0.501234  0.679825  0.592667  1
  Dy  Dy1  1  0.001234  0.820176  0.907332  1
  Dy  Dy2  1  0.498755  0.320304  0.092644  1
  Dy  Dy3  1  0.998755  0.179694  0.407359  1
  Dy  Dy4  1  0.498746  0.320213  0.407325  1
  Dy  Dy5  1  0.998751  0.179786  0.092678  1
  Ho  Ho6  1  0.501372  0.679865  0.907278  1
  Ho  Ho7  1  0.001377  0.820143  0.592715  1
  Er  Er8  1  0.656959  0.167688  0.622535  1
  Er  Er9  1  0.156964  0.332302  0.877450  1
  Er  Er10  1  0.343190  0.832196  0.122534  1
  Er  Er11  1  0.843170  0.667800  0.377478  1
  Er  Er12  1  0.343066  0.832279  0.377441  1
  Er  Er13  1  0.843073  0.667723  0.122565  1
  Er  Er14  1  0.656869  0.167736  0.877451  1
  Er  Er15  1  0.156852  0.332258  0.622545  1
  Er  Er16  1  0.819208  0.511696  0.750001  1
  Er  Er17  1  0.319189  0.988305  0.749992  1
  Er  Er18  1  0.180808  0.488369  0.250010  1
  Er  Er19  1  0.680785  0.011637  0.250002  1
  Pt  Pt20  1  0.683329  0.967082  0.458242  1
  Pt  Pt21  1  0.183323  0.532920  0.041760  1
  Pt  Pt22  1  0.316796  0.032683  0.958155  1
  Pt  Pt23  1  0.816784  0.467313  0.541844  1
  Pt  Pt24  1  0.316524  0.032704  0.541835  1
  Pt  Pt25  1  0.816531  0.467301  0.958166  1
  Pt  Pt26  1  0.683218  0.967057  0.041780  1
  Pt  Pt27  1  0.183231  0.532947  0.458221  1
  Pt  Pt28  1  0.454196  0.386671  0.750045  1
  Pt  Pt29  1  0.954191  0.113327  0.749954  1
  Pt  Pt30  1  0.545804  0.613428  0.249998  1
  Pt  Pt31  1  0.045801  0.886571  0.250001  1
  Pt  Pt32  1  0.682785  0.856774  0.750052  1
  Pt  Pt33  1  0.182797  0.643223  0.749949  1
  Pt  Pt34  1  0.317168  0.143110  0.250001  1
  Pt  Pt35  1  0.817163  0.356891  0.249997  1
