# generated using pymatgen
data_Li2Mg2U2TaNb5N12
_symmetry_space_group_name_H-M   'P 1'
_cell_length_a   5.31193100
_cell_length_b   5.31193059
_cell_length_c   10.74131100
_cell_angle_alpha   90.00000000
_cell_angle_beta   90.00000000
_cell_angle_gamma   119.99999635
_symmetry_Int_Tables_number   1
_chemical_formula_structural   Li2Mg2U2TaNb5N12
_chemical_formula_sum   'Li2 Mg2 U2 Ta1 Nb5 N12'
_cell_volume   262.47790750
_cell_formula_units_Z   1
loop_
 _symmetry_equiv_pos_site_id
 _symmetry_equiv_pos_as_xyz
  1  'x, y, z'
loop_
 _atom_site_type_symbol
 _atom_site_label
 _atom_site_symmetry_multiplicity
 _atom_site_fract_x
 _atom_site_fract_y
 _atom_site_fract_z
 _atom_site_occupancy
  Li  Li0  1  0.333372  0.666732  0.999876  1
  Li  Li1  1  0.333372  0.666732  0.500124  1
  Mg  Mg2  1  0.666958  0.333614  0.500126  1
  Mg  Mg3  1  0.666958  0.333614  0.999874  1
  U  U4  1  0.999004  0.000033  0.499774  1
  U  U5  1  0.999004  0.000033  0.000226  1
  Ta  Ta6  1  0.338463  0.996466  0.250000  1
  Nb  Nb7  1  0.003400  0.340952  0.250000  1
  Nb  Nb8  1  0.658938  0.996610  0.750000  1
  Nb  Nb9  1  0.337410  0.340654  0.750000  1
  Nb  Nb10  1  0.659042  0.662521  0.250000  1
  Nb  Nb11  1  0.003573  0.662768  0.750000  1
  N  N12  1  0.672743  0.667830  0.624998  1
  N  N13  1  0.672743  0.667830  0.875002  1
  N  N14  1  0.332822  0.323439  0.125912  1
  N  N15  1  0.332822  0.323439  0.374088  1
  N  N16  1  0.331904  0.004797  0.874846  1
  N  N17  1  0.331904  0.004797  0.625154  1
  N  N18  1  0.999553  0.671441  0.374257  1
  N  N19  1  0.999553  0.671441  0.125743  1
  N  N20  1  0.667963  0.004757  0.125595  1
  N  N21  1  0.667963  0.004757  0.374405  1
  N  N22  1  0.995267  0.327372  0.874989  1
  N  N23  1  0.995267  0.327372  0.625011  1
