# generated using pymatgen
data_Tb3FeCo7P6Ru
_symmetry_space_group_name_H-M   'P 1'
_cell_length_a   3.72048000
_cell_length_b   10.57705400
_cell_length_c   12.20489300
_cell_angle_alpha   90.00000000
_cell_angle_beta   90.00000000
_cell_angle_gamma   90.00000000
_symmetry_Int_Tables_number   1
_chemical_formula_structural   Tb3FeCo7P6Ru
_chemical_formula_sum   'Tb6 Fe2 Co14 P12 Ru2'
_cell_volume   480.28350592
_cell_formula_units_Z   2
loop_
 _symmetry_equiv_pos_site_id
 _symmetry_equiv_pos_as_xyz
  1  'x, y, z'
loop_
 _atom_site_type_symbol
 _atom_site_label
 _atom_site_symmetry_multiplicity
 _atom_site_fract_x
 _atom_site_fract_y
 _atom_site_fract_z
 _atom_site_occupancy
  Tb  Tb0  1  0.000000  0.500000  0.524653  1
  Tb  Tb1  1  0.500000  0.000000  0.475347  1
  Tb  Tb2  1  0.500000  0.818034  0.205282  1
  Tb  Tb3  1  0.500000  0.181966  0.205282  1
  Tb  Tb4  1  0.000000  0.681966  0.794718  1
  Tb  Tb5  1  0.000000  0.318034  0.794718  1
  Fe  Fe6  1  0.000000  0.500000  0.987878  1
  Fe  Fe7  1  0.500000  0.000000  0.012122  1
  Co  Co8  1  0.500000  0.500000  0.702323  1
  Co  Co9  1  0.000000  0.000000  0.297677  1
  Co  Co10  1  0.500000  0.331672  0.991641  1
  Co  Co11  1  0.500000  0.668328  0.991641  1
  Co  Co12  1  0.000000  0.168328  0.008359  1
  Co  Co13  1  0.000000  0.831672  0.008359  1
  Co  Co14  1  0.500000  0.296731  0.430718  1
  Co  Co15  1  0.500000  0.703269  0.430718  1
  Co  Co16  1  0.000000  0.203269  0.569282  1
  Co  Co17  1  0.000000  0.796731  0.569282  1
  Co  Co18  1  0.500000  0.879362  0.708245  1
  Co  Co19  1  0.500000  0.120638  0.708245  1
  Co  Co20  1  0.000000  0.620638  0.291755  1
  Co  Co21  1  0.000000  0.379362  0.291755  1
  P  P22  1  0.500000  0.500000  0.883551  1
  P  P23  1  0.000000  0.000000  0.116449  1
  P  P24  1  0.500000  0.500000  0.348854  1
  P  P25  1  0.000000  0.000000  0.651146  1
  P  P26  1  0.500000  0.310675  0.616279  1
  P  P27  1  0.500000  0.689325  0.616279  1
  P  P28  1  0.000000  0.189325  0.383721  1
  P  P29  1  0.000000  0.810675  0.383721  1
  P  P30  1  0.500000  0.846779  0.894972  1
  P  P31  1  0.500000  0.153221  0.894972  1
  P  P32  1  0.000000  0.653221  0.105028  1
  P  P33  1  0.000000  0.346779  0.105028  1
  Ru  Ru34  1  0.500000  0.500000  0.157727  1
  Ru  Ru35  1  0.000000  0.000000  0.842273  1
