# generated using pymatgen
data_AsPb2ClO4
_symmetry_space_group_name_H-M   'P 1'
_cell_length_a   6.77225800
_cell_length_b   7.66467400
_cell_length_c   11.70345600
_cell_angle_alpha   90.00000000
_cell_angle_beta   90.00000000
_cell_angle_gamma   90.00000000
_symmetry_Int_Tables_number   1
_chemical_formula_structural   AsPb2ClO4
_chemical_formula_sum   'As4 Pb8 Cl4 O16'
_cell_volume   607.49304393
_cell_formula_units_Z   4
loop_
 _symmetry_equiv_pos_site_id
 _symmetry_equiv_pos_as_xyz
  1  'x, y, z'
loop_
 _atom_site_type_symbol
 _atom_site_label
 _atom_site_symmetry_multiplicity
 _atom_site_fract_x
 _atom_site_fract_y
 _atom_site_fract_z
 _atom_site_occupancy
  As  As0  1  0.130472  0.250000  0.000000  1
  As  As1  1  0.869528  0.750000  0.500000  1
  As  As2  1  0.130472  0.250000  0.500000  1
  As  As3  1  0.869528  0.750000  0.000000  1
  Pb  Pb4  1  0.858319  0.974105  0.250000  1
  Pb  Pb5  1  0.141681  0.025895  0.750000  1
  Pb  Pb6  1  0.141681  0.474105  0.250000  1
  Pb  Pb7  1  0.858319  0.525895  0.750000  1
  Pb  Pb8  1  0.625155  0.250000  0.500000  1
  Pb  Pb9  1  0.625155  0.250000  0.000000  1
  Pb  Pb10  1  0.374845  0.750000  0.500000  1
  Pb  Pb11  1  0.374845  0.750000  0.000000  1
  Cl  Cl12  1  0.497262  0.702898  0.250000  1
  Cl  Cl13  1  0.502738  0.202898  0.250000  1
  Cl  Cl14  1  0.497262  0.797102  0.750000  1
  Cl  Cl15  1  0.502738  0.297102  0.750000  1
  O  O16  1  0.978804  0.267095  0.618784  1
  O  O17  1  0.284628  0.075060  0.526498  1
  O  O18  1  0.284628  0.424940  0.026498  1
  O  O19  1  0.284628  0.424940  0.473502  1
  O  O20  1  0.715372  0.575060  0.526498  1
  O  O21  1  0.021196  0.732905  0.381216  1
  O  O22  1  0.978804  0.232905  0.118784  1
  O  O23  1  0.021196  0.767095  0.618784  1
  O  O24  1  0.021196  0.732905  0.118784  1
  O  O25  1  0.021196  0.767095  0.881216  1
  O  O26  1  0.978804  0.232905  0.381216  1
  O  O27  1  0.284628  0.075060  0.973502  1
  O  O28  1  0.715372  0.924940  0.473502  1
  O  O29  1  0.715372  0.575060  0.973502  1
  O  O30  1  0.715372  0.924940  0.026498  1
  O  O31  1  0.978804  0.267095  0.881216  1
