# generated using pymatgen
data_Yb3DyEr4(B6Os)4
_symmetry_space_group_name_H-M   'P 1'
_cell_length_a   3.62887300
_cell_length_b   9.11889644
_cell_length_c   11.50530302
_cell_angle_alpha   89.92827604
_cell_angle_beta   90.00000000
_cell_angle_gamma   90.00000000
_symmetry_Int_Tables_number   1
_chemical_formula_structural   Yb3DyEr4(B6Os)4
_chemical_formula_sum   'Yb3 Dy1 Er4 B24 Os4'
_cell_volume   380.72533221
_cell_formula_units_Z   1
loop_
 _symmetry_equiv_pos_site_id
 _symmetry_equiv_pos_as_xyz
  1  'x, y, z'
loop_
 _atom_site_type_symbol
 _atom_site_label
 _atom_site_symmetry_multiplicity
 _atom_site_fract_x
 _atom_site_fract_y
 _atom_site_fract_z
 _atom_site_occupancy
  Yb  Yb0  1  0.000000  0.324545  0.414450  1
  Yb  Yb1  1  0.000000  0.675473  0.585153  1
  Yb  Yb2  1  0.000000  0.823169  0.086263  1
  Dy  Dy3  1  0.000000  0.176028  0.914796  1
  Er  Er4  1  0.000000  0.941396  0.367872  1
  Er  Er5  1  0.000000  0.057700  0.630456  1
  Er  Er6  1  0.000000  0.443284  0.131915  1
  Er  Er7  1  0.000000  0.558480  0.868862  1
  B  B8  1  0.500000  0.553208  0.433164  1
  B  B9  1  0.500000  0.446214  0.567659  1
  B  B10  1  0.500000  0.053634  0.066850  1
  B  B11  1  0.500000  0.945933  0.933410  1
  B  B12  1  0.500000  0.748508  0.417475  1
  B  B13  1  0.500000  0.251322  0.582542  1
  B  B14  1  0.500000  0.249048  0.082007  1
  B  B15  1  0.500000  0.751617  0.917958  1
  B  B16  1  0.500000  0.790854  0.264315  1
  B  B17  1  0.500000  0.208699  0.735677  1
  B  B18  1  0.500000  0.291188  0.234656  1
  B  B19  1  0.500000  0.709887  0.765096  1
  B  B20  1  0.500000  0.631097  0.186058  1
  B  B21  1  0.500000  0.368989  0.814868  1
  B  B22  1  0.500000  0.131081  0.313399  1
  B  B23  1  0.500000  0.869288  0.685426  1
  B  B24  1  0.500000  0.982720  0.210817  1
  B  B25  1  0.500000  0.017067  0.788237  1
  B  B26  1  0.500000  0.483389  0.288780  1
  B  B27  1  0.500000  0.516399  0.711986  1
  B  B28  1  0.500000  0.599246  0.027544  1
  B  B29  1  0.500000  0.400261  0.972569  1
  B  B30  1  0.500000  0.097325  0.472503  1
  B  B31  1  0.500000  0.902563  0.526471  1
  Os  Os32  1  0.000000  0.638604  0.320841  1
  Os  Os33  1  0.000000  0.360147  0.680667  1
  Os  Os34  1  0.000000  0.138557  0.178844  1
  Os  Os35  1  0.000000  0.863080  0.820416  1
