# generated using pymatgen
data_LiTbSm(PRh2)6
_symmetry_space_group_name_H-M   'P 1'
_cell_length_a   3.92785301
_cell_length_b   9.65016771
_cell_length_c   9.64926113
_cell_angle_alpha   119.99783066
_cell_angle_beta   89.99033209
_cell_angle_gamma   89.99934746
_symmetry_Int_Tables_number   1
_chemical_formula_structural   LiTbSm(PRh2)6
_chemical_formula_sum   'Li1 Tb1 Sm1 P6 Rh12'
_cell_volume   316.75557210
_cell_formula_units_Z   1
loop_
 _symmetry_equiv_pos_site_id
 _symmetry_equiv_pos_as_xyz
  1  'x, y, z'
loop_
 _atom_site_type_symbol
 _atom_site_label
 _atom_site_symmetry_multiplicity
 _atom_site_fract_x
 _atom_site_fract_y
 _atom_site_fract_z
 _atom_site_occupancy
  Li  Li0  1  0.501943  0.999991  0.999989  1
  Tb  Tb1  1  0.751147  0.333248  0.666557  1
  Sm  Sm2  1  0.248936  0.666755  0.333442  1
  P  P3  1  0.749124  0.884877  0.601893  1
  P  P4  1  0.749098  0.398183  0.282935  1
  P  P5  1  0.749023  0.717059  0.115143  1
  P  P6  1  0.250601  0.115526  0.399431  1
  P  P7  1  0.250615  0.600494  0.716146  1
  P  P8  1  0.250684  0.283839  0.884437  1
  Rh  Rh9  1  0.750392  0.127305  0.842174  1
  Rh  Rh10  1  0.750250  0.157821  0.285089  1
  Rh  Rh11  1  0.750330  0.714749  0.872594  1
  Rh  Rh12  1  0.249245  0.873035  0.157781  1
  Rh  Rh13  1  0.249396  0.842221  0.715307  1
  Rh  Rh14  1  0.249309  0.284867  0.127054  1
  Rh  Rh15  1  0.749552  0.612324  0.548934  1
  Rh  Rh16  1  0.749535  0.451059  0.063354  1
  Rh  Rh17  1  0.749496  0.936697  0.387702  1
  Rh  Rh18  1  0.250433  0.385813  0.452381  1
  Rh  Rh19  1  0.250426  0.547629  0.933479  1
  Rh  Rh20  1  0.250464  0.066506  0.614178  1
