# generated using pymatgen
data_KTmSiSe4
_symmetry_space_group_name_H-M   'P 1'
_cell_length_a   6.99071300
_cell_length_b   6.67352691
_cell_length_c   9.10051374
_cell_angle_alpha   72.42442552
_cell_angle_beta   90.00000000
_cell_angle_gamma   90.00000000
_symmetry_Int_Tables_number   1
_chemical_formula_structural   KTmSiSe4
_chemical_formula_sum   'K2 Tm2 Si2 Se8'
_cell_volume   404.74479006
_cell_formula_units_Z   2
loop_
 _symmetry_equiv_pos_site_id
 _symmetry_equiv_pos_as_xyz
  1  'x, y, z'
loop_
 _atom_site_type_symbol
 _atom_site_label
 _atom_site_symmetry_multiplicity
 _atom_site_fract_x
 _atom_site_fract_y
 _atom_site_fract_z
 _atom_site_occupancy
  K  K0  1  0.981180  0.736376  0.064372  1
  K  K1  1  0.481180  0.263624  0.935628  1
  Tm  Tm2  1  0.501410  0.230432  0.450570  1
  Tm  Tm3  1  0.001410  0.769568  0.549430  1
  Si  Si4  1  0.463507  0.779666  0.329934  1
  Si  Si5  1  0.963507  0.220334  0.670066  1
  Se  Se6  1  0.463316  0.576338  0.170445  1
  Se  Se7  1  0.229242  0.031862  0.282392  1
  Se  Se8  1  0.733362  0.984777  0.300533  1
  Se  Se9  1  0.894984  0.431118  0.426753  1
  Se  Se10  1  0.394984  0.568882  0.573247  1
  Se  Se11  1  0.233362  0.015223  0.699467  1
  Se  Se12  1  0.729242  0.968138  0.717608  1
  Se  Se13  1  0.963316  0.423662  0.829555  1
