# generated using pymatgen
data_Tm4Lu4Re(B8Os)3
_symmetry_space_group_name_H-M   'P 1'
_cell_length_a   3.61138100
_cell_length_b   9.05015166
_cell_length_c   11.42749502
_cell_angle_alpha   90.07145305
_cell_angle_beta   90.00000000
_cell_angle_gamma   90.00000000
_symmetry_Int_Tables_number   1
_chemical_formula_structural   Tm4Lu4Re(B8Os)3
_chemical_formula_sum   'Tm4 Lu4 Re1 B24 Os3'
_cell_volume   373.49076578
_cell_formula_units_Z   1
loop_
 _symmetry_equiv_pos_site_id
 _symmetry_equiv_pos_as_xyz
  1  'x, y, z'
loop_
 _atom_site_type_symbol
 _atom_site_label
 _atom_site_symmetry_multiplicity
 _atom_site_fract_x
 _atom_site_fract_y
 _atom_site_fract_z
 _atom_site_occupancy
  Tm  Tm0  1  0.000000  0.321417  0.414976  1
  Tm  Tm1  1  0.000000  0.681211  0.588299  1
  Tm  Tm2  1  0.000000  0.821690  0.083516  1
  Tm  Tm3  1  0.000000  0.177090  0.913160  1
  Lu  Lu4  1  0.000000  0.943686  0.372371  1
  Lu  Lu5  1  0.000000  0.055590  0.627429  1
  Lu  Lu6  1  0.000000  0.443263  0.127466  1
  Lu  Lu7  1  0.000000  0.556261  0.872963  1
  Re  Re8  1  0.000000  0.862256  0.820979  1
  B  B9  1  0.500000  0.553647  0.433777  1
  B  B10  1  0.500000  0.446547  0.566507  1
  B  B11  1  0.500000  0.053445  0.066837  1
  B  B12  1  0.500000  0.947302  0.933671  1
  B  B13  1  0.500000  0.749562  0.420021  1
  B  B14  1  0.500000  0.250557  0.579819  1
  B  B15  1  0.500000  0.249138  0.080147  1
  B  B16  1  0.500000  0.750332  0.919841  1
  B  B17  1  0.500000  0.791492  0.265614  1
  B  B18  1  0.500000  0.208208  0.733597  1
  B  B19  1  0.500000  0.291963  0.234352  1
  B  B20  1  0.500000  0.707437  0.765659  1
  B  B21  1  0.500000  0.630393  0.184530  1
  B  B22  1  0.500000  0.369089  0.815012  1
  B  B23  1  0.500000  0.130974  0.315618  1
  B  B24  1  0.500000  0.869426  0.684720  1
  B  B25  1  0.500000  0.981907  0.212980  1
  B  B26  1  0.500000  0.019087  0.786959  1
  B  B27  1  0.500000  0.481744  0.287415  1
  B  B28  1  0.500000  0.518234  0.712939  1
  B  B29  1  0.500000  0.603735  0.029371  1
  B  B30  1  0.500000  0.394646  0.971138  1
  B  B31  1  0.500000  0.105093  0.470655  1
  B  B32  1  0.500000  0.895504  0.528441  1
  Os  Os33  1  0.000000  0.637516  0.321032  1
  Os  Os34  1  0.000000  0.362527  0.678480  1
  Os  Os35  1  0.000000  0.138035  0.179704  1
