# generated using pymatgen
data_Cd4Bi2O9
_symmetry_space_group_name_H-M   'P 1'
_cell_length_a   5.76527966
_cell_length_b   6.11415131
_cell_length_c   12.99322682
_cell_angle_alpha   99.20059771
_cell_angle_beta   102.65251293
_cell_angle_gamma   90.69889053
_symmetry_Int_Tables_number   1
_chemical_formula_structural   Cd4Bi2O9
_chemical_formula_sum   'Cd8 Bi4 O18'
_cell_volume   440.60662050
_cell_formula_units_Z   2
loop_
 _symmetry_equiv_pos_site_id
 _symmetry_equiv_pos_as_xyz
  1  'x, y, z'
loop_
 _atom_site_type_symbol
 _atom_site_label
 _atom_site_symmetry_multiplicity
 _atom_site_fract_x
 _atom_site_fract_y
 _atom_site_fract_z
 _atom_site_occupancy
  Cd  Cd0  1  0.219052  0.467656  0.417707  1
  Cd  Cd1  1  0.618914  0.340260  0.235469  1
  Cd  Cd2  1  0.536010  0.830471  0.091717  1
  Cd  Cd3  1  0.113699  0.848228  0.238745  1
  Cd  Cd4  1  0.886301  0.151772  0.761255  1
  Cd  Cd5  1  0.463990  0.169529  0.908283  1
  Cd  Cd6  1  0.381086  0.659740  0.764531  1
  Cd  Cd7  1  0.780948  0.532344  0.582293  1
  Bi  Bi8  1  0.284515  0.971988  0.569430  1
  Bi  Bi9  1  0.943793  0.649966  0.896723  1
  Bi  Bi10  1  0.056207  0.350034  0.103277  1
  Bi  Bi11  1  0.715485  0.028012  0.430570  1
  O  O12  1  0.725774  0.899987  0.837933  1
  O  O13  1  0.412268  0.652365  0.590052  1
  O  O14  1  0.989365  0.485423  0.259773  1
  O  O15  1  0.058515  0.224049  0.505040  1
  O  O16  1  0.767002  0.975022  0.274332  1
  O  O17  1  0.282118  0.822433  0.929699  1
  O  O18  1  0.365839  0.868809  0.407156  1
  O  O19  1  0.879835  0.663977  0.057281  1
  O  O20  1  0.362067  0.581313  0.165148  1
  O  O21  1  0.637933  0.418687  0.834852  1
  O  O22  1  0.120165  0.336023  0.942719  1
  O  O23  1  0.634161  0.131191  0.592844  1
  O  O24  1  0.717882  0.177567  0.070301  1
  O  O25  1  0.232998  0.024978  0.725668  1
  O  O26  1  0.941485  0.775951  0.494960  1
  O  O27  1  0.010635  0.514577  0.740227  1
  O  O28  1  0.587732  0.347635  0.409948  1
  O  O29  1  0.274226  0.100013  0.162067  1
