# generated using pymatgen
data_In12CoIrRh2
_symmetry_space_group_name_H-M   'P 1'
_cell_length_a   7.05756105
_cell_length_b   7.05756005
_cell_length_c   7.28245200
_cell_angle_alpha   90.00000000
_cell_angle_beta   90.00000000
_cell_angle_gamma   89.85206730
_symmetry_Int_Tables_number   1
_chemical_formula_structural   In12CoIrRh2
_chemical_formula_sum   'In12 Co1 Ir1 Rh2'
_cell_volume   362.73161464
_cell_formula_units_Z   1
loop_
 _symmetry_equiv_pos_site_id
 _symmetry_equiv_pos_as_xyz
  1  'x, y, z'
loop_
 _atom_site_type_symbol
 _atom_site_label
 _atom_site_symmetry_multiplicity
 _atom_site_fract_x
 _atom_site_fract_y
 _atom_site_fract_z
 _atom_site_occupancy
  In  In0  1  0.344408  0.344408  0.251077  1
  In  In1  1  0.155490  0.852381  0.761209  1
  In  In2  1  0.155490  0.852381  0.238791  1
  In  In3  1  0.004217  0.493338  0.000000  1
  In  In4  1  0.852381  0.155490  0.238791  1
  In  In5  1  0.852381  0.155490  0.761209  1
  In  In6  1  0.493338  0.004217  0.000000  1
  In  In7  1  0.649799  0.649799  0.256094  1
  In  In8  1  0.649799  0.649799  0.743906  1
  In  In9  1  0.001469  0.497743  0.500000  1
  In  In10  1  0.344408  0.344408  0.748923  1
  In  In11  1  0.497743  0.001469  0.500000  1
  Co  Co12  1  0.155138  0.155138  0.000000  1
  Ir  Ir13  1  0.844652  0.844652  0.000000  1
  Rh  Rh14  1  0.655297  0.343990  0.500000  1
  Rh  Rh15  1  0.343990  0.655297  0.500000  1
