# generated using pymatgen
data_Ac2Ga5Ir3
_symmetry_space_group_name_H-M   'P 1'
_cell_length_a   8.83030406
_cell_length_b   8.83054340
_cell_length_c   8.83053530
_cell_angle_alpha   140.32098888
_cell_angle_beta   107.19414416
_cell_angle_gamma   86.25950442
_symmetry_Int_Tables_number   1
_chemical_formula_structural   Ac2Ga5Ir3
_chemical_formula_sum   'Ac4 Ga10 Ir6'
_cell_volume   404.85964031
_cell_formula_units_Z   2
loop_
 _symmetry_equiv_pos_site_id
 _symmetry_equiv_pos_as_xyz
  1  'x, y, z'
loop_
 _atom_site_type_symbol
 _atom_site_label
 _atom_site_symmetry_multiplicity
 _atom_site_fract_x
 _atom_site_fract_y
 _atom_site_fract_z
 _atom_site_occupancy
  Ac  Ac0  1  0.091727  0.863807  0.227916  1
  Ac  Ac1  1  0.635893  0.363808  0.272082  1
  Ac  Ac2  1  0.908273  0.136193  0.772084  1
  Ac  Ac3  1  0.364107  0.636192  0.727918  1
  Ga  Ga4  1  0.288292  0.038292  0.749995  1
  Ga  Ga5  1  0.288293  0.538298  0.250001  1
  Ga  Ga6  1  0.000000  0.250007  0.250007  1
  Ga  Ga7  1  0.244836  0.405940  0.838895  1
  Ga  Ga8  1  0.755164  0.594060  0.161105  1
  Ga  Ga9  1  0.711707  0.461702  0.749999  1
  Ga  Ga10  1  0.567044  0.905940  0.661101  1
  Ga  Ga11  1  0.711708  0.961708  0.250005  1
  Ga  Ga12  1  0.432956  0.094060  0.338899  1
  Ga  Ga13  1  0.000000  0.749993  0.749993  1
  Ir  Ir14  1  0.042888  0.644606  0.398283  1
  Ir  Ir15  1  0.753678  0.855397  0.898280  1
  Ir  Ir16  1  0.957112  0.355394  0.601717  1
  Ir  Ir17  1  0.246322  0.144603  0.101720  1
  Ir  Ir18  1  0.500001  0.749997  0.249996  1
  Ir  Ir19  1  0.499999  0.250003  0.750004  1
