# generated using pymatgen
data_PrTh3CdHgPd4
_symmetry_space_group_name_H-M   'P 1'
_cell_length_a   7.95232954
_cell_length_b   7.95362028
_cell_length_c   3.83861000
_cell_angle_alpha   90.00000000
_cell_angle_beta   90.00000000
_cell_angle_gamma   88.80986163
_symmetry_Int_Tables_number   1
_chemical_formula_structural   PrTh3CdHgPd4
_chemical_formula_sum   'Pr1 Th3 Cd1 Hg1 Pd4'
_cell_volume   242.73897450
_cell_formula_units_Z   1
loop_
 _symmetry_equiv_pos_site_id
 _symmetry_equiv_pos_as_xyz
  1  'x, y, z'
loop_
 _atom_site_type_symbol
 _atom_site_label
 _atom_site_symmetry_multiplicity
 _atom_site_fract_x
 _atom_site_fract_y
 _atom_site_fract_z
 _atom_site_occupancy
  Pr  Pr0  1  0.676286  0.174702  0.500000  1
  Th  Th1  1  0.325893  0.826953  0.500000  1
  Th  Th2  1  0.825812  0.674593  0.500000  1
  Th  Th3  1  0.173216  0.324732  0.500000  1
  Cd  Cd4  1  0.500027  0.497389  0.000000  1
  Hg  Hg5  1  0.996971  0.000017  0.000000  1
  Pd  Pd6  1  0.365755  0.124363  0.000000  1
  Pd  Pd7  1  0.881243  0.383191  0.000000  1
  Pd  Pd8  1  0.132492  0.630268  0.000000  1
  Pd  Pd9  1  0.622308  0.863794  0.000000  1
