# generated using pymatgen
data_Ti2CdHgBi2(SbO7)2
_symmetry_space_group_name_H-M   'P 1'
_cell_length_a   7.37455060
_cell_length_b   7.37455107
_cell_length_c   7.37455000
_cell_angle_alpha   121.00508881
_cell_angle_beta   118.89396200
_cell_angle_gamma   90.09716538
_symmetry_Int_Tables_number   1
_chemical_formula_structural   Ti2CdHgBi2(SbO7)2
_chemical_formula_sum   'Ti2 Cd1 Hg1 Bi2 Sb2 O14'
_cell_volume   283.68622049
_cell_formula_units_Z   1
loop_
 _symmetry_equiv_pos_site_id
 _symmetry_equiv_pos_as_xyz
  1  'x, y, z'
loop_
 _atom_site_type_symbol
 _atom_site_label
 _atom_site_symmetry_multiplicity
 _atom_site_fract_x
 _atom_site_fract_y
 _atom_site_fract_z
 _atom_site_occupancy
  Ti  Ti0  1  0.500000  0.500000  0.500000  1
  Ti  Ti1  1  0.500000  0.000000  0.000000  1
  Cd  Cd2  1  0.000000  0.000000  0.500000  1
  Hg  Hg3  1  0.000000  0.500000  0.000000  1
  Bi  Bi4  1  0.000000  0.000000  0.000000  1
  Bi  Bi5  1  0.500000  0.000000  0.500000  1
  Sb  Sb6  1  0.500000  0.500000  0.000000  1
  Sb  Sb7  1  0.000000  0.500000  0.500000  1
  O  O8  1  0.118050  0.867186  0.249136  1
  O  O9  1  0.881950  0.132814  0.750864  1
  O  O10  1  0.430776  0.180289  0.249512  1
  O  O11  1  0.825656  0.581627  0.255972  1
  O  O12  1  0.438974  0.581611  0.262930  1
  O  O13  1  0.819842  0.174483  0.240345  1
  O  O14  1  0.434139  0.174483  0.854641  1
  O  O15  1  0.818681  0.581610  0.642636  1
  O  O16  1  0.569224  0.819711  0.750488  1
  O  O17  1  0.174344  0.418373  0.744028  1
  O  O18  1  0.561026  0.418389  0.737070  1
  O  O19  1  0.180158  0.825517  0.759655  1
  O  O20  1  0.565861  0.825517  0.145359  1
  O  O21  1  0.181319  0.418390  0.357364  1
