# generated using pymatgen
data_Ce2BeSi3
_symmetry_space_group_name_H-M   'P 1'
_cell_length_a   7.89115400
_cell_length_b   7.89115415
_cell_length_c   4.22980600
_cell_angle_alpha   90.00000000
_cell_angle_beta   90.00000000
_cell_angle_gamma   119.99999938
_symmetry_Int_Tables_number   1
_chemical_formula_structural   Ce2BeSi3
_chemical_formula_sum   'Ce4 Be2 Si6'
_cell_volume   228.10359468
_cell_formula_units_Z   2
loop_
 _symmetry_equiv_pos_site_id
 _symmetry_equiv_pos_as_xyz
  1  'x, y, z'
loop_
 _atom_site_type_symbol
 _atom_site_label
 _atom_site_symmetry_multiplicity
 _atom_site_fract_x
 _atom_site_fract_y
 _atom_site_fract_z
 _atom_site_occupancy
  Ce  Ce0  1  0.500000  0.500000  0.000000  1
  Ce  Ce1  1  0.000000  0.500000  0.000000  1
  Ce  Ce2  1  0.500000  0.000000  0.000000  1
  Ce  Ce3  1  0.000000  0.000000  0.000000  1
  Be  Be4  1  0.333333  0.666667  0.500000  1
  Be  Be5  1  0.666667  0.333333  0.500000  1
  Si  Si6  1  0.827461  0.654921  0.500000  1
  Si  Si7  1  0.172539  0.827461  0.500000  1
  Si  Si8  1  0.654921  0.827461  0.500000  1
  Si  Si9  1  0.172539  0.345079  0.500000  1
  Si  Si10  1  0.827461  0.172539  0.500000  1
  Si  Si11  1  0.345079  0.172539  0.500000  1
