# generated using pymatgen
data_ScIn(Pd2Au)2
_symmetry_space_group_name_H-M   'P 1'
_cell_length_a   5.86044800
_cell_length_b   5.85991100
_cell_length_c   7.70252000
_cell_angle_alpha   90.00000000
_cell_angle_beta   89.99968715
_cell_angle_gamma   90.00000000
_symmetry_Int_Tables_number   1
_chemical_formula_structural   ScIn(Pd2Au)2
_chemical_formula_sum   'Sc2 In2 Pd8 Au4'
_cell_volume   264.51765958
_cell_formula_units_Z   2
loop_
 _symmetry_equiv_pos_site_id
 _symmetry_equiv_pos_as_xyz
  1  'x, y, z'
loop_
 _atom_site_type_symbol
 _atom_site_label
 _atom_site_symmetry_multiplicity
 _atom_site_fract_x
 _atom_site_fract_y
 _atom_site_fract_z
 _atom_site_occupancy
  Sc  Sc0  1  0.250080  0.249990  0.999998  1
  Sc  Sc1  1  0.749920  0.750011  0.000002  1
  In  In2  1  0.249839  0.250048  0.499987  1
  In  In3  1  0.750161  0.749953  0.500013  1
  Pd  Pd4  1  0.000006  0.999998  0.247063  1
  Pd  Pd5  1  0.000003  0.500003  0.247001  1
  Pd  Pd6  1  0.499993  0.000007  0.247271  1
  Pd  Pd7  1  0.499992  0.499992  0.247143  1
  Pd  Pd8  1  0.500007  0.999993  0.752728  1
  Pd  Pd9  1  0.500008  0.500009  0.752856  1
  Pd  Pd10  1  0.999994  0.000002  0.752937  1
  Pd  Pd11  1  0.999997  0.499998  0.752999  1
  Au  Au12  1  0.749994  0.250210  0.000001  1
  Au  Au13  1  0.250006  0.749791  0.999999  1
  Au  Au14  1  0.749992  0.250187  0.499999  1
  Au  Au15  1  0.250008  0.749814  0.500001  1
