# generated using pymatgen
data_NdHfB6Ru
_symmetry_space_group_name_H-M   'P 1'
_cell_length_a   3.60493700
_cell_length_b   9.10896800
_cell_length_c   11.51182500
_cell_angle_alpha   90.00000000
_cell_angle_beta   90.00000000
_cell_angle_gamma   90.00000000
_symmetry_Int_Tables_number   1
_chemical_formula_structural   NdHfB6Ru
_chemical_formula_sum   'Nd4 Hf4 B24 Ru4'
_cell_volume   378.01674196
_cell_formula_units_Z   4
loop_
 _symmetry_equiv_pos_site_id
 _symmetry_equiv_pos_as_xyz
  1  'x, y, z'
loop_
 _atom_site_type_symbol
 _atom_site_label
 _atom_site_symmetry_multiplicity
 _atom_site_fract_x
 _atom_site_fract_y
 _atom_site_fract_z
 _atom_site_occupancy
  Nd  Nd0  1  0.000000  0.322963  0.414290  1
  Nd  Nd1  1  0.000000  0.677037  0.585710  1
  Nd  Nd2  1  0.000000  0.822963  0.085710  1
  Nd  Nd3  1  0.000000  0.177037  0.914290  1
  Hf  Hf4  1  0.000000  0.945390  0.373972  1
  Hf  Hf5  1  0.000000  0.054610  0.626028  1
  Hf  Hf6  1  0.000000  0.445390  0.126028  1
  Hf  Hf7  1  0.000000  0.554610  0.873972  1
  B  B8  1  0.500000  0.556401  0.430311  1
  B  B9  1  0.500000  0.443599  0.569689  1
  B  B10  1  0.500000  0.056401  0.069689  1
  B  B11  1  0.500000  0.943599  0.930311  1
  B  B12  1  0.500000  0.754358  0.416193  1
  B  B13  1  0.500000  0.245642  0.583807  1
  B  B14  1  0.500000  0.254358  0.083807  1
  B  B15  1  0.500000  0.745642  0.916193  1
  B  B16  1  0.500000  0.795639  0.265284  1
  B  B17  1  0.500000  0.204361  0.734716  1
  B  B18  1  0.500000  0.295639  0.234716  1
  B  B19  1  0.500000  0.704361  0.765284  1
  B  B20  1  0.500000  0.629123  0.182868  1
  B  B21  1  0.500000  0.370877  0.817132  1
  B  B22  1  0.500000  0.129123  0.317132  1
  B  B23  1  0.500000  0.870877  0.682868  1
  B  B24  1  0.500000  0.983839  0.214752  1
  B  B25  1  0.500000  0.016161  0.785248  1
  B  B26  1  0.500000  0.483839  0.285248  1
  B  B27  1  0.500000  0.516161  0.714752  1
  B  B28  1  0.500000  0.598528  0.026074  1
  B  B29  1  0.500000  0.401472  0.973926  1
  B  B30  1  0.500000  0.098528  0.473926  1
  B  B31  1  0.500000  0.901472  0.526074  1
  Ru  Ru32  1  0.000000  0.643445  0.316037  1
  Ru  Ru33  1  0.000000  0.356555  0.683963  1
  Ru  Ru34  1  0.000000  0.143445  0.183963  1
  Ru  Ru35  1  0.000000  0.856555  0.816037  1
