# generated using pymatgen
data_Tb3Dy7Si5As
_symmetry_space_group_name_H-M   'P 1'
_cell_length_a   8.46649437
_cell_length_b   8.49041106
_cell_length_c   6.34532600
_cell_angle_alpha   90.00000000
_cell_angle_beta   90.00000000
_cell_angle_gamma   119.94054295
_symmetry_Int_Tables_number   1
_chemical_formula_structural   Tb3Dy7Si5As
_chemical_formula_sum   'Tb3 Dy7 Si5 As1'
_cell_volume   395.25447754
_cell_formula_units_Z   1
loop_
 _symmetry_equiv_pos_site_id
 _symmetry_equiv_pos_as_xyz
  1  'x, y, z'
loop_
 _atom_site_type_symbol
 _atom_site_label
 _atom_site_symmetry_multiplicity
 _atom_site_fract_x
 _atom_site_fract_y
 _atom_site_fract_z
 _atom_site_occupancy
  Tb  Tb0  1  0.757849  0.999957  0.750000  1
  Tb  Tb1  1  0.243319  0.246685  0.750000  1
  Tb  Tb2  1  0.243338  0.999911  0.250000  1
  Dy  Dy3  1  0.996555  0.753147  0.750000  1
  Dy  Dy4  1  0.000154  0.244512  0.250000  1
  Dy  Dy5  1  0.755841  0.755606  0.250000  1
  Dy  Dy6  1  0.332977  0.663934  0.498763  1
  Dy  Dy7  1  0.669169  0.336145  0.001231  1
  Dy  Dy8  1  0.669169  0.336145  0.498769  1
  Dy  Dy9  1  0.332977  0.663934  0.001237  1
  Si  Si10  1  0.393802  0.393129  0.250000  1
  Si  Si11  1  0.000661  0.606823  0.250000  1
  Si  Si12  1  0.999816  0.393986  0.750000  1
  Si  Si13  1  0.606427  0.606374  0.750000  1
  Si  Si14  1  0.607452  0.999983  0.250000  1
  As  As15  1  0.390492  0.999728  0.750000  1
