# generated using pymatgen
data_Sm3InPt3Pb2
_symmetry_space_group_name_H-M   'P 1'
_cell_length_a   7.79695700
_cell_length_b   7.86987678
_cell_length_c   3.99377400
_cell_angle_alpha   90.00000000
_cell_angle_beta   90.00000000
_cell_angle_gamma   119.69395992
_symmetry_Int_Tables_number   1
_chemical_formula_structural   Sm3InPt3Pb2
_chemical_formula_sum   'Sm3 In1 Pt3 Pb2'
_cell_volume   212.88166087
_cell_formula_units_Z   1
loop_
 _symmetry_equiv_pos_site_id
 _symmetry_equiv_pos_as_xyz
  1  'x, y, z'
loop_
 _atom_site_type_symbol
 _atom_site_label
 _atom_site_symmetry_multiplicity
 _atom_site_fract_x
 _atom_site_fract_y
 _atom_site_fract_z
 _atom_site_occupancy
  Sm  Sm0  1  0.406454  0.401360  0.000000  1
  Sm  Sm1  1  0.590021  0.000000  0.000000  1
  Sm  Sm2  1  0.005094  0.598640  0.000000  1
  In  In3  1  0.259552  0.000000  0.500000  1
  Pt  Pt4  1  0.330574  0.674305  0.500000  1
  Pt  Pt5  1  0.007576  0.000000  0.000000  1
  Pt  Pt6  1  0.656271  0.325695  0.500000  1
  Pb  Pb7  1  0.002714  0.260971  0.500000  1
  Pb  Pb8  1  0.741743  0.739029  0.500000  1
