# generated using pymatgen
data_Nd5SbMoO12
_symmetry_space_group_name_H-M   'P 1'
_cell_length_a   7.12995606
_cell_length_b   7.12995605
_cell_length_c   7.64042100
_cell_angle_alpha   74.50681200
_cell_angle_beta   74.50680368
_cell_angle_gamma   51.06512073
_symmetry_Int_Tables_number   1
_chemical_formula_structural   Nd5SbMoO12
_chemical_formula_sum   'Nd5 Sb1 Mo1 O12'
_cell_volume   288.58703485
_cell_formula_units_Z   1
loop_
 _symmetry_equiv_pos_site_id
 _symmetry_equiv_pos_as_xyz
  1  'x, y, z'
loop_
 _atom_site_type_symbol
 _atom_site_label
 _atom_site_symmetry_multiplicity
 _atom_site_fract_x
 _atom_site_fract_y
 _atom_site_fract_z
 _atom_site_occupancy
  Nd  Nd0  1  0.298793  0.304271  0.361594  1
  Nd  Nd1  1  0.695729  0.701207  0.638406  1
  Nd  Nd2  1  0.305253  0.302612  0.832481  1
  Nd  Nd3  1  0.697388  0.694747  0.167519  1
  Nd  Nd4  1  0.995895  0.004105  0.500000  1
  Sb  Sb5  1  0.755339  0.244661  0.000000  1
  Mo  Mo6  1  0.245431  0.754569  0.000000  1
  O  O7  1  0.898038  0.424551  0.918023  1
  O  O8  1  0.430876  0.896601  0.918178  1
  O  O9  1  0.103399  0.569124  0.081822  1
  O  O10  1  0.575449  0.101962  0.081977  1
  O  O11  1  0.094238  0.597951  0.576823  1
  O  O12  1  0.595850  0.096970  0.574677  1
  O  O13  1  0.903030  0.404150  0.425323  1
  O  O14  1  0.402049  0.905762  0.423177  1
  O  O15  1  0.992386  0.007797  0.819899  1
  O  O16  1  0.992203  0.007614  0.180101  1
  O  O17  1  0.508262  0.489605  0.820263  1
  O  O18  1  0.510395  0.491738  0.179737  1
