# generated using pymatgen
data_Sr2AsIO4
_symmetry_space_group_name_H-M   'P 1'
_cell_length_a   6.68096500
_cell_length_b   7.65344200
_cell_length_c   11.92321200
_cell_angle_alpha   90.00000000
_cell_angle_beta   90.00000000
_cell_angle_gamma   90.00000000
_symmetry_Int_Tables_number   1
_chemical_formula_structural   Sr2AsIO4
_chemical_formula_sum   'Sr8 As4 I4 O16'
_cell_volume   609.66218453
_cell_formula_units_Z   4
loop_
 _symmetry_equiv_pos_site_id
 _symmetry_equiv_pos_as_xyz
  1  'x, y, z'
loop_
 _atom_site_type_symbol
 _atom_site_label
 _atom_site_symmetry_multiplicity
 _atom_site_fract_x
 _atom_site_fract_y
 _atom_site_fract_z
 _atom_site_occupancy
  Sr  Sr0  1  0.620984  0.250000  0.000000  1
  Sr  Sr1  1  0.379016  0.750000  0.000000  1
  Sr  Sr2  1  0.379016  0.750000  0.500000  1
  Sr  Sr3  1  0.620984  0.250000  0.500000  1
  Sr  Sr4  1  0.098888  0.029197  0.250000  1
  Sr  Sr5  1  0.901112  0.970803  0.750000  1
  Sr  Sr6  1  0.901112  0.529197  0.250000  1
  Sr  Sr7  1  0.098888  0.470803  0.750000  1
  As  As8  1  0.119525  0.250000  0.000000  1
  As  As9  1  0.880475  0.750000  0.000000  1
  As  As10  1  0.880475  0.750000  0.500000  1
  As  As11  1  0.119525  0.250000  0.500000  1
  I  I12  1  0.418442  0.407565  0.250000  1
  I  I13  1  0.581558  0.592435  0.750000  1
  I  I14  1  0.581558  0.907565  0.250000  1
  I  I15  1  0.418442  0.092435  0.750000  1
  O  O16  1  0.040298  0.767449  0.114972  1
  O  O17  1  0.959702  0.232551  0.885028  1
  O  O18  1  0.959702  0.232551  0.614972  1
  O  O19  1  0.959702  0.267449  0.385028  1
  O  O20  1  0.040298  0.767449  0.385028  1
  O  O21  1  0.040298  0.732551  0.614972  1
  O  O22  1  0.040298  0.732551  0.885028  1
  O  O23  1  0.959702  0.267449  0.114972  1
  O  O24  1  0.274399  0.077051  0.031438  1
  O  O25  1  0.725601  0.922949  0.968562  1
  O  O26  1  0.725601  0.922949  0.531438  1
  O  O27  1  0.725601  0.577051  0.468562  1
  O  O28  1  0.274399  0.077051  0.468562  1
  O  O29  1  0.274399  0.422949  0.531438  1
  O  O30  1  0.274399  0.422949  0.968562  1
  O  O31  1  0.725601  0.577051  0.031438  1
