# generated using pymatgen
data_Dy5Lu11(In3Tc)2
_symmetry_space_group_name_H-M   'P 1'
_cell_length_a   10.23572261
_cell_length_b   10.23661716
_cell_length_c   6.99344800
_cell_angle_alpha   90.20741367
_cell_angle_beta   89.79175094
_cell_angle_gamma   120.01735011
_symmetry_Int_Tables_number   1
_chemical_formula_structural   Dy5Lu11(In3Tc)2
_chemical_formula_sum   'Dy5 Lu11 In6 Tc2'
_cell_volume   634.47890462
_cell_formula_units_Z   1
loop_
 _symmetry_equiv_pos_site_id
 _symmetry_equiv_pos_as_xyz
  1  'x, y, z'
loop_
 _atom_site_type_symbol
 _atom_site_label
 _atom_site_symmetry_multiplicity
 _atom_site_fract_x
 _atom_site_fract_y
 _atom_site_fract_z
 _atom_site_occupancy
  Dy  Dy0  1  0.530958  0.061581  0.525151  1
  Dy  Dy1  1  0.938446  0.469052  0.525146  1
  Dy  Dy2  1  0.530750  0.469256  0.526302  1
  Dy  Dy3  1  0.469032  0.937467  0.025906  1
  Dy  Dy4  1  0.062517  0.530969  0.025900  1
  Lu  Lu5  1  0.468310  0.531706  0.026411  1
  Lu  Lu6  1  0.177948  0.354706  0.727818  1
  Lu  Lu7  1  0.645306  0.822071  0.727873  1
  Lu  Lu8  1  0.177000  0.823009  0.727174  1
  Lu  Lu9  1  0.822068  0.645696  0.226318  1
  Lu  Lu10  1  0.354279  0.177912  0.226314  1
  Lu  Lu11  1  0.823239  0.176764  0.226534  1
  Lu  Lu12  1  0.666067  0.333929  0.904232  1
  Lu  Lu13  1  0.333604  0.666363  0.402572  1
  Lu  Lu14  1  0.999997  0.000039  0.504535  1
  Lu  Lu15  1  0.999968  0.000032  0.004621  1
  In  In16  1  0.836264  0.673182  0.770774  1
  In  In17  1  0.326810  0.163722  0.770757  1
  In  In18  1  0.836660  0.163341  0.771573  1
  In  In19  1  0.164143  0.327205  0.270824  1
  In  In20  1  0.672801  0.835871  0.270808  1
  In  In21  1  0.163405  0.836581  0.270845  1
  Tc  Tc22  1  0.666740  0.333280  0.298772  1
  Tc  Tc23  1  0.333686  0.666262  0.798516  1
