# generated using pymatgen
data_Pt(SCl6)2
_symmetry_space_group_name_H-M   'P 1'
_cell_length_a   8.43913338
_cell_length_b   8.43913418
_cell_length_c   8.43913401
_cell_angle_alpha   78.71941739
_cell_angle_beta   78.71941993
_cell_angle_gamma   78.71941375
_symmetry_Int_Tables_number   1
_chemical_formula_structural   Pt(SCl6)2
_chemical_formula_sum   'Pt1 S2 Cl12'
_cell_volume   570.23953968
_cell_formula_units_Z   1
loop_
 _symmetry_equiv_pos_site_id
 _symmetry_equiv_pos_as_xyz
  1  'x, y, z'
loop_
 _atom_site_type_symbol
 _atom_site_label
 _atom_site_symmetry_multiplicity
 _atom_site_fract_x
 _atom_site_fract_y
 _atom_site_fract_z
 _atom_site_occupancy
  Pt  Pt0  1  0.000000  0.000000  0.000000  1
  S  S1  1  0.208446  0.208446  0.208446  1
  S  S2  1  0.791554  0.791554  0.791554  1
  Cl  Cl3  1  0.835099  0.835099  0.541238  1
  Cl  Cl4  1  0.873549  0.182437  0.182437  1
  Cl  Cl5  1  0.182437  0.182437  0.873549  1
  Cl  Cl6  1  0.182437  0.873549  0.182437  1
  Cl  Cl7  1  0.817563  0.126451  0.817563  1
  Cl  Cl8  1  0.126451  0.817563  0.817563  1
  Cl  Cl9  1  0.817563  0.817563  0.126451  1
  Cl  Cl10  1  0.458762  0.164901  0.164901  1
  Cl  Cl11  1  0.164901  0.164901  0.458762  1
  Cl  Cl12  1  0.164901  0.458762  0.164901  1
  Cl  Cl13  1  0.835099  0.541238  0.835099  1
  Cl  Cl14  1  0.541238  0.835099  0.835099  1
