# generated using pymatgen
data_TmZr2PtF15
_symmetry_space_group_name_H-M   'P 1'
_cell_length_a   8.09936940
_cell_length_b   8.09936864
_cell_length_c   8.09850295
_cell_angle_alpha   79.93174809
_cell_angle_beta   79.93174507
_cell_angle_gamma   100.11090998
_symmetry_Int_Tables_number   1
_chemical_formula_structural   TmZr2PtF15
_chemical_formula_sum   'Tm2 Zr4 Pt2 F30'
_cell_volume   503.24795977
_cell_formula_units_Z   2
loop_
 _symmetry_equiv_pos_site_id
 _symmetry_equiv_pos_as_xyz
  1  'x, y, z'
loop_
 _atom_site_type_symbol
 _atom_site_label
 _atom_site_symmetry_multiplicity
 _atom_site_fract_x
 _atom_site_fract_y
 _atom_site_fract_z
 _atom_site_occupancy
  Tm  Tm0  1  0.677149  0.322851  0.750000  1
  Tm  Tm1  1  0.322851  0.677149  0.250000  1
  Zr  Zr2  1  0.823337  0.749550  0.326945  1
  Zr  Zr3  1  0.250450  0.176663  0.173055  1
  Zr  Zr4  1  0.176663  0.250450  0.673055  1
  Zr  Zr5  1  0.749550  0.823337  0.826945  1
  Pt  Pt6  1  0.249776  0.750224  0.750000  1
  Pt  Pt7  1  0.750224  0.249776  0.250000  1
  F  F8  1  0.149935  0.185887  0.945992  1
  F  F9  1  0.687933  0.562586  0.847373  1
  F  F10  1  0.042865  0.653230  0.314665  1
  F  F11  1  0.653230  0.042865  0.814665  1
  F  F12  1  0.562586  0.687933  0.347373  1
  F  F13  1  0.185887  0.149935  0.445992  1
  F  F14  1  0.850065  0.814113  0.054008  1
  F  F15  1  0.312067  0.437414  0.152627  1
  F  F16  1  0.957135  0.346770  0.685335  1
  F  F17  1  0.346770  0.957135  0.185335  1
  F  F18  1  0.437414  0.312067  0.652627  1
  F  F19  1  0.814113  0.850065  0.554008  1
  F  F20  1  0.967779  0.032221  0.750000  1
  F  F21  1  0.541159  0.752253  0.029615  1
  F  F22  1  0.247747  0.458841  0.470385  1
  F  F23  1  0.458841  0.247747  0.970385  1
  F  F24  1  0.752253  0.541159  0.529615  1
  F  F25  1  0.032221  0.967779  0.250000  1
  F  F26  1  0.214263  0.726680  0.000565  1
  F  F27  1  0.226783  0.498627  0.787983  1
  F  F28  1  0.997427  0.714494  0.774430  1
  F  F29  1  0.714494  0.997427  0.274430  1
  F  F30  1  0.498627  0.226783  0.287983  1
  F  F31  1  0.726680  0.214263  0.500565  1
  F  F32  1  0.785737  0.273320  0.999435  1
  F  F33  1  0.773217  0.501373  0.212017  1
  F  F34  1  0.002573  0.285506  0.225570  1
  F  F35  1  0.285506  0.002573  0.725570  1
  F  F36  1  0.501373  0.773217  0.712017  1
  F  F37  1  0.273320  0.785737  0.499435  1
