# generated using pymatgen
data_Dy2MnBe2Rh5
_symmetry_space_group_name_H-M   'P 1'
_cell_length_a   9.61570100
_cell_length_b   9.61570100
_cell_length_c   3.24730900
_cell_angle_alpha   90.00000000
_cell_angle_beta   90.00000000
_cell_angle_gamma   90.00000000
_symmetry_Int_Tables_number   1
_chemical_formula_structural   Dy2MnBe2Rh5
_chemical_formula_sum   'Dy4 Mn2 Be4 Rh10'
_cell_volume   300.25172914
_cell_formula_units_Z   2
loop_
 _symmetry_equiv_pos_site_id
 _symmetry_equiv_pos_as_xyz
  1  'x, y, z'
loop_
 _atom_site_type_symbol
 _atom_site_label
 _atom_site_symmetry_multiplicity
 _atom_site_fract_x
 _atom_site_fract_y
 _atom_site_fract_z
 _atom_site_occupancy
  Dy  Dy0  1  0.823971  0.323971  0.000000  1
  Dy  Dy1  1  0.323971  0.176029  0.000000  1
  Dy  Dy2  1  0.676029  0.823971  0.000000  1
  Dy  Dy3  1  0.176029  0.676029  0.000000  1
  Mn  Mn4  1  0.000000  0.000000  0.000000  1
  Mn  Mn5  1  0.500000  0.500000  0.000000  1
  Be  Be6  1  0.622612  0.122612  0.000000  1
  Be  Be7  1  0.122612  0.377388  0.000000  1
  Be  Be8  1  0.877388  0.622612  0.000000  1
  Be  Be9  1  0.377388  0.877388  0.000000  1
  Rh  Rh10  1  0.068763  0.212232  0.500000  1
  Rh  Rh11  1  0.212232  0.931237  0.500000  1
  Rh  Rh12  1  0.787768  0.068763  0.500000  1
  Rh  Rh13  1  0.931237  0.787768  0.500000  1
  Rh  Rh14  1  0.431237  0.712232  0.500000  1
  Rh  Rh15  1  0.568763  0.287768  0.500000  1
  Rh  Rh16  1  0.712232  0.568763  0.500000  1
  Rh  Rh17  1  0.287768  0.431237  0.500000  1
  Rh  Rh18  1  0.500000  0.000000  0.500000  1
  Rh  Rh19  1  0.000000  0.500000  0.500000  1
