# generated using pymatgen
data_SmPuF7
_symmetry_space_group_name_H-M   'P 1'
_cell_length_a   5.96791800
_cell_length_b   9.40861945
_cell_length_c   12.75932977
_cell_angle_alpha   62.70360104
_cell_angle_beta   90.00000000
_cell_angle_gamma   90.00000000
_symmetry_Int_Tables_number   1
_chemical_formula_structural   SmPuF7
_chemical_formula_sum   'Sm4 Pu4 F28'
_cell_volume   636.65687106
_cell_formula_units_Z   4
loop_
 _symmetry_equiv_pos_site_id
 _symmetry_equiv_pos_as_xyz
  1  'x, y, z'
loop_
 _atom_site_type_symbol
 _atom_site_label
 _atom_site_symmetry_multiplicity
 _atom_site_fract_x
 _atom_site_fract_y
 _atom_site_fract_z
 _atom_site_occupancy
  Sm  Sm0  1  0.743933  0.816458  0.266546  1
  Sm  Sm1  1  0.243933  0.183542  0.233454  1
  Sm  Sm2  1  0.256067  0.183542  0.733454  1
  Sm  Sm3  1  0.756067  0.816458  0.766546  1
  Pu  Pu4  1  0.744988  0.273636  0.455447  1
  Pu  Pu5  1  0.244988  0.726364  0.044553  1
  Pu  Pu6  1  0.255012  0.726364  0.544553  1
  Pu  Pu7  1  0.755012  0.273636  0.955447  1
  F  F8  1  0.472305  0.712542  0.917726  1
  F  F9  1  0.972305  0.287458  0.582274  1
  F  F10  1  0.527695  0.287458  0.082274  1
  F  F11  1  0.027695  0.712542  0.417726  1
  F  F12  1  0.450280  0.280264  0.553314  1
  F  F13  1  0.950280  0.719736  0.946686  1
  F  F14  1  0.549720  0.719736  0.446686  1
  F  F15  1  0.049720  0.280264  0.053314  1
  F  F16  1  0.765925  0.529510  0.855324  1
  F  F17  1  0.265925  0.470490  0.644676  1
  F  F18  1  0.234075  0.470490  0.144676  1
  F  F19  1  0.734075  0.529510  0.355324  1
  F  F20  1  0.759015  0.018423  0.060236  1
  F  F21  1  0.259015  0.981577  0.439764  1
  F  F22  1  0.240985  0.981577  0.939764  1
  F  F23  1  0.740985  0.018423  0.560236  1
  F  F24  1  0.979277  0.734927  0.651684  1
  F  F25  1  0.479277  0.265073  0.848316  1
  F  F26  1  0.020723  0.265073  0.348316  1
  F  F27  1  0.520723  0.734927  0.151684  1
  F  F28  1  0.029453  0.747213  0.173878  1
  F  F29  1  0.529453  0.252787  0.326122  1
  F  F30  1  0.970547  0.252787  0.826122  1
  F  F31  1  0.470547  0.747213  0.673878  1
  F  F32  1  0.433542  0.973229  0.237326  1
  F  F33  1  0.933542  0.026771  0.262674  1
  F  F34  1  0.566458  0.026771  0.762674  1
  F  F35  1  0.066458  0.973229  0.737326  1
