# generated using pymatgen
data_DyTm2Zn2In3Ru
_symmetry_space_group_name_H-M   'P 1'
_cell_length_a   7.69992200
_cell_length_b   7.68648006
_cell_length_c   3.86223100
_cell_angle_alpha   90.00000000
_cell_angle_beta   90.00000000
_cell_angle_gamma   119.85527777
_symmetry_Int_Tables_number   1
_chemical_formula_structural   DyTm2Zn2In3Ru
_chemical_formula_sum   'Dy1 Tm2 Zn2 In3 Ru1'
_cell_volume   198.25045909
_cell_formula_units_Z   1
loop_
 _symmetry_equiv_pos_site_id
 _symmetry_equiv_pos_as_xyz
  1  'x, y, z'
loop_
 _atom_site_type_symbol
 _atom_site_label
 _atom_site_symmetry_multiplicity
 _atom_site_fract_x
 _atom_site_fract_y
 _atom_site_fract_z
 _atom_site_occupancy
  Dy  Dy0  1  0.027213  0.418265  0.000000  1
  Tm  Tm1  1  0.580145  0.610877  0.000000  1
  Tm  Tm2  1  0.389819  0.969454  0.000000  1
  Zn  Zn3  1  0.999988  0.999453  0.000000  1
  Zn  Zn4  1  0.665324  0.332856  0.500000  1
  In  In5  1  0.997824  0.735467  0.500000  1
  In  In6  1  0.266555  0.262812  0.500000  1
  In  In7  1  0.736841  0.002333  0.500000  1
  Ru  Ru8  1  0.336291  0.668484  0.500000  1
