# generated using pymatgen
data_La5Sn2Os
_symmetry_space_group_name_H-M   'P 1'
_cell_length_a   8.36838100
_cell_length_b   9.32824200
_cell_length_c   12.94722600
_cell_angle_alpha   90.00000000
_cell_angle_beta   90.00000000
_cell_angle_gamma   90.00000000
_symmetry_Int_Tables_number   1
_chemical_formula_structural   La5Sn2Os
_chemical_formula_sum   'La20 Sn8 Os4'
_cell_volume   1010.69002158
_cell_formula_units_Z   4
loop_
 _symmetry_equiv_pos_site_id
 _symmetry_equiv_pos_as_xyz
  1  'x, y, z'
loop_
 _atom_site_type_symbol
 _atom_site_label
 _atom_site_symmetry_multiplicity
 _atom_site_fract_x
 _atom_site_fract_y
 _atom_site_fract_z
 _atom_site_occupancy
  La  La0  1  0.345557  0.750000  0.707861  1
  La  La1  1  0.654443  0.250000  0.292139  1
  La  La2  1  0.845557  0.250000  0.792139  1
  La  La3  1  0.154443  0.750000  0.207861  1
  La  La4  1  0.877633  0.750000  0.802841  1
  La  La5  1  0.122367  0.250000  0.197159  1
  La  La6  1  0.377633  0.250000  0.697159  1
  La  La7  1  0.622367  0.750000  0.302841  1
  La  La8  1  0.677852  0.533808  0.569191  1
  La  La9  1  0.322148  0.466192  0.430809  1
  La  La10  1  0.177852  0.466192  0.930809  1
  La  La11  1  0.322148  0.033808  0.430809  1
  La  La12  1  0.822148  0.533808  0.069191  1
  La  La13  1  0.677852  0.966192  0.569191  1
  La  La14  1  0.822148  0.966192  0.069191  1
  La  La15  1  0.177852  0.033808  0.930809  1
  La  La16  1  0.055589  0.750000  0.498036  1
  La  La17  1  0.944411  0.250000  0.501964  1
  La  La18  1  0.555589  0.250000  0.001964  1
  La  La19  1  0.444411  0.750000  0.998036  1
  Sn  Sn20  1  0.572665  0.506998  0.830352  1
  Sn  Sn21  1  0.427335  0.493002  0.169648  1
  Sn  Sn22  1  0.072665  0.493002  0.669648  1
  Sn  Sn23  1  0.427335  0.006998  0.169648  1
  Sn  Sn24  1  0.927335  0.506998  0.330352  1
  Sn  Sn25  1  0.572665  0.993002  0.830352  1
  Sn  Sn26  1  0.927335  0.993002  0.330352  1
  Sn  Sn27  1  0.072665  0.006998  0.669648  1
  Os  Os28  1  0.080736  0.750000  0.984525  1
  Os  Os29  1  0.919264  0.250000  0.015475  1
  Os  Os30  1  0.580736  0.250000  0.515475  1
  Os  Os31  1  0.419264  0.750000  0.484525  1
