# generated using pymatgen
data_Yb3Sm3(Si3Ru)8
_symmetry_space_group_name_H-M   'P 1'
_cell_length_a   10.17984972
_cell_length_b   10.17984980
_cell_length_c   8.17141501
_cell_angle_alpha   89.99153692
_cell_angle_beta   89.99152447
_cell_angle_gamma   132.66057303
_symmetry_Int_Tables_number   1
_chemical_formula_structural   Yb3Sm3(Si3Ru)8
_chemical_formula_sum   'Yb3 Sm3 Si24 Ru8'
_cell_volume   622.71944911
_cell_formula_units_Z   1
loop_
 _symmetry_equiv_pos_site_id
 _symmetry_equiv_pos_as_xyz
  1  'x, y, z'
loop_
 _atom_site_type_symbol
 _atom_site_label
 _atom_site_symmetry_multiplicity
 _atom_site_fract_x
 _atom_site_fract_y
 _atom_site_fract_z
 _atom_site_occupancy
  Yb  Yb0  1  0.498626  0.998759  0.250215  1
  Yb  Yb1  1  0.001241  0.501374  0.749785  1
  Yb  Yb2  1  0.500016  0.499984  0.500000  1
  Sm  Sm3  1  0.501773  0.001686  0.749858  1
  Sm  Sm4  1  0.998314  0.498227  0.250142  1
  Sm  Sm5  1  0.000015  0.999985  0.000000  1
  Si  Si6  1  0.389769  0.155500  0.004827  1
  Si  Si7  1  0.653403  0.886566  0.493825  1
  Si  Si8  1  0.113434  0.346597  0.506175  1
  Si  Si9  1  0.844500  0.610231  0.995173  1
  Si  Si10  1  0.610381  0.844138  0.994386  1
  Si  Si11  1  0.346127  0.113695  0.506506  1
  Si  Si12  1  0.886305  0.653873  0.493494  1
  Si  Si13  1  0.155862  0.389619  0.005614  1
  Si  Si14  1  0.609372  0.376425  0.229947  1
  Si  Si15  1  0.875761  0.109790  0.272039  1
  Si  Si16  1  0.890210  0.124239  0.727961  1
  Si  Si17  1  0.623575  0.390628  0.770053  1
  Si  Si18  1  0.390410  0.623010  0.770478  1
  Si  Si19  1  0.123991  0.890076  0.727591  1
  Si  Si20  1  0.705388  0.294612  0.000000  1
  Si  Si21  1  0.794694  0.205306  0.500000  1
  Si  Si22  1  0.295053  0.704947  0.000000  1
  Si  Si23  1  0.204843  0.795157  0.500000  1
  Si  Si24  1  0.165026  0.171502  0.335104  1
  Si  Si25  1  0.668082  0.661463  0.168496  1
  Si  Si26  1  0.338537  0.331918  0.831504  1
  Si  Si27  1  0.828498  0.834974  0.664896  1
  Si  Si28  1  0.376990  0.609590  0.229522  1
  Si  Si29  1  0.109924  0.876009  0.272409  1
  Ru  Ru30  1  0.626158  0.627230  0.874649  1
  Ru  Ru31  1  0.125798  0.124875  0.626363  1
  Ru  Ru32  1  0.875125  0.874202  0.373637  1
  Ru  Ru33  1  0.372770  0.373842  0.125351  1
  Ru  Ru34  1  0.329442  0.670558  0.500000  1
  Ru  Ru35  1  0.170246  0.829754  0.000000  1
  Ru  Ru36  1  0.669819  0.330181  0.500000  1
  Ru  Ru37  1  0.830522  0.169478  0.000000  1
