# generated using pymatgen
data_DyHo3Fe(NiO4)3
_symmetry_space_group_name_H-M   'P 1'
_cell_length_a   5.21976996
_cell_length_b   5.65527516
_cell_length_c   7.51882222
_cell_angle_alpha   89.57029962
_cell_angle_beta   90.12930921
_cell_angle_gamma   89.88481034
_symmetry_Int_Tables_number   1
_chemical_formula_structural   DyHo3Fe(NiO4)3
_chemical_formula_sum   'Dy1 Ho3 Fe1 Ni3 O12'
_cell_volume   221.94261962
_cell_formula_units_Z   1
loop_
 _symmetry_equiv_pos_site_id
 _symmetry_equiv_pos_as_xyz
  1  'x, y, z'
loop_
 _atom_site_type_symbol
 _atom_site_label
 _atom_site_symmetry_multiplicity
 _atom_site_fract_x
 _atom_site_fract_y
 _atom_site_fract_z
 _atom_site_occupancy
  Dy  Dy0  1  0.977607  0.082636  0.244321  1
  Ho  Ho1  1  0.022340  0.916728  0.755891  1
  Ho  Ho2  1  0.520258  0.576360  0.244143  1
  Ho  Ho3  1  0.479877  0.423548  0.755845  1
  Fe  Fe4  1  0.499984  0.999879  0.500322  1
  Ni  Ni5  1  0.999984  0.500070  0.500182  1
  Ni  Ni6  1  0.999974  0.500054  0.999807  1
  Ni  Ni7  1  0.500010  0.999888  0.999686  1
  O  O8  1  0.688679  0.303949  0.442489  1
  O  O9  1  0.200290  0.183708  0.555110  1
  O  O10  1  0.802169  0.813267  0.053185  1
  O  O11  1  0.306871  0.689442  0.947183  1
  O  O12  1  0.310538  0.696657  0.558021  1
  O  O13  1  0.799042  0.815217  0.446036  1
  O  O14  1  0.197226  0.185760  0.945521  1
  O  O15  1  0.692325  0.311251  0.052240  1
  O  O16  1  0.108886  0.469356  0.248381  1
  O  O17  1  0.611650  0.035049  0.749258  1
  O  O18  1  0.390814  0.964784  0.250778  1
  O  O19  1  0.891475  0.532395  0.751602  1
