# generated using pymatgen
data_Pr2Th6TiSe17
_symmetry_space_group_name_H-M   'P 1'
_cell_length_a   8.45415134
_cell_length_b   8.45415163
_cell_length_c   11.21002666
_cell_angle_alpha   80.82658241
_cell_angle_beta   80.82658732
_cell_angle_gamma   65.47971654
_symmetry_Int_Tables_number   1
_chemical_formula_structural   Pr2Th6TiSe17
_chemical_formula_sum   'Pr2 Th6 Ti1 Se17'
_cell_volume   715.74015985
_cell_formula_units_Z   1
loop_
 _symmetry_equiv_pos_site_id
 _symmetry_equiv_pos_as_xyz
  1  'x, y, z'
loop_
 _atom_site_type_symbol
 _atom_site_label
 _atom_site_symmetry_multiplicity
 _atom_site_fract_x
 _atom_site_fract_y
 _atom_site_fract_z
 _atom_site_occupancy
  Pr  Pr0  1  0.814241  0.304451  0.296974  1
  Pr  Pr1  1  0.304451  0.814241  0.296974  1
  Th  Th2  1  0.185157  0.698171  0.701587  1
  Th  Th3  1  0.698171  0.185157  0.701587  1
  Th  Th4  1  0.203651  0.203651  0.540485  1
  Th  Th5  1  0.793816  0.793816  0.458402  1
  Th  Th6  1  0.680280  0.680280  0.983335  1
  Th  Th7  1  0.320157  0.320157  0.020368  1
  Ti  Ti8  1  0.004831  0.004831  0.007854  1
  Se  Se9  1  0.822306  0.431727  0.538572  1
  Se  Se10  1  0.431727  0.822306  0.538572  1
  Se  Se11  1  0.173643  0.567776  0.470198  1
  Se  Se12  1  0.567776  0.173643  0.470198  1
  Se  Se13  1  0.944526  0.321335  0.020217  1
  Se  Se14  1  0.321335  0.944526  0.020217  1
  Se  Se15  1  0.057305  0.680035  0.971521  1
  Se  Se16  1  0.680035  0.057305  0.971521  1
  Se  Se17  1  0.212149  0.212149  0.275408  1
  Se  Se18  1  0.789853  0.789853  0.725644  1
  Se  Se19  1  0.057215  0.057215  0.776006  1
  Se  Se20  1  0.936497  0.936497  0.223009  1
  Se  Se21  1  0.303505  0.303505  0.754534  1
  Se  Se22  1  0.699519  0.699519  0.242177  1
  Se  Se23  1  0.519707  0.519707  0.832113  1
  Se  Se24  1  0.480613  0.480613  0.158513  1
  Se  Se25  1  0.997535  0.997535  0.504016  1
