# generated using pymatgen
data_LiDyTh2In3Rh2
_symmetry_space_group_name_H-M   'P 1'
_cell_length_a   7.80916704
_cell_length_b   7.80916834
_cell_length_c   3.92877700
_cell_angle_alpha   90.00000000
_cell_angle_beta   90.00000000
_cell_angle_gamma   121.28586518
_symmetry_Int_Tables_number   1
_chemical_formula_structural   LiDyTh2In3Rh2
_chemical_formula_sum   'Li1 Dy1 Th2 In3 Rh2'
_cell_volume   204.74963783
_cell_formula_units_Z   1
loop_
 _symmetry_equiv_pos_site_id
 _symmetry_equiv_pos_as_xyz
  1  'x, y, z'
loop_
 _atom_site_type_symbol
 _atom_site_label
 _atom_site_symmetry_multiplicity
 _atom_site_fract_x
 _atom_site_fract_y
 _atom_site_fract_z
 _atom_site_occupancy
  Li  Li0  1  0.992417  0.992417  0.500000  1
  Dy  Dy1  1  0.417592  0.417592  0.500000  1
  Th  Th2  1  0.002236  0.575483  0.500000  1
  Th  Th3  1  0.575483  0.002236  0.500000  1
  In  In4  1  0.011048  0.245645  0.000000  1
  In  In5  1  0.245645  0.011048  0.000000  1
  In  In6  1  0.740621  0.740621  0.000000  1
  Rh  Rh7  1  0.683059  0.331900  0.000000  1
  Rh  Rh8  1  0.331900  0.683059  0.000000  1
