# generated using pymatgen
data_Tm12ZnNi4Sb
_symmetry_space_group_name_H-M   'P 1'
_cell_length_a   8.21829075
_cell_length_b   8.22287889
_cell_length_c   8.22364137
_cell_angle_alpha   106.24581189
_cell_angle_beta   109.76421914
_cell_angle_gamma   112.46434494
_symmetry_Int_Tables_number   1
_chemical_formula_structural   Tm12ZnNi4Sb
_chemical_formula_sum   'Tm12 Zn1 Ni4 Sb1'
_cell_volume   426.53959771
_cell_formula_units_Z   1
loop_
 _symmetry_equiv_pos_site_id
 _symmetry_equiv_pos_as_xyz
  1  'x, y, z'
loop_
 _atom_site_type_symbol
 _atom_site_label
 _atom_site_symmetry_multiplicity
 _atom_site_fract_x
 _atom_site_fract_y
 _atom_site_fract_z
 _atom_site_occupancy
  Tm  Tm0  1  0.699922  0.272453  0.972393  1
  Tm  Tm1  1  0.300048  0.727538  0.027519  1
  Tm  Tm2  1  0.699993  0.727481  0.427474  1
  Tm  Tm3  1  0.300121  0.272389  0.572466  1
  Tm  Tm4  1  0.807953  0.131145  0.323225  1
  Tm  Tm5  1  0.807885  0.484777  0.676774  1
  Tm  Tm6  1  0.191899  0.868753  0.676811  1
  Tm  Tm7  1  0.192282  0.515537  0.323360  1
  Tm  Tm8  1  0.607719  0.787052  0.820662  1
  Tm  Tm9  1  0.966431  0.787273  0.179255  1
  Tm  Tm10  1  0.033576  0.212895  0.820700  1
  Tm  Tm11  1  0.392227  0.213008  0.179338  1
  Zn  Zn12  1  0.499952  0.500034  0.999931  1
  Ni  Ni13  1  0.850557  0.499161  0.350861  1
  Ni  Ni14  1  0.149408  0.499990  0.649179  1
  Ni  Ni15  1  0.000346  0.124419  0.124254  1
  Ni  Ni16  1  0.999700  0.876067  0.875805  1
  Sb  Sb17  1  0.499984  0.000029  0.499993  1
