# generated using pymatgen
data_Ac3Cr2O10
_symmetry_space_group_name_H-M   'P 1'
_cell_length_a   7.22980801
_cell_length_b   7.16371030
_cell_length_c   9.57809800
_cell_angle_alpha   110.00189613
_cell_angle_beta   105.83495783
_cell_angle_gamma   94.01873274
_symmetry_Int_Tables_number   1
_chemical_formula_structural   Ac3Cr2O10
_chemical_formula_sum   'Ac6 Cr4 O20'
_cell_volume   441.07138261
_cell_formula_units_Z   2
loop_
 _symmetry_equiv_pos_site_id
 _symmetry_equiv_pos_as_xyz
  1  'x, y, z'
loop_
 _atom_site_type_symbol
 _atom_site_label
 _atom_site_symmetry_multiplicity
 _atom_site_fract_x
 _atom_site_fract_y
 _atom_site_fract_z
 _atom_site_occupancy
  Ac  Ac0  1  0.245080  0.589394  0.477755  1
  Ac  Ac1  1  0.754920  0.410606  0.522245  1
  Ac  Ac2  1  0.254711  0.205952  0.709534  1
  Ac  Ac3  1  0.745289  0.794048  0.290466  1
  Ac  Ac4  1  0.220512  0.786334  0.900661  1
  Ac  Ac5  1  0.779488  0.213666  0.099339  1
  Cr  Cr6  1  0.232819  0.992416  0.299107  1
  Cr  Cr7  1  0.767181  0.007584  0.700893  1
  Cr  Cr8  1  0.680471  0.616424  0.891555  1
  Cr  Cr9  1  0.319529  0.383576  0.108445  1
  O  O10  1  0.102429  0.464412  0.638172  1
  O  O11  1  0.897571  0.535588  0.361828  1
  O  O12  1  0.249208  0.871034  0.694112  1
  O  O13  1  0.750792  0.128966  0.305888  1
  O  O14  1  0.055279  0.978310  0.143233  1
  O  O15  1  0.944721  0.021690  0.856767  1
  O  O16  1  0.351992  0.224621  0.416864  1
  O  O17  1  0.648008  0.775379  0.583136  1
  O  O18  1  0.135187  0.903348  0.409031  1
  O  O19  1  0.864813  0.096652  0.590969  1
  O  O20  1  0.384199  0.851567  0.234107  1
  O  O21  1  0.615801  0.148433  0.765893  1
  O  O22  1  0.497476  0.495147  0.716195  1
  O  O23  1  0.502524  0.504853  0.283805  1
  O  O24  1  0.718735  0.516806  0.035493  1
  O  O25  1  0.281265  0.483194  0.964507  1
  O  O26  1  0.613674  0.840676  0.984359  1
  O  O27  1  0.386326  0.159324  0.015641  1
  O  O28  1  0.879849  0.612248  0.831376  1
  O  O29  1  0.120151  0.387752  0.168624  1
