# generated using pymatgen
data_Ho3ErB16Os3Ru
_symmetry_space_group_name_H-M   'P 1'
_cell_length_a   3.55911300
_cell_length_b   5.95277014
_cell_length_c   11.51468100
_cell_angle_alpha   89.98668107
_cell_angle_beta   89.99977257
_cell_angle_gamma   89.99996149
_symmetry_Int_Tables_number   1
_chemical_formula_structural   Ho3ErB16Os3Ru
_chemical_formula_sum   'Ho3 Er1 B16 Os3 Ru1'
_cell_volume   243.95672188
_cell_formula_units_Z   1
loop_
 _symmetry_equiv_pos_site_id
 _symmetry_equiv_pos_as_xyz
  1  'x, y, z'
loop_
 _atom_site_type_symbol
 _atom_site_label
 _atom_site_symmetry_multiplicity
 _atom_site_fract_x
 _atom_site_fract_y
 _atom_site_fract_z
 _atom_site_occupancy
  Ho  Ho0  1  0.999999  0.628545  0.350232  1
  Ho  Ho1  1  0.999998  0.371426  0.649713  1
  Ho  Ho2  1  0.000002  0.128862  0.150467  1
  Er  Er3  1  0.999992  0.871101  0.849558  1
  B  B4  1  0.499997  0.789844  0.186159  1
  B  B5  1  0.499999  0.209855  0.813871  1
  B  B6  1  0.499998  0.289827  0.314250  1
  B  B7  1  0.499999  0.710203  0.685792  1
  B  B8  1  0.500001  0.864106  0.029730  1
  B  B9  1  0.500000  0.135929  0.969889  1
  B  B10  1  0.499997  0.364086  0.469944  1
  B  B11  1  0.499999  0.635763  0.530441  1
  B  B12  1  0.499999  0.887682  0.453277  1
  B  B13  1  0.499999  0.112219  0.546808  1
  B  B14  1  0.500004  0.387709  0.046829  1
  B  B15  1  0.499997  0.612747  0.952833  1
  B  B16  1  0.500005  0.976215  0.308258  1
  B  B17  1  0.499997  0.023234  0.692029  1
  B  B18  1  0.499998  0.476092  0.191819  1
  B  B19  1  0.500003  0.524530  0.808008  1
  Os  Os20  1  0.000002  0.642111  0.093135  1
  Os  Os21  1  0.000002  0.358017  0.906696  1
  Os  Os22  1  0.000009  0.140886  0.406918  1
  Ru  Ru23  1  0.000005  0.859012  0.593346  1
