# generated using pymatgen
data_Ca3Yb9(SiIr)8
_symmetry_space_group_name_H-M   'P 1'
_cell_length_a   5.53718400
_cell_length_b   7.59305749
_cell_length_c   13.46927400
_cell_angle_alpha   90.00000000
_cell_angle_beta   90.00000000
_cell_angle_gamma   90.05489579
_symmetry_Int_Tables_number   1
_chemical_formula_structural   Ca3Yb9(SiIr)8
_chemical_formula_sum   'Ca3 Yb9 Si8 Ir8'
_cell_volume   566.30400296
_cell_formula_units_Z   1
loop_
 _symmetry_equiv_pos_site_id
 _symmetry_equiv_pos_as_xyz
  1  'x, y, z'
loop_
 _atom_site_type_symbol
 _atom_site_label
 _atom_site_symmetry_multiplicity
 _atom_site_fract_x
 _atom_site_fract_y
 _atom_site_fract_z
 _atom_site_occupancy
  Ca  Ca0  1  0.359234  0.227826  0.750000  1
  Ca  Ca1  1  0.640791  0.771707  0.250000  1
  Ca  Ca2  1  0.641134  0.728215  0.750000  1
  Yb  Yb3  1  0.138063  0.608839  0.097824  1
  Yb  Yb4  1  0.137900  0.890660  0.902727  1
  Yb  Yb5  1  0.861995  0.109599  0.402120  1
  Yb  Yb6  1  0.861706  0.390794  0.597378  1
  Yb  Yb7  1  0.861706  0.390794  0.902622  1
  Yb  Yb8  1  0.861995  0.109599  0.097880  1
  Yb  Yb9  1  0.137900  0.890660  0.597273  1
  Yb  Yb10  1  0.138063  0.608839  0.402176  1
  Yb  Yb11  1  0.361673  0.271936  0.250000  1
  Si  Si12  1  0.402612  0.249990  0.999992  1
  Si  Si13  1  0.596805  0.750096  0.499484  1
  Si  Si14  1  0.596805  0.750096  0.000516  1
  Si  Si15  1  0.402612  0.249990  0.500008  1
  Si  Si16  1  0.845186  0.420660  0.250000  1
  Si  Si17  1  0.843244  0.079619  0.750000  1
  Si  Si18  1  0.156576  0.920083  0.250000  1
  Si  Si19  1  0.157279  0.579571  0.750000  1
  Ir  Ir20  1  0.637623  0.472488  0.092648  1
  Ir  Ir21  1  0.638287  0.026543  0.908169  1
  Ir  Ir22  1  0.361109  0.974490  0.407373  1
  Ir  Ir23  1  0.361341  0.526692  0.591829  1
  Ir  Ir24  1  0.361341  0.526692  0.908171  1
  Ir  Ir25  1  0.361109  0.974490  0.092627  1
  Ir  Ir26  1  0.638287  0.026543  0.591831  1
  Ir  Ir27  1  0.637623  0.472488  0.407352  1
