# generated using pymatgen
data_Er5Lu3Mn2(B12Ru)2
_symmetry_space_group_name_H-M   'P 1'
_cell_length_a   3.56529400
_cell_length_b   9.03153432
_cell_length_c   11.40731302
_cell_angle_alpha   89.98772995
_cell_angle_beta   90.00000000
_cell_angle_gamma   90.00000000
_symmetry_Int_Tables_number   1
_chemical_formula_structural   Er5Lu3Mn2(B12Ru)2
_chemical_formula_sum   'Er5 Lu3 Mn2 B24 Ru2'
_cell_volume   367.31632764
_cell_formula_units_Z   1
loop_
 _symmetry_equiv_pos_site_id
 _symmetry_equiv_pos_as_xyz
  1  'x, y, z'
loop_
 _atom_site_type_symbol
 _atom_site_label
 _atom_site_symmetry_multiplicity
 _atom_site_fract_x
 _atom_site_fract_y
 _atom_site_fract_z
 _atom_site_occupancy
  Er  Er0  1  0.000000  0.326258  0.416465  1
  Er  Er1  1  0.000000  0.673562  0.583843  1
  Er  Er2  1  0.000000  0.819826  0.087224  1
  Er  Er3  1  0.000000  0.180187  0.912435  1
  Er  Er4  1  0.000000  0.939937  0.371044  1
  Lu  Lu5  1  0.000000  0.060093  0.629650  1
  Lu  Lu6  1  0.000000  0.445373  0.131283  1
  Lu  Lu7  1  0.000000  0.554750  0.868524  1
  Mn  Mn8  1  0.000000  0.637572  0.320313  1
  Mn  Mn9  1  0.000000  0.361113  0.679787  1
  B  B10  1  0.500000  0.553428  0.432220  1
  B  B11  1  0.500000  0.445728  0.567914  1
  B  B12  1  0.500000  0.053999  0.066619  1
  B  B13  1  0.500000  0.946204  0.933074  1
  B  B14  1  0.500000  0.745942  0.417685  1
  B  B15  1  0.500000  0.252820  0.582528  1
  B  B16  1  0.500000  0.250550  0.080988  1
  B  B17  1  0.500000  0.749702  0.918791  1
  B  B18  1  0.500000  0.788897  0.265400  1
  B  B19  1  0.500000  0.210084  0.734432  1
  B  B20  1  0.500000  0.292780  0.235407  1
  B  B21  1  0.500000  0.707531  0.764470  1
  B  B22  1  0.500000  0.630186  0.185875  1
  B  B23  1  0.500000  0.369577  0.813933  1
  B  B24  1  0.500000  0.131365  0.315350  1
  B  B25  1  0.500000  0.869522  0.684575  1
  B  B26  1  0.500000  0.981942  0.212178  1
  B  B27  1  0.500000  0.018610  0.787289  1
  B  B28  1  0.500000  0.484206  0.288330  1
  B  B29  1  0.500000  0.515594  0.711547  1
  B  B30  1  0.500000  0.601266  0.027817  1
  B  B31  1  0.500000  0.398719  0.971881  1
  B  B32  1  0.500000  0.103543  0.472554  1
  B  B33  1  0.500000  0.897267  0.529181  1
  Ru  Ru34  1  0.000000  0.139655  0.178685  1
  Ru  Ru35  1  0.000000  0.862211  0.820710  1
