# generated using pymatgen
data_Li4YNi9As7
_symmetry_space_group_name_H-M   'P 1'
_cell_length_a   9.40104700
_cell_length_b   9.40104680
_cell_length_c   3.83364600
_cell_angle_alpha   90.00000000
_cell_angle_beta   90.00000000
_cell_angle_gamma   120.00000424
_symmetry_Int_Tables_number   1
_chemical_formula_structural   Li4YNi9As7
_chemical_formula_sum   'Li4 Y1 Ni9 As7'
_cell_volume   293.42361213
_cell_formula_units_Z   1
loop_
 _symmetry_equiv_pos_site_id
 _symmetry_equiv_pos_as_xyz
  1  'x, y, z'
loop_
 _atom_site_type_symbol
 _atom_site_label
 _atom_site_symmetry_multiplicity
 _atom_site_fract_x
 _atom_site_fract_y
 _atom_site_fract_z
 _atom_site_occupancy
  Li  Li0  1  0.773532  0.544715  0.500000  1
  Li  Li1  1  0.455285  0.228817  0.500000  1
  Li  Li2  1  0.771183  0.226468  0.500000  1
  Li  Li3  1  0.000000  0.000000  0.500000  1
  Y  Y4  1  0.333333  0.666667  0.000000  1
  Ni  Ni5  1  0.274053  0.374501  0.500000  1
  Ni  Ni6  1  0.625499  0.899551  0.500000  1
  Ni  Ni7  1  0.100449  0.725947  0.500000  1
  Ni  Ni8  1  0.495793  0.451859  0.000000  1
  Ni  Ni9  1  0.548141  0.043934  0.000000  1
  Ni  Ni10  1  0.956066  0.504207  0.000000  1
  Ni  Ni11  1  0.716169  0.761651  0.000000  1
  Ni  Ni12  1  0.238349  0.954518  0.000000  1
  Ni  Ni13  1  0.045482  0.283831  0.000000  1
  As  As14  1  0.963268  0.756398  0.000000  1
  As  As15  1  0.243602  0.206870  0.000000  1
  As  As16  1  0.793130  0.036732  0.000000  1
  As  As17  1  0.666667  0.333333  0.000000  1
  As  As18  1  0.545552  0.618659  0.500000  1
  As  As19  1  0.381341  0.926893  0.500000  1
  As  As20  1  0.073107  0.454448  0.500000  1
