# generated using pymatgen
data_Ba5Al3TlGa2
_symmetry_space_group_name_H-M   'P 1'
_cell_length_a   6.04316000
_cell_length_b   6.04316080
_cell_length_c   11.35616600
_cell_angle_alpha   90.00000000
_cell_angle_beta   90.00000000
_cell_angle_gamma   119.99999563
_symmetry_Int_Tables_number   1
_chemical_formula_structural   Ba5Al3TlGa2
_chemical_formula_sum   'Ba5 Al3 Tl1 Ga2'
_cell_volume   359.16220248
_cell_formula_units_Z   1
loop_
 _symmetry_equiv_pos_site_id
 _symmetry_equiv_pos_as_xyz
  1  'x, y, z'
loop_
 _atom_site_type_symbol
 _atom_site_label
 _atom_site_symmetry_multiplicity
 _atom_site_fract_x
 _atom_site_fract_y
 _atom_site_fract_z
 _atom_site_occupancy
  Ba  Ba0  1  0.666667  0.333333  0.203338  1
  Ba  Ba1  1  0.666667  0.333333  0.796662  1
  Ba  Ba2  1  0.000000  0.000000  0.331335  1
  Ba  Ba3  1  0.000000  0.000000  0.668665  1
  Ba  Ba4  1  0.333333  0.666667  0.000000  1
  Al  Al5  1  0.507288  0.014576  0.500000  1
  Al  Al6  1  0.507288  0.492712  0.500000  1
  Al  Al7  1  0.985424  0.492712  0.500000  1
  Tl  Tl8  1  0.000000  0.000000  0.000000  1
  Ga  Ga9  1  0.333333  0.666667  0.320584  1
  Ga  Ga10  1  0.333333  0.666667  0.679416  1
