# generated using pymatgen
data_Th3GaHg2PdPt2
_symmetry_space_group_name_H-M   'P 1'
_cell_length_a   7.79322857
_cell_length_b   7.68724407
_cell_length_c   3.94983500
_cell_angle_alpha   90.00000000
_cell_angle_beta   90.00000000
_cell_angle_gamma   119.55114330
_symmetry_Int_Tables_number   1
_chemical_formula_structural   Th3GaHg2PdPt2
_chemical_formula_sum   'Th3 Ga1 Hg2 Pd1 Pt2'
_cell_volume   205.84686537
_cell_formula_units_Z   1
loop_
 _symmetry_equiv_pos_site_id
 _symmetry_equiv_pos_as_xyz
  1  'x, y, z'
loop_
 _atom_site_type_symbol
 _atom_site_label
 _atom_site_symmetry_multiplicity
 _atom_site_fract_x
 _atom_site_fract_y
 _atom_site_fract_z
 _atom_site_occupancy
  Th  Th0  1  0.404653  0.407227  0.500000  1
  Th  Th1  1  0.595347  0.002574  0.500000  1
  Th  Th2  1  0.000000  0.585072  0.500000  1
  Ga  Ga3  1  0.000000  0.253729  0.000000  1
  Hg  Hg4  1  0.746409  0.744467  0.000000  1
  Hg  Hg5  1  0.253591  0.998059  0.000000  1
  Pd  Pd6  1  0.000000  0.036428  0.500000  1
  Pt  Pt7  1  0.682028  0.327236  0.000000  1
  Pt  Pt8  1  0.317972  0.645209  0.000000  1
