# generated using pymatgen
data_Tb4Sc4Ir3Rh
_symmetry_space_group_name_H-M   'P 1'
_cell_length_a   4.28008400
_cell_length_b   7.16086243
_cell_length_c   8.74045163
_cell_angle_alpha   90.64448827
_cell_angle_beta   90.00000000
_cell_angle_gamma   90.00000000
_symmetry_Int_Tables_number   1
_chemical_formula_structural   Tb4Sc4Ir3Rh
_chemical_formula_sum   'Tb4 Sc4 Ir3 Rh1'
_cell_volume   267.86996506
_cell_formula_units_Z   1
loop_
 _symmetry_equiv_pos_site_id
 _symmetry_equiv_pos_as_xyz
  1  'x, y, z'
loop_
 _atom_site_type_symbol
 _atom_site_label
 _atom_site_symmetry_multiplicity
 _atom_site_fract_x
 _atom_site_fract_y
 _atom_site_fract_z
 _atom_site_occupancy
  Tb  Tb0  1  0.250000  0.517284  0.175582  1
  Tb  Tb1  1  0.750000  0.476998  0.823891  1
  Tb  Tb2  1  0.250000  0.017913  0.325521  1
  Tb  Tb3  1  0.750000  0.986275  0.673011  1
  Sc  Sc4  1  0.250000  0.139206  0.934514  1
  Sc  Sc5  1  0.750000  0.860372  0.066519  1
  Sc  Sc6  1  0.250000  0.641457  0.564650  1
  Sc  Sc7  1  0.750000  0.359756  0.433225  1
  Ir  Ir8  1  0.750000  0.739676  0.395243  1
  Ir  Ir9  1  0.250000  0.263161  0.605917  1
  Ir  Ir10  1  0.750000  0.239255  0.102669  1
  Rh  Rh11  1  0.250000  0.758647  0.899257  1
