# generated using pymatgen
data_Nd(Ga2Pt)2
_symmetry_space_group_name_H-M   'P 1'
_cell_length_a   4.39021300
_cell_length_b   6.67808800
_cell_length_c   17.55430300
_cell_angle_alpha   90.00000000
_cell_angle_beta   90.00000000
_cell_angle_gamma   90.00000000
_symmetry_Int_Tables_number   1
_chemical_formula_structural   Nd(Ga2Pt)2
_chemical_formula_sum   'Nd4 Ga16 Pt8'
_cell_volume   514.66107095
_cell_formula_units_Z   4
loop_
 _symmetry_equiv_pos_site_id
 _symmetry_equiv_pos_as_xyz
  1  'x, y, z'
loop_
 _atom_site_type_symbol
 _atom_site_label
 _atom_site_symmetry_multiplicity
 _atom_site_fract_x
 _atom_site_fract_y
 _atom_site_fract_z
 _atom_site_occupancy
  Nd  Nd0  1  0.750000  0.991917  0.640110  1
  Nd  Nd1  1  0.250000  0.008083  0.359890  1
  Nd  Nd2  1  0.250000  0.491917  0.859890  1
  Nd  Nd3  1  0.750000  0.508083  0.140110  1
  Ga  Ga4  1  0.250000  0.275014  0.690419  1
  Ga  Ga5  1  0.750000  0.724986  0.309581  1
  Ga  Ga6  1  0.750000  0.775014  0.809581  1
  Ga  Ga7  1  0.250000  0.224986  0.190419  1
  Ga  Ga8  1  0.250000  0.680101  0.683031  1
  Ga  Ga9  1  0.750000  0.319899  0.316969  1
  Ga  Ga10  1  0.750000  0.180101  0.816969  1
  Ga  Ga11  1  0.250000  0.819899  0.183031  1
  Ga  Ga12  1  0.250000  0.159712  0.536335  1
  Ga  Ga13  1  0.750000  0.840288  0.463665  1
  Ga  Ga14  1  0.750000  0.659712  0.963665  1
  Ga  Ga15  1  0.250000  0.340288  0.036335  1
  Ga  Ga16  1  0.250000  0.482360  0.428953  1
  Ga  Ga17  1  0.750000  0.517640  0.571047  1
  Ga  Ga18  1  0.750000  0.982360  0.071047  1
  Ga  Ga19  1  0.250000  0.017640  0.928953  1
  Pt  Pt20  1  0.250000  0.749294  0.534567  1
  Pt  Pt21  1  0.750000  0.250706  0.465433  1
  Pt  Pt22  1  0.750000  0.249294  0.965433  1
  Pt  Pt23  1  0.250000  0.750706  0.034567  1
  Pt  Pt24  1  0.250000  0.972780  0.784037  1
  Pt  Pt25  1  0.750000  0.027220  0.215963  1
  Pt  Pt26  1  0.750000  0.472780  0.715963  1
  Pt  Pt27  1  0.250000  0.527220  0.284037  1
