# generated using pymatgen
data_Ti3Nb7(Ga3B)2
_symmetry_space_group_name_H-M   'P 1'
_cell_length_a   7.80101900
_cell_length_b   7.80101907
_cell_length_c   5.32167800
_cell_angle_alpha   90.00000000
_cell_angle_beta   90.00000000
_cell_angle_gamma   119.99999546
_symmetry_Int_Tables_number   1
_chemical_formula_structural   Ti3Nb7(Ga3B)2
_chemical_formula_sum   'Ti3 Nb7 Ga6 B2'
_cell_volume   280.46709737
_cell_formula_units_Z   1
loop_
 _symmetry_equiv_pos_site_id
 _symmetry_equiv_pos_as_xyz
  1  'x, y, z'
loop_
 _atom_site_type_symbol
 _atom_site_label
 _atom_site_symmetry_multiplicity
 _atom_site_fract_x
 _atom_site_fract_y
 _atom_site_fract_z
 _atom_site_occupancy
  Ti  Ti0  1  0.666667  0.333333  0.500000  1
  Ti  Ti1  1  0.333333  0.666667  0.500000  1
  Ti  Ti2  1  0.333333  0.666667  0.000000  1
  Nb  Nb3  1  0.666667  0.333333  0.000000  1
  Nb  Nb4  1  0.759484  0.758008  0.248520  1
  Nb  Nb5  1  0.241992  0.001475  0.248520  1
  Nb  Nb6  1  0.998525  0.240516  0.248520  1
  Nb  Nb7  1  0.241992  0.240516  0.751480  1
  Nb  Nb8  1  0.759484  0.001475  0.751480  1
  Nb  Nb9  1  0.998525  0.758008  0.751480  1
  Ga  Ga10  1  0.398842  0.401751  0.252934  1
  Ga  Ga11  1  0.598249  0.997092  0.252934  1
  Ga  Ga12  1  0.002908  0.601158  0.252934  1
  Ga  Ga13  1  0.598249  0.601158  0.747066  1
  Ga  Ga14  1  0.398842  0.997092  0.747066  1
  Ga  Ga15  1  0.002908  0.401751  0.747066  1
  B  B16  1  0.000000  0.000000  0.500000  1
  B  B17  1  0.000000  0.000000  0.000000  1
