# generated using pymatgen
data_Yb3ScNi13C4
_symmetry_space_group_name_H-M   'P 1'
_cell_length_a   8.25298979
_cell_length_b   8.25299114
_cell_length_c   3.83062800
_cell_angle_alpha   90.00000000
_cell_angle_beta   90.00000000
_cell_angle_gamma   90.63606276
_symmetry_Int_Tables_number   1
_chemical_formula_structural   Yb3ScNi13C4
_chemical_formula_sum   'Yb3 Sc1 Ni13 C4'
_cell_volume   260.89508892
_cell_formula_units_Z   1
loop_
 _symmetry_equiv_pos_site_id
 _symmetry_equiv_pos_as_xyz
  1  'x, y, z'
loop_
 _atom_site_type_symbol
 _atom_site_label
 _atom_site_symmetry_multiplicity
 _atom_site_fract_x
 _atom_site_fract_y
 _atom_site_fract_z
 _atom_site_occupancy
  Yb  Yb0  1  0.190241  0.809759  0.500000  1
  Yb  Yb1  1  0.349693  0.347745  0.500000  1
  Yb  Yb2  1  0.652255  0.650307  0.500000  1
  Sc  Sc3  1  0.815038  0.184962  0.500000  1
  Ni  Ni4  1  0.995566  0.004434  0.000000  1
  Ni  Ni5  1  0.216684  0.572841  0.000000  1
  Ni  Ni6  1  0.786824  0.422629  0.000000  1
  Ni  Ni7  1  0.427159  0.783316  0.000000  1
  Ni  Ni8  1  0.577371  0.213176  0.000000  1
  Ni  Ni9  1  0.997844  0.493339  0.500000  1
  Ni  Ni10  1  0.506661  0.002156  0.500000  1
  Ni  Ni11  1  0.069563  0.290645  0.000000  1
  Ni  Ni12  1  0.924694  0.713735  0.000000  1
  Ni  Ni13  1  0.709355  0.930437  0.000000  1
  Ni  Ni14  1  0.286265  0.075306  0.000000  1
  Ni  Ni15  1  0.118920  0.123327  0.500000  1
  Ni  Ni16  1  0.876673  0.881080  0.500000  1
  C  C17  1  0.000241  0.504530  0.000000  1
  C  C18  1  0.495470  0.999759  0.000000  1
  C  C19  1  0.444870  0.555130  0.000000  1
  C  C20  1  0.558614  0.441386  0.000000  1
