# generated using pymatgen
data_La6Ga4IrPd12
_symmetry_space_group_name_H-M   'P 1'
_cell_length_a   8.46291088
_cell_length_b   8.46291121
_cell_length_c   8.46291200
_cell_angle_alpha   109.47121774
_cell_angle_beta   109.47121853
_cell_angle_gamma   109.47122535
_symmetry_Int_Tables_number   1
_chemical_formula_structural   La6Ga4IrPd12
_chemical_formula_sum   'La6 Ga4 Ir1 Pd12'
_cell_volume   466.59221410
_cell_formula_units_Z   1
loop_
 _symmetry_equiv_pos_site_id
 _symmetry_equiv_pos_as_xyz
  1  'x, y, z'
loop_
 _atom_site_type_symbol
 _atom_site_label
 _atom_site_symmetry_multiplicity
 _atom_site_fract_x
 _atom_site_fract_y
 _atom_site_fract_z
 _atom_site_occupancy
  La  La0  1  0.703536  0.703536  0.000000  1
  La  La1  1  0.296464  0.000000  0.296464  1
  La  La2  1  0.000000  0.296464  0.296464  1
  La  La3  1  0.296464  0.296464  0.000000  1
  La  La4  1  0.703536  0.000000  0.703536  1
  La  La5  1  0.000000  0.703536  0.703536  1
  Ga  Ga6  1  0.000000  0.000000  0.500000  1
  Ga  Ga7  1  0.000000  0.500000  0.000000  1
  Ga  Ga8  1  0.500000  0.000000  0.000000  1
  Ga  Ga9  1  0.500000  0.500000  0.500000  1
  Ir  Ir10  1  0.000000  0.000000  0.000000  1
  Pd  Pd11  1  0.328016  0.328016  0.656032  1
  Pd  Pd12  1  0.671984  0.000000  0.328016  1
  Pd  Pd13  1  0.000000  0.671984  0.328016  1
  Pd  Pd14  1  0.671984  0.328016  0.000000  1
  Pd  Pd15  1  0.328016  0.656032  0.328016  1
  Pd  Pd16  1  0.000000  0.328016  0.671984  1
  Pd  Pd17  1  0.328016  0.671984  0.000000  1
  Pd  Pd18  1  0.328016  0.000000  0.671984  1
  Pd  Pd19  1  0.656032  0.328016  0.328016  1
  Pd  Pd20  1  0.671984  0.671984  0.343968  1
  Pd  Pd21  1  0.671984  0.343968  0.671984  1
  Pd  Pd22  1  0.343968  0.671984  0.671984  1
