# generated using pymatgen
data_Tb2Sn(PIr2)6
_symmetry_space_group_name_H-M   'P 1'
_cell_length_a   4.00028604
_cell_length_b   9.72073141
_cell_length_c   9.73627941
_cell_angle_alpha   119.93304678
_cell_angle_beta   90.16284948
_cell_angle_gamma   89.86606302
_symmetry_Int_Tables_number   1
_chemical_formula_structural   Tb2Sn(PIr2)6
_chemical_formula_sum   'Tb2 Sn1 P6 Ir12'
_cell_volume   328.09851172
_cell_formula_units_Z   1
loop_
 _symmetry_equiv_pos_site_id
 _symmetry_equiv_pos_as_xyz
  1  'x, y, z'
loop_
 _atom_site_type_symbol
 _atom_site_label
 _atom_site_symmetry_multiplicity
 _atom_site_fract_x
 _atom_site_fract_y
 _atom_site_fract_z
 _atom_site_occupancy
  Tb  Tb0  1  0.233811  0.666762  0.333543  1
  Tb  Tb1  1  0.766189  0.333238  0.666457  1
  Sn  Sn2  1  0.500000  0.000000  0.000000  1
  P  P3  1  0.731721  0.875430  0.593803  1
  P  P4  1  0.733461  0.407129  0.282007  1
  P  P5  1  0.732493  0.718189  0.124484  1
  P  P6  1  0.268279  0.124570  0.406197  1
  P  P7  1  0.266539  0.592871  0.717993  1
  P  P8  1  0.267507  0.281811  0.875516  1
  Ir  Ir9  1  0.780519  0.124077  0.833067  1
  Ir  Ir10  1  0.779161  0.166133  0.289877  1
  Ir  Ir11  1  0.777522  0.709129  0.875034  1
  Ir  Ir12  1  0.219481  0.875923  0.166933  1
  Ir  Ir13  1  0.220839  0.833867  0.710123  1
  Ir  Ir14  1  0.222478  0.290871  0.124966  1
  Ir  Ir15  1  0.740434  0.610698  0.541667  1
  Ir  Ir16  1  0.741282  0.458265  0.068816  1
  Ir  Ir17  1  0.740415  0.931505  0.389871  1
  Ir  Ir18  1  0.259566  0.389302  0.458333  1
  Ir  Ir19  1  0.258718  0.541735  0.931184  1
  Ir  Ir20  1  0.259585  0.068495  0.610129  1
