# generated using pymatgen
data_Tm5CoBi2
_symmetry_space_group_name_H-M   'P 1'
_cell_length_a   7.87656200
_cell_length_b   8.79955000
_cell_length_c   12.23260700
_cell_angle_alpha   90.00000000
_cell_angle_beta   90.00000000
_cell_angle_gamma   90.00000000
_symmetry_Int_Tables_number   1
_chemical_formula_structural   Tm5CoBi2
_chemical_formula_sum   'Tm20 Co4 Bi8'
_cell_volume   847.84445172
_cell_formula_units_Z   4
loop_
 _symmetry_equiv_pos_site_id
 _symmetry_equiv_pos_as_xyz
  1  'x, y, z'
loop_
 _atom_site_type_symbol
 _atom_site_label
 _atom_site_symmetry_multiplicity
 _atom_site_fract_x
 _atom_site_fract_y
 _atom_site_fract_z
 _atom_site_occupancy
  Tm  Tm0  1  0.345409  0.750000  0.699661  1
  Tm  Tm1  1  0.654591  0.250000  0.300339  1
  Tm  Tm2  1  0.845409  0.250000  0.800339  1
  Tm  Tm3  1  0.154591  0.750000  0.199661  1
  Tm  Tm4  1  0.885963  0.750000  0.811248  1
  Tm  Tm5  1  0.114037  0.250000  0.188752  1
  Tm  Tm6  1  0.385963  0.250000  0.688752  1
  Tm  Tm7  1  0.614037  0.750000  0.311248  1
  Tm  Tm8  1  0.674843  0.538396  0.562778  1
  Tm  Tm9  1  0.325157  0.461604  0.437222  1
  Tm  Tm10  1  0.174843  0.461604  0.937222  1
  Tm  Tm11  1  0.325157  0.038396  0.437222  1
  Tm  Tm12  1  0.825157  0.538396  0.062778  1
  Tm  Tm13  1  0.674843  0.961604  0.562778  1
  Tm  Tm14  1  0.825157  0.961604  0.062778  1
  Tm  Tm15  1  0.174843  0.038396  0.937222  1
  Tm  Tm16  1  0.053945  0.750000  0.498169  1
  Tm  Tm17  1  0.946055  0.250000  0.501831  1
  Tm  Tm18  1  0.553945  0.250000  0.001831  1
  Tm  Tm19  1  0.446055  0.750000  0.998169  1
  Co  Co20  1  0.067603  0.750000  0.991580  1
  Co  Co21  1  0.932397  0.250000  0.008420  1
  Co  Co22  1  0.567603  0.250000  0.508420  1
  Co  Co23  1  0.432397  0.750000  0.491580  1
  Bi  Bi24  1  0.571224  0.510326  0.826467  1
  Bi  Bi25  1  0.428776  0.489674  0.173533  1
  Bi  Bi26  1  0.071224  0.489674  0.673533  1
  Bi  Bi27  1  0.428776  0.010326  0.173533  1
  Bi  Bi28  1  0.928776  0.510326  0.326467  1
  Bi  Bi29  1  0.571224  0.989674  0.826467  1
  Bi  Bi30  1  0.928776  0.989674  0.326467  1
  Bi  Bi31  1  0.071224  0.010326  0.673533  1
