# generated using pymatgen
data_Np2PaSe5
_symmetry_space_group_name_H-M   'P 1'
_cell_length_a   7.77631700
_cell_length_b   8.37644600
_cell_length_c   12.19646600
_cell_angle_alpha   90.00000000
_cell_angle_beta   90.00000000
_cell_angle_gamma   90.00000000
_symmetry_Int_Tables_number   1
_chemical_formula_structural   Np2PaSe5
_chemical_formula_sum   'Np8 Pa4 Se20'
_cell_volume   794.45217570
_cell_formula_units_Z   4
loop_
 _symmetry_equiv_pos_site_id
 _symmetry_equiv_pos_as_xyz
  1  'x, y, z'
loop_
 _atom_site_type_symbol
 _atom_site_label
 _atom_site_symmetry_multiplicity
 _atom_site_fract_x
 _atom_site_fract_y
 _atom_site_fract_z
 _atom_site_occupancy
  Np  Np0  1  0.974980  0.496031  0.321580  1
  Np  Np1  1  0.525020  0.003969  0.821580  1
  Np  Np2  1  0.025020  0.996031  0.678420  1
  Np  Np3  1  0.474980  0.503969  0.178420  1
  Np  Np4  1  0.025020  0.503969  0.678420  1
  Np  Np5  1  0.474980  0.996031  0.178420  1
  Np  Np6  1  0.974980  0.003969  0.321580  1
  Np  Np7  1  0.525020  0.496031  0.821580  1
  Pa  Pa8  1  0.921120  0.750000  0.009542  1
  Pa  Pa9  1  0.578880  0.750000  0.509542  1
  Pa  Pa10  1  0.078880  0.250000  0.990458  1
  Pa  Pa11  1  0.421120  0.250000  0.490458  1
  Se  Se12  1  0.831456  0.047895  0.094434  1
  Se  Se13  1  0.668544  0.452105  0.594434  1
  Se  Se14  1  0.168544  0.547895  0.905566  1
  Se  Se15  1  0.331456  0.952105  0.405566  1
  Se  Se16  1  0.168544  0.952105  0.905566  1
  Se  Se17  1  0.331456  0.547895  0.405566  1
  Se  Se18  1  0.831456  0.452105  0.094434  1
  Se  Se19  1  0.668544  0.047895  0.594434  1
  Se  Se20  1  0.539830  0.750000  0.000292  1
  Se  Se21  1  0.960170  0.750000  0.500292  1
  Se  Se22  1  0.460170  0.250000  0.999708  1
  Se  Se23  1  0.039830  0.250000  0.499708  1
  Se  Se24  1  0.168080  0.750000  0.186935  1
  Se  Se25  1  0.331920  0.750000  0.686935  1
  Se  Se26  1  0.831920  0.250000  0.813065  1
  Se  Se27  1  0.668080  0.250000  0.313065  1
  Se  Se28  1  0.699042  0.750000  0.282704  1
  Se  Se29  1  0.800958  0.750000  0.782704  1
  Se  Se30  1  0.300958  0.250000  0.717296  1
  Se  Se31  1  0.199042  0.250000  0.217296  1
