# generated using pymatgen
data_Ce2DyGa5
_symmetry_space_group_name_H-M   'P 1'
_cell_length_a   6.24084200
_cell_length_b   9.71784500
_cell_length_c   11.67030800
_cell_angle_alpha   90.00000000
_cell_angle_beta   90.00000000
_cell_angle_gamma   90.00000000
_symmetry_Int_Tables_number   1
_chemical_formula_structural   Ce2DyGa5
_chemical_formula_sum   'Ce8 Dy4 Ga20'
_cell_volume   707.77541552
_cell_formula_units_Z   4
loop_
 _symmetry_equiv_pos_site_id
 _symmetry_equiv_pos_as_xyz
  1  'x, y, z'
loop_
 _atom_site_type_symbol
 _atom_site_label
 _atom_site_symmetry_multiplicity
 _atom_site_fract_x
 _atom_site_fract_y
 _atom_site_fract_z
 _atom_site_occupancy
  Ce  Ce0  1  0.887829  0.509220  0.352983  1
  Ce  Ce1  1  0.612171  0.990780  0.852983  1
  Ce  Ce2  1  0.112171  0.009220  0.647017  1
  Ce  Ce3  1  0.387829  0.490780  0.147017  1
  Ce  Ce4  1  0.112171  0.490780  0.647017  1
  Ce  Ce5  1  0.387829  0.009220  0.147017  1
  Ce  Ce6  1  0.887829  0.990780  0.352983  1
  Ce  Ce7  1  0.612171  0.509220  0.852983  1
  Dy  Dy8  1  0.852885  0.750000  0.075423  1
  Dy  Dy9  1  0.647115  0.750000  0.575423  1
  Dy  Dy10  1  0.147115  0.250000  0.924577  1
  Dy  Dy11  1  0.352885  0.250000  0.424577  1
  Ga  Ga12  1  0.874537  0.054517  0.090490  1
  Ga  Ga13  1  0.625463  0.445483  0.590490  1
  Ga  Ga14  1  0.125463  0.554517  0.909510  1
  Ga  Ga15  1  0.374537  0.945483  0.409510  1
  Ga  Ga16  1  0.125463  0.945483  0.909510  1
  Ga  Ga17  1  0.374537  0.554517  0.409510  1
  Ga  Ga18  1  0.874537  0.445483  0.090490  1
  Ga  Ga19  1  0.625463  0.054517  0.590490  1
  Ga  Ga20  1  0.173762  0.750000  0.255303  1
  Ga  Ga21  1  0.326238  0.750000  0.755303  1
  Ga  Ga22  1  0.826238  0.250000  0.744697  1
  Ga  Ga23  1  0.673762  0.250000  0.244697  1
  Ga  Ga24  1  0.370036  0.750000  0.001491  1
  Ga  Ga25  1  0.129964  0.750000  0.501491  1
  Ga  Ga26  1  0.629964  0.250000  0.998509  1
  Ga  Ga27  1  0.870036  0.250000  0.498509  1
  Ga  Ga28  1  0.595998  0.750000  0.299552  1
  Ga  Ga29  1  0.904002  0.750000  0.799552  1
  Ga  Ga30  1  0.404002  0.250000  0.700448  1
  Ga  Ga31  1  0.095998  0.250000  0.200448  1
