# generated using pymatgen
data_Yb10Cu3Hg2Pt
_symmetry_space_group_name_H-M   'P 1'
_cell_length_a   8.88194985
_cell_length_b   8.88194945
_cell_length_c   8.88288516
_cell_angle_alpha   128.98368002
_cell_angle_beta   128.98367407
_cell_angle_gamma   75.02897313
_symmetry_Int_Tables_number   1
_chemical_formula_structural   Yb10Cu3Hg2Pt
_chemical_formula_sum   'Yb10 Cu3 Hg2 Pt1'
_cell_volume   412.32632846
_cell_formula_units_Z   1
loop_
 _symmetry_equiv_pos_site_id
 _symmetry_equiv_pos_as_xyz
  1  'x, y, z'
loop_
 _atom_site_type_symbol
 _atom_site_label
 _atom_site_symmetry_multiplicity
 _atom_site_fract_x
 _atom_site_fract_y
 _atom_site_fract_z
 _atom_site_occupancy
  Yb  Yb0  1  0.497419  0.500733  0.998152  1
  Yb  Yb1  1  0.000733  0.997419  0.998152  1
  Yb  Yb2  1  0.529034  0.029034  0.834243  1
  Yb  Yb3  1  0.192136  0.692136  0.159204  1
  Yb  Yb4  1  0.030506  0.197469  0.503156  1
  Yb  Yb5  1  0.697469  0.530506  0.503156  1
  Yb  Yb6  1  0.467070  0.967070  0.159204  1
  Yb  Yb7  1  0.805207  0.305207  0.834243  1
  Yb  Yb8  1  0.972651  0.805688  0.503156  1
  Yb  Yb9  1  0.305688  0.472651  0.503156  1
  Cu  Cu10  1  0.875076  0.375076  0.250152  1
  Cu  Cu11  1  0.618657  0.881599  0.500256  1
  Cu  Cu12  1  0.381599  0.118657  0.500256  1
  Hg  Hg13  1  0.250931  0.250931  0.001861  1
  Hg  Hg14  1  0.750931  0.750931  0.001861  1
  Pt  Pt15  1  0.124894  0.624894  0.749788  1
