# generated using pymatgen
data_UFe11(BO5)4
_symmetry_space_group_name_H-M   'P 1'
_cell_length_a   6.48139241
_cell_length_b   6.48139227
_cell_length_c   11.91409612
_cell_angle_alpha   69.26974668
_cell_angle_beta   69.26974543
_cell_angle_gamma   58.94122109
_symmetry_Int_Tables_number   1
_chemical_formula_structural   UFe11(BO5)4
_chemical_formula_sum   'U1 Fe11 B4 O20'
_cell_volume   391.70522996
_cell_formula_units_Z   1
loop_
 _symmetry_equiv_pos_site_id
 _symmetry_equiv_pos_as_xyz
  1  'x, y, z'
loop_
 _atom_site_type_symbol
 _atom_site_label
 _atom_site_symmetry_multiplicity
 _atom_site_fract_x
 _atom_site_fract_y
 _atom_site_fract_z
 _atom_site_occupancy
  U  U0  1  0.500000  0.500000  0.500000  1
  Fe  Fe1  1  0.500000  0.500000  0.000000  1
  Fe  Fe2  1  0.000000  0.000000  0.000000  1
  Fe  Fe3  1  0.756491  0.756491  0.999731  1
  Fe  Fe4  1  0.243509  0.243509  0.000269  1
  Fe  Fe5  1  0.217213  0.717705  0.782892  1
  Fe  Fe6  1  0.717705  0.217213  0.782892  1
  Fe  Fe7  1  0.282295  0.782787  0.217108  1
  Fe  Fe8  1  0.782787  0.282295  0.217108  1
  Fe  Fe9  1  0.500000  0.000000  0.500000  1
  Fe  Fe10  1  0.000000  0.500000  0.500000  1
  Fe  Fe11  1  0.000000  0.000000  0.500000  1
  B  B12  1  0.229017  0.229017  0.744376  1
  B  B13  1  0.739401  0.739401  0.738786  1
  B  B14  1  0.770983  0.770983  0.255624  1
  B  B15  1  0.260599  0.260599  0.261214  1
  O  O16  1  0.157130  0.623394  0.969923  1
  O  O17  1  0.623394  0.157130  0.969923  1
  O  O18  1  0.376606  0.842870  0.030077  1
  O  O19  1  0.842870  0.376606  0.030077  1
  O  O20  1  0.605461  0.605461  0.803756  1
  O  O21  1  0.096505  0.096505  0.806913  1
  O  O22  1  0.394539  0.394539  0.196244  1
  O  O23  1  0.903495  0.903495  0.193087  1
  O  O24  1  0.303101  0.789573  0.595456  1
  O  O25  1  0.789573  0.303101  0.595456  1
  O  O26  1  0.210427  0.696899  0.404544  1
  O  O27  1  0.696899  0.210427  0.404544  1
  O  O28  1  0.317526  0.317526  0.796109  1
  O  O29  1  0.824752  0.824752  0.795394  1
  O  O30  1  0.682474  0.682474  0.203891  1
  O  O31  1  0.175248  0.175248  0.204606  1
  O  O32  1  0.279058  0.279058  0.613339  1
  O  O33  1  0.791531  0.791531  0.607429  1
  O  O34  1  0.720942  0.720942  0.386661  1
  O  O35  1  0.208469  0.208469  0.392571  1
