# generated using pymatgen
data_Sr2Li(SiPd2)6
_symmetry_space_group_name_H-M   'P 1'
_cell_length_a   10.10486100
_cell_length_b   10.10485960
_cell_length_c   3.97839700
_cell_angle_alpha   90.00000000
_cell_angle_beta   90.00000000
_cell_angle_gamma   120.00000131
_symmetry_Int_Tables_number   1
_chemical_formula_structural   Sr2Li(SiPd2)6
_chemical_formula_sum   'Sr2 Li1 Si6 Pd12'
_cell_volume   351.80286524
_cell_formula_units_Z   1
loop_
 _symmetry_equiv_pos_site_id
 _symmetry_equiv_pos_as_xyz
  1  'x, y, z'
loop_
 _atom_site_type_symbol
 _atom_site_label
 _atom_site_symmetry_multiplicity
 _atom_site_fract_x
 _atom_site_fract_y
 _atom_site_fract_z
 _atom_site_occupancy
  Sr  Sr0  1  0.666667  0.333333  0.248329  1
  Sr  Sr1  1  0.000000  0.000000  0.751836  1
  Li  Li2  1  0.333333  0.666667  0.450390  1
  Si  Si3  1  0.728308  0.774799  0.253151  1
  Si  Si4  1  0.046491  0.271692  0.253151  1
  Si  Si5  1  0.225201  0.953509  0.253151  1
  Si  Si6  1  0.938465  0.560382  0.747041  1
  Si  Si7  1  0.621917  0.061535  0.747041  1
  Si  Si8  1  0.439618  0.378083  0.747041  1
  Pd  Pd9  1  0.774783  0.048294  0.251341  1
  Pd  Pd10  1  0.273511  0.225217  0.251341  1
  Pd  Pd11  1  0.951706  0.726489  0.251341  1
  Pd  Pd12  1  0.892228  0.284193  0.748180  1
  Pd  Pd13  1  0.391964  0.107772  0.748180  1
  Pd  Pd14  1  0.715807  0.608036  0.748180  1
  Pd  Pd15  1  0.484933  0.541880  0.246254  1
  Pd  Pd16  1  0.056945  0.515067  0.246254  1
  Pd  Pd17  1  0.458120  0.943055  0.246254  1
  Pd  Pd18  1  0.185518  0.788417  0.754354  1
  Pd  Pd19  1  0.602899  0.814482  0.754354  1
  Pd  Pd20  1  0.211583  0.397101  0.754354  1
