# generated using pymatgen
data_Pr6ScAlSiSe14
_symmetry_space_group_name_H-M   'P 1'
_cell_length_a   10.66384900
_cell_length_b   10.66384877
_cell_length_c   6.21245900
_cell_angle_alpha   90.00000000
_cell_angle_beta   90.00000000
_cell_angle_gamma   120.00001003
_symmetry_Int_Tables_number   1
_chemical_formula_structural   Pr6ScAlSiSe14
_chemical_formula_sum   'Pr6 Sc1 Al1 Si1 Se14'
_cell_volume   611.81777110
_cell_formula_units_Z   1
loop_
 _symmetry_equiv_pos_site_id
 _symmetry_equiv_pos_as_xyz
  1  'x, y, z'
loop_
 _atom_site_type_symbol
 _atom_site_label
 _atom_site_symmetry_multiplicity
 _atom_site_fract_x
 _atom_site_fract_y
 _atom_site_fract_z
 _atom_site_occupancy
  Pr  Pr0  1  0.804407  0.699766  0.525767  1
  Pr  Pr1  1  0.895359  0.195593  0.525767  1
  Pr  Pr2  1  0.300234  0.104641  0.525767  1
  Pr  Pr3  1  0.522628  0.965190  0.040907  1
  Pr  Pr4  1  0.442562  0.477372  0.040907  1
  Pr  Pr5  1  0.034810  0.557438  0.040907  1
  Sc  Sc6  1  0.666667  0.333333  0.317578  1
  Al  Al7  1  0.333333  0.666667  0.450983  1
  Si  Si8  1  0.000000  0.000000  0.942105  1
  Se  Se9  1  0.000000  0.000000  0.309286  1
  Se  Se10  1  0.333333  0.666667  0.830806  1
  Se  Se11  1  0.083198  0.855432  0.799682  1
  Se  Se12  1  0.772234  0.916802  0.799682  1
  Se  Se13  1  0.144568  0.227766  0.799682  1
  Se  Se14  1  0.241631  0.814458  0.303246  1
  Se  Se15  1  0.572827  0.758369  0.303246  1
  Se  Se16  1  0.185542  0.427173  0.303246  1
  Se  Se17  1  0.914046  0.487806  0.553133  1
  Se  Se18  1  0.573762  0.085954  0.553133  1
  Se  Se19  1  0.512194  0.426238  0.553133  1
  Se  Se20  1  0.422472  0.186685  0.074350  1
  Se  Se21  1  0.764213  0.577528  0.074350  1
  Se  Se22  1  0.813315  0.235787  0.074350  1
