# generated using pymatgen
data_Hf16FeTc(NiRh)3
_symmetry_space_group_name_H-M   'P 1'
_cell_length_a   8.64626755
_cell_length_b   8.59866523
_cell_length_c   8.59866600
_cell_angle_alpha   59.99999703
_cell_angle_beta   60.18195216
_cell_angle_gamma   60.18195306
_symmetry_Int_Tables_number   1
_chemical_formula_structural   Hf16FeTc(NiRh)3
_chemical_formula_sum   'Hf16 Fe1 Tc1 Ni3 Rh3'
_cell_volume   453.27808967
_cell_formula_units_Z   1
loop_
 _symmetry_equiv_pos_site_id
 _symmetry_equiv_pos_as_xyz
  1  'x, y, z'
loop_
 _atom_site_type_symbol
 _atom_site_label
 _atom_site_symmetry_multiplicity
 _atom_site_fract_x
 _atom_site_fract_y
 _atom_site_fract_z
 _atom_site_occupancy
  Hf  Hf0  1  0.665496  0.111501  0.111501  1
  Hf  Hf1  1  0.108012  0.683650  0.104168  1
  Hf  Hf2  1  0.108012  0.104168  0.683650  1
  Hf  Hf3  1  0.108012  0.104168  0.104168  1
  Hf  Hf4  1  0.316128  0.312582  0.685645  1
  Hf  Hf5  1  0.692631  0.679918  0.313726  1
  Hf  Hf6  1  0.316128  0.685645  0.312582  1
  Hf  Hf7  1  0.692631  0.313726  0.679918  1
  Hf  Hf8  1  0.692631  0.313726  0.313726  1
  Hf  Hf9  1  0.316128  0.685645  0.685645  1
  Hf  Hf10  1  0.947705  0.949135  0.551581  1
  Hf  Hf11  1  0.551748  0.560877  0.943688  1
  Hf  Hf12  1  0.947705  0.551581  0.949135  1
  Hf  Hf13  1  0.551748  0.943688  0.560877  1
  Hf  Hf14  1  0.551748  0.943688  0.943688  1
  Hf  Hf15  1  0.947705  0.551581  0.551581  1
  Fe  Fe16  1  0.321917  0.892695  0.892695  1
  Tc  Tc17  1  0.997781  0.334073  0.334073  1
  Ni  Ni18  1  0.889909  0.317236  0.896428  1
  Ni  Ni19  1  0.889909  0.896428  0.317236  1
  Ni  Ni20  1  0.889909  0.896428  0.896428  1
  Rh  Rh21  1  0.332135  0.994064  0.336900  1
  Rh  Rh22  1  0.332135  0.336900  0.994064  1
  Rh  Rh23  1  0.332135  0.336900  0.336900  1
