# generated using pymatgen
data_La6Nd10Cd4Ni3Os
_symmetry_space_group_name_H-M   'P 1'
_cell_length_a   9.95022587
_cell_length_b   9.98648651
_cell_length_c   9.98648766
_cell_angle_alpha   59.23743409
_cell_angle_beta   59.61311504
_cell_angle_gamma   59.61312555
_symmetry_Int_Tables_number   1
_chemical_formula_structural   La6Nd10Cd4Ni3Os
_chemical_formula_sum   'La6 Nd10 Cd4 Ni3 Os1'
_cell_volume   693.49391096
_cell_formula_units_Z   1
loop_
 _symmetry_equiv_pos_site_id
 _symmetry_equiv_pos_as_xyz
  1  'x, y, z'
loop_
 _atom_site_type_symbol
 _atom_site_label
 _atom_site_symmetry_multiplicity
 _atom_site_fract_x
 _atom_site_fract_y
 _atom_site_fract_z
 _atom_site_occupancy
  La  La0  1  0.595457  0.598370  0.598370  1
  La  La1  1  0.599337  0.596738  0.207712  1
  La  La2  1  0.599337  0.207712  0.596738  1
  La  La3  1  0.207188  0.600106  0.600106  1
  La  La4  1  0.064288  0.435997  0.435997  1
  La  La5  1  0.437006  0.060132  0.060132  1
  Nd  Nd6  1  0.438835  0.060022  0.439152  1
  Nd  Nd7  1  0.057524  0.438757  0.058081  1
  Nd  Nd8  1  0.438835  0.439152  0.060022  1
  Nd  Nd9  1  0.057524  0.058081  0.438757  1
  Nd  Nd10  1  0.185311  0.816972  0.816972  1
  Nd  Nd11  1  0.805463  0.187872  0.187872  1
  Nd  Nd12  1  0.815776  0.187507  0.815402  1
  Nd  Nd13  1  0.189620  0.804205  0.188965  1
  Nd  Nd14  1  0.815776  0.815402  0.187507  1
  Nd  Nd15  1  0.189620  0.188965  0.804205  1
  Cd  Cd16  1  0.831509  0.829662  0.829662  1
  Cd  Cd17  1  0.828861  0.830613  0.508956  1
  Cd  Cd18  1  0.828861  0.508956  0.830613  1
  Cd  Cd19  1  0.509181  0.828700  0.828700  1
  Ni  Ni20  1  0.394374  0.391003  0.826506  1
  Ni  Ni21  1  0.394374  0.826506  0.391003  1
  Ni  Ni22  1  0.827132  0.394200  0.394200  1
  Os  Os23  1  0.388809  0.394368  0.394368  1
