# generated using pymatgen
data_Rb3Li2HfBi3
_symmetry_space_group_name_H-M   'P 1'
_cell_length_a   14.20682730
_cell_length_b   14.20682796
_cell_length_c   14.20686733
_cell_angle_alpha   150.87225972
_cell_angle_beta   105.49853732
_cell_angle_gamma   81.90853389
_symmetry_Int_Tables_number   1
_chemical_formula_structural   Rb3Li2HfBi3
_chemical_formula_sum   'Rb12 Li8 Hf4 Bi12'
_cell_volume   1318.48283209
_cell_formula_units_Z   4
loop_
 _symmetry_equiv_pos_site_id
 _symmetry_equiv_pos_as_xyz
  1  'x, y, z'
loop_
 _atom_site_type_symbol
 _atom_site_label
 _atom_site_symmetry_multiplicity
 _atom_site_fract_x
 _atom_site_fract_y
 _atom_site_fract_z
 _atom_site_occupancy
  Rb  Rb0  1  0.591223  0.947962  0.198816  1
  Rb  Rb1  1  0.072951  0.749999  0.822950  1
  Rb  Rb2  1  0.908776  0.107592  0.356738  1
  Rb  Rb3  1  0.408777  0.052038  0.801184  1
  Rb  Rb4  1  0.750855  0.607594  0.698816  1
  Rb  Rb5  1  0.249145  0.392406  0.301184  1
  Rb  Rb6  1  0.091224  0.892408  0.643262  1
  Rb  Rb7  1  0.427049  0.250001  0.677050  1
  Rb  Rb8  1  0.749146  0.447962  0.856738  1
  Rb  Rb9  1  0.250854  0.552038  0.143262  1
  Rb  Rb10  1  0.927049  0.250001  0.177050  1
  Rb  Rb11  1  0.572951  0.749999  0.322950  1
  Li  Li12  1  0.999036  0.249036  0.750000  1
  Li  Li13  1  0.664404  0.914404  0.750000  1
  Li  Li14  1  0.000964  0.750964  0.250000  1
  Li  Li15  1  0.500963  0.250963  0.250000  1
  Li  Li16  1  0.499037  0.749037  0.750000  1
  Li  Li17  1  0.164404  0.414404  0.750000  1
  Li  Li18  1  0.335596  0.085596  0.250000  1
  Li  Li19  1  0.835596  0.585596  0.250000  1
  Hf  Hf20  1  0.666470  0.416470  0.250000  1
  Hf  Hf21  1  0.166471  0.916471  0.250000  1
  Hf  Hf22  1  0.833529  0.083529  0.750000  1
  Hf  Hf23  1  0.333530  0.583530  0.750000  1
  Bi  Bi24  1  0.339014  0.750000  0.089013  1
  Bi  Bi25  1  0.493011  0.565238  0.383338  1
  Bi  Bi26  1  0.993011  0.609673  0.927772  1
  Bi  Bi27  1  0.506989  0.434762  0.616662  1
  Bi  Bi28  1  0.318100  0.890327  0.883338  1
  Bi  Bi29  1  0.681900  0.109673  0.116662  1
  Bi  Bi30  1  0.006989  0.390327  0.072228  1
  Bi  Bi31  1  0.660986  0.250000  0.910987  1
  Bi  Bi32  1  0.818099  0.934760  0.427772  1
  Bi  Bi33  1  0.160986  0.250000  0.410987  1
  Bi  Bi34  1  0.181901  0.065240  0.572228  1
  Bi  Bi35  1  0.839014  0.750000  0.589013  1
