# generated using pymatgen
data_LiCo20(B3W)2
_symmetry_space_group_name_H-M   'P 1'
_cell_length_a   7.38532469
_cell_length_b   7.38532487
_cell_length_c   7.38532500
_cell_angle_alpha   60.00000389
_cell_angle_beta   60.00000311
_cell_angle_gamma   60.00000803
_symmetry_Int_Tables_number   1
_chemical_formula_structural   LiCo20(B3W)2
_chemical_formula_sum   'Li1 Co20 B6 W2'
_cell_volume   284.83533272
_cell_formula_units_Z   1
loop_
 _symmetry_equiv_pos_site_id
 _symmetry_equiv_pos_as_xyz
  1  'x, y, z'
loop_
 _atom_site_type_symbol
 _atom_site_label
 _atom_site_symmetry_multiplicity
 _atom_site_fract_x
 _atom_site_fract_y
 _atom_site_fract_z
 _atom_site_occupancy
  Li  Li0  1  0.000000  0.000000  0.000000  1
  Co  Co1  1  0.000000  0.341681  0.658319  1
  Co  Co2  1  0.341681  0.658319  0.000000  1
  Co  Co3  1  0.341681  0.000000  0.000000  1
  Co  Co4  1  0.658319  0.341681  0.000000  1
  Co  Co5  1  0.341681  0.000000  0.658319  1
  Co  Co6  1  0.382163  0.382163  0.853513  1
  Co  Co7  1  0.617837  0.617837  0.617837  1
  Co  Co8  1  0.000000  0.000000  0.658319  1
  Co  Co9  1  0.146487  0.617837  0.617837  1
  Co  Co10  1  0.000000  0.341681  0.000000  1
  Co  Co11  1  0.000000  0.658319  0.341681  1
  Co  Co12  1  0.658319  0.000000  0.341681  1
  Co  Co13  1  0.617837  0.146487  0.617837  1
  Co  Co14  1  0.000000  0.000000  0.341681  1
  Co  Co15  1  0.000000  0.658319  0.000000  1
  Co  Co16  1  0.658319  0.000000  0.000000  1
  Co  Co17  1  0.382163  0.853513  0.382163  1
  Co  Co18  1  0.382163  0.382163  0.382163  1
  Co  Co19  1  0.853513  0.382163  0.382163  1
  Co  Co20  1  0.617837  0.617837  0.146487  1
  B  B21  1  0.726796  0.273204  0.273204  1
  B  B22  1  0.726796  0.726796  0.273204  1
  B  B23  1  0.273204  0.726796  0.726796  1
  B  B24  1  0.726796  0.273204  0.726796  1
  B  B25  1  0.273204  0.273204  0.726796  1
  B  B26  1  0.273204  0.726796  0.273204  1
  W  W27  1  0.250000  0.250000  0.250000  1
  W  W28  1  0.750000  0.750000  0.750000  1
