# generated using pymatgen
data_Pr8Lu12Ga5Si11
_symmetry_space_group_name_H-M   'P 1'
_cell_length_a   7.47872426
_cell_length_b   7.77596741
_cell_length_c   14.80347485
_cell_angle_alpha   89.99492233
_cell_angle_beta   90.09128356
_cell_angle_gamma   90.08037022
_symmetry_Int_Tables_number   1
_chemical_formula_structural   Pr8Lu12Ga5Si11
_chemical_formula_sum   'Pr8 Lu12 Ga5 Si11'
_cell_volume   860.88401285
_cell_formula_units_Z   1
loop_
 _symmetry_equiv_pos_site_id
 _symmetry_equiv_pos_as_xyz
  1  'x, y, z'
loop_
 _atom_site_type_symbol
 _atom_site_label
 _atom_site_symmetry_multiplicity
 _atom_site_fract_x
 _atom_site_fract_y
 _atom_site_fract_z
 _atom_site_occupancy
  Pr  Pr0  1  0.017224  0.174981  0.400347  1
  Pr  Pr1  1  0.517086  0.325194  0.400479  1
  Pr  Pr2  1  0.484746  0.675589  0.899807  1
  Pr  Pr3  1  0.483125  0.678721  0.598781  1
  Pr  Pr4  1  0.983410  0.821659  0.598662  1
  Pr  Pr5  1  0.982844  0.827723  0.900294  1
  Pr  Pr6  1  0.515930  0.323583  0.100981  1
  Pr  Pr7  1  0.015498  0.176588  0.101183  1
  Lu  Lu8  1  0.325761  0.172910  0.623937  1
  Lu  Lu9  1  0.675690  0.822814  0.375768  1
  Lu  Lu10  1  0.660309  0.995406  0.751190  1
  Lu  Lu11  1  0.174961  0.677222  0.375591  1
  Lu  Lu12  1  0.823641  0.323672  0.875723  1
  Lu  Lu13  1  0.825286  0.326169  0.623719  1
  Lu  Lu14  1  0.840290  0.496027  0.250770  1
  Lu  Lu15  1  0.341130  0.003077  0.251551  1
  Lu  Lu16  1  0.327066  0.175812  0.874274  1
  Lu  Lu17  1  0.173837  0.673156  0.125953  1
  Lu  Lu18  1  0.673150  0.826959  0.125197  1
  Lu  Lu19  1  0.159035  0.503274  0.750475  1
  Ga  Ga20  1  0.154550  0.462412  0.538098  1
  Ga  Ga21  1  0.844194  0.537527  0.039277  1
  Ga  Ga22  1  0.344633  0.961614  0.038379  1
  Ga  Ga23  1  0.154080  0.462698  0.960206  1
  Ga  Ga24  1  0.654427  0.037818  0.538129  1
  Si  Si25  1  0.280371  0.879125  0.749602  1
  Si  Si26  1  0.469786  0.617472  0.251500  1
  Si  Si27  1  0.029875  0.117395  0.749042  1
  Si  Si28  1  0.530604  0.384139  0.749139  1
  Si  Si29  1  0.970154  0.883487  0.250729  1
  Si  Si30  1  0.717921  0.121130  0.251238  1
  Si  Si31  1  0.350312  0.965129  0.459526  1
  Si  Si32  1  0.850314  0.535004  0.459536  1
  Si  Si33  1  0.781419  0.620622  0.749271  1
  Si  Si34  1  0.218011  0.378338  0.251323  1
  Si  Si35  1  0.649331  0.035554  0.960323  1
