# generated using pymatgen
data_LaCd2Ru4PbO14
_symmetry_space_group_name_H-M   'P 1'
_cell_length_a   7.32333411
_cell_length_b   7.41175669
_cell_length_c   7.32333460
_cell_angle_alpha   59.76160329
_cell_angle_beta   59.48817911
_cell_angle_gamma   59.76160213
_symmetry_Int_Tables_number   1
_chemical_formula_structural   LaCd2Ru4PbO14
_chemical_formula_sum   'La1 Cd2 Ru4 Pb1 O14'
_cell_volume   278.96744735
_cell_formula_units_Z   1
loop_
 _symmetry_equiv_pos_site_id
 _symmetry_equiv_pos_as_xyz
  1  'x, y, z'
loop_
 _atom_site_type_symbol
 _atom_site_label
 _atom_site_symmetry_multiplicity
 _atom_site_fract_x
 _atom_site_fract_y
 _atom_site_fract_z
 _atom_site_occupancy
  La  La0  1  0.125000  0.125000  0.125000  1
  Cd  Cd1  1  0.125000  0.125000  0.625000  1
  Cd  Cd2  1  0.625000  0.125000  0.125000  1
  Ru  Ru3  1  0.625000  0.125000  0.625000  1
  Ru  Ru4  1  0.625000  0.625000  0.125000  1
  Ru  Ru5  1  0.125000  0.625000  0.625000  1
  Ru  Ru6  1  0.625000  0.625000  0.625000  1
  Pb  Pb7  1  0.125000  0.625000  0.125000  1
  O  O8  1  0.700921  0.684555  0.305176  1
  O  O9  1  0.944824  0.565445  0.549079  1
  O  O10  1  0.552795  0.947934  0.950850  1
  O  O11  1  0.950850  0.947934  0.552795  1
  O  O12  1  0.950027  0.553290  0.950027  1
  O  O13  1  0.561100  0.940197  0.561100  1
  O  O14  1  0.299973  0.696710  0.299973  1
  O  O15  1  0.305176  0.684555  0.700921  1
  O  O16  1  0.697205  0.302066  0.299150  1
  O  O17  1  0.688900  0.309803  0.688900  1
  O  O18  1  0.549079  0.565445  0.944824  1
  O  O19  1  0.299150  0.302066  0.697205  1
  O  O20  1  0.264921  0.233865  0.264921  1
  O  O21  1  0.985079  0.016135  0.985079  1
