# generated using pymatgen
data_SrY4Si12Ir19
_symmetry_space_group_name_H-M   'P 1'
_cell_length_a   12.86145700
_cell_length_b   12.86145819
_cell_length_c   3.99971000
_cell_angle_alpha   90.00000000
_cell_angle_beta   90.00000000
_cell_angle_gamma   120.00000465
_symmetry_Int_Tables_number   1
_chemical_formula_structural   SrY4Si12Ir19
_chemical_formula_sum   'Sr1 Y4 Si12 Ir19'
_cell_volume   572.98004279
_cell_formula_units_Z   1
loop_
 _symmetry_equiv_pos_site_id
 _symmetry_equiv_pos_as_xyz
  1  'x, y, z'
loop_
 _atom_site_type_symbol
 _atom_site_label
 _atom_site_symmetry_multiplicity
 _atom_site_fract_x
 _atom_site_fract_y
 _atom_site_fract_z
 _atom_site_occupancy
  Sr  Sr0  1  0.666667  0.333333  0.000000  1
  Y  Y1  1  0.000126  0.815684  0.500000  1
  Y  Y2  1  0.184316  0.184442  0.500000  1
  Y  Y3  1  0.815558  0.999874  0.500000  1
  Y  Y4  1  0.333333  0.666667  0.000000  1
  Si  Si5  1  0.000896  0.181950  0.000000  1
  Si  Si6  1  0.818050  0.818945  0.000000  1
  Si  Si7  1  0.181055  0.999104  0.000000  1
  Si  Si8  1  0.519588  0.688024  0.500000  1
  Si  Si9  1  0.311976  0.831565  0.500000  1
  Si  Si10  1  0.168435  0.480412  0.500000  1
  Si  Si11  1  0.478897  0.165776  0.500000  1
  Si  Si12  1  0.686879  0.521103  0.500000  1
  Si  Si13  1  0.834224  0.313121  0.500000  1
  Si  Si14  1  0.999514  0.631127  0.000000  1
  Si  Si15  1  0.368873  0.368387  0.000000  1
  Si  Si16  1  0.631613  0.000486  0.000000  1
  Ir  Ir17  1  0.001243  0.282942  0.500000  1
  Ir  Ir18  1  0.717058  0.718301  0.500000  1
  Ir  Ir19  1  0.281699  0.998757  0.500000  1
  Ir  Ir20  1  0.622934  0.806513  0.000000  1
  Ir  Ir21  1  0.193487  0.816421  0.000000  1
  Ir  Ir22  1  0.183579  0.377066  0.000000  1
  Ir  Ir23  1  0.374077  0.180957  0.000000  1
  Ir  Ir24  1  0.806880  0.625923  0.000000  1
  Ir  Ir25  1  0.819043  0.193120  0.000000  1
  Ir  Ir26  1  0.510630  0.871541  0.500000  1
  Ir  Ir27  1  0.128459  0.639089  0.500000  1
  Ir  Ir28  1  0.360911  0.489370  0.500000  1
  Ir  Ir29  1  0.483006  0.360126  0.500000  1
  Ir  Ir30  1  0.877120  0.516994  0.500000  1
  Ir  Ir31  1  0.639874  0.122880  0.500000  1
  Ir  Ir32  1  0.000000  0.000000  0.000000  1
  Ir  Ir33  1  0.001217  0.447506  0.000000  1
  Ir  Ir34  1  0.552494  0.553711  0.000000  1
  Ir  Ir35  1  0.446289  0.998783  0.000000  1
