# generated using pymatgen
data_Ho7Er9Cd4Ir3Ru
_symmetry_space_group_name_H-M   'P 1'
_cell_length_a   9.57480833
_cell_length_b   9.57480703
_cell_length_c   9.57478980
_cell_angle_alpha   59.72723877
_cell_angle_beta   59.72724225
_cell_angle_gamma   59.73694287
_symmetry_Int_Tables_number   1
_chemical_formula_structural   Ho7Er9Cd4Ir3Ru
_chemical_formula_sum   'Ho7 Er9 Cd4 Ir3 Ru1'
_cell_volume   616.89014997
_cell_formula_units_Z   1
loop_
 _symmetry_equiv_pos_site_id
 _symmetry_equiv_pos_as_xyz
  1  'x, y, z'
loop_
 _atom_site_type_symbol
 _atom_site_label
 _atom_site_symmetry_multiplicity
 _atom_site_fract_x
 _atom_site_fract_y
 _atom_site_fract_z
 _atom_site_occupancy
  Ho  Ho0  1  0.060408  0.060408  0.438007  1
  Ho  Ho1  1  0.188630  0.811643  0.811807  1
  Ho  Ho2  1  0.810098  0.188202  0.188005  1
  Ho  Ho3  1  0.811643  0.188630  0.811807  1
  Ho  Ho4  1  0.188202  0.810098  0.188005  1
  Ho  Ho5  1  0.811626  0.811626  0.188648  1
  Ho  Ho6  1  0.188113  0.188113  0.810203  1
  Er  Er7  1  0.599153  0.599153  0.599209  1
  Er  Er8  1  0.598595  0.598595  0.205745  1
  Er  Er9  1  0.598264  0.205909  0.598614  1
  Er  Er10  1  0.205909  0.598264  0.598614  1
  Er  Er11  1  0.062181  0.438554  0.438313  1
  Er  Er12  1  0.438169  0.060447  0.060388  1
  Er  Er13  1  0.438554  0.062181  0.438313  1
  Er  Er14  1  0.060447  0.438169  0.060388  1
  Er  Er15  1  0.438364  0.438364  0.062225  1
  Cd  Cd16  1  0.829858  0.829858  0.830004  1
  Cd  Cd17  1  0.830560  0.830560  0.507394  1
  Cd  Cd18  1  0.830622  0.507449  0.830570  1
  Cd  Cd19  1  0.507449  0.830622  0.830570  1
  Ir  Ir20  1  0.393016  0.393016  0.825697  1
  Ir  Ir21  1  0.393448  0.825272  0.393027  1
  Ir  Ir22  1  0.825272  0.393448  0.393027  1
  Ru  Ru23  1  0.391426  0.391426  0.391422  1
