# generated using pymatgen
data_DyTiMn3CoP3
_symmetry_space_group_name_H-M   'P 1'
_cell_length_a   3.62388700
_cell_length_b   10.74167400
_cell_length_c   12.37521300
_cell_angle_alpha   90.00000000
_cell_angle_beta   90.00000000
_cell_angle_gamma   90.00000000
_symmetry_Int_Tables_number   1
_chemical_formula_structural   DyTiMn3CoP3
_chemical_formula_sum   'Dy4 Ti4 Mn12 Co4 P12'
_cell_volume   481.72512436
_cell_formula_units_Z   4
loop_
 _symmetry_equiv_pos_site_id
 _symmetry_equiv_pos_as_xyz
  1  'x, y, z'
loop_
 _atom_site_type_symbol
 _atom_site_label
 _atom_site_symmetry_multiplicity
 _atom_site_fract_x
 _atom_site_fract_y
 _atom_site_fract_z
 _atom_site_occupancy
  Dy  Dy0  1  0.250000  0.584586  0.709459  1
  Dy  Dy1  1  0.250000  0.915414  0.209459  1
  Dy  Dy2  1  0.750000  0.415414  0.290541  1
  Dy  Dy3  1  0.750000  0.084586  0.790541  1
  Ti  Ti4  1  0.250000  0.704023  0.985974  1
  Ti  Ti5  1  0.250000  0.795977  0.485974  1
  Ti  Ti6  1  0.750000  0.295977  0.014026  1
  Ti  Ti7  1  0.750000  0.204023  0.514026  1
  Mn  Mn8  1  0.250000  0.409072  0.493385  1
  Mn  Mn9  1  0.250000  0.090928  0.993385  1
  Mn  Mn10  1  0.750000  0.590928  0.506615  1
  Mn  Mn11  1  0.750000  0.909072  0.006615  1
  Mn  Mn12  1  0.250000  0.215622  0.177209  1
  Mn  Mn13  1  0.250000  0.284378  0.677209  1
  Mn  Mn14  1  0.750000  0.784378  0.822791  1
  Mn  Mn15  1  0.750000  0.715622  0.322791  1
  Mn  Mn16  1  0.250000  0.879636  0.698000  1
  Mn  Mn17  1  0.250000  0.620364  0.198000  1
  Mn  Mn18  1  0.750000  0.120364  0.302000  1
  Mn  Mn19  1  0.750000  0.379636  0.802000  1
  Co  Co20  1  0.250000  0.463182  0.934697  1
  Co  Co21  1  0.250000  0.036818  0.434697  1
  Co  Co22  1  0.750000  0.536818  0.065303  1
  Co  Co23  1  0.750000  0.963182  0.565303  1
  P  P24  1  0.250000  0.423832  0.113929  1
  P  P25  1  0.250000  0.076168  0.613929  1
  P  P26  1  0.750000  0.576168  0.886071  1
  P  P27  1  0.750000  0.923832  0.386071  1
  P  P28  1  0.250000  0.265794  0.868769  1
  P  P29  1  0.250000  0.234206  0.368769  1
  P  P30  1  0.750000  0.734206  0.131231  1
  P  P31  1  0.750000  0.765794  0.631231  1
  P  P32  1  0.250000  0.589566  0.384593  1
  P  P33  1  0.250000  0.910434  0.884593  1
  P  P34  1  0.750000  0.410434  0.615407  1
  P  P35  1  0.750000  0.089566  0.115407  1
