# generated using pymatgen
data_Tb5RhPb3
_symmetry_space_group_name_H-M   'P 1'
_cell_length_a   9.26195300
_cell_length_b   9.26195311
_cell_length_c   6.86041800
_cell_angle_alpha   90.00000000
_cell_angle_beta   90.00000000
_cell_angle_gamma   119.99999604
_symmetry_Int_Tables_number   1
_chemical_formula_structural   Tb5RhPb3
_chemical_formula_sum   'Tb10 Rh2 Pb6'
_cell_volume   509.66683892
_cell_formula_units_Z   2
loop_
 _symmetry_equiv_pos_site_id
 _symmetry_equiv_pos_as_xyz
  1  'x, y, z'
loop_
 _atom_site_type_symbol
 _atom_site_label
 _atom_site_symmetry_multiplicity
 _atom_site_fract_x
 _atom_site_fract_y
 _atom_site_fract_z
 _atom_site_occupancy
  Tb  Tb0  1  0.237772  0.237772  0.750000  1
  Tb  Tb1  1  0.000000  0.762228  0.750000  1
  Tb  Tb2  1  0.237772  0.000000  0.250000  1
  Tb  Tb3  1  0.762228  0.000000  0.750000  1
  Tb  Tb4  1  0.333333  0.666667  0.500000  1
  Tb  Tb5  1  0.666667  0.333333  0.500000  1
  Tb  Tb6  1  0.762228  0.762228  0.250000  1
  Tb  Tb7  1  0.000000  0.237772  0.250000  1
  Tb  Tb8  1  0.333333  0.666667  0.000000  1
  Tb  Tb9  1  0.666667  0.333333  0.000000  1
  Rh  Rh10  1  0.000000  0.000000  0.000000  1
  Rh  Rh11  1  0.000000  0.000000  0.500000  1
  Pb  Pb12  1  0.596658  0.000000  0.250000  1
  Pb  Pb13  1  0.000000  0.596658  0.250000  1
  Pb  Pb14  1  0.596658  0.596658  0.750000  1
  Pb  Pb15  1  0.403342  0.403342  0.250000  1
  Pb  Pb16  1  0.000000  0.403342  0.750000  1
  Pb  Pb17  1  0.403342  0.000000  0.750000  1
