# generated using pymatgen
data_Ti5VSi2B
_symmetry_space_group_name_H-M   'P 1'
_cell_length_a   6.70233700
_cell_length_b   6.69286804
_cell_length_c   3.31207500
_cell_angle_alpha   90.00000000
_cell_angle_beta   90.00000000
_cell_angle_gamma   120.04680678
_symmetry_Int_Tables_number   1
_chemical_formula_structural   Ti5VSi2B
_chemical_formula_sum   'Ti5 V1 Si2 B1'
_cell_volume   128.60690483
_cell_formula_units_Z   1
loop_
 _symmetry_equiv_pos_site_id
 _symmetry_equiv_pos_as_xyz
  1  'x, y, z'
loop_
 _atom_site_type_symbol
 _atom_site_label
 _atom_site_symmetry_multiplicity
 _atom_site_fract_x
 _atom_site_fract_y
 _atom_site_fract_z
 _atom_site_occupancy
  Ti  Ti0  1  0.761795  0.762372  0.500000  1
  Ti  Ti1  1  0.999422  0.237628  0.500000  1
  Ti  Ti2  1  0.595457  0.000000  0.000000  1
  Ti  Ti3  1  0.392904  0.389975  0.000000  1
  Ti  Ti4  1  0.002929  0.610025  0.000000  1
  V  V5  1  0.238306  0.000000  0.500000  1
  Si  Si6  1  0.331601  0.668211  0.500000  1
  Si  Si7  1  0.663391  0.331789  0.500000  1
  B  B8  1  0.014195  0.000000  0.000000  1
