# generated using pymatgen
data_Li2SmDy4ThAu10
_symmetry_space_group_name_H-M   'P 1'
_cell_length_a   8.42909100
_cell_length_b   8.42909109
_cell_length_c   13.68254800
_cell_angle_alpha   90.00000000
_cell_angle_beta   90.00000000
_cell_angle_gamma   127.30700367
_symmetry_Int_Tables_number   1
_chemical_formula_structural   Li2SmDy4ThAu10
_chemical_formula_sum   'Li4 Sm2 Dy8 Th2 Au20'
_cell_volume   773.23896227
_cell_formula_units_Z   2
loop_
 _symmetry_equiv_pos_site_id
 _symmetry_equiv_pos_as_xyz
  1  'x, y, z'
loop_
 _atom_site_type_symbol
 _atom_site_label
 _atom_site_symmetry_multiplicity
 _atom_site_fract_x
 _atom_site_fract_y
 _atom_site_fract_z
 _atom_site_occupancy
  Li  Li0  1  0.723499  0.276501  0.250000  1
  Li  Li1  1  0.276501  0.723499  0.750000  1
  Li  Li2  1  0.533783  0.466217  0.250000  1
  Li  Li3  1  0.466217  0.533783  0.750000  1
  Sm  Sm4  1  0.932760  0.067240  0.250000  1
  Sm  Sm5  1  0.067240  0.932760  0.750000  1
  Dy  Dy6  1  0.629212  0.370788  0.464657  1
  Dy  Dy7  1  0.370788  0.629212  0.535343  1
  Dy  Dy8  1  0.629212  0.370788  0.035343  1
  Dy  Dy9  1  0.370788  0.629212  0.964657  1
  Dy  Dy10  1  0.881574  0.118426  0.948075  1
  Dy  Dy11  1  0.118426  0.881574  0.051925  1
  Dy  Dy12  1  0.881574  0.118426  0.551925  1
  Dy  Dy13  1  0.118426  0.881574  0.448075  1
  Th  Th14  1  0.317676  0.682324  0.250000  1
  Th  Th15  1  0.682324  0.317676  0.750000  1
  Au  Au16  1  0.322211  0.067510  0.250000  1
  Au  Au17  1  0.067510  0.322211  0.750000  1
  Au  Au18  1  0.677789  0.932490  0.750000  1
  Au  Au19  1  0.932490  0.677789  0.250000  1
  Au  Au20  1  0.571922  0.007716  0.397707  1
  Au  Au21  1  0.007716  0.571922  0.602293  1
  Au  Au22  1  0.571922  0.007716  0.102293  1
  Au  Au23  1  0.007716  0.571922  0.897707  1
  Au  Au24  1  0.428078  0.992284  0.602293  1
  Au  Au25  1  0.992284  0.428078  0.397707  1
  Au  Au26  1  0.428078  0.992284  0.897707  1
  Au  Au27  1  0.992284  0.428078  0.102293  1
  Au  Au28  1  0.684674  0.736337  0.393785  1
  Au  Au29  1  0.736337  0.684674  0.606215  1
  Au  Au30  1  0.684674  0.736337  0.106215  1
  Au  Au31  1  0.736337  0.684674  0.893785  1
  Au  Au32  1  0.315326  0.263663  0.606215  1
  Au  Au33  1  0.263663  0.315326  0.393785  1
  Au  Au34  1  0.315326  0.263663  0.893785  1
  Au  Au35  1  0.263663  0.315326  0.106215  1
