# generated using pymatgen
data_TaTiNbP
_symmetry_space_group_name_H-M   'P 1'
_cell_length_a   10.05890800
_cell_length_b   10.05890800
_cell_length_c   5.11575000
_cell_angle_alpha   90.00000000
_cell_angle_beta   90.00000000
_cell_angle_gamma   90.00000000
_symmetry_Int_Tables_number   1
_chemical_formula_structural   TaTiNbP
_chemical_formula_sum   'Ta8 Ti8 Nb8 P8'
_cell_volume   517.61992445
_cell_formula_units_Z   8
loop_
 _symmetry_equiv_pos_site_id
 _symmetry_equiv_pos_as_xyz
  1  'x, y, z'
loop_
 _atom_site_type_symbol
 _atom_site_label
 _atom_site_symmetry_multiplicity
 _atom_site_fract_x
 _atom_site_fract_y
 _atom_site_fract_z
 _atom_site_occupancy
  Ta  Ta0  1  0.398516  0.912371  0.465918  1
  Ta  Ta1  1  0.412371  0.101484  0.965918  1
  Ta  Ta2  1  0.587629  0.898516  0.965918  1
  Ta  Ta3  1  0.601484  0.087629  0.465918  1
  Ta  Ta4  1  0.101484  0.587629  0.034082  1
  Ta  Ta5  1  0.087629  0.398516  0.534082  1
  Ta  Ta6  1  0.912371  0.601484  0.534082  1
  Ta  Ta7  1  0.898516  0.412371  0.034082  1
  Ti  Ti8  1  0.019554  0.856282  0.272044  1
  Ti  Ti9  1  0.356282  0.480446  0.772044  1
  Ti  Ti10  1  0.643718  0.519554  0.772044  1
  Ti  Ti11  1  0.980446  0.143718  0.272044  1
  Ti  Ti12  1  0.480446  0.643718  0.227956  1
  Ti  Ti13  1  0.143718  0.019554  0.727956  1
  Ti  Ti14  1  0.856282  0.980446  0.727956  1
  Ti  Ti15  1  0.519554  0.356282  0.227956  1
  Nb  Nb16  1  0.286804  0.815054  0.984066  1
  Nb  Nb17  1  0.315054  0.213196  0.484066  1
  Nb  Nb18  1  0.684946  0.786804  0.484066  1
  Nb  Nb19  1  0.713196  0.184946  0.984066  1
  Nb  Nb20  1  0.213196  0.684946  0.515934  1
  Nb  Nb21  1  0.184946  0.286804  0.015934  1
  Nb  Nb22  1  0.815054  0.713196  0.015934  1
  Nb  Nb23  1  0.786804  0.315054  0.515934  1
  P  P24  1  0.030303  0.798295  0.778101  1
  P  P25  1  0.298295  0.469697  0.278101  1
  P  P26  1  0.701705  0.530303  0.278101  1
  P  P27  1  0.969697  0.201705  0.778101  1
  P  P28  1  0.469697  0.701705  0.721899  1
  P  P29  1  0.201705  0.030303  0.221899  1
  P  P30  1  0.798295  0.969697  0.221899  1
  P  P31  1  0.530303  0.298295  0.721899  1
