# generated using pymatgen
data_Y14Th2CdHg3Ir4
_symmetry_space_group_name_H-M   'P 1'
_cell_length_a   9.69437527
_cell_length_b   9.70514968
_cell_length_c   9.71576700
_cell_angle_alpha   59.96380114
_cell_angle_beta   59.92697556
_cell_angle_gamma   60.15672567
_symmetry_Int_Tables_number   1
_chemical_formula_structural   Y14Th2CdHg3Ir4
_chemical_formula_sum   'Y14 Th2 Cd1 Hg3 Ir4'
_cell_volume   646.60043738
_cell_formula_units_Z   1
loop_
 _symmetry_equiv_pos_site_id
 _symmetry_equiv_pos_as_xyz
  1  'x, y, z'
loop_
 _atom_site_type_symbol
 _atom_site_label
 _atom_site_symmetry_multiplicity
 _atom_site_fract_x
 _atom_site_fract_y
 _atom_site_fract_z
 _atom_site_occupancy
  Y  Y0  1  0.354203  0.943381  0.351209  1
  Y  Y1  1  0.941700  0.354591  0.351855  1
  Y  Y2  1  0.810721  0.190299  0.189873  1
  Y  Y3  1  0.189307  0.811387  0.809667  1
  Y  Y4  1  0.189307  0.811387  0.189639  1
  Y  Y5  1  0.810721  0.190299  0.809107  1
  Y  Y6  1  0.186320  0.187219  0.813231  1
  Y  Y7  1  0.810135  0.810046  0.189909  1
  Y  Y8  1  0.936719  0.564183  0.563323  1
  Y  Y9  1  0.563742  0.937718  0.935278  1
  Y  Y10  1  0.563742  0.937718  0.563263  1
  Y  Y11  1  0.936719  0.564183  0.935776  1
  Y  Y12  1  0.563639  0.564070  0.936146  1
  Y  Y13  1  0.939384  0.941882  0.559367  1
  Th  Th14  1  0.347246  0.346783  0.350629  1
  Th  Th15  1  0.347246  0.346783  0.955341  1
  Cd  Cd16  1  0.253947  0.582597  0.581729  1
  Hg  Hg17  1  0.584635  0.586532  0.583248  1
  Hg  Hg18  1  0.584635  0.586532  0.245587  1
  Hg  Hg19  1  0.585630  0.241689  0.586341  1
  Ir  Ir20  1  0.141873  0.142121  0.144712  1
  Ir  Ir21  1  0.141873  0.142121  0.571294  1
  Ir  Ir22  1  0.144962  0.571557  0.141741  1
  Ir  Ir23  1  0.571597  0.144923  0.141741  1
