# generated using pymatgen
data_KInPbO4
_symmetry_space_group_name_H-M   'P 1'
_cell_length_a   3.35506100
_cell_length_b   6.97543790
_cell_length_c   5.75150900
_cell_angle_alpha   71.69580292
_cell_angle_beta   90.00000000
_cell_angle_gamma   90.00000000
_symmetry_Int_Tables_number   1
_chemical_formula_structural   KInPbO4
_chemical_formula_sum   'K1 In1 Pb1 O4'
_cell_volume   127.79211568
_cell_formula_units_Z   1
loop_
 _symmetry_equiv_pos_site_id
 _symmetry_equiv_pos_as_xyz
  1  'x, y, z'
loop_
 _atom_site_type_symbol
 _atom_site_label
 _atom_site_symmetry_multiplicity
 _atom_site_fract_x
 _atom_site_fract_y
 _atom_site_fract_z
 _atom_site_occupancy
  K  K0  1  0.500000  0.500657  0.668056  1
  In  In1  1  0.500000  0.021226  0.491370  1
  Pb  Pb2  1  0.000000  0.980512  0.007204  1
  O  O3  1  0.000000  0.834560  0.406653  1
  O  O4  1  0.500000  0.821446  0.888365  1
  O  O5  1  0.000000  0.176091  0.612896  1
  O  O6  1  0.500000  0.164627  0.092415  1
