# generated using pymatgen
data_TbTm2Co(P3Ir4)2
_symmetry_space_group_name_H-M   'P 1'
_cell_length_a   3.91770900
_cell_length_b   11.07238600
_cell_length_c   12.76437500
_cell_angle_alpha   90.00000000
_cell_angle_beta   90.00000000
_cell_angle_gamma   90.00000000
_symmetry_Int_Tables_number   1
_chemical_formula_structural   TbTm2Co(P3Ir4)2
_chemical_formula_sum   'Tb2 Tm4 Co2 P12 Ir16'
_cell_volume   553.69798942
_cell_formula_units_Z   2
loop_
 _symmetry_equiv_pos_site_id
 _symmetry_equiv_pos_as_xyz
  1  'x, y, z'
loop_
 _atom_site_type_symbol
 _atom_site_label
 _atom_site_symmetry_multiplicity
 _atom_site_fract_x
 _atom_site_fract_y
 _atom_site_fract_z
 _atom_site_occupancy
  Tb  Tb0  1  0.000000  0.500000  0.522774  1
  Tb  Tb1  1  0.500000  0.000000  0.477226  1
  Tm  Tm2  1  0.500000  0.815806  0.200492  1
  Tm  Tm3  1  0.500000  0.184194  0.200492  1
  Tm  Tm4  1  0.000000  0.684194  0.799508  1
  Tm  Tm5  1  0.000000  0.315806  0.799508  1
  Co  Co6  1  0.000000  0.500000  0.976765  1
  Co  Co7  1  0.500000  0.000000  0.023235  1
  P  P8  1  0.500000  0.500000  0.880411  1
  P  P9  1  0.000000  0.000000  0.119589  1
  P  P10  1  0.500000  0.500000  0.358056  1
  P  P11  1  0.000000  0.000000  0.641944  1
  P  P12  1  0.500000  0.315866  0.619930  1
  P  P13  1  0.500000  0.684134  0.619930  1
  P  P14  1  0.000000  0.184134  0.380070  1
  P  P15  1  0.000000  0.815866  0.380070  1
  P  P16  1  0.500000  0.851184  0.896405  1
  P  P17  1  0.500000  0.148816  0.896405  1
  P  P18  1  0.000000  0.648816  0.103595  1
  P  P19  1  0.000000  0.351184  0.103595  1
  Ir  Ir20  1  0.500000  0.500000  0.177712  1
  Ir  Ir21  1  0.000000  0.000000  0.822288  1
  Ir  Ir22  1  0.500000  0.500000  0.703666  1
  Ir  Ir23  1  0.000000  0.000000  0.296334  1
  Ir  Ir24  1  0.500000  0.338877  0.997527  1
  Ir  Ir25  1  0.500000  0.661123  0.997527  1
  Ir  Ir26  1  0.000000  0.161123  0.002473  1
  Ir  Ir27  1  0.000000  0.838877  0.002473  1
  Ir  Ir28  1  0.500000  0.292637  0.428970  1
  Ir  Ir29  1  0.500000  0.707363  0.428970  1
  Ir  Ir30  1  0.000000  0.207363  0.571030  1
  Ir  Ir31  1  0.000000  0.792637  0.571030  1
  Ir  Ir32  1  0.500000  0.869142  0.715367  1
  Ir  Ir33  1  0.500000  0.130858  0.715367  1
  Ir  Ir34  1  0.000000  0.630858  0.284633  1
  Ir  Ir35  1  0.000000  0.369142  0.284633  1
