# generated using pymatgen
data_Ce3Gd7(Ga2Os3)2
_symmetry_space_group_name_H-M   'P 1'
_cell_length_a   8.53124740
_cell_length_b   8.53124802
_cell_length_c   8.53124900
_cell_angle_alpha   109.97263883
_cell_angle_beta   109.97263321
_cell_angle_gamma   109.97264215
_symmetry_Int_Tables_number   1
_chemical_formula_structural   Ce3Gd7(Ga2Os3)2
_chemical_formula_sum   'Ce3 Gd7 Ga4 Os6'
_cell_volume   468.90337367
_cell_formula_units_Z   1
loop_
 _symmetry_equiv_pos_site_id
 _symmetry_equiv_pos_as_xyz
  1  'x, y, z'
loop_
 _atom_site_type_symbol
 _atom_site_label
 _atom_site_symmetry_multiplicity
 _atom_site_fract_x
 _atom_site_fract_y
 _atom_site_fract_z
 _atom_site_occupancy
  Ce  Ce0  1  0.251699  0.194066  0.939851  1
  Ce  Ce1  1  0.939851  0.251699  0.194066  1
  Ce  Ce2  1  0.194066  0.939851  0.251699  1
  Gd  Gd3  1  0.780839  0.780839  0.780839  1
  Gd  Gd4  1  0.315814  0.568768  0.751285  1
  Gd  Gd5  1  0.751285  0.315814  0.568768  1
  Gd  Gd6  1  0.568768  0.751285  0.315814  1
  Gd  Gd7  1  0.718639  0.504967  0.995358  1
  Gd  Gd8  1  0.995358  0.718639  0.504967  1
  Gd  Gd9  1  0.504967  0.995358  0.718639  1
  Ga  Ga10  1  0.410340  0.410340  0.410340  1
  Ga  Ga11  1  0.090847  0.498597  0.003393  1
  Ga  Ga12  1  0.003393  0.090847  0.498597  1
  Ga  Ga13  1  0.498597  0.003393  0.090847  1
  Os  Os14  1  0.896272  0.122347  0.752381  1
  Os  Os15  1  0.752381  0.896272  0.122347  1
  Os  Os16  1  0.122347  0.752381  0.896272  1
  Os  Os17  1  0.232122  0.603419  0.368995  1
  Os  Os18  1  0.368995  0.232122  0.603419  1
  Os  Os19  1  0.603419  0.368995  0.232122  1
