# generated using pymatgen
data_Y4HgPd2PtPb2
_symmetry_space_group_name_H-M   'P 1'
_cell_length_a   8.13798859
_cell_length_b   8.14453310
_cell_length_c   3.61056300
_cell_angle_alpha   90.00000000
_cell_angle_beta   90.00000000
_cell_angle_gamma   89.27632570
_symmetry_Int_Tables_number   1
_chemical_formula_structural   Y4HgPd2PtPb2
_chemical_formula_sum   'Y4 Hg1 Pd2 Pt1 Pb2'
_cell_volume   239.28945159
_cell_formula_units_Z   1
loop_
 _symmetry_equiv_pos_site_id
 _symmetry_equiv_pos_as_xyz
  1  'x, y, z'
loop_
 _atom_site_type_symbol
 _atom_site_label
 _atom_site_symmetry_multiplicity
 _atom_site_fract_x
 _atom_site_fract_y
 _atom_site_fract_z
 _atom_site_occupancy
  Y  Y0  1  0.648054  0.155310  0.500000  1
  Y  Y1  1  0.191999  0.330421  0.500000  1
  Y  Y2  1  0.836900  0.688309  0.500000  1
  Y  Y3  1  0.328268  0.835550  0.500000  1
  Hg  Hg4  1  0.876113  0.375156  0.000000  1
  Pd  Pd5  1  0.623919  0.865757  0.000000  1
  Pd  Pd6  1  0.125171  0.624885  0.000000  1
  Pt  Pt7  1  0.373051  0.118738  0.000000  1
  Pb  Pb8  1  0.000069  0.996541  0.000000  1
  Pb  Pb9  1  0.496455  0.509331  0.000000  1
