# generated using pymatgen
data_Pr3Th(Sc3Ga4)2
_symmetry_space_group_name_H-M   'P 1'
_cell_length_a   7.44556905
_cell_length_b   7.69736900
_cell_length_c   14.70384811
_cell_angle_alpha   90.00000000
_cell_angle_beta   89.98615749
_cell_angle_gamma   90.00000000
_symmetry_Int_Tables_number   1
_chemical_formula_structural   Pr3Th(Sc3Ga4)2
_chemical_formula_sum   'Pr6 Th2 Sc12 Ga16'
_cell_volume   842.69651407
_cell_formula_units_Z   2
loop_
 _symmetry_equiv_pos_site_id
 _symmetry_equiv_pos_as_xyz
  1  'x, y, z'
loop_
 _atom_site_type_symbol
 _atom_site_label
 _atom_site_symmetry_multiplicity
 _atom_site_fract_x
 _atom_site_fract_y
 _atom_site_fract_z
 _atom_site_occupancy
  Pr  Pr0  1  0.487646  0.674981  0.904225  1
  Pr  Pr1  1  0.488461  0.675340  0.595959  1
  Pr  Pr2  1  0.988461  0.824660  0.595959  1
  Pr  Pr3  1  0.987646  0.825019  0.904225  1
  Pr  Pr4  1  0.512254  0.325511  0.095379  1
  Pr  Pr5  1  0.012254  0.174489  0.095379  1
  Th  Th6  1  0.013239  0.176680  0.403699  1
  Th  Th7  1  0.513239  0.323320  0.403699  1
  Sc  Sc8  1  0.329358  0.173935  0.624614  1
  Sc  Sc9  1  0.670084  0.826682  0.375513  1
  Sc  Sc10  1  0.661672  0.000599  0.750132  1
  Sc  Sc11  1  0.170084  0.673318  0.375513  1
  Sc  Sc12  1  0.829735  0.326004  0.875236  1
  Sc  Sc13  1  0.829358  0.326065  0.624614  1
  Sc  Sc14  1  0.837725  0.501152  0.249741  1
  Sc  Sc15  1  0.337725  0.998848  0.249741  1
  Sc  Sc16  1  0.329735  0.173996  0.875236  1
  Sc  Sc17  1  0.170172  0.673763  0.124282  1
  Sc  Sc18  1  0.670172  0.826237  0.124282  1
  Sc  Sc19  1  0.161672  0.499401  0.750132  1
  Ga  Ga20  1  0.286838  0.881185  0.749866  1
  Ga  Ga21  1  0.468456  0.622833  0.250716  1
  Ga  Ga22  1  0.032046  0.123577  0.749845  1
  Ga  Ga23  1  0.532046  0.376423  0.749845  1
  Ga  Ga24  1  0.156424  0.460688  0.540136  1
  Ga  Ga25  1  0.968456  0.877167  0.250716  1
  Ga  Ga26  1  0.712791  0.120146  0.251463  1
  Ga  Ga27  1  0.844382  0.538076  0.040819  1
  Ga  Ga28  1  0.344382  0.961924  0.040819  1
  Ga  Ga29  1  0.155585  0.461746  0.959539  1
  Ga  Ga30  1  0.656424  0.039312  0.540136  1
  Ga  Ga31  1  0.343130  0.963410  0.458836  1
  Ga  Ga32  1  0.843130  0.536590  0.458836  1
  Ga  Ga33  1  0.786838  0.618815  0.749866  1
  Ga  Ga34  1  0.212791  0.379854  0.251463  1
  Ga  Ga35  1  0.655585  0.038254  0.959539  1
