# generated using pymatgen
data_Hf5ScSi2(Tc3As2)2
_symmetry_space_group_name_H-M   'P 1'
_cell_length_a   7.78359248
_cell_length_b   7.77847245
_cell_length_c   7.78359396
_cell_angle_alpha   126.93869678
_cell_angle_beta   126.68660181
_cell_angle_gamma   78.57220766
_symmetry_Int_Tables_number   1
_chemical_formula_structural   Hf5ScSi2(Tc3As2)2
_chemical_formula_sum   'Hf5 Sc1 Si2 Tc6 As4'
_cell_volume   292.37936427
_cell_formula_units_Z   1
loop_
 _symmetry_equiv_pos_site_id
 _symmetry_equiv_pos_as_xyz
  1  'x, y, z'
loop_
 _atom_site_type_symbol
 _atom_site_label
 _atom_site_symmetry_multiplicity
 _atom_site_fract_x
 _atom_site_fract_y
 _atom_site_fract_z
 _atom_site_occupancy
  Hf  Hf0  1  0.550271  0.253924  0.203653  1
  Hf  Hf1  1  0.750956  0.855635  0.604678  1
  Hf  Hf2  1  0.249776  0.853588  0.103811  1
  Hf  Hf3  1  0.050760  0.254123  0.703363  1
  Hf  Hf4  1  0.949244  0.652125  0.202882  1
  Sc  Sc5  1  0.450723  0.654515  0.703793  1
  Si  Si6  1  0.252348  0.256943  0.504595  1
  Si  Si7  1  0.748574  0.251680  0.003107  1
  Tc  Tc8  1  0.500382  0.502243  0.004410  1
  Tc  Tc9  1  0.997834  0.502243  0.501861  1
  Tc  Tc10  1  0.121065  0.251317  0.123760  1
  Tc  Tc11  1  0.879846  0.004759  0.132945  1
  Tc  Tc12  1  0.371814  0.004759  0.624912  1
  Tc  Tc13  1  0.627557  0.251317  0.630252  1
  As  As14  1  0.333778  0.586853  0.255559  1
  As  As15  1  0.665634  0.918363  0.250217  1
  As  As16  1  0.168146  0.918363  0.752729  1
  As  As17  1  0.831292  0.586853  0.753073  1
