# generated using pymatgen
data_K2Te3IrO12
_symmetry_space_group_name_H-M   'P 1'
_cell_length_a   7.15651393
_cell_length_b   7.15651457
_cell_length_c   7.16093989
_cell_angle_alpha   61.63159587
_cell_angle_beta   61.63159036
_cell_angle_gamma   61.60105106
_symmetry_Int_Tables_number   1
_chemical_formula_structural   K2Te3IrO12
_chemical_formula_sum   'K2 Te3 Ir1 O12'
_cell_volume   268.76391977
_cell_formula_units_Z   1
loop_
 _symmetry_equiv_pos_site_id
 _symmetry_equiv_pos_as_xyz
  1  'x, y, z'
loop_
 _atom_site_type_symbol
 _atom_site_label
 _atom_site_symmetry_multiplicity
 _atom_site_fract_x
 _atom_site_fract_y
 _atom_site_fract_z
 _atom_site_occupancy
  K  K0  1  0.854435  0.889351  0.373969  1
  K  K1  1  0.110649  0.145565  0.626031  1
  Te  Te2  1  0.997220  0.503150  0.000477  1
  Te  Te3  1  0.496850  0.002780  0.999523  1
  Te  Te4  1  0.497334  0.502666  0.500000  1
  Ir  Ir5  1  0.496698  0.503302  0.000000  1
  O  O6  1  0.173774  0.179563  0.071605  1
  O  O7  1  0.578943  0.579782  0.669130  1
  O  O8  1  0.167133  0.578200  0.083948  1
  O  O9  1  0.573159  0.179637  0.677122  1
  O  O10  1  0.573650  0.173269  0.080409  1
  O  O11  1  0.175192  0.576584  0.678436  1
  O  O12  1  0.820437  0.826226  0.928395  1
  O  O13  1  0.420218  0.421057  0.330870  1
  O  O14  1  0.826731  0.426350  0.919591  1
  O  O15  1  0.423416  0.824808  0.321564  1
  O  O16  1  0.421800  0.832867  0.916052  1
  O  O17  1  0.820363  0.426841  0.322878  1
