# generated using pymatgen
data_Er3BePt5
_symmetry_space_group_name_H-M   'P 1'
_cell_length_a   7.97630659
_cell_length_b   7.97630681
_cell_length_c   7.97630600
_cell_angle_alpha   127.67958221
_cell_angle_beta   125.92362994
_cell_angle_gamma   78.58280951
_symmetry_Int_Tables_number   1
_chemical_formula_structural   Er3BePt5
_chemical_formula_sum   'Er6 Be2 Pt10'
_cell_volume   314.85269868
_cell_formula_units_Z   2
loop_
 _symmetry_equiv_pos_site_id
 _symmetry_equiv_pos_as_xyz
  1  'x, y, z'
loop_
 _atom_site_type_symbol
 _atom_site_label
 _atom_site_symmetry_multiplicity
 _atom_site_fract_x
 _atom_site_fract_y
 _atom_site_fract_z
 _atom_site_occupancy
  Er  Er0  1  0.834828  0.555449  0.279380  1
  Er  Er1  1  0.599537  0.250000  0.349537  1
  Er  Er2  1  0.165172  0.444551  0.720620  1
  Er  Er3  1  0.400463  0.750000  0.650463  1
  Er  Er4  1  0.223931  0.944551  0.279380  1
  Er  Er5  1  0.776069  0.055449  0.720620  1
  Be  Be6  1  0.208842  0.250000  0.958842  1
  Be  Be7  1  0.791158  0.750000  0.041158  1
  Pt  Pt8  1  0.172882  0.903410  0.855782  1
  Pt  Pt9  1  0.827118  0.096590  0.144218  1
  Pt  Pt10  1  0.452373  0.182901  0.855782  1
  Pt  Pt11  1  0.547627  0.403410  0.730527  1
  Pt  Pt12  1  0.827118  0.682901  0.730527  1
  Pt  Pt13  1  0.452373  0.596590  0.269473  1
  Pt  Pt14  1  0.547627  0.817099  0.144218  1
  Pt  Pt15  1  0.172882  0.317099  0.269473  1
  Pt  Pt16  1  0.000000  0.000000  0.500000  1
  Pt  Pt17  1  0.000000  0.500000  0.000000  1
