# generated using pymatgen
data_Ta3CrSi2C
_symmetry_space_group_name_H-M   'P 1'
_cell_length_a   8.10505343
_cell_length_b   8.10505394
_cell_length_c   8.10505300
_cell_angle_alpha   59.99999975
_cell_angle_beta   59.99999766
_cell_angle_gamma   60.00000289
_symmetry_Int_Tables_number   1
_chemical_formula_structural   Ta3CrSi2C
_chemical_formula_sum   'Ta12 Cr4 Si8 C4'
_cell_volume   376.48931359
_cell_formula_units_Z   4
loop_
 _symmetry_equiv_pos_site_id
 _symmetry_equiv_pos_as_xyz
  1  'x, y, z'
loop_
 _atom_site_type_symbol
 _atom_site_label
 _atom_site_symmetry_multiplicity
 _atom_site_fract_x
 _atom_site_fract_y
 _atom_site_fract_z
 _atom_site_occupancy
  Ta  Ta0  1  0.551861  0.948139  0.551861  1
  Ta  Ta1  1  0.301861  0.698139  0.698139  1
  Ta  Ta2  1  0.698139  0.301861  0.301861  1
  Ta  Ta3  1  0.301861  0.698139  0.301861  1
  Ta  Ta4  1  0.698139  0.698139  0.301861  1
  Ta  Ta5  1  0.301861  0.301861  0.698139  1
  Ta  Ta6  1  0.551861  0.551861  0.948139  1
  Ta  Ta7  1  0.948139  0.551861  0.551861  1
  Ta  Ta8  1  0.551861  0.948139  0.948139  1
  Ta  Ta9  1  0.948139  0.948139  0.551861  1
  Ta  Ta10  1  0.698139  0.301861  0.698139  1
  Ta  Ta11  1  0.948139  0.551861  0.948139  1
  Cr  Cr12  1  0.125000  0.125000  0.125000  1
  Cr  Cr13  1  0.625000  0.125000  0.125000  1
  Cr  Cr14  1  0.125000  0.625000  0.125000  1
  Cr  Cr15  1  0.125000  0.125000  0.625000  1
  Si  Si16  1  0.915686  0.915686  0.915686  1
  Si  Si17  1  0.997057  0.334314  0.334314  1
  Si  Si18  1  0.334314  0.997057  0.334314  1
  Si  Si19  1  0.334314  0.334314  0.997057  1
  Si  Si20  1  0.915686  0.252943  0.915686  1
  Si  Si21  1  0.915686  0.915686  0.252943  1
  Si  Si22  1  0.252943  0.915686  0.915686  1
  Si  Si23  1  0.334314  0.334314  0.334314  1
  C  C24  1  0.625000  0.625000  0.625000  1
  C  C25  1  0.125000  0.625000  0.625000  1
  C  C26  1  0.625000  0.125000  0.625000  1
  C  C27  1  0.625000  0.625000  0.125000  1
