# generated using pymatgen
data_Tb8Sc12Si15Os
_symmetry_space_group_name_H-M   'P 1'
_cell_length_a   7.09779521
_cell_length_b   7.44886429
_cell_length_c   13.98434300
_cell_angle_alpha   90.00000000
_cell_angle_beta   90.00000000
_cell_angle_gamma   90.22688452
_symmetry_Int_Tables_number   1
_chemical_formula_structural   Tb8Sc12Si15Os
_chemical_formula_sum   'Tb8 Sc12 Si15 Os1'
_cell_volume   739.35359558
_cell_formula_units_Z   1
loop_
 _symmetry_equiv_pos_site_id
 _symmetry_equiv_pos_as_xyz
  1  'x, y, z'
loop_
 _atom_site_type_symbol
 _atom_site_label
 _atom_site_symmetry_multiplicity
 _atom_site_fract_x
 _atom_site_fract_y
 _atom_site_fract_z
 _atom_site_occupancy
  Tb  Tb0  1  0.011452  0.178042  0.096484  1
  Tb  Tb1  1  0.990870  0.828051  0.902969  1
  Tb  Tb2  1  0.487971  0.676135  0.903627  1
  Tb  Tb3  1  0.990870  0.828051  0.597031  1
  Tb  Tb4  1  0.511032  0.323401  0.096551  1
  Tb  Tb5  1  0.011452  0.178042  0.403516  1
  Tb  Tb6  1  0.511032  0.323401  0.403449  1
  Tb  Tb7  1  0.487971  0.676135  0.596373  1
  Sc  Sc8  1  0.154985  0.494688  0.750000  1
  Sc  Sc9  1  0.838434  0.495856  0.250000  1
  Sc  Sc10  1  0.338791  0.004540  0.250000  1
  Sc  Sc11  1  0.669472  0.999756  0.750000  1
  Sc  Sc12  1  0.318945  0.172505  0.627286  1
  Sc  Sc13  1  0.671594  0.825125  0.373890  1
  Sc  Sc14  1  0.171023  0.677836  0.374245  1
  Sc  Sc15  1  0.671594  0.825125  0.126110  1
  Sc  Sc16  1  0.837130  0.318897  0.627414  1
  Sc  Sc17  1  0.318945  0.172505  0.872714  1
  Sc  Sc18  1  0.837130  0.318897  0.872586  1
  Sc  Sc19  1  0.171023  0.677836  0.125755  1
  Si  Si20  1  0.967946  0.882687  0.250000  1
  Si  Si21  1  0.468480  0.615780  0.250000  1
  Si  Si22  1  0.529920  0.388952  0.750000  1
  Si  Si23  1  0.286752  0.869874  0.750000  1
  Si  Si24  1  0.713199  0.128098  0.250000  1
  Si  Si25  1  0.213396  0.372030  0.250000  1
  Si  Si26  1  0.778813  0.626057  0.750000  1
  Si  Si27  1  0.158839  0.468937  0.536859  1
  Si  Si28  1  0.845093  0.535887  0.461420  1
  Si  Si29  1  0.345807  0.965390  0.460124  1
  Si  Si30  1  0.845093  0.535887  0.038580  1
  Si  Si31  1  0.654944  0.034012  0.538204  1
  Si  Si32  1  0.158839  0.468937  0.963141  1
  Si  Si33  1  0.654944  0.034012  0.961796  1
  Si  Si34  1  0.345807  0.965390  0.039876  1
  Os  Os35  1  0.030410  0.113245  0.750000  1
