# generated using pymatgen
data_Yb3HoLu2(Si3Ru)8
_symmetry_space_group_name_H-M   'P 1'
_cell_length_a   10.14127750
_cell_length_b   10.14127720
_cell_length_c   8.09874379
_cell_angle_alpha   89.95457634
_cell_angle_beta   90.04542324
_cell_angle_gamma   132.93205799
_symmetry_Int_Tables_number   1
_chemical_formula_structural   Yb3HoLu2(Si3Ru)8
_chemical_formula_sum   'Yb3 Ho1 Lu2 Si24 Ru8'
_cell_volume   609.83163422
_cell_formula_units_Z   1
loop_
 _symmetry_equiv_pos_site_id
 _symmetry_equiv_pos_as_xyz
  1  'x, y, z'
loop_
 _atom_site_type_symbol
 _atom_site_label
 _atom_site_symmetry_multiplicity
 _atom_site_fract_x
 _atom_site_fract_y
 _atom_site_fract_z
 _atom_site_occupancy
  Yb  Yb0  1  0.500281  0.500344  0.499886  1
  Yb  Yb1  1  0.000344  0.000281  0.000114  1
  Yb  Yb2  1  0.501671  0.001671  0.750000  1
  Ho  Ho3  1  0.001178  0.501178  0.750000  1
  Lu  Lu4  1  0.000339  0.500339  0.250000  1
  Lu  Lu5  1  0.499353  0.999353  0.250000  1
  Si  Si6  1  0.795340  0.203982  0.498862  1
  Si  Si7  1  0.296766  0.705630  0.000387  1
  Si  Si8  1  0.205630  0.796766  0.499613  1
  Si  Si9  1  0.703982  0.295340  0.001138  1
  Si  Si10  1  0.332923  0.335136  0.831758  1
  Si  Si11  1  0.665556  0.667519  0.167529  1
  Si  Si12  1  0.167519  0.165556  0.332471  1
  Si  Si13  1  0.835136  0.832923  0.668242  1
  Si  Si14  1  0.122890  0.889283  0.730981  1
  Si  Si15  1  0.109086  0.876966  0.270639  1
  Si  Si16  1  0.609065  0.377150  0.229123  1
  Si  Si17  1  0.623383  0.389935  0.769022  1
  Si  Si18  1  0.877150  0.109065  0.270877  1
  Si  Si19  1  0.889935  0.123383  0.730978  1
  Si  Si20  1  0.389283  0.622890  0.769019  1
  Si  Si21  1  0.376966  0.609086  0.229361  1
  Si  Si22  1  0.346394  0.113274  0.505560  1
  Si  Si23  1  0.886359  0.653077  0.492209  1
  Si  Si24  1  0.386634  0.153109  0.006803  1
  Si  Si25  1  0.846324  0.613829  0.992783  1
  Si  Si26  1  0.653109  0.886634  0.493197  1
  Si  Si27  1  0.113829  0.346324  0.507217  1
  Si  Si28  1  0.613274  0.846394  0.994440  1
  Si  Si29  1  0.153077  0.386359  0.007791  1
  Ru  Ru30  1  0.672369  0.328766  0.496694  1
  Ru  Ru31  1  0.170076  0.826922  0.003237  1
  Ru  Ru32  1  0.326922  0.670076  0.496763  1
  Ru  Ru33  1  0.828766  0.172369  0.003306  1
  Ru  Ru34  1  0.126828  0.127024  0.625785  1
  Ru  Ru35  1  0.872344  0.872893  0.375133  1
  Ru  Ru36  1  0.372893  0.372344  0.124867  1
  Ru  Ru37  1  0.627024  0.626828  0.874215  1
