# generated using pymatgen
data_Sc2MnTc3
_symmetry_space_group_name_H-M   'P 1'
_cell_length_a   5.18016901
_cell_length_b   5.24287170
_cell_length_c   8.47399800
_cell_angle_alpha   90.00000000
_cell_angle_beta   90.00000000
_cell_angle_gamma   120.40122842
_symmetry_Int_Tables_number   1
_chemical_formula_structural   Sc2MnTc3
_chemical_formula_sum   'Sc4 Mn2 Tc6'
_cell_volume   198.50069917
_cell_formula_units_Z   2
loop_
 _symmetry_equiv_pos_site_id
 _symmetry_equiv_pos_as_xyz
  1  'x, y, z'
loop_
 _atom_site_type_symbol
 _atom_site_label
 _atom_site_symmetry_multiplicity
 _atom_site_fract_x
 _atom_site_fract_y
 _atom_site_fract_z
 _atom_site_occupancy
  Sc  Sc0  1  0.334564  0.666197  0.062260  1
  Sc  Sc1  1  0.665436  0.331633  0.562260  1
  Sc  Sc2  1  0.665436  0.331633  0.937740  1
  Sc  Sc3  1  0.334564  0.666197  0.437740  1
  Mn  Mn4  1  0.829393  0.171777  0.250000  1
  Mn  Mn5  1  0.170607  0.342384  0.750000  1
  Tc  Tc6  1  0.000000  0.999630  0.000000  1
  Tc  Tc7  1  0.000000  0.999630  0.500000  1
  Tc  Tc8  1  0.827420  0.656640  0.250000  1
  Tc  Tc9  1  0.172580  0.829220  0.750000  1
  Tc  Tc10  1  0.651509  0.828283  0.750000  1
  Tc  Tc11  1  0.348491  0.176774  0.250000  1
