# generated using pymatgen
data_Yb5Pr4DySn8
_symmetry_space_group_name_H-M   'P 1'
_cell_length_a   7.97147700
_cell_length_b   8.49805834
_cell_length_c   16.05382237
_cell_angle_alpha   90.10183272
_cell_angle_beta   90.00000000
_cell_angle_gamma   90.00000000
_symmetry_Int_Tables_number   1
_chemical_formula_structural   Yb5Pr4DySn8
_chemical_formula_sum   'Yb10 Pr8 Dy2 Sn16'
_cell_volume   1087.51754697
_cell_formula_units_Z   2
loop_
 _symmetry_equiv_pos_site_id
 _symmetry_equiv_pos_as_xyz
  1  'x, y, z'
loop_
 _atom_site_type_symbol
 _atom_site_label
 _atom_site_symmetry_multiplicity
 _atom_site_fract_x
 _atom_site_fract_y
 _atom_site_fract_z
 _atom_site_occupancy
  Yb  Yb0  1  0.666381  0.171441  0.376498  1
  Yb  Yb1  1  0.166381  0.328559  0.123502  1
  Yb  Yb2  1  0.667655  0.171915  0.123556  1
  Yb  Yb3  1  0.167655  0.328085  0.376444  1
  Yb  Yb4  1  0.332701  0.828366  0.622959  1
  Yb  Yb5  1  0.832701  0.671634  0.877041  1
  Yb  Yb6  1  0.163021  0.502833  0.749958  1
  Yb  Yb7  1  0.663021  0.997167  0.750042  1
  Yb  Yb8  1  0.838405  0.494855  0.250313  1
  Yb  Yb9  1  0.338405  0.005145  0.249687  1
  Pr  Pr10  1  0.493882  0.316951  0.904264  1
  Pr  Pr11  1  0.993882  0.183049  0.595736  1
  Pr  Pr12  1  0.505217  0.685906  0.403374  1
  Pr  Pr13  1  0.005217  0.814094  0.096626  1
  Pr  Pr14  1  0.507371  0.684653  0.096447  1
  Pr  Pr15  1  0.007371  0.815347  0.403553  1
  Pr  Pr16  1  0.493673  0.315399  0.595169  1
  Pr  Pr17  1  0.993673  0.184601  0.904831  1
  Dy  Dy18  1  0.332263  0.827690  0.875703  1
  Dy  Dy19  1  0.832263  0.672310  0.624297  1
  Sn  Sn20  1  0.327651  0.034294  0.037318  1
  Sn  Sn21  1  0.827651  0.465706  0.462682  1
  Sn  Sn22  1  0.673541  0.961421  0.539663  1
  Sn  Sn23  1  0.173541  0.538579  0.960337  1
  Sn  Sn24  1  0.667093  0.962869  0.959369  1
  Sn  Sn25  1  0.167093  0.537131  0.540631  1
  Sn  Sn26  1  0.329343  0.036009  0.461287  1
  Sn  Sn27  1  0.829343  0.463991  0.038713  1
  Sn  Sn28  1  0.535218  0.610384  0.748513  1
  Sn  Sn29  1  0.035218  0.889616  0.751487  1
  Sn  Sn30  1  0.465765  0.396014  0.249813  1
  Sn  Sn31  1  0.965765  0.103986  0.250187  1
  Sn  Sn32  1  0.289187  0.139005  0.751134  1
  Sn  Sn33  1  0.789187  0.360995  0.748866  1
  Sn  Sn34  1  0.711634  0.858767  0.250063  1
  Sn  Sn35  1  0.211634  0.641233  0.249937  1
