# generated using pymatgen
data_LaPr2Co3Si7
_symmetry_space_group_name_H-M   'P 1'
_cell_length_a   13.14671617
_cell_length_b   13.14671562
_cell_length_c   4.15599900
_cell_angle_alpha   90.00000000
_cell_angle_beta   90.00000000
_cell_angle_gamma   161.71593422
_symmetry_Int_Tables_number   1
_chemical_formula_structural   LaPr2Co3Si7
_chemical_formula_sum   'La1 Pr2 Co3 Si7'
_cell_volume   225.35325244
_cell_formula_units_Z   1
loop_
 _symmetry_equiv_pos_site_id
 _symmetry_equiv_pos_as_xyz
  1  'x, y, z'
loop_
 _atom_site_type_symbol
 _atom_site_label
 _atom_site_symmetry_multiplicity
 _atom_site_fract_x
 _atom_site_fract_y
 _atom_site_fract_z
 _atom_site_occupancy
  La  La0  1  0.003392  0.996608  0.000000  1
  Pr  Pr1  1  0.686425  0.313575  0.500000  1
  Pr  Pr2  1  0.317827  0.682173  0.500000  1
  Co  Co3  1  0.865397  0.134603  0.000000  1
  Co  Co4  1  0.133933  0.866067  0.000000  1
  Co  Co5  1  0.450036  0.549964  0.500000  1
  Si  Si6  1  0.594561  0.405439  0.000000  1
  Si  Si7  1  0.408196  0.591804  0.000000  1
  Si  Si8  1  0.776144  0.223856  0.000000  1
  Si  Si9  1  0.225690  0.774310  0.000000  1
  Si  Si10  1  0.907780  0.092220  0.500000  1
  Si  Si11  1  0.093786  0.906214  0.500000  1
  Si  Si12  1  0.536836  0.463164  0.500000  1
