# generated using pymatgen
data_PrHo4Tl2(InPd)2
_symmetry_space_group_name_H-M   'P 1'
_cell_length_a   3.63868000
_cell_length_b   8.24878600
_cell_length_c   18.45418100
_cell_angle_alpha   90.00000000
_cell_angle_beta   90.00000000
_cell_angle_gamma   90.00000000
_symmetry_Int_Tables_number   1
_chemical_formula_structural   PrHo4Tl2(InPd)2
_chemical_formula_sum   'Pr2 Ho8 Tl4 In4 Pd4'
_cell_volume   553.89657068
_cell_formula_units_Z   2
loop_
 _symmetry_equiv_pos_site_id
 _symmetry_equiv_pos_as_xyz
  1  'x, y, z'
loop_
 _atom_site_type_symbol
 _atom_site_label
 _atom_site_symmetry_multiplicity
 _atom_site_fract_x
 _atom_site_fract_y
 _atom_site_fract_z
 _atom_site_occupancy
  Pr  Pr0  1  0.000000  0.500000  0.500000  1
  Pr  Pr1  1  0.000000  0.000000  0.000000  1
  Ho  Ho2  1  0.000000  0.740272  0.282912  1
  Ho  Ho3  1  0.000000  0.259728  0.717088  1
  Ho  Ho4  1  0.000000  0.759728  0.782912  1
  Ho  Ho5  1  0.000000  0.240272  0.217088  1
  Ho  Ho6  1  0.000000  0.621684  0.086467  1
  Ho  Ho7  1  0.000000  0.378316  0.913533  1
  Ho  Ho8  1  0.000000  0.878316  0.586467  1
  Ho  Ho9  1  0.000000  0.121684  0.413533  1
  Tl  Tl10  1  0.500000  0.697652  0.932793  1
  Tl  Tl11  1  0.500000  0.302348  0.067207  1
  Tl  Tl12  1  0.500000  0.802348  0.432793  1
  Tl  Tl13  1  0.500000  0.197652  0.567207  1
  In  In14  1  0.500000  0.584970  0.654326  1
  In  In15  1  0.500000  0.415030  0.345674  1
  In  In16  1  0.500000  0.915030  0.154326  1
  In  In17  1  0.500000  0.084970  0.845674  1
  Pd  Pd18  1  0.500000  0.529707  0.197435  1
  Pd  Pd19  1  0.500000  0.470293  0.802565  1
  Pd  Pd20  1  0.500000  0.970293  0.697435  1
  Pd  Pd21  1  0.500000  0.029707  0.302565  1
