# generated using pymatgen
data_Li2PSe3
_symmetry_space_group_name_H-M   'P 1'
_cell_length_a   6.46548000
_cell_length_b   11.46167600
_cell_length_c   14.33379100
_cell_angle_alpha   90.00000000
_cell_angle_beta   90.00000000
_cell_angle_gamma   90.00000000
_symmetry_Int_Tables_number   1
_chemical_formula_structural   Li2PSe3
_chemical_formula_sum   'Li16 P8 Se24'
_cell_volume   1062.20897837
_cell_formula_units_Z   8
loop_
 _symmetry_equiv_pos_site_id
 _symmetry_equiv_pos_as_xyz
  1  'x, y, z'
loop_
 _atom_site_type_symbol
 _atom_site_label
 _atom_site_symmetry_multiplicity
 _atom_site_fract_x
 _atom_site_fract_y
 _atom_site_fract_z
 _atom_site_occupancy
  Li  Li0  1  0.911155  0.307669  0.636209  1
  Li  Li1  1  0.411155  0.192331  0.363791  1
  Li  Li2  1  0.088845  0.807669  0.863791  1
  Li  Li3  1  0.588845  0.692331  0.136209  1
  Li  Li4  1  0.546339  0.330407  0.130249  1
  Li  Li5  1  0.046339  0.169593  0.869751  1
  Li  Li6  1  0.453661  0.830407  0.369751  1
  Li  Li7  1  0.953661  0.669593  0.630249  1
  Li  Li8  1  0.601548  0.634594  0.877187  1
  Li  Li9  1  0.101548  0.865406  0.122813  1
  Li  Li10  1  0.398452  0.134594  0.622813  1
  Li  Li11  1  0.898452  0.365406  0.377187  1
  Li  Li12  1  0.590658  0.347461  0.888856  1
  Li  Li13  1  0.090658  0.152539  0.111144  1
  Li  Li14  1  0.409342  0.847461  0.611144  1
  Li  Li15  1  0.909342  0.652539  0.388856  1
  P  P16  1  0.109853  0.487560  0.803018  1
  P  P17  1  0.609853  0.012440  0.196982  1
  P  P18  1  0.890147  0.987560  0.696982  1
  P  P19  1  0.390147  0.512440  0.303018  1
  P  P20  1  0.089773  0.496663  0.961679  1
  P  P21  1  0.589773  0.003337  0.038321  1
  P  P22  1  0.910227  0.996663  0.538321  1
  P  P23  1  0.410227  0.503337  0.461679  1
  Se  Se24  1  0.269057  0.321470  0.771396  1
  Se  Se25  1  0.769057  0.178530  0.228604  1
  Se  Se26  1  0.730943  0.821470  0.728604  1
  Se  Se27  1  0.230943  0.678530  0.271396  1
  Se  Se28  1  0.787685  0.487244  0.750395  1
  Se  Se29  1  0.287685  0.012756  0.249605  1
  Se  Se30  1  0.212315  0.987244  0.749605  1
  Se  Se31  1  0.712315  0.512756  0.250395  1
  Se  Se32  1  0.080641  0.498550  0.505480  1
  Se  Se33  1  0.580641  0.001450  0.494520  1
  Se  Se34  1  0.919359  0.998550  0.994520  1
  Se  Se35  1  0.419359  0.501450  0.005480  1
  Se  Se36  1  0.581607  0.663742  0.501077  1
  Se  Se37  1  0.081607  0.836258  0.498923  1
  Se  Se38  1  0.418393  0.163742  0.998923  1
  Se  Se39  1  0.918393  0.336258  0.001077  1
  Se  Se40  1  0.577695  0.338118  0.491027  1
  Se  Se41  1  0.077695  0.161882  0.508973  1
  Se  Se42  1  0.422305  0.838118  0.008973  1
  Se  Se43  1  0.922305  0.661882  0.991027  1
  Se  Se44  1  0.221477  0.352611  0.260195  1
  Se  Se45  1  0.721477  0.147389  0.739805  1
  Se  Se46  1  0.778523  0.852611  0.239805  1
  Se  Se47  1  0.278523  0.647389  0.760195  1
