# generated using pymatgen
data_RbTmBiSbSe5
_symmetry_space_group_name_H-M   'P 1'
_cell_length_a   4.11498700
_cell_length_b   12.33174300
_cell_length_c   22.22825400
_cell_angle_alpha   90.00000000
_cell_angle_beta   90.00000000
_cell_angle_gamma   90.00000000
_symmetry_Int_Tables_number   1
_chemical_formula_structural   RbTmBiSbSe5
_chemical_formula_sum   'Rb4 Tm4 Bi4 Sb4 Se20'
_cell_volume   1127.97190750
_cell_formula_units_Z   4
loop_
 _symmetry_equiv_pos_site_id
 _symmetry_equiv_pos_as_xyz
  1  'x, y, z'
loop_
 _atom_site_type_symbol
 _atom_site_label
 _atom_site_symmetry_multiplicity
 _atom_site_fract_x
 _atom_site_fract_y
 _atom_site_fract_z
 _atom_site_occupancy
  Rb  Rb0  1  0.250000  0.488704  0.209217  1
  Rb  Rb1  1  0.750000  0.511296  0.790783  1
  Rb  Rb2  1  0.750000  0.988704  0.290783  1
  Rb  Rb3  1  0.250000  0.011296  0.709217  1
  Tm  Tm4  1  0.250000  0.365729  0.023411  1
  Tm  Tm5  1  0.750000  0.634271  0.976589  1
  Tm  Tm6  1  0.750000  0.865729  0.476589  1
  Tm  Tm7  1  0.250000  0.134271  0.523411  1
  Bi  Bi8  1  0.250000  0.596361  0.425159  1
  Bi  Bi9  1  0.750000  0.403639  0.574841  1
  Bi  Bi10  1  0.750000  0.096361  0.074841  1
  Bi  Bi11  1  0.250000  0.903639  0.925159  1
  Sb  Sb12  1  0.250000  0.804892  0.126698  1
  Sb  Sb13  1  0.750000  0.195108  0.873302  1
  Sb  Sb14  1  0.750000  0.304892  0.373302  1
  Sb  Sb15  1  0.250000  0.695108  0.626698  1
  Se  Se16  1  0.250000  0.813816  0.390858  1
  Se  Se17  1  0.750000  0.186184  0.609142  1
  Se  Se18  1  0.750000  0.313816  0.109142  1
  Se  Se19  1  0.250000  0.686184  0.890858  1
  Se  Se20  1  0.250000  0.249573  0.297880  1
  Se  Se21  1  0.750000  0.750427  0.702120  1
  Se  Se22  1  0.750000  0.749573  0.202120  1
  Se  Se23  1  0.250000  0.250427  0.797880  1
  Se  Se24  1  0.250000  0.353879  0.480119  1
  Se  Se25  1  0.750000  0.646121  0.519881  1
  Se  Se26  1  0.750000  0.853879  0.019881  1
  Se  Se27  1  0.250000  0.146121  0.980119  1
  Se  Se28  1  0.250000  0.020388  0.160087  1
  Se  Se29  1  0.750000  0.979612  0.839913  1
  Se  Se30  1  0.750000  0.520388  0.339913  1
  Se  Se31  1  0.250000  0.479612  0.660087  1
  Se  Se32  1  0.250000  0.583547  0.059483  1
  Se  Se33  1  0.750000  0.416453  0.940517  1
  Se  Se34  1  0.750000  0.083547  0.440517  1
  Se  Se35  1  0.250000  0.916453  0.559483  1
