# generated using pymatgen
data_Y4Ho8InCo5
_symmetry_space_group_name_H-M   'P 1'
_cell_length_a   8.26072254
_cell_length_b   8.26072933
_cell_length_c   8.26072351
_cell_angle_alpha   110.60041335
_cell_angle_beta   110.80211392
_cell_angle_gamma   107.03821801
_symmetry_Int_Tables_number   1
_chemical_formula_structural   Y4Ho8InCo5
_chemical_formula_sum   'Y4 Ho8 In1 Co5'
_cell_volume   433.35800398
_cell_formula_units_Z   1
loop_
 _symmetry_equiv_pos_site_id
 _symmetry_equiv_pos_as_xyz
  1  'x, y, z'
loop_
 _atom_site_type_symbol
 _atom_site_label
 _atom_site_symmetry_multiplicity
 _atom_site_fract_x
 _atom_site_fract_y
 _atom_site_fract_z
 _atom_site_occupancy
  Y  Y0  1  0.812612  0.708890  0.521501  1
  Y  Y1  1  0.187388  0.291110  0.478499  1
  Y  Y2  1  0.187390  0.708890  0.896279  1
  Y  Y3  1  0.812610  0.291110  0.103721  1
  Ho  Ho4  1  0.686030  0.379418  0.693390  1
  Ho  Ho5  1  0.313970  0.620582  0.306610  1
  Ho  Ho6  1  0.686029  0.992641  0.306611  1
  Ho  Ho7  1  0.313971  0.007359  0.693389  1
  Ho  Ho8  1  0.599556  0.790711  0.808847  1
  Ho  Ho9  1  0.400444  0.209289  0.191153  1
  Ho  Ho10  1  0.981864  0.790711  0.191155  1
  Ho  Ho11  1  0.018136  0.209289  0.808845  1
  In  In12  1  0.500000  0.500000  0.000000  1
  Co  Co13  1  0.620829  0.000000  0.620829  1
  Co  Co14  1  0.379171  0.000000  0.379171  1
  Co  Co15  1  0.112340  0.612342  0.500001  1
  Co  Co16  1  0.887660  0.387658  0.499999  1
  Co  Co17  1  0.000000  0.000000  0.000000  1
