# generated using pymatgen
data_Nd2Ho3Lu3(WO6)4
_symmetry_space_group_name_H-M   'P 1'
_cell_length_a   5.41702709
_cell_length_b   7.72157594
_cell_length_c   11.44282710
_cell_angle_alpha   75.63166427
_cell_angle_beta   90.01298388
_cell_angle_gamma   90.07268405
_symmetry_Int_Tables_number   1
_chemical_formula_structural   Nd2Ho3Lu3(WO6)4
_chemical_formula_sum   'Nd2 Ho3 Lu3 W4 O24'
_cell_volume   463.65869409
_cell_formula_units_Z   1
loop_
 _symmetry_equiv_pos_site_id
 _symmetry_equiv_pos_as_xyz
  1  'x, y, z'
loop_
 _atom_site_type_symbol
 _atom_site_label
 _atom_site_symmetry_multiplicity
 _atom_site_fract_x
 _atom_site_fract_y
 _atom_site_fract_z
 _atom_site_occupancy
  Nd  Nd0  1  0.314783  0.499633  0.749654  1
  Nd  Nd1  1  0.685652  0.499365  0.250990  1
  Ho  Ho2  1  0.256110  0.000432  0.748939  1
  Ho  Ho3  1  0.184409  0.796999  0.076975  1
  Ho  Ho4  1  0.744262  0.000553  0.251395  1
  Lu  Lu5  1  0.183729  0.204250  0.421895  1
  Lu  Lu6  1  0.815378  0.204744  0.921728  1
  Lu  Lu7  1  0.816576  0.795865  0.577943  1
  W  W8  1  0.745651  0.728069  0.883483  1
  W  W9  1  0.255403  0.728162  0.385446  1
  W  W10  1  0.745214  0.271478  0.615384  1
  W  W11  1  0.254695  0.271236  0.115336  1
  O  O12  1  0.539695  0.157079  0.067911  1
  O  O13  1  0.042014  0.059285  0.102958  1
  O  O14  1  0.015763  0.721509  0.768000  1
  O  O15  1  0.458284  0.158725  0.567782  1
  O  O16  1  0.345201  0.491385  0.387542  1
  O  O17  1  0.953110  0.056230  0.602637  1
  O  O18  1  0.547189  0.796280  0.723844  1
  O  O19  1  0.456101  0.796245  0.227088  1
  O  O20  1  0.141880  0.641998  0.547151  1
  O  O21  1  0.047348  0.943993  0.397568  1
  O  O22  1  0.461785  0.843809  0.929233  1
  O  O23  1  0.452978  0.202478  0.275492  1
  O  O24  1  0.858272  0.357491  0.453445  1
  O  O25  1  0.654076  0.490978  0.886265  1
  O  O26  1  0.348294  0.506805  0.112815  1
  O  O27  1  0.952907  0.944364  0.896238  1
  O  O28  1  0.541258  0.841990  0.433438  1
  O  O29  1  0.986121  0.279371  0.232532  1
  O  O30  1  0.546685  0.203191  0.775042  1
  O  O31  1  0.853238  0.640405  0.046171  1
  O  O32  1  0.014572  0.278331  0.731757  1
  O  O33  1  0.142106  0.358026  0.953195  1
  O  O34  1  0.984412  0.721103  0.270150  1
  O  O35  1  0.654852  0.508142  0.612580  1
