# generated using pymatgen
data_Tb3ScTl5
_symmetry_space_group_name_H-M   'P 1'
_cell_length_a   8.45591783
_cell_length_b   8.45591860
_cell_length_c   8.45591869
_cell_angle_alpha   66.08800145
_cell_angle_beta   66.08799855
_cell_angle_gamma   66.08798743
_symmetry_Int_Tables_number   1
_chemical_formula_structural   Tb3ScTl5
_chemical_formula_sum   'Tb6 Sc2 Tl10'
_cell_volume   483.81050733
_cell_formula_units_Z   2
loop_
 _symmetry_equiv_pos_site_id
 _symmetry_equiv_pos_as_xyz
  1  'x, y, z'
loop_
 _atom_site_type_symbol
 _atom_site_label
 _atom_site_symmetry_multiplicity
 _atom_site_fract_x
 _atom_site_fract_y
 _atom_site_fract_z
 _atom_site_occupancy
  Tb  Tb0  1  0.893617  0.184920  0.622608  1
  Tb  Tb1  1  0.622608  0.893617  0.184920  1
  Tb  Tb2  1  0.184920  0.622608  0.893617  1
  Tb  Tb3  1  0.106383  0.815080  0.377392  1
  Tb  Tb4  1  0.377392  0.106383  0.815080  1
  Tb  Tb5  1  0.815080  0.377392  0.106383  1
  Sc  Sc6  1  0.656495  0.656495  0.656495  1
  Sc  Sc7  1  0.343505  0.343505  0.343505  1
  Tl  Tl8  1  0.000000  0.000000  0.000000  1
  Tl  Tl9  1  0.500000  0.500000  0.500000  1
  Tl  Tl10  1  0.810464  0.810464  0.810464  1
  Tl  Tl11  1  0.189536  0.189536  0.189536  1
  Tl  Tl12  1  0.944904  0.565316  0.305326  1
  Tl  Tl13  1  0.305326  0.944904  0.565316  1
  Tl  Tl14  1  0.565316  0.305326  0.944904  1
  Tl  Tl15  1  0.055096  0.434684  0.694674  1
  Tl  Tl16  1  0.694674  0.055096  0.434684  1
  Tl  Tl17  1  0.434684  0.694674  0.055096  1
