# generated using pymatgen
data_Sr3Ce(SbPt)4
_symmetry_space_group_name_H-M   'P 1'
_cell_length_a   4.74267100
_cell_length_b   7.86929705
_cell_length_c   8.02425984
_cell_angle_alpha   89.96451496
_cell_angle_beta   90.00000000
_cell_angle_gamma   90.00000000
_symmetry_Int_Tables_number   1
_chemical_formula_structural   Sr3Ce(SbPt)4
_chemical_formula_sum   'Sr3 Ce1 Sb4 Pt4'
_cell_volume   299.47725133
_cell_formula_units_Z   1
loop_
 _symmetry_equiv_pos_site_id
 _symmetry_equiv_pos_as_xyz
  1  'x, y, z'
loop_
 _atom_site_type_symbol
 _atom_site_label
 _atom_site_symmetry_multiplicity
 _atom_site_fract_x
 _atom_site_fract_y
 _atom_site_fract_z
 _atom_site_occupancy
  Sr  Sr0  1  0.250000  0.009605  0.704231  1
  Sr  Sr1  1  0.250000  0.506824  0.804317  1
  Sr  Sr2  1  0.750000  0.986921  0.299379  1
  Ce  Ce3  1  0.750000  0.488715  0.197047  1
  Sb  Sb4  1  0.250000  0.183176  0.092069  1
  Sb  Sb5  1  0.250000  0.678583  0.408492  1
  Sb  Sb6  1  0.750000  0.797935  0.910389  1
  Sb  Sb7  1  0.750000  0.314274  0.585596  1
  Pt  Pt8  1  0.250000  0.321548  0.404191  1
  Pt  Pt9  1  0.250000  0.793789  0.087207  1
  Pt  Pt10  1  0.750000  0.687837  0.576480  1
  Pt  Pt11  1  0.750000  0.230794  0.930601  1
