# generated using pymatgen
data_Np2GeRu3
_symmetry_space_group_name_H-M   'P 1'
_cell_length_a   5.62507235
_cell_length_b   5.62507206
_cell_length_c   4.99860230
_cell_angle_alpha   55.75973057
_cell_angle_beta   55.75973432
_cell_angle_gamma   59.99999867
_symmetry_Int_Tables_number   1
_chemical_formula_structural   Np2GeRu3
_chemical_formula_sum   'Np2 Ge1 Ru3'
_cell_volume   104.12465364
_cell_formula_units_Z   1
loop_
 _symmetry_equiv_pos_site_id
 _symmetry_equiv_pos_as_xyz
  1  'x, y, z'
loop_
 _atom_site_type_symbol
 _atom_site_label
 _atom_site_symmetry_multiplicity
 _atom_site_fract_x
 _atom_site_fract_y
 _atom_site_fract_z
 _atom_site_occupancy
  Np  Np0  1  0.750945  0.750945  0.747165  1
  Np  Np1  1  0.499055  0.499055  0.502835  1
  Ge  Ge2  1  0.125000  0.125000  0.625000  1
  Ru  Ru3  1  0.125000  0.625000  0.125000  1
  Ru  Ru4  1  0.625000  0.125000  0.125000  1
  Ru  Ru5  1  0.125000  0.125000  0.125000  1
