# generated using pymatgen
data_Yb2Sc2OsRu7
_symmetry_space_group_name_H-M   'P 1'
_cell_length_a   5.16936667
_cell_length_b   5.16936700
_cell_length_c   8.76540682
_cell_angle_alpha   89.88051655
_cell_angle_beta   90.11948337
_cell_angle_gamma   119.16539974
_symmetry_Int_Tables_number   1
_chemical_formula_structural   Yb2Sc2OsRu7
_chemical_formula_sum   'Yb2 Sc2 Os1 Ru7'
_cell_volume   204.53491810
_cell_formula_units_Z   1
loop_
 _symmetry_equiv_pos_site_id
 _symmetry_equiv_pos_as_xyz
  1  'x, y, z'
loop_
 _atom_site_type_symbol
 _atom_site_label
 _atom_site_symmetry_multiplicity
 _atom_site_fract_x
 _atom_site_fract_y
 _atom_site_fract_z
 _atom_site_occupancy
  Yb  Yb0  1  0.329189  0.670811  0.439415  1
  Yb  Yb1  1  0.662717  0.337283  0.562207  1
  Sc  Sc2  1  0.666195  0.333805  0.929106  1
  Sc  Sc3  1  0.331943  0.668057  0.071101  1
  Os  Os4  1  0.838078  0.161922  0.247462  1
  Ru  Ru5  1  0.171673  0.334848  0.754534  1
  Ru  Ru6  1  0.178571  0.821429  0.760607  1
  Ru  Ru7  1  0.352022  0.167989  0.241121  1
  Ru  Ru8  1  0.832011  0.647978  0.241121  1
  Ru  Ru9  1  0.665152  0.828327  0.754534  1
  Ru  Ru10  1  0.986369  0.013631  0.999097  1
  Ru  Ru11  1  0.986080  0.013920  0.499694  1
