# generated using pymatgen
data_Cs2Hg2Pd
_symmetry_space_group_name_H-M   'P 1'
_cell_length_a   9.51548365
_cell_length_b   9.51548416
_cell_length_c   5.97307100
_cell_angle_alpha   90.00000000
_cell_angle_beta   90.00000000
_cell_angle_gamma   130.63675636
_symmetry_Int_Tables_number   1
_chemical_formula_structural   Cs2Hg2Pd
_chemical_formula_sum   'Cs4 Hg4 Pd2'
_cell_volume   410.40956302
_cell_formula_units_Z   2
loop_
 _symmetry_equiv_pos_site_id
 _symmetry_equiv_pos_as_xyz
  1  'x, y, z'
loop_
 _atom_site_type_symbol
 _atom_site_label
 _atom_site_symmetry_multiplicity
 _atom_site_fract_x
 _atom_site_fract_y
 _atom_site_fract_z
 _atom_site_occupancy
  Cs  Cs0  1  0.584716  0.415284  0.750000  1
  Cs  Cs1  1  0.415284  0.584716  0.250000  1
  Cs  Cs2  1  0.203902  0.796098  0.750000  1
  Cs  Cs3  1  0.796098  0.203902  0.250000  1
  Hg  Hg4  1  0.694569  0.895710  0.750000  1
  Hg  Hg5  1  0.895710  0.694569  0.250000  1
  Hg  Hg6  1  0.305431  0.104290  0.250000  1
  Hg  Hg7  1  0.104290  0.305431  0.750000  1
  Pd  Pd8  1  0.000000  0.000000  0.000000  1
  Pd  Pd9  1  0.000000  0.000000  0.500000  1
