# generated using pymatgen
data_La3Pr(Mo2O7)2
_symmetry_space_group_name_H-M   'P 1'
_cell_length_a   7.57098611
_cell_length_b   7.57863219
_cell_length_c   7.58222726
_cell_angle_alpha   120.01618759
_cell_angle_beta   119.96245299
_cell_angle_gamma   90.00164394
_symmetry_Int_Tables_number   1
_chemical_formula_structural   La3Pr(Mo2O7)2
_chemical_formula_sum   'La3 Pr1 Mo4 O14'
_cell_volume   307.72225849
_cell_formula_units_Z   1
loop_
 _symmetry_equiv_pos_site_id
 _symmetry_equiv_pos_as_xyz
  1  'x, y, z'
loop_
 _atom_site_type_symbol
 _atom_site_label
 _atom_site_symmetry_multiplicity
 _atom_site_fract_x
 _atom_site_fract_y
 _atom_site_fract_z
 _atom_site_occupancy
  La  La0  1  0.375000  0.625000  0.250000  1
  La  La1  1  0.875000  0.625000  0.250000  1
  La  La2  1  0.375000  0.125000  0.750000  1
  Pr  Pr3  1  0.375000  0.625000  0.750000  1
  Mo  Mo4  1  0.875000  0.625000  0.750000  1
  Mo  Mo5  1  0.375000  0.125000  0.250000  1
  Mo  Mo6  1  0.875000  0.125000  0.250000  1
  Mo  Mo7  1  0.875000  0.125000  0.750000  1
  O  O8  1  0.785626  0.199207  0.997686  1
  O  O9  1  0.548497  0.462775  0.500138  1
  O  O10  1  0.206018  0.205429  0.000742  1
  O  O11  1  0.957600  0.455807  0.501075  1
  O  O12  1  0.800796  0.798710  0.587081  1
  O  O13  1  0.537241  0.032632  0.085051  1
  O  O14  1  0.250130  0.749960  0.499988  1
  O  O15  1  0.949204  0.451290  0.912919  1
  O  O16  1  0.964374  0.050793  0.502314  1
  O  O17  1  0.543982  0.044571  0.499258  1
  O  O18  1  0.212759  0.217368  0.414949  1
  O  O19  1  0.499870  0.500040  0.000012  1
  O  O20  1  0.792400  0.794193  0.998925  1
  O  O21  1  0.201503  0.787225  0.999862  1
