# generated using pymatgen
data_Tb5YTi2(MnC6)2
_symmetry_space_group_name_H-M   'P 1'
_cell_length_a   8.24136201
_cell_length_b   8.24231853
_cell_length_c   5.04646600
_cell_angle_alpha   90.00000000
_cell_angle_beta   90.00000000
_cell_angle_gamma   119.98958888
_symmetry_Int_Tables_number   1
_chemical_formula_structural   Tb5YTi2(MnC6)2
_chemical_formula_sum   'Tb5 Y1 Ti2 Mn2 C12'
_cell_volume   296.90117818
_cell_formula_units_Z   1
loop_
 _symmetry_equiv_pos_site_id
 _symmetry_equiv_pos_as_xyz
  1  'x, y, z'
loop_
 _atom_site_type_symbol
 _atom_site_label
 _atom_site_symmetry_multiplicity
 _atom_site_fract_x
 _atom_site_fract_y
 _atom_site_fract_z
 _atom_site_occupancy
  Tb  Tb0  1  0.940889  0.619202  0.250000  1
  Tb  Tb1  1  0.678313  0.059040  0.250000  1
  Tb  Tb2  1  0.321795  0.940921  0.750000  1
  Tb  Tb3  1  0.059203  0.380733  0.750000  1
  Tb  Tb4  1  0.380875  0.321804  0.250000  1
  Y  Y5  1  0.619696  0.678683  0.750000  1
  Ti  Ti6  1  0.999972  0.999971  0.500003  1
  Ti  Ti7  1  0.999972  0.999971  0.999997  1
  Mn  Mn8  1  0.666551  0.333152  0.750000  1
  Mn  Mn9  1  0.333388  0.666827  0.250000  1
  C  C10  1  0.963118  0.761134  0.750000  1
  C  C11  1  0.201877  0.963077  0.250000  1
  C  C12  1  0.761247  0.798129  0.250000  1
  C  C13  1  0.238592  0.201627  0.750000  1
  C  C14  1  0.797633  0.036623  0.750000  1
  C  C15  1  0.036953  0.238840  0.250000  1
  C  C16  1  0.861819  0.569514  0.750000  1
  C  C17  1  0.292301  0.861930  0.250000  1
  C  C18  1  0.569676  0.707402  0.250000  1
  C  C19  1  0.430276  0.292648  0.750000  1
  C  C20  1  0.138154  0.430543  0.250000  1
  C  C21  1  0.707699  0.138228  0.750000  1
