# generated using pymatgen
data_Ac2Ge2Au
_symmetry_space_group_name_H-M   'P 1'
_cell_length_a   6.31711872
_cell_length_b   6.31711705
_cell_length_c   11.62019967
_cell_angle_alpha   115.34482458
_cell_angle_beta   115.34481696
_cell_angle_gamma   42.78317204
_symmetry_Int_Tables_number   1
_chemical_formula_structural   Ac2Ge2Au
_chemical_formula_sum   'Ac4 Ge4 Au2'
_cell_volume   279.70856164
_cell_formula_units_Z   2
loop_
 _symmetry_equiv_pos_site_id
 _symmetry_equiv_pos_as_xyz
  1  'x, y, z'
loop_
 _atom_site_type_symbol
 _atom_site_label
 _atom_site_symmetry_multiplicity
 _atom_site_fract_x
 _atom_site_fract_y
 _atom_site_fract_z
 _atom_site_occupancy
  Ac  Ac0  1  0.711938  0.711938  0.145511  1
  Ac  Ac1  1  0.102326  0.102326  0.402718  1
  Ac  Ac2  1  0.897674  0.897674  0.597282  1
  Ac  Ac3  1  0.288062  0.288062  0.854489  1
  Ge  Ge4  1  0.967227  0.967227  0.088676  1
  Ge  Ge5  1  0.384009  0.384009  0.392392  1
  Ge  Ge6  1  0.615991  0.615991  0.607608  1
  Ge  Ge7  1  0.032773  0.032773  0.911324  1
  Au  Au8  1  0.440481  0.440481  0.188565  1
  Au  Au9  1  0.559519  0.559519  0.811435  1
