# generated using pymatgen
data_LiCeNdZn3Ru
_symmetry_space_group_name_H-M   'P 1'
_cell_length_a   7.21096700
_cell_length_b   7.26319698
_cell_length_c   5.15547517
_cell_angle_alpha   90.21636343
_cell_angle_beta   90.00000000
_cell_angle_gamma   90.00000000
_symmetry_Int_Tables_number   1
_chemical_formula_structural   LiCeNdZn3Ru
_chemical_formula_sum   'Li2 Ce2 Nd2 Zn6 Ru2'
_cell_volume   270.01440456
_cell_formula_units_Z   2
loop_
 _symmetry_equiv_pos_site_id
 _symmetry_equiv_pos_as_xyz
  1  'x, y, z'
loop_
 _atom_site_type_symbol
 _atom_site_label
 _atom_site_symmetry_multiplicity
 _atom_site_fract_x
 _atom_site_fract_y
 _atom_site_fract_z
 _atom_site_occupancy
  Li  Li0  1  0.189381  0.686405  0.295272  1
  Li  Li1  1  0.810619  0.686405  0.295272  1
  Ce  Ce2  1  0.000000  0.998195  0.008327  1
  Ce  Ce3  1  0.500000  0.503142  0.005882  1
  Nd  Nd4  1  0.000000  0.497492  0.758651  1
  Nd  Nd5  1  0.500000  0.003163  0.232614  1
  Zn  Zn6  1  0.815405  0.316893  0.287802  1
  Zn  Zn7  1  0.313454  0.185490  0.710924  1
  Zn  Zn8  1  0.184595  0.316893  0.287802  1
  Zn  Zn9  1  0.686546  0.185490  0.710924  1
  Zn  Zn10  1  0.690265  0.809770  0.709324  1
  Zn  Zn11  1  0.309735  0.809770  0.709324  1
  Ru  Ru12  1  0.500000  0.494094  0.493845  1
  Ru  Ru13  1  0.000000  0.006797  0.494036  1
