# generated using pymatgen
data_HgPPd2Pt3
_symmetry_space_group_name_H-M   'P 1'
_cell_length_a   4.03245100
_cell_length_b   3.92741600
_cell_length_c   7.21143700
_cell_angle_alpha   90.00000000
_cell_angle_beta   90.00000000
_cell_angle_gamma   90.00000000
_symmetry_Int_Tables_number   1
_chemical_formula_structural   HgPPd2Pt3
_chemical_formula_sum   'Hg1 P1 Pd2 Pt3'
_cell_volume   114.20833961
_cell_formula_units_Z   1
loop_
 _symmetry_equiv_pos_site_id
 _symmetry_equiv_pos_as_xyz
  1  'x, y, z'
loop_
 _atom_site_type_symbol
 _atom_site_label
 _atom_site_symmetry_multiplicity
 _atom_site_fract_x
 _atom_site_fract_y
 _atom_site_fract_z
 _atom_site_occupancy
  Hg  Hg0  1  0.500000  0.500000  0.996898  1
  P  P1  1  0.000000  0.000000  0.498031  1
  Pd  Pd2  1  0.500000  0.000000  0.700277  1
  Pd  Pd3  1  0.000000  0.000000  0.001402  1
  Pt  Pt4  1  0.000000  0.500000  0.300785  1
  Pt  Pt5  1  0.000000  0.500000  0.695993  1
  Pt  Pt6  1  0.500000  0.000000  0.306615  1
