# generated using pymatgen
data_Lu2Al2NiIr
_symmetry_space_group_name_H-M   'P 1'
_cell_length_a   4.17028200
_cell_length_b   6.65891500
_cell_length_c   7.76509400
_cell_angle_alpha   90.00000000
_cell_angle_beta   90.00000000
_cell_angle_gamma   90.00000000
_symmetry_Int_Tables_number   1
_chemical_formula_structural   Lu2Al2NiIr
_chemical_formula_sum   'Lu4 Al4 Ni2 Ir2'
_cell_volume   215.63319221
_cell_formula_units_Z   2
loop_
 _symmetry_equiv_pos_site_id
 _symmetry_equiv_pos_as_xyz
  1  'x, y, z'
loop_
 _atom_site_type_symbol
 _atom_site_label
 _atom_site_symmetry_multiplicity
 _atom_site_fract_x
 _atom_site_fract_y
 _atom_site_fract_z
 _atom_site_occupancy
  Lu  Lu0  1  0.250000  0.032109  0.820784  1
  Lu  Lu1  1  0.250000  0.532109  0.679216  1
  Lu  Lu2  1  0.750000  0.965879  0.173111  1
  Lu  Lu3  1  0.750000  0.465879  0.326889  1
  Al  Al4  1  0.250000  0.141409  0.446367  1
  Al  Al5  1  0.250000  0.641409  0.053633  1
  Al  Al6  1  0.750000  0.865162  0.562797  1
  Al  Al7  1  0.750000  0.365162  0.937203  1
  Ni  Ni8  1  0.750000  0.231336  0.628728  1
  Ni  Ni9  1  0.750000  0.731336  0.871272  1
  Ir  Ir10  1  0.250000  0.764105  0.375611  1
  Ir  Ir11  1  0.250000  0.264105  0.124389  1
