# generated using pymatgen
data_Tb7Ho5Ga2(NiRu)2
_symmetry_space_group_name_H-M   'P 1'
_cell_length_a   8.35111686
_cell_length_b   8.35095665
_cell_length_c   8.35544197
_cell_angle_alpha   113.02189678
_cell_angle_beta   110.13915275
_cell_angle_gamma   105.32025622
_symmetry_Int_Tables_number   1
_chemical_formula_structural   Tb7Ho5Ga2(NiRu)2
_chemical_formula_sum   'Tb7 Ho5 Ga2 Ni2 Ru2'
_cell_volume   446.65493938
_cell_formula_units_Z   1
loop_
 _symmetry_equiv_pos_site_id
 _symmetry_equiv_pos_as_xyz
  1  'x, y, z'
loop_
 _atom_site_type_symbol
 _atom_site_label
 _atom_site_symmetry_multiplicity
 _atom_site_fract_x
 _atom_site_fract_y
 _atom_site_fract_z
 _atom_site_occupancy
  Tb  Tb0  1  0.435807  0.241870  0.193365  1
  Tb  Tb1  1  0.564828  0.758619  0.806722  1
  Tb  Tb2  1  0.048107  0.241895  0.806720  1
  Tb  Tb3  1  0.951495  0.757558  0.193363  1
  Tb  Tb4  1  0.179680  0.279395  0.459073  1
  Tb  Tb5  1  0.819808  0.720609  0.540418  1
  Tb  Tb6  1  0.180018  0.720630  0.900643  1
  Ho  Ho7  1  0.820174  0.279005  0.099168  1
  Ho  Ho8  1  0.329313  0.642238  0.312870  1
  Ho  Ho9  1  0.670609  0.357314  0.687558  1
  Ho  Ho10  1  0.330248  0.016962  0.687566  1
  Ho  Ho11  1  0.670627  0.983547  0.312865  1
  Ga  Ga12  1  0.500046  0.500017  0.000064  1
  Ga  Ga13  1  0.999627  0.000626  0.000251  1
  Ni  Ni14  1  0.118060  0.617902  0.499334  1
  Ni  Ni15  1  0.881409  0.381246  0.499321  1
  Ru  Ru16  1  0.330504  0.000060  0.330557  1
  Ru  Ru17  1  0.669639  0.000506  0.670141  1
