# generated using pymatgen
data_Dy4MnGaTc6
_symmetry_space_group_name_H-M   'P 1'
_cell_length_a   5.31203300
_cell_length_b   5.30691576
_cell_length_c   9.07407305
_cell_angle_alpha   90.00277060
_cell_angle_beta   89.99458262
_cell_angle_gamma   120.02524026
_symmetry_Int_Tables_number   1
_chemical_formula_structural   Dy4MnGaTc6
_chemical_formula_sum   'Dy4 Mn1 Ga1 Tc6'
_cell_volume   221.47532411
_cell_formula_units_Z   1
loop_
 _symmetry_equiv_pos_site_id
 _symmetry_equiv_pos_as_xyz
  1  'x, y, z'
loop_
 _atom_site_type_symbol
 _atom_site_label
 _atom_site_symmetry_multiplicity
 _atom_site_fract_x
 _atom_site_fract_y
 _atom_site_fract_z
 _atom_site_occupancy
  Dy  Dy0  1  0.666739  0.333277  0.568358  1
  Dy  Dy1  1  0.333261  0.666723  0.431642  1
  Dy  Dy2  1  0.333314  0.666693  0.068260  1
  Dy  Dy3  1  0.666686  0.333307  0.931740  1
  Mn  Mn4  1  0.000000  0.000000  0.000000  1
  Ga  Ga5  1  0.000000  0.000000  0.500000  1
  Tc  Tc6  1  0.169741  0.339227  0.750954  1
  Tc  Tc7  1  0.169349  0.830478  0.751005  1
  Tc  Tc8  1  0.660901  0.830326  0.750899  1
  Tc  Tc9  1  0.830259  0.660773  0.249046  1
  Tc  Tc10  1  0.830651  0.169522  0.248995  1
  Tc  Tc11  1  0.339099  0.169674  0.249101  1
