# generated using pymatgen
data_AcLa(In2Rh)2
_symmetry_space_group_name_H-M   'P 1'
_cell_length_a   5.68926645
_cell_length_b   5.68926650
_cell_length_c   8.28766000
_cell_angle_alpha   90.00000000
_cell_angle_beta   90.00000000
_cell_angle_gamma   133.11678482
_symmetry_Int_Tables_number   1
_chemical_formula_structural   AcLa(In2Rh)2
_chemical_formula_sum   'Ac1 La1 In4 Rh2'
_cell_volume   195.81446797
_cell_formula_units_Z   1
loop_
 _symmetry_equiv_pos_site_id
 _symmetry_equiv_pos_as_xyz
  1  'x, y, z'
loop_
 _atom_site_type_symbol
 _atom_site_label
 _atom_site_symmetry_multiplicity
 _atom_site_fract_x
 _atom_site_fract_y
 _atom_site_fract_z
 _atom_site_occupancy
  Ac  Ac0  1  0.063597  0.936403  0.250000  1
  La  La1  1  0.939147  0.060853  0.750000  1
  In  In2  1  0.651768  0.348232  0.554978  1
  In  In3  1  0.349678  0.650322  0.453870  1
  In  In4  1  0.651768  0.348232  0.945022  1
  In  In5  1  0.349678  0.650322  0.046130  1
  Rh  Rh6  1  0.209328  0.790672  0.750000  1
  Rh  Rh7  1  0.785035  0.214965  0.250000  1
