# generated using pymatgen
data_LaCuAs2Rh
_symmetry_space_group_name_H-M   'P 1'
_cell_length_a   4.36375000
_cell_length_b   4.36375000
_cell_length_c   9.96835000
_cell_angle_alpha   90.00000000
_cell_angle_beta   90.00000000
_cell_angle_gamma   90.00000000
_symmetry_Int_Tables_number   1
_chemical_formula_structural   LaCuAs2Rh
_chemical_formula_sum   'La2 Cu2 As4 Rh2'
_cell_volume   189.82045138
_cell_formula_units_Z   2
loop_
 _symmetry_equiv_pos_site_id
 _symmetry_equiv_pos_as_xyz
  1  'x, y, z'
loop_
 _atom_site_type_symbol
 _atom_site_label
 _atom_site_symmetry_multiplicity
 _atom_site_fract_x
 _atom_site_fract_y
 _atom_site_fract_z
 _atom_site_occupancy
  La  La0  1  0.000000  0.500000  0.255490  1
  La  La1  1  0.500000  0.000000  0.744510  1
  Cu  Cu2  1  0.000000  0.000000  0.000000  1
  Cu  Cu3  1  0.500000  0.500000  0.000000  1
  As  As4  1  0.000000  0.000000  0.500000  1
  As  As5  1  0.500000  0.500000  0.500000  1
  As  As6  1  0.000000  0.500000  0.866514  1
  As  As7  1  0.500000  0.000000  0.133486  1
  Rh  Rh8  1  0.000000  0.500000  0.618498  1
  Rh  Rh9  1  0.500000  0.000000  0.381502  1
