# generated using pymatgen
data_Dy16Er4(IrPt3)3
_symmetry_space_group_name_H-M   'P 1'
_cell_length_a   11.04136000
_cell_length_b   11.04136000
_cell_length_c   6.34760400
_cell_angle_alpha   90.00000000
_cell_angle_beta   90.00000000
_cell_angle_gamma   90.00000000
_symmetry_Int_Tables_number   1
_chemical_formula_structural   Dy16Er4(IrPt3)3
_chemical_formula_sum   'Dy16 Er4 Ir3 Pt9'
_cell_volume   773.84675436
_cell_formula_units_Z   1
loop_
 _symmetry_equiv_pos_site_id
 _symmetry_equiv_pos_as_xyz
  1  'x, y, z'
loop_
 _atom_site_type_symbol
 _atom_site_label
 _atom_site_symmetry_multiplicity
 _atom_site_fract_x
 _atom_site_fract_y
 _atom_site_fract_z
 _atom_site_occupancy
  Dy  Dy0  1  0.292968  0.087738  0.377278  1
  Dy  Dy1  1  0.292409  0.912207  0.871206  1
  Dy  Dy2  1  0.707591  0.087793  0.871206  1
  Dy  Dy3  1  0.707032  0.912262  0.377278  1
  Dy  Dy4  1  0.587793  0.792409  0.871206  1
  Dy  Dy5  1  0.587738  0.207032  0.377278  1
  Dy  Dy6  1  0.412262  0.792968  0.377278  1
  Dy  Dy7  1  0.412207  0.207591  0.871206  1
  Dy  Dy8  1  0.205740  0.412927  0.625668  1
  Dy  Dy9  1  0.205714  0.587661  0.126121  1
  Dy  Dy10  1  0.794286  0.412339  0.126121  1
  Dy  Dy11  1  0.794260  0.587073  0.625668  1
  Dy  Dy12  1  0.912339  0.705714  0.126121  1
  Dy  Dy13  1  0.912927  0.294260  0.625668  1
  Dy  Dy14  1  0.087073  0.705740  0.625668  1
  Dy  Dy15  1  0.087661  0.294286  0.126121  1
  Er  Er16  1  0.000000  0.000000  0.500398  1
  Er  Er17  1  0.000000  0.000000  0.000730  1
  Er  Er18  1  0.500000  0.500000  0.000730  1
  Er  Er19  1  0.500000  0.500000  0.500398  1
  Ir  Ir20  1  0.500000  0.000000  0.618411  1
  Ir  Ir21  1  0.000000  0.500000  0.880295  1
  Ir  Ir22  1  0.000000  0.500000  0.380067  1
  Pt  Pt23  1  0.846365  0.152804  0.249887  1
  Pt  Pt24  1  0.846861  0.846794  0.750113  1
  Pt  Pt25  1  0.153139  0.153206  0.750113  1
  Pt  Pt26  1  0.153635  0.847196  0.249887  1
  Pt  Pt27  1  0.653206  0.346861  0.750113  1
  Pt  Pt28  1  0.652804  0.653635  0.249887  1
  Pt  Pt29  1  0.347196  0.346365  0.249887  1
  Pt  Pt30  1  0.346794  0.653139  0.750113  1
  Pt  Pt31  1  0.500000  0.000000  0.117878  1
