# generated using pymatgen
data_Zr3TaB4(SbRu5)2
_symmetry_space_group_name_H-M   'P 1'
_cell_length_a   9.52024189
_cell_length_b   9.52024182
_cell_length_c   3.10519200
_cell_angle_alpha   90.00000000
_cell_angle_beta   90.00000000
_cell_angle_gamma   90.30263726
_symmetry_Int_Tables_number   1
_chemical_formula_structural   Zr3TaB4(SbRu5)2
_chemical_formula_sum   'Zr3 Ta1 B4 Sb2 Ru10'
_cell_volume   281.43516631
_cell_formula_units_Z   1
loop_
 _symmetry_equiv_pos_site_id
 _symmetry_equiv_pos_as_xyz
  1  'x, y, z'
loop_
 _atom_site_type_symbol
 _atom_site_label
 _atom_site_symmetry_multiplicity
 _atom_site_fract_x
 _atom_site_fract_y
 _atom_site_fract_z
 _atom_site_occupancy
  Zr  Zr0  1  0.824079  0.675958  0.000000  1
  Zr  Zr1  1  0.175958  0.324079  0.000000  1
  Zr  Zr2  1  0.324665  0.824665  0.000000  1
  Ta  Ta3  1  0.675692  0.175692  0.000000  1
  B  B4  1  0.622248  0.880566  0.000000  1
  B  B5  1  0.380566  0.122248  0.000000  1
  B  B6  1  0.119861  0.619861  0.000000  1
  B  B7  1  0.877286  0.377286  0.000000  1
  Sb  Sb8  1  0.499074  0.502313  0.000000  1
  Sb  Sb9  1  0.002313  0.999074  0.000000  1
  Ru  Ru10  1  0.571101  0.722173  0.500000  1
  Ru  Ru11  1  0.437454  0.278883  0.500000  1
  Ru  Ru12  1  0.068996  0.778662  0.500000  1
  Ru  Ru13  1  0.922204  0.216615  0.500000  1
  Ru  Ru14  1  0.278662  0.568996  0.500000  1
  Ru  Ru15  1  0.716615  0.422204  0.500000  1
  Ru  Ru16  1  0.222173  0.071101  0.500000  1
  Ru  Ru17  1  0.778883  0.937454  0.500000  1
  Ru  Ru18  1  0.504206  0.004206  0.500000  1
  Ru  Ru19  1  0.997968  0.497968  0.500000  1
