# generated using pymatgen
data_Ba8SbIr3O20
_symmetry_space_group_name_H-M   'P 1'
_cell_length_a   5.80863500
_cell_length_b   7.51276270
_cell_length_c   11.71765324
_cell_angle_alpha   89.80898440
_cell_angle_beta   90.00000000
_cell_angle_gamma   90.00000000
_symmetry_Int_Tables_number   1
_chemical_formula_structural   Ba8SbIr3O20
_chemical_formula_sum   'Ba8 Sb1 Ir3 O20'
_cell_volume   511.34261354
_cell_formula_units_Z   1
loop_
 _symmetry_equiv_pos_site_id
 _symmetry_equiv_pos_as_xyz
  1  'x, y, z'
loop_
 _atom_site_type_symbol
 _atom_site_label
 _atom_site_symmetry_multiplicity
 _atom_site_fract_x
 _atom_site_fract_y
 _atom_site_fract_z
 _atom_site_occupancy
  Ba  Ba0  1  0.750000  0.167199  0.585866  1
  Ba  Ba1  1  0.250000  0.828031  0.418475  1
  Ba  Ba2  1  0.750000  0.669796  0.919195  1
  Ba  Ba3  1  0.250000  0.340813  0.073793  1
  Ba  Ba4  1  0.250000  0.024871  0.791605  1
  Ba  Ba5  1  0.750000  0.977454  0.210028  1
  Ba  Ba6  1  0.250000  0.516345  0.718478  1
  Ba  Ba7  1  0.750000  0.473909  0.286139  1
  Sb  Sb8  1  0.750000  0.179572  0.933268  1
  Ir  Ir9  1  0.250000  0.328026  0.438942  1
  Ir  Ir10  1  0.750000  0.670516  0.560000  1
  Ir  Ir11  1  0.250000  0.831506  0.063867  1
  O  O12  1  0.490159  0.679771  0.116641  1
  O  O13  1  0.003961  0.329796  0.879244  1
  O  O14  1  0.009881  0.177799  0.387441  1
  O  O15  1  0.511241  0.821719  0.610543  1
  O  O16  1  0.496039  0.329796  0.879244  1
  O  O17  1  0.009841  0.679771  0.116641  1
  O  O18  1  0.988759  0.821719  0.610543  1
  O  O19  1  0.490119  0.177799  0.387441  1
  O  O20  1  0.750000  0.284150  0.090924  1
  O  O21  1  0.250000  0.716402  0.913214  1
  O  O22  1  0.750000  0.781478  0.406731  1
  O  O23  1  0.250000  0.213832  0.590709  1
  O  O24  1  0.999666  0.498729  0.499608  1
  O  O25  1  0.500334  0.498729  0.499608  1
  O  O26  1  0.494122  0.998867  0.004269  1
  O  O27  1  0.005878  0.998867  0.004269  1
  O  O28  1  0.250000  0.467406  0.302819  1
  O  O29  1  0.750000  0.533731  0.695809  1
  O  O30  1  0.250000  0.964747  0.202071  1
  O  O31  1  0.750000  0.016853  0.802573  1
