# generated using pymatgen
data_Dy2Al20Fe3Ir
_symmetry_space_group_name_H-M   'P 1'
_cell_length_a   6.77467230
_cell_length_b   6.76964282
_cell_length_c   9.00818258
_cell_angle_alpha   90.12612841
_cell_angle_beta   89.90578365
_cell_angle_gamma   96.95356835
_symmetry_Int_Tables_number   1
_chemical_formula_structural   Dy2Al20Fe3Ir
_chemical_formula_sum   'Dy2 Al20 Fe3 Ir1'
_cell_volume   410.09411401
_cell_formula_units_Z   1
loop_
 _symmetry_equiv_pos_site_id
 _symmetry_equiv_pos_as_xyz
  1  'x, y, z'
loop_
 _atom_site_type_symbol
 _atom_site_label
 _atom_site_symmetry_multiplicity
 _atom_site_fract_x
 _atom_site_fract_y
 _atom_site_fract_z
 _atom_site_occupancy
  Dy  Dy0  1  0.874219  0.128165  0.748355  1
  Dy  Dy1  1  0.125781  0.871835  0.251645  1
  Al  Al2  1  0.625907  0.375570  0.548883  1
  Al  Al3  1  0.374093  0.624430  0.451117  1
  Al  Al4  1  0.371815  0.619160  0.050662  1
  Al  Al5  1  0.628185  0.380840  0.949338  1
  Al  Al6  1  0.226205  0.227954  0.498628  1
  Al  Al7  1  0.773795  0.772046  0.501372  1
  Al  Al8  1  0.778321  0.768661  0.002788  1
  Al  Al9  1  0.221679  0.231339  0.997212  1
  Al  Al10  1  0.847962  0.161832  0.100557  1
  Al  Al11  1  0.152038  0.838168  0.899443  1
  Al  Al12  1  0.158018  0.842380  0.597551  1
  Al  Al13  1  0.841982  0.157620  0.402449  1
  Al  Al14  1  0.863992  0.583424  0.748739  1
  Al  Al15  1  0.136008  0.416576  0.251261  1
  Al  Al16  1  0.413215  0.138773  0.744361  1
  Al  Al17  1  0.586785  0.861227  0.255639  1
  Al  Al18  1  0.220316  0.480031  0.749419  1
  Al  Al19  1  0.779684  0.519969  0.250581  1
  Al  Al20  1  0.520663  0.777609  0.744499  1
  Al  Al21  1  0.479337  0.222391  0.255501  1
  Fe  Fe22  1  0.000000  0.500000  0.500000  1
  Fe  Fe23  1  0.000000  0.500000  0.000000  1
  Fe  Fe24  1  0.500000  0.000000  0.500000  1
  Ir  Ir25  1  0.500000  0.000000  0.000000  1
