# generated using pymatgen
data_Ho(LuCu6)2
_symmetry_space_group_name_H-M   'P 1'
_cell_length_a   4.96645967
_cell_length_b   4.96645953
_cell_length_c   10.52352603
_cell_angle_alpha   94.89007863
_cell_angle_beta   94.89007550
_cell_angle_gamma   119.81810663
_symmetry_Int_Tables_number   1
_chemical_formula_structural   Ho(LuCu6)2
_chemical_formula_sum   'Ho1 Lu2 Cu12'
_cell_volume   221.92649907
_cell_formula_units_Z   1
loop_
 _symmetry_equiv_pos_site_id
 _symmetry_equiv_pos_as_xyz
  1  'x, y, z'
loop_
 _atom_site_type_symbol
 _atom_site_label
 _atom_site_symmetry_multiplicity
 _atom_site_fract_x
 _atom_site_fract_y
 _atom_site_fract_z
 _atom_site_occupancy
  Ho  Ho0  1  0.000000  0.000000  0.000000  1
  Lu  Lu1  1  0.134078  0.134078  0.358711  1
  Lu  Lu2  1  0.865922  0.865922  0.641289  1
  Cu  Cu3  1  0.663277  0.336724  0.000000  1
  Cu  Cu4  1  0.336724  0.663277  0.000000  1
  Cu  Cu5  1  0.570122  0.068677  0.197315  1
  Cu  Cu6  1  0.068677  0.570122  0.197315  1
  Cu  Cu7  1  0.571989  0.571989  0.203185  1
  Cu  Cu8  1  0.809049  0.474007  0.407035  1
  Cu  Cu9  1  0.474007  0.809049  0.407035  1
  Cu  Cu10  1  0.525995  0.190952  0.592965  1
  Cu  Cu11  1  0.190952  0.525995  0.592965  1
  Cu  Cu12  1  0.428010  0.428010  0.796815  1
  Cu  Cu13  1  0.931322  0.429877  0.802686  1
  Cu  Cu14  1  0.429877  0.931322  0.802686  1
