# generated using pymatgen
data_Tb7GeS7
_symmetry_space_group_name_H-M   'P 1'
_cell_length_a   7.90291700
_cell_length_b   7.90291736
_cell_length_c   7.90291700
_cell_angle_alpha   120.00000269
_cell_angle_beta   90.00000000
_cell_angle_gamma   120.00000269
_symmetry_Int_Tables_number   1
_chemical_formula_structural   Tb7GeS7
_chemical_formula_sum   'Tb7 Ge1 S7'
_cell_volume   349.01753660
_cell_formula_units_Z   1
loop_
 _symmetry_equiv_pos_site_id
 _symmetry_equiv_pos_as_xyz
  1  'x, y, z'
loop_
 _atom_site_type_symbol
 _atom_site_label
 _atom_site_symmetry_multiplicity
 _atom_site_fract_x
 _atom_site_fract_y
 _atom_site_fract_z
 _atom_site_occupancy
  Tb  Tb0  1  0.249383  0.000000  0.249383  1
  Tb  Tb1  1  0.249383  0.498765  0.249383  1
  Tb  Tb2  1  0.750617  0.000000  0.249384  1
  Tb  Tb3  1  0.250001  0.500001  0.750002  1
  Tb  Tb4  1  0.249384  0.000000  0.750617  1
  Tb  Tb5  1  0.750617  0.000000  0.750617  1
  Tb  Tb6  1  0.750617  0.501234  0.750617  1
  Ge  Ge7  1  0.000000  0.000000  0.000000  1
  S  S8  1  0.500000  0.000000  0.500000  1
  S  S9  1  0.001958  0.003918  0.501960  1
  S  S10  1  0.001958  0.500001  0.501960  1
  S  S11  1  0.498043  0.500001  0.501960  1
  S  S12  1  0.001960  0.500001  0.998042  1
  S  S13  1  0.498041  0.500001  0.998042  1
  S  S14  1  0.498041  0.996081  0.998042  1
