# generated using pymatgen
data_DyHo2Er3MnSb2
_symmetry_space_group_name_H-M   'P 1'
_cell_length_a   8.13801100
_cell_length_b   8.13844354
_cell_length_c   4.23046800
_cell_angle_alpha   90.00000000
_cell_angle_beta   90.00000000
_cell_angle_gamma   119.99823784
_symmetry_Int_Tables_number   1
_chemical_formula_structural   DyHo2Er3MnSb2
_chemical_formula_sum   'Dy1 Ho2 Er3 Mn1 Sb2'
_cell_volume   242.65340218
_cell_formula_units_Z   1
loop_
 _symmetry_equiv_pos_site_id
 _symmetry_equiv_pos_as_xyz
  1  'x, y, z'
loop_
 _atom_site_type_symbol
 _atom_site_label
 _atom_site_symmetry_multiplicity
 _atom_site_fract_x
 _atom_site_fract_y
 _atom_site_fract_z
 _atom_site_occupancy
  Dy  Dy0  1  0.601923  0.000000  0.000000  1
  Ho  Ho1  1  0.999834  0.602386  0.000000  1
  Ho  Ho2  1  0.397448  0.397614  0.000000  1
  Er  Er3  1  0.235846  0.000000  0.500000  1
  Er  Er4  1  0.000145  0.235804  0.500000  1
  Er  Er5  1  0.764341  0.764196  0.500000  1
  Mn  Mn6  1  0.000924  0.000000  0.000000  1
  Sb  Sb7  1  0.332797  0.666057  0.500000  1
  Sb  Sb8  1  0.666742  0.333943  0.500000  1
