# generated using pymatgen
data_TePt3F24
_symmetry_space_group_name_H-M   'P 1'
_cell_length_a   5.28378851
_cell_length_b   9.09760300
_cell_length_c   10.12099697
_cell_angle_alpha   90.00000000
_cell_angle_beta   90.05011428
_cell_angle_gamma   90.00000000
_symmetry_Int_Tables_number   1
_chemical_formula_structural   TePt3F24
_chemical_formula_sum   'Te1 Pt3 F24'
_cell_volume   486.51421675
_cell_formula_units_Z   1
loop_
 _symmetry_equiv_pos_site_id
 _symmetry_equiv_pos_as_xyz
  1  'x, y, z'
loop_
 _atom_site_type_symbol
 _atom_site_label
 _atom_site_symmetry_multiplicity
 _atom_site_fract_x
 _atom_site_fract_y
 _atom_site_fract_z
 _atom_site_occupancy
  Te  Te0  1  0.902954  0.750000  0.127618  1
  Pt  Pt1  1  0.597085  0.750000  0.627698  1
  Pt  Pt2  1  0.097468  0.250000  0.872178  1
  Pt  Pt3  1  0.402370  0.250000  0.372414  1
  F  F4  1  0.557008  0.397310  0.267211  1
  F  F5  1  0.054915  0.605001  0.231124  1
  F  F6  1  0.442567  0.897277  0.732715  1
  F  F7  1  0.942593  0.102747  0.766938  1
  F  F8  1  0.182435  0.750000  0.015227  1
  F  F9  1  0.687897  0.250000  0.486779  1
  F  F10  1  0.812681  0.250000  0.986383  1
  F  F11  1  0.310377  0.750000  0.513440  1
  F  F12  1  0.622999  0.750000  0.239948  1
  F  F13  1  0.116913  0.250000  0.257916  1
  F  F14  1  0.382865  0.250000  0.758079  1
  F  F15  1  0.884526  0.750000  0.741831  1
  F  F16  1  0.750260  0.895109  0.024546  1
  F  F17  1  0.247704  0.102374  0.477487  1
  F  F18  1  0.252657  0.397342  0.977308  1
  F  F19  1  0.752011  0.602526  0.522914  1
  F  F20  1  0.252657  0.102658  0.977308  1
  F  F21  1  0.752011  0.897474  0.522914  1
  F  F22  1  0.750260  0.604891  0.024546  1
  F  F23  1  0.247704  0.397626  0.477487  1
  F  F24  1  0.054915  0.894999  0.231124  1
  F  F25  1  0.557008  0.102690  0.267211  1
  F  F26  1  0.942593  0.397253  0.766938  1
  F  F27  1  0.442567  0.602723  0.732715  1
