# generated using pymatgen
data_Dy2Mn2FeRe14C3
_symmetry_space_group_name_H-M   'P 1'
_cell_length_a   6.93896102
_cell_length_b   6.93834872
_cell_length_c   6.93896055
_cell_angle_alpha   82.43784139
_cell_angle_beta   82.41891023
_cell_angle_gamma   82.43783084
_symmetry_Int_Tables_number   1
_chemical_formula_structural   Dy2Mn2FeRe14C3
_chemical_formula_sum   'Dy2 Mn2 Fe1 Re14 C3'
_cell_volume   326.04946886
_cell_formula_units_Z   1
loop_
 _symmetry_equiv_pos_site_id
 _symmetry_equiv_pos_as_xyz
  1  'x, y, z'
loop_
 _atom_site_type_symbol
 _atom_site_label
 _atom_site_symmetry_multiplicity
 _atom_site_fract_x
 _atom_site_fract_y
 _atom_site_fract_z
 _atom_site_occupancy
  Dy  Dy0  1  0.648861  0.648671  0.648861  1
  Dy  Dy1  1  0.351139  0.351329  0.351139  1
  Mn  Mn2  1  0.000000  0.000000  0.500000  1
  Mn  Mn3  1  0.500000  0.000000  0.000000  1
  Fe  Fe4  1  0.000000  0.500000  0.000000  1
  Re  Re5  1  0.722254  0.278444  0.000199  1
  Re  Re6  1  0.999801  0.721556  0.277746  1
  Re  Re7  1  0.278367  0.000000  0.721633  1
  Re  Re8  1  0.000199  0.278444  0.722254  1
  Re  Re9  1  0.721633  0.000000  0.278367  1
  Re  Re10  1  0.277746  0.721556  0.999801  1
  Re  Re11  1  0.346317  0.346873  0.860503  1
  Re  Re12  1  0.860503  0.346873  0.346317  1
  Re  Re13  1  0.346327  0.859813  0.346327  1
  Re  Re14  1  0.653683  0.653127  0.139497  1
  Re  Re15  1  0.139497  0.653127  0.653683  1
  Re  Re16  1  0.653673  0.140187  0.653673  1
  Re  Re17  1  0.898722  0.897896  0.898722  1
  Re  Re18  1  0.101278  0.102104  0.101278  1
  C  C19  1  0.500000  0.500000  0.000000  1
  C  C20  1  0.000000  0.500000  0.500000  1
  C  C21  1  0.500000  0.000000  0.500000  1
