# generated using pymatgen
data_Pr16Nd4Si15Pt
_symmetry_space_group_name_H-M   'P 1'
_cell_length_a   7.93388102
_cell_length_b   7.92420541
_cell_length_c   15.30322435
_cell_angle_alpha   89.95781415
_cell_angle_beta   89.76014346
_cell_angle_gamma   90.12352820
_symmetry_Int_Tables_number   1
_chemical_formula_structural   Pr16Nd4Si15Pt
_chemical_formula_sum   'Pr16 Nd4 Si15 Pt1'
_cell_volume   962.09823525
_cell_formula_units_Z   1
loop_
 _symmetry_equiv_pos_site_id
 _symmetry_equiv_pos_as_xyz
  1  'x, y, z'
loop_
 _atom_site_type_symbol
 _atom_site_label
 _atom_site_symmetry_multiplicity
 _atom_site_fract_x
 _atom_site_fract_y
 _atom_site_fract_z
 _atom_site_occupancy
  Pr  Pr0  1  0.374869  0.010537  0.448208  1
  Pr  Pr1  1  0.490787  0.874400  0.698595  1
  Pr  Pr2  1  0.510196  0.123338  0.197922  1
  Pr  Pr3  1  0.876635  0.488968  0.300618  1
  Pr  Pr4  1  0.122523  0.511588  0.801178  1
  Pr  Pr5  1  0.626112  0.988436  0.948826  1
  Pr  Pr6  1  0.004817  0.375956  0.551492  1
  Pr  Pr7  1  0.989067  0.625370  0.051812  1
  Pr  Pr8  1  0.133712  0.986331  0.875145  1
  Pr  Pr9  1  0.517308  0.630492  0.126135  1
  Pr  Pr10  1  0.476952  0.365078  0.627820  1
  Pr  Pr11  1  0.627582  0.516920  0.874017  1
  Pr  Pr12  1  0.372214  0.482933  0.373226  1
  Pr  Pr13  1  0.872257  0.020022  0.375970  1
  Pr  Pr14  1  0.981953  0.127048  0.124493  1
  Pr  Pr15  1  0.021440  0.875290  0.623623  1
  Nd  Nd16  1  0.306145  0.306783  0.999383  1
  Nd  Nd17  1  0.190982  0.809179  0.249842  1
  Nd  Nd18  1  0.814685  0.187328  0.750437  1
  Nd  Nd19  1  0.691932  0.687764  0.499742  1
  Si  Si20  1  0.332641  0.695003  0.951259  1
  Si  Si21  1  0.664195  0.303925  0.451886  1
  Si  Si22  1  0.697029  0.334801  0.049210  1
  Si  Si23  1  0.305714  0.668500  0.547546  1
  Si  Si24  1  0.805861  0.831934  0.202773  1
  Si  Si25  1  0.168366  0.196741  0.298049  1
  Si  Si26  1  0.834318  0.803906  0.798541  1
  Si  Si27  1  0.288258  0.922527  0.059471  1
  Si  Si28  1  0.578942  0.787164  0.310413  1
  Si  Si29  1  0.430550  0.207754  0.812906  1
  Si  Si30  1  0.785049  0.579758  0.689819  1
  Si  Si31  1  0.212629  0.422837  0.189820  1
  Si  Si32  1  0.705986  0.074286  0.558821  1
  Si  Si33  1  0.920750  0.288787  0.941160  1
  Si  Si34  1  0.078786  0.714525  0.440574  1
  Pt  Pt35  1  0.188759  0.173787  0.699268  1
