# generated using pymatgen
data_Tm7Sc(Ge4Mo3)4
_symmetry_space_group_name_H-M   'P 1'
_cell_length_a   6.88082738
_cell_length_b   7.01233969
_cell_length_c   13.06361565
_cell_angle_alpha   90.04709254
_cell_angle_beta   89.96683238
_cell_angle_gamma   89.98083756
_symmetry_Int_Tables_number   1
_chemical_formula_structural   Tm7Sc(Ge4Mo3)4
_chemical_formula_sum   'Tm7 Sc1 Ge16 Mo12'
_cell_volume   630.32823236
_cell_formula_units_Z   1
loop_
 _symmetry_equiv_pos_site_id
 _symmetry_equiv_pos_as_xyz
  1  'x, y, z'
loop_
 _atom_site_type_symbol
 _atom_site_label
 _atom_site_symmetry_multiplicity
 _atom_site_fract_x
 _atom_site_fract_y
 _atom_site_fract_z
 _atom_site_occupancy
  Tm  Tm0  1  0.487910  0.671121  0.591891  1
  Tm  Tm1  1  0.988510  0.829507  0.908240  1
  Tm  Tm2  1  0.512037  0.329488  0.092111  1
  Tm  Tm3  1  0.011383  0.169867  0.409451  1
  Tm  Tm4  1  0.511405  0.328718  0.409207  1
  Tm  Tm5  1  0.011808  0.170664  0.091994  1
  Tm  Tm6  1  0.487804  0.671185  0.906663  1
  Sc  Sc7  1  0.985415  0.827685  0.592725  1
  Ge  Ge8  1  0.674086  0.954469  0.454265  1
  Ge  Ge9  1  0.172198  0.544783  0.047352  1
  Ge  Ge10  1  0.328655  0.045568  0.951933  1
  Ge  Ge11  1  0.829543  0.458185  0.547996  1
  Ge  Ge12  1  0.322267  0.041396  0.548005  1
  Ge  Ge13  1  0.827865  0.455059  0.952200  1
  Ge  Ge14  1  0.671694  0.954766  0.047698  1
  Ge  Ge15  1  0.171039  0.547233  0.453678  1
  Ge  Ge16  1  0.468226  0.369729  0.749836  1
  Ge  Ge17  1  0.968721  0.127673  0.748070  1
  Ge  Ge18  1  0.532429  0.630071  0.250222  1
  Ge  Ge19  1  0.032236  0.870023  0.250392  1
  Ge  Ge20  1  0.691548  0.853400  0.748515  1
  Ge  Ge21  1  0.185229  0.649034  0.747588  1
  Ge  Ge22  1  0.311656  0.146592  0.250462  1
  Ge  Ge23  1  0.812078  0.353782  0.250798  1
  Mo  Mo24  1  0.668190  0.155877  0.626178  1
  Mo  Mo25  1  0.167211  0.343711  0.872395  1
  Mo  Mo26  1  0.331967  0.843839  0.126289  1
  Mo  Mo27  1  0.832272  0.657259  0.374399  1
  Mo  Mo28  1  0.332881  0.843417  0.373467  1
  Mo  Mo29  1  0.832371  0.656484  0.126848  1
  Mo  Mo30  1  0.669323  0.155603  0.873166  1
  Mo  Mo31  1  0.168782  0.343942  0.626271  1
  Mo  Mo32  1  0.832390  0.496125  0.749370  1
  Mo  Mo33  1  0.332467  0.003348  0.748996  1
  Mo  Mo34  1  0.168232  0.504183  0.250420  1
  Mo  Mo35  1  0.668174  0.996216  0.250909  1
