# generated using pymatgen
data_HoCu2Ni3
_symmetry_space_group_name_H-M   'P 1'
_cell_length_a   4.92692348
_cell_length_b   4.92692307
_cell_length_c   3.98550700
_cell_angle_alpha   90.00000000
_cell_angle_beta   90.00000000
_cell_angle_gamma   120.17090852
_symmetry_Int_Tables_number   1
_chemical_formula_structural   HoCu2Ni3
_chemical_formula_sum   'Ho1 Cu2 Ni3'
_cell_volume   83.64024396
_cell_formula_units_Z   1
loop_
 _symmetry_equiv_pos_site_id
 _symmetry_equiv_pos_as_xyz
  1  'x, y, z'
loop_
 _atom_site_type_symbol
 _atom_site_label
 _atom_site_symmetry_multiplicity
 _atom_site_fract_x
 _atom_site_fract_y
 _atom_site_fract_z
 _atom_site_occupancy
  Ho  Ho0  1  0.999030  0.000970  0.000000  1
  Cu  Cu1  1  0.669740  0.330260  0.000000  1
  Cu  Cu2  1  0.500236  0.499764  0.500000  1
  Ni  Ni3  1  0.327456  0.672544  0.000000  1
  Ni  Ni4  1  0.501063  0.997525  0.500000  1
  Ni  Ni5  1  0.002475  0.498937  0.500000  1
