# generated using pymatgen
data_YAl2SiPd
_symmetry_space_group_name_H-M   'P 1'
_cell_length_a   4.15862159
_cell_length_b   4.15887300
_cell_length_c   6.17417419
_cell_angle_alpha   70.31822369
_cell_angle_beta   70.31945759
_cell_angle_gamma   90.00001202
_symmetry_Int_Tables_number   1
_chemical_formula_structural   YAl2SiPd
_chemical_formula_sum   'Y1 Al2 Si1 Pd1'
_cell_volume   93.89361159
_cell_formula_units_Z   1
loop_
 _symmetry_equiv_pos_site_id
 _symmetry_equiv_pos_as_xyz
  1  'x, y, z'
loop_
 _atom_site_type_symbol
 _atom_site_label
 _atom_site_symmetry_multiplicity
 _atom_site_fract_x
 _atom_site_fract_y
 _atom_site_fract_z
 _atom_site_occupancy
  Y  Y0  1  0.982097  0.982097  0.035807  1
  Al  Al1  1  0.746640  0.246640  0.506720  1
  Al  Al2  1  0.246642  0.746642  0.506714  1
  Si  Si3  1  0.402181  0.402181  0.195639  1
  Pd  Pd4  1  0.622440  0.622440  0.755120  1
