# generated using pymatgen
data_Ta4Be4RhAu
_symmetry_space_group_name_H-M   'P 1'
_cell_length_a   6.08422800
_cell_length_b   6.08422800
_cell_length_c   3.64766800
_cell_angle_alpha   90.00000000
_cell_angle_beta   90.00000000
_cell_angle_gamma   90.00000000
_symmetry_Int_Tables_number   1
_chemical_formula_structural   Ta4Be4RhAu
_chemical_formula_sum   'Ta4 Be4 Rh1 Au1'
_cell_volume   135.02875522
_cell_formula_units_Z   1
loop_
 _symmetry_equiv_pos_site_id
 _symmetry_equiv_pos_as_xyz
  1  'x, y, z'
loop_
 _atom_site_type_symbol
 _atom_site_label
 _atom_site_symmetry_multiplicity
 _atom_site_fract_x
 _atom_site_fract_y
 _atom_site_fract_z
 _atom_site_occupancy
  Ta  Ta0  1  0.676378  0.163121  0.500000  1
  Ta  Ta1  1  0.323622  0.836879  0.500000  1
  Ta  Ta2  1  0.163121  0.323622  0.500000  1
  Ta  Ta3  1  0.836879  0.676378  0.500000  1
  Be  Be4  1  0.124137  0.625504  0.000000  1
  Be  Be5  1  0.875863  0.374496  0.000000  1
  Be  Be6  1  0.625504  0.875863  0.000000  1
  Be  Be7  1  0.374496  0.124137  0.000000  1
  Rh  Rh8  1  0.000000  0.000000  0.000000  1
  Au  Au9  1  0.500000  0.500000  0.000000  1
