# generated using pymatgen
data_La13HoZn2NiPd3
_symmetry_space_group_name_H-M   'P 1'
_cell_length_a   3.86229300
_cell_length_b   12.44248652
_cell_length_c   12.44248749
_cell_angle_alpha   90.41476879
_cell_angle_beta   90.00000000
_cell_angle_gamma   90.00000000
_symmetry_Int_Tables_number   1
_chemical_formula_structural   La13HoZn2NiPd3
_chemical_formula_sum   'La13 Ho1 Zn2 Ni1 Pd3'
_cell_volume   597.92708844
_cell_formula_units_Z   1
loop_
 _symmetry_equiv_pos_site_id
 _symmetry_equiv_pos_as_xyz
  1  'x, y, z'
loop_
 _atom_site_type_symbol
 _atom_site_label
 _atom_site_symmetry_multiplicity
 _atom_site_fract_x
 _atom_site_fract_y
 _atom_site_fract_z
 _atom_site_occupancy
  La  La0  1  0.500000  0.506084  0.993916  1
  La  La1  1  0.000000  0.320170  0.820562  1
  La  La2  1  0.000000  0.679438  0.179830  1
  La  La3  1  0.000000  0.178291  0.321709  1
  La  La4  1  0.000000  0.819799  0.680201  1
  La  La5  1  0.500000  0.559894  0.705114  1
  La  La6  1  0.500000  0.442469  0.301445  1
  La  La7  1  0.500000  0.943541  0.198954  1
  La  La8  1  0.500000  0.054528  0.800356  1
  La  La9  1  0.500000  0.699644  0.445472  1
  La  La10  1  0.500000  0.301046  0.556459  1
  La  La11  1  0.500000  0.198555  0.057531  1
  La  La12  1  0.500000  0.794886  0.940106  1
  Ho  Ho13  1  0.500000  0.999698  0.500302  1
  Zn  Zn14  1  0.000000  0.501240  0.502837  1
  Zn  Zn15  1  0.000000  0.997163  0.998760  1
  Ni  Ni16  1  0.000000  0.631544  0.868456  1
  Pd  Pd17  1  0.000000  0.128043  0.627788  1
  Pd  Pd18  1  0.000000  0.872212  0.371957  1
  Pd  Pd19  1  0.000000  0.371754  0.128246  1
