# generated using pymatgen
data_Zr3Sc(GaRe3)2
_symmetry_space_group_name_H-M   'P 1'
_cell_length_a   5.27617800
_cell_length_b   5.27617784
_cell_length_c   8.66558700
_cell_angle_alpha   90.00000000
_cell_angle_beta   90.00000000
_cell_angle_gamma   120.00000099
_symmetry_Int_Tables_number   1
_chemical_formula_structural   Zr3Sc(GaRe3)2
_chemical_formula_sum   'Zr3 Sc1 Ga2 Re6'
_cell_volume   208.91396831
_cell_formula_units_Z   1
loop_
 _symmetry_equiv_pos_site_id
 _symmetry_equiv_pos_as_xyz
  1  'x, y, z'
loop_
 _atom_site_type_symbol
 _atom_site_label
 _atom_site_symmetry_multiplicity
 _atom_site_fract_x
 _atom_site_fract_y
 _atom_site_fract_z
 _atom_site_occupancy
  Zr  Zr0  1  0.666667  0.333333  0.564578  1
  Zr  Zr1  1  0.666667  0.333333  0.933241  1
  Zr  Zr2  1  0.333333  0.666667  0.068862  1
  Sc  Sc3  1  0.333333  0.666667  0.435317  1
  Ga  Ga4  1  0.000000  0.000000  0.499383  1
  Ga  Ga5  1  0.000000  0.000000  0.999487  1
  Re  Re6  1  0.828447  0.171553  0.249783  1
  Re  Re7  1  0.828447  0.656895  0.249783  1
  Re  Re8  1  0.343105  0.171553  0.249783  1
  Re  Re9  1  0.171848  0.828152  0.749927  1
  Re  Re10  1  0.171848  0.343695  0.749927  1
  Re  Re11  1  0.656305  0.828152  0.749927  1
