# generated using pymatgen
data_ErZrTl2(PO4)3
_symmetry_space_group_name_H-M   'P 1'
_cell_length_a   10.49363200
_cell_length_b   10.49363200
_cell_length_c   10.49363200
_cell_angle_alpha   90.00000000
_cell_angle_beta   90.00000000
_cell_angle_gamma   90.00000000
_symmetry_Int_Tables_number   1
_chemical_formula_structural   ErZrTl2(PO4)3
_chemical_formula_sum   'Er4 Zr4 Tl8 P12 O48'
_cell_volume   1155.52006111
_cell_formula_units_Z   4
loop_
 _symmetry_equiv_pos_site_id
 _symmetry_equiv_pos_as_xyz
  1  'x, y, z'
loop_
 _atom_site_type_symbol
 _atom_site_label
 _atom_site_symmetry_multiplicity
 _atom_site_fract_x
 _atom_site_fract_y
 _atom_site_fract_z
 _atom_site_occupancy
  Er  Er0  1  0.145969  0.145969  0.145969  1
  Er  Er1  1  0.354031  0.854031  0.645969  1
  Er  Er2  1  0.645969  0.354031  0.854031  1
  Er  Er3  1  0.854031  0.645969  0.354031  1
  Zr  Zr4  1  0.086720  0.586720  0.913280  1
  Zr  Zr5  1  0.413280  0.413280  0.413280  1
  Zr  Zr6  1  0.586720  0.913280  0.086720  1
  Zr  Zr7  1  0.913280  0.086720  0.586720  1
  Tl  Tl8  1  0.066785  0.433215  0.566785  1
  Tl  Tl9  1  0.201596  0.798404  0.298404  1
  Tl  Tl10  1  0.298404  0.201596  0.798404  1
  Tl  Tl11  1  0.433215  0.566785  0.066785  1
  Tl  Tl12  1  0.566785  0.066785  0.433215  1
  Tl  Tl13  1  0.701596  0.701596  0.701596  1
  Tl  Tl14  1  0.798404  0.298404  0.201596  1
  Tl  Tl15  1  0.933215  0.933215  0.933215  1
  P  P16  1  0.034537  0.770821  0.628686  1
  P  P17  1  0.128686  0.465463  0.229179  1
  P  P18  1  0.229179  0.128686  0.465463  1
  P  P19  1  0.270821  0.871314  0.965463  1
  P  P20  1  0.371314  0.534537  0.729179  1
  P  P21  1  0.465463  0.229179  0.128686  1
  P  P22  1  0.534537  0.729179  0.371314  1
  P  P23  1  0.628686  0.034537  0.770821  1
  P  P24  1  0.729179  0.371314  0.534537  1
  P  P25  1  0.770821  0.628686  0.034537  1
  P  P26  1  0.871314  0.965463  0.270821  1
  P  P27  1  0.965463  0.270821  0.871314  1
  O  O28  1  0.007661  0.412405  0.853576  1
  O  O29  1  0.036904  0.556589  0.298094  1
  O  O30  1  0.023996  0.702908  0.760735  1
  O  O31  1  0.056589  0.201906  0.963096  1
  O  O32  1  0.079235  0.327600  0.234136  1
  O  O33  1  0.087595  0.146424  0.507661  1
  O  O34  1  0.146424  0.507661  0.087595  1
  O  O35  1  0.172400  0.765864  0.579235  1
  O  O36  1  0.202908  0.739265  0.976004  1
  O  O37  1  0.201906  0.963096  0.056589  1
  O  O38  1  0.239265  0.523996  0.797092  1
  O  O39  1  0.234136  0.079235  0.327600  1
  O  O40  1  0.265864  0.920765  0.827600  1
  O  O41  1  0.260735  0.476004  0.297092  1
  O  O42  1  0.298094  0.036904  0.556589  1
  O  O43  1  0.297092  0.260735  0.476004  1
  O  O44  1  0.327600  0.234136  0.079235  1
  O  O45  1  0.353576  0.492339  0.587595  1
  O  O46  1  0.412405  0.853576  0.007661  1
  O  O47  1  0.420765  0.672400  0.734136  1
  O  O48  1  0.443411  0.798094  0.463096  1
  O  O49  1  0.476004  0.297092  0.260735  1
  O  O50  1  0.463096  0.443411  0.798094  1
  O  O51  1  0.492339  0.587595  0.353576  1
  O  O52  1  0.507661  0.087595  0.146424  1
  O  O53  1  0.536904  0.943411  0.701906  1
  O  O54  1  0.523996  0.797092  0.239265  1
  O  O55  1  0.556589  0.298094  0.036904  1
  O  O56  1  0.579235  0.172400  0.765864  1
  O  O57  1  0.587595  0.353576  0.492339  1
  O  O58  1  0.646424  0.992339  0.912405  1
  O  O59  1  0.672400  0.734136  0.420765  1
  O  O60  1  0.702908  0.760735  0.023996  1
  O  O61  1  0.701906  0.536904  0.943411  1
  O  O62  1  0.739265  0.976004  0.202908  1
  O  O63  1  0.734136  0.420765  0.672400  1
  O  O64  1  0.765864  0.579235  0.172400  1
  O  O65  1  0.760735  0.023996  0.702908  1
  O  O66  1  0.798094  0.463096  0.443411  1
  O  O67  1  0.797092  0.239265  0.523996  1
  O  O68  1  0.827600  0.265864  0.920765  1
  O  O69  1  0.853576  0.007661  0.412405  1
  O  O70  1  0.912405  0.646424  0.992339  1
  O  O71  1  0.920765  0.827600  0.265864  1
  O  O72  1  0.943411  0.701906  0.536904  1
  O  O73  1  0.976004  0.202908  0.739265  1
  O  O74  1  0.963096  0.056589  0.201906  1
  O  O75  1  0.992339  0.912405  0.646424  1
