# generated using pymatgen
data_LiZrCoH6
_symmetry_space_group_name_H-M   'P 1'
_cell_length_a   6.44443600
_cell_length_b   6.44443600
_cell_length_c   6.44443600
_cell_angle_alpha   90.00000000
_cell_angle_beta   90.00000000
_cell_angle_gamma   90.00000000
_symmetry_Int_Tables_number   1
_chemical_formula_structural   LiZrCoH6
_chemical_formula_sum   'Li4 Zr4 Co4 H24'
_cell_volume   267.64229494
_cell_formula_units_Z   4
loop_
 _symmetry_equiv_pos_site_id
 _symmetry_equiv_pos_as_xyz
  1  'x, y, z'
loop_
 _atom_site_type_symbol
 _atom_site_label
 _atom_site_symmetry_multiplicity
 _atom_site_fract_x
 _atom_site_fract_y
 _atom_site_fract_z
 _atom_site_occupancy
  Li  Li0  1  0.000000  0.000000  0.500000  1
  Li  Li1  1  0.000000  0.500000  0.000000  1
  Li  Li2  1  0.500000  0.000000  0.000000  1
  Li  Li3  1  0.000000  0.000000  0.000000  1
  Zr  Zr4  1  0.500000  0.500000  0.500000  1
  Zr  Zr5  1  0.000000  0.500000  0.500000  1
  Zr  Zr6  1  0.500000  0.000000  0.500000  1
  Zr  Zr7  1  0.500000  0.500000  0.000000  1
  Co  Co8  1  0.249499  0.750501  0.750501  1
  Co  Co9  1  0.750501  0.249499  0.750501  1
  Co  Co10  1  0.750501  0.750501  0.249499  1
  Co  Co11  1  0.249499  0.249499  0.249499  1
  H  H12  1  0.744523  0.744523  0.500412  1
  H  H13  1  0.255477  0.255477  0.500412  1
  H  H14  1  0.006002  0.742630  0.742630  1
  H  H15  1  0.257370  0.993998  0.742630  1
  H  H16  1  0.742630  0.006002  0.742630  1
  H  H17  1  0.993998  0.257370  0.742630  1
  H  H18  1  0.744523  0.500412  0.744523  1
  H  H19  1  0.500412  0.744523  0.744523  1
  H  H20  1  0.499588  0.255477  0.744523  1
  H  H21  1  0.255477  0.499588  0.744523  1
  H  H22  1  0.257370  0.742630  0.993998  1
  H  H23  1  0.742630  0.257370  0.993998  1
  H  H24  1  0.742630  0.742630  0.006002  1
  H  H25  1  0.257370  0.257370  0.006002  1
  H  H26  1  0.255477  0.500412  0.255477  1
  H  H27  1  0.499588  0.744523  0.255477  1
  H  H28  1  0.500412  0.255477  0.255477  1
  H  H29  1  0.744523  0.499588  0.255477  1
  H  H30  1  0.993998  0.742630  0.257370  1
  H  H31  1  0.742630  0.993998  0.257370  1
  H  H32  1  0.257370  0.006002  0.257370  1
  H  H33  1  0.006002  0.257370  0.257370  1
  H  H34  1  0.255477  0.744523  0.499588  1
  H  H35  1  0.744523  0.255477  0.499588  1
