# generated using pymatgen
data_Tb2TmSi2Ag3Ge
_symmetry_space_group_name_H-M   'P 1'
_cell_length_a   7.07373749
_cell_length_b   7.09536869
_cell_length_c   4.22980100
_cell_angle_alpha   90.00000000
_cell_angle_beta   90.00000000
_cell_angle_gamma   120.10119867
_symmetry_Int_Tables_number   1
_chemical_formula_structural   Tb2TmSi2Ag3Ge
_chemical_formula_sum   'Tb2 Tm1 Si2 Ag3 Ge1'
_cell_volume   183.66681729
_cell_formula_units_Z   1
loop_
 _symmetry_equiv_pos_site_id
 _symmetry_equiv_pos_as_xyz
  1  'x, y, z'
loop_
 _atom_site_type_symbol
 _atom_site_label
 _atom_site_symmetry_multiplicity
 _atom_site_fract_x
 _atom_site_fract_y
 _atom_site_fract_z
 _atom_site_occupancy
  Tb  Tb0  1  0.419133  0.419766  0.500000  1
  Tb  Tb1  1  0.580867  0.000633  0.500000  1
  Tm  Tm2  1  0.000000  0.581459  0.500000  1
  Si  Si3  1  0.669643  0.335190  0.000000  1
  Si  Si4  1  0.330357  0.665548  0.000000  1
  Ag  Ag5  1  0.744646  0.743801  0.000000  1
  Ag  Ag6  1  0.255354  0.999155  0.000000  1
  Ag  Ag7  1  0.000000  0.257194  0.000000  1
  Ge  Ge8  1  0.000000  0.997252  0.500000  1
