# generated using pymatgen
data_TbY3FeCo4
_symmetry_space_group_name_H-M   'P 1'
_cell_length_a   5.55031330
_cell_length_b   5.55031285
_cell_length_c   8.78217240
_cell_angle_alpha   72.02298245
_cell_angle_beta   72.02298484
_cell_angle_gamma   41.91348650
_symmetry_Int_Tables_number   1
_chemical_formula_structural   TbY3FeCo4
_chemical_formula_sum   'Tb1 Y3 Fe1 Co4'
_cell_volume   170.56955725
_cell_formula_units_Z   1
loop_
 _symmetry_equiv_pos_site_id
 _symmetry_equiv_pos_as_xyz
  1  'x, y, z'
loop_
 _atom_site_type_symbol
 _atom_site_label
 _atom_site_symmetry_multiplicity
 _atom_site_fract_x
 _atom_site_fract_y
 _atom_site_fract_z
 _atom_site_occupancy
  Tb  Tb0  1  0.741108  0.741108  0.661058  1
  Y  Y1  1  0.258685  0.258685  0.339096  1
  Y  Y2  1  0.390828  0.390828  0.882200  1
  Y  Y3  1  0.609053  0.609053  0.117960  1
  Fe  Fe4  1  0.500092  0.500092  0.499873  1
  Co  Co5  1  0.032617  0.032617  0.636684  1
  Co  Co6  1  0.967319  0.967319  0.363338  1
  Co  Co7  1  0.086623  0.086623  0.876465  1
  Co  Co8  1  0.913675  0.913675  0.123327  1
