# generated using pymatgen
data_Dy9Er7(Ga3Fe)2
_symmetry_space_group_name_H-M   'P 1'
_cell_length_a   9.94197500
_cell_length_b   9.94197656
_cell_length_c   6.95801500
_cell_angle_alpha   90.00000000
_cell_angle_beta   90.00000000
_cell_angle_gamma   119.99999149
_symmetry_Int_Tables_number   1
_chemical_formula_structural   Dy9Er7(Ga3Fe)2
_chemical_formula_sum   'Dy9 Er7 Ga6 Fe2'
_cell_volume   595.60924614
_cell_formula_units_Z   1
loop_
 _symmetry_equiv_pos_site_id
 _symmetry_equiv_pos_as_xyz
  1  'x, y, z'
loop_
 _atom_site_type_symbol
 _atom_site_label
 _atom_site_symmetry_multiplicity
 _atom_site_fract_x
 _atom_site_fract_y
 _atom_site_fract_z
 _atom_site_occupancy
  Dy  Dy0  1  0.666667  0.333333  0.328902  1
  Dy  Dy1  1  0.463092  0.536908  0.207101  1
  Dy  Dy2  1  0.073814  0.536908  0.207101  1
  Dy  Dy3  1  0.463092  0.926186  0.207101  1
  Dy  Dy4  1  0.536608  0.463392  0.707941  1
  Dy  Dy5  1  0.926783  0.463392  0.707941  1
  Dy  Dy6  1  0.536608  0.073217  0.707941  1
  Dy  Dy7  1  0.000000  0.000000  0.231886  1
  Dy  Dy8  1  0.000000  0.000000  0.731153  1
  Er  Er9  1  0.173441  0.826559  0.511917  1
  Er  Er10  1  0.653117  0.826559  0.511917  1
  Er  Er11  1  0.173441  0.346883  0.511917  1
  Er  Er12  1  0.827031  0.172969  0.011461  1
  Er  Er13  1  0.345938  0.172969  0.011461  1
  Er  Er14  1  0.827031  0.654062  0.011461  1
  Er  Er15  1  0.333333  0.666667  0.827930  1
  Ga  Ga16  1  0.163954  0.836046  0.957354  1
  Ga  Ga17  1  0.672093  0.836046  0.957354  1
  Ga  Ga18  1  0.163954  0.327907  0.957354  1
  Ga  Ga19  1  0.836849  0.163151  0.458110  1
  Ga  Ga20  1  0.326301  0.163151  0.458110  1
  Ga  Ga21  1  0.836849  0.673699  0.458110  1
  Fe  Fe22  1  0.333333  0.666667  0.446063  1
  Fe  Fe23  1  0.666667  0.333333  0.947253  1
