# generated using pymatgen
data_Yb6GaSiO10
_symmetry_space_group_name_H-M   'P 1'
_cell_length_a   4.88315318
_cell_length_b   7.42579600
_cell_length_c   12.96583918
_cell_angle_alpha   90.00000000
_cell_angle_beta   90.06167156
_cell_angle_gamma   90.00000000
_symmetry_Int_Tables_number   1
_chemical_formula_structural   Yb6GaSiO10
_chemical_formula_sum   'Yb12 Ga2 Si2 O20'
_cell_volume   470.15790378
_cell_formula_units_Z   2
loop_
 _symmetry_equiv_pos_site_id
 _symmetry_equiv_pos_as_xyz
  1  'x, y, z'
loop_
 _atom_site_type_symbol
 _atom_site_label
 _atom_site_symmetry_multiplicity
 _atom_site_fract_x
 _atom_site_fract_y
 _atom_site_fract_z
 _atom_site_occupancy
  Yb  Yb0  1  0.246977  0.250000  0.406781  1
  Yb  Yb1  1  0.753023  0.750000  0.593219  1
  Yb  Yb2  1  0.257694  0.750000  0.909168  1
  Yb  Yb3  1  0.742306  0.250000  0.090832  1
  Yb  Yb4  1  0.252117  0.015124  0.172746  1
  Yb  Yb5  1  0.747883  0.984876  0.827254  1
  Yb  Yb6  1  0.247165  0.986787  0.671346  1
  Yb  Yb7  1  0.747883  0.515124  0.827254  1
  Yb  Yb8  1  0.752835  0.013213  0.328654  1
  Yb  Yb9  1  0.252117  0.484876  0.172746  1
  Yb  Yb10  1  0.752835  0.486787  0.328654  1
  Yb  Yb11  1  0.247165  0.513213  0.671346  1
  Ga  Ga12  1  0.692003  0.250000  0.582546  1
  Ga  Ga13  1  0.307997  0.750000  0.417454  1
  Si  Si14  1  0.818457  0.750000  0.082444  1
  Si  Si15  1  0.181543  0.250000  0.917556  1
  O  O16  1  0.231557  0.541014  0.343357  1
  O  O17  1  0.768443  0.458986  0.656643  1
  O  O18  1  0.272960  0.437847  0.857716  1
  O  O19  1  0.768443  0.041015  0.656643  1
  O  O20  1  0.727040  0.562153  0.142284  1
  O  O21  1  0.231557  0.958986  0.343357  1
  O  O22  1  0.727040  0.937847  0.142284  1
  O  O23  1  0.272960  0.062154  0.857716  1
  O  O24  1  0.302097  0.250000  0.582704  1
  O  O25  1  0.697903  0.750000  0.417296  1
  O  O26  1  0.158503  0.750000  0.083398  1
  O  O27  1  0.841497  0.250000  0.916602  1
  O  O28  1  0.268350  0.250000  0.041347  1
  O  O29  1  0.731650  0.750000  0.958653  1
  O  O30  1  0.234902  0.750000  0.558295  1
  O  O31  1  0.765098  0.250000  0.441705  1
  O  O32  1  0.994294  0.250000  0.239161  1
  O  O33  1  0.005706  0.750000  0.760839  1
  O  O34  1  0.496731  0.750000  0.756417  1
  O  O35  1  0.503269  0.250000  0.243583  1
