# generated using pymatgen
data_Pr2Al7Ga2Ir3
_symmetry_space_group_name_H-M   'P 1'
_cell_length_a   7.60848616
_cell_length_b   7.60656564
_cell_length_c   9.71296500
_cell_angle_alpha   90.00000000
_cell_angle_beta   90.00000000
_cell_angle_gamma   119.40099267
_symmetry_Int_Tables_number   1
_chemical_formula_structural   Pr2Al7Ga2Ir3
_chemical_formula_sum   'Pr4 Al14 Ga4 Ir6'
_cell_volume   489.73281753
_cell_formula_units_Z   2
loop_
 _symmetry_equiv_pos_site_id
 _symmetry_equiv_pos_as_xyz
  1  'x, y, z'
loop_
 _atom_site_type_symbol
 _atom_site_label
 _atom_site_symmetry_multiplicity
 _atom_site_fract_x
 _atom_site_fract_y
 _atom_site_fract_z
 _atom_site_occupancy
  Pr  Pr0  1  0.998181  0.673382  0.250000  1
  Pr  Pr1  1  0.001819  0.326618  0.750000  1
  Pr  Pr2  1  0.669367  0.993039  0.250000  1
  Pr  Pr3  1  0.330633  0.006961  0.750000  1
  Al  Al4  1  0.003019  0.335195  0.071033  1
  Al  Al5  1  0.996981  0.664805  0.928967  1
  Al  Al6  1  0.996981  0.664805  0.571033  1
  Al  Al7  1  0.335993  0.004430  0.428787  1
  Al  Al8  1  0.003019  0.335195  0.428967  1
  Al  Al9  1  0.664007  0.995570  0.571213  1
  Al  Al10  1  0.664007  0.995570  0.928787  1
  Al  Al11  1  0.335993  0.004430  0.071213  1
  Al  Al12  1  0.334624  0.335295  0.548850  1
  Al  Al13  1  0.665376  0.664705  0.451150  1
  Al  Al14  1  0.665376  0.664705  0.048850  1
  Al  Al15  1  0.334624  0.335295  0.951150  1
  Al  Al16  1  0.546968  0.339035  0.250000  1
  Al  Al17  1  0.453032  0.660965  0.750000  1
  Ga  Ga18  1  0.132213  0.133262  0.250000  1
  Ga  Ga19  1  0.867787  0.866738  0.750000  1
  Ga  Ga20  1  0.337544  0.543244  0.250000  1
  Ga  Ga21  1  0.662456  0.456756  0.750000  1
  Ir  Ir22  1  0.670081  0.329114  0.002468  1
  Ir  Ir23  1  0.329919  0.670886  0.997532  1
  Ir  Ir24  1  0.329919  0.670886  0.502468  1
  Ir  Ir25  1  0.670081  0.329114  0.497532  1
  Ir  Ir26  1  0.000000  0.000000  0.000000  1
  Ir  Ir27  1  0.000000  0.000000  0.500000  1
