# generated using pymatgen
data_SrPr3Mn(FeO4)3
_symmetry_space_group_name_H-M   'P 1'
_cell_length_a   7.85190259
_cell_length_b   5.53859486
_cell_length_c   5.61828200
_cell_angle_alpha   89.99949054
_cell_angle_beta   90.05476927
_cell_angle_gamma   90.04826087
_symmetry_Int_Tables_number   1
_chemical_formula_structural   SrPr3Mn(FeO4)3
_chemical_formula_sum   'Sr1 Pr3 Mn1 Fe3 O12'
_cell_volume   244.33049948
_cell_formula_units_Z   1
loop_
 _symmetry_equiv_pos_site_id
 _symmetry_equiv_pos_as_xyz
  1  'x, y, z'
loop_
 _atom_site_type_symbol
 _atom_site_label
 _atom_site_symmetry_multiplicity
 _atom_site_fract_x
 _atom_site_fract_y
 _atom_site_fract_z
 _atom_site_occupancy
  Sr  Sr0  1  0.000764  0.505400  0.469441  1
  Pr  Pr1  1  0.497348  0.009362  0.041164  1
  Pr  Pr2  1  0.496911  0.491762  0.544605  1
  Pr  Pr3  1  0.001380  0.986614  0.956192  1
  Mn  Mn4  1  0.749269  0.501346  0.001446  1
  Fe  Fe5  1  0.247185  0.500499  0.003272  1
  Fe  Fe6  1  0.248670  0.998331  0.498878  1
  Fe  Fe7  1  0.751569  0.998129  0.497920  1
  O  O8  1  0.296749  0.288351  0.286734  1
  O  O9  1  0.214874  0.798399  0.200414  1
  O  O10  1  0.703455  0.227093  0.786207  1
  O  O11  1  0.784511  0.717691  0.730353  1
  O  O12  1  0.220849  0.715175  0.717421  1
  O  O13  1  0.294327  0.215580  0.788160  1
  O  O14  1  0.788477  0.783199  0.204273  1
  O  O15  1  0.702936  0.286400  0.275339  1
  O  O16  1  0.504651  0.920316  0.478323  1
  O  O17  1  0.992119  0.418871  0.009688  1
  O  O18  1  0.507583  0.577163  0.985913  1
  O  O19  1  0.996373  0.060319  0.524255  1
