# generated using pymatgen
data_TiMn(AlOs2)2
_symmetry_space_group_name_H-M   'P 1'
_cell_length_a   4.28603100
_cell_length_b   4.28438343
_cell_length_c   7.42015665
_cell_angle_alpha   73.24631412
_cell_angle_beta   89.99974883
_cell_angle_gamma   120.01259515
_symmetry_Int_Tables_number   1
_chemical_formula_structural   TiMn(AlOs2)2
_chemical_formula_sum   'Ti1 Mn1 Al2 Os4'
_cell_volume   111.25692850
_cell_formula_units_Z   1
loop_
 _symmetry_equiv_pos_site_id
 _symmetry_equiv_pos_as_xyz
  1  'x, y, z'
loop_
 _atom_site_type_symbol
 _atom_site_label
 _atom_site_symmetry_multiplicity
 _atom_site_fract_x
 _atom_site_fract_y
 _atom_site_fract_z
 _atom_site_occupancy
  Ti  Ti0  1  0.374999  0.750001  0.874998  1
  Mn  Mn1  1  0.875010  0.750003  0.374999  1
  Al  Al2  1  0.625855  0.251713  0.122517  1
  Al  Al3  1  0.124143  0.248287  0.627484  1
  Os  Os4  1  0.998325  0.996647  0.006485  1
  Os  Os5  1  0.751673  0.503349  0.743521  1
  Os  Os6  1  0.502639  0.005280  0.493336  1
  Os  Os7  1  0.247361  0.494721  0.256660  1
