# generated using pymatgen
data_Nb4GaNi4As3
_symmetry_space_group_name_H-M   'P 1'
_cell_length_a   3.71125200
_cell_length_b   6.37935637
_cell_length_c   7.31552545
_cell_angle_alpha   89.70308766
_cell_angle_beta   90.00000000
_cell_angle_gamma   90.00000000
_symmetry_Int_Tables_number   1
_chemical_formula_structural   Nb4GaNi4As3
_chemical_formula_sum   'Nb4 Ga1 Ni4 As3'
_cell_volume   173.19565912
_cell_formula_units_Z   1
loop_
 _symmetry_equiv_pos_site_id
 _symmetry_equiv_pos_as_xyz
  1  'x, y, z'
loop_
 _atom_site_type_symbol
 _atom_site_label
 _atom_site_symmetry_multiplicity
 _atom_site_fract_x
 _atom_site_fract_y
 _atom_site_fract_z
 _atom_site_occupancy
  Nb  Nb0  1  0.250000  0.019032  0.835443  1
  Nb  Nb1  1  0.250000  0.518787  0.663870  1
  Nb  Nb2  1  0.750000  0.981808  0.166207  1
  Nb  Nb3  1  0.750000  0.481001  0.335731  1
  Ga  Ga4  1  0.750000  0.712118  0.878608  1
  Ni  Ni5  1  0.250000  0.157968  0.428081  1
  Ni  Ni6  1  0.250000  0.659374  0.075422  1
  Ni  Ni7  1  0.750000  0.842615  0.567594  1
  Ni  Ni8  1  0.750000  0.336938  0.928065  1
  As  As9  1  0.250000  0.786130  0.378547  1
  As  As10  1  0.250000  0.290700  0.119158  1
  As  As11  1  0.750000  0.213529  0.623272  1
