# generated using pymatgen
data_Th10Si2Bi5Pb
_symmetry_space_group_name_H-M   'P 1'
_cell_length_a   9.66483810
_cell_length_b   9.67512083
_cell_length_c   6.62326000
_cell_angle_alpha   90.00000000
_cell_angle_beta   90.00000000
_cell_angle_gamma   120.03520375
_symmetry_Int_Tables_number   1
_chemical_formula_structural   Th10Si2Bi5Pb
_chemical_formula_sum   'Th10 Si2 Bi5 Pb1'
_cell_volume   536.16597079
_cell_formula_units_Z   1
loop_
 _symmetry_equiv_pos_site_id
 _symmetry_equiv_pos_as_xyz
  1  'x, y, z'
loop_
 _atom_site_type_symbol
 _atom_site_label
 _atom_site_symmetry_multiplicity
 _atom_site_fract_x
 _atom_site_fract_y
 _atom_site_fract_z
 _atom_site_occupancy
  Th  Th0  1  0.667194  0.333943  0.500499  1
  Th  Th1  1  0.332806  0.666749  0.500499  1
  Th  Th2  1  0.332806  0.666749  0.999501  1
  Th  Th3  1  0.667194  0.333943  0.999501  1
  Th  Th4  1  0.746180  0.745496  0.250000  1
  Th  Th5  1  0.253820  0.999316  0.250000  1
  Th  Th6  1  0.000000  0.253710  0.250000  1
  Th  Th7  1  0.253484  0.254465  0.750000  1
  Th  Th8  1  0.746516  0.000981  0.750000  1
  Th  Th9  1  0.000000  0.745111  0.750000  1
  Si  Si10  1  0.000000  0.999653  0.500600  1
  Si  Si11  1  0.000000  0.999653  0.999400  1
  Bi  Bi12  1  0.389708  0.390283  0.250000  1
  Bi  Bi13  1  0.610292  0.000575  0.250000  1
  Bi  Bi14  1  0.000000  0.608778  0.250000  1
  Bi  Bi15  1  0.610431  0.610834  0.750000  1
  Bi  Bi16  1  0.389569  0.000402  0.750000  1
  Pb  Pb17  1  0.000000  0.389362  0.750000  1
