# generated using pymatgen
data_Sr9Pd5Au
_symmetry_space_group_name_H-M   'P 1'
_cell_length_a   8.17694051
_cell_length_b   8.18854830
_cell_length_c   8.17875667
_cell_angle_alpha   71.38848926
_cell_angle_beta   71.62726848
_cell_angle_gamma   71.36059953
_symmetry_Int_Tables_number   1
_chemical_formula_structural   Sr9Pd5Au
_chemical_formula_sum   'Sr9 Pd5 Au1'
_cell_volume   477.70723685
_cell_formula_units_Z   1
loop_
 _symmetry_equiv_pos_site_id
 _symmetry_equiv_pos_as_xyz
  1  'x, y, z'
loop_
 _atom_site_type_symbol
 _atom_site_label
 _atom_site_symmetry_multiplicity
 _atom_site_fract_x
 _atom_site_fract_y
 _atom_site_fract_z
 _atom_site_occupancy
  Sr  Sr0  1  0.892226  0.172863  0.657207  1
  Sr  Sr1  1  0.658695  0.894854  0.174799  1
  Sr  Sr2  1  0.167485  0.656594  0.888938  1
  Sr  Sr3  1  0.103387  0.829875  0.347485  1
  Sr  Sr4  1  0.343509  0.109390  0.825125  1
  Sr  Sr5  1  0.831048  0.339656  0.108587  1
  Sr  Sr6  1  0.500051  0.498953  0.503587  1
  Sr  Sr7  1  0.296583  0.294284  0.300030  1
  Sr  Sr8  1  0.704754  0.702208  0.696010  1
  Pd  Pd9  1  0.912835  0.541656  0.349199  1
  Pd  Pd10  1  0.350507  0.911006  0.542556  1
  Pd  Pd11  1  0.541684  0.349392  0.913095  1
  Pd  Pd12  1  0.088511  0.459156  0.647079  1
  Pd  Pd13  1  0.650333  0.088633  0.458394  1
  Au  Au14  1  0.458393  0.651481  0.087909  1
