# generated using pymatgen
data_Er8Ti8NbSi16Mo3
_symmetry_space_group_name_H-M   'P 1'
_cell_length_a   6.97662446
_cell_length_b   6.97662473
_cell_length_c   12.82103510
_cell_angle_alpha   89.99738641
_cell_angle_beta   90.00261204
_cell_angle_gamma   90.02550648
_symmetry_Int_Tables_number   1
_chemical_formula_structural   Er8Ti8NbSi16Mo3
_chemical_formula_sum   'Er8 Ti8 Nb1 Si16 Mo3'
_cell_volume   624.04190634
_cell_formula_units_Z   1
loop_
 _symmetry_equiv_pos_site_id
 _symmetry_equiv_pos_as_xyz
  1  'x, y, z'
loop_
 _atom_site_type_symbol
 _atom_site_label
 _atom_site_symmetry_multiplicity
 _atom_site_fract_x
 _atom_site_fract_y
 _atom_site_fract_z
 _atom_site_occupancy
  Er  Er0  1  0.341440  0.001120  0.466864  1
  Er  Er1  1  0.499122  0.841127  0.716653  1
  Er  Er2  1  0.500951  0.157940  0.217352  1
  Er  Er3  1  0.841127  0.499122  0.283347  1
  Er  Er4  1  0.157940  0.500951  0.782648  1
  Er  Er5  1  0.658706  0.998634  0.966687  1
  Er  Er6  1  0.001120  0.341440  0.533136  1
  Er  Er7  1  0.998634  0.658706  0.033313  1
  Ti  Ti8  1  0.152097  0.008458  0.875250  1
  Ti  Ti9  1  0.492050  0.651462  0.125463  1
  Ti  Ti10  1  0.508401  0.348314  0.624893  1
  Ti  Ti11  1  0.651462  0.492050  0.874537  1
  Ti  Ti12  1  0.348314  0.508401  0.375107  1
  Ti  Ti13  1  0.848130  0.991796  0.375539  1
  Ti  Ti14  1  0.008458  0.152097  0.124750  1
  Ti  Ti15  1  0.991796  0.848130  0.624461  1
  Nb  Nb16  1  0.326859  0.326859  0.000000  1
  Si  Si17  1  0.202680  0.131448  0.683733  1
  Si  Si18  1  0.368460  0.704414  0.933634  1
  Si  Si19  1  0.631398  0.297717  0.433936  1
  Si  Si20  1  0.704414  0.368460  0.066366  1
  Si  Si21  1  0.297717  0.631398  0.566064  1
  Si  Si22  1  0.797499  0.868625  0.183880  1
  Si  Si23  1  0.131448  0.202680  0.316267  1
  Si  Si24  1  0.868625  0.797499  0.816120  1
  Si  Si25  1  0.291934  0.950835  0.065422  1
  Si  Si26  1  0.547226  0.791684  0.314839  1
  Si  Si27  1  0.454145  0.207416  0.813331  1
  Si  Si28  1  0.791684  0.547226  0.685161  1
  Si  Si29  1  0.207416  0.454145  0.186669  1
  Si  Si30  1  0.708195  0.047365  0.564999  1
  Si  Si31  1  0.950835  0.291934  0.934578  1
  Si  Si32  1  0.047365  0.708195  0.435001  1
  Mo  Mo33  1  0.172885  0.826487  0.250560  1
  Mo  Mo34  1  0.826487  0.172885  0.749440  1
  Mo  Mo35  1  0.672982  0.672982  0.500000  1
