# generated using pymatgen
data_Si8MoPt5RhW
_symmetry_space_group_name_H-M   'P 1'
_cell_length_a   3.51498600
_cell_length_b   5.53479300
_cell_length_c   24.59765600
_cell_angle_alpha   90.00000000
_cell_angle_beta   90.00000000
_cell_angle_gamma   90.00000000
_symmetry_Int_Tables_number   1
_chemical_formula_structural   Si8MoPt5RhW
_chemical_formula_sum   'Si16 Mo2 Pt10 Rh2 W2'
_cell_volume   478.54050787
_cell_formula_units_Z   2
loop_
 _symmetry_equiv_pos_site_id
 _symmetry_equiv_pos_as_xyz
  1  'x, y, z'
loop_
 _atom_site_type_symbol
 _atom_site_label
 _atom_site_symmetry_multiplicity
 _atom_site_fract_x
 _atom_site_fract_y
 _atom_site_fract_z
 _atom_site_occupancy
  Si  Si0  1  0.250000  0.175874  0.521249  1
  Si  Si1  1  0.750000  0.324126  0.021249  1
  Si  Si2  1  0.250000  0.672303  0.982545  1
  Si  Si3  1  0.750000  0.827697  0.482545  1
  Si  Si4  1  0.750000  0.319964  0.643871  1
  Si  Si5  1  0.250000  0.180036  0.143871  1
  Si  Si6  1  0.750000  0.819876  0.854254  1
  Si  Si7  1  0.250000  0.680124  0.354254  1
  Si  Si8  1  0.250000  0.667959  0.608716  1
  Si  Si9  1  0.750000  0.832041  0.108716  1
  Si  Si10  1  0.250000  0.161969  0.890516  1
  Si  Si11  1  0.750000  0.338031  0.390516  1
  Si  Si12  1  0.750000  0.830293  0.725932  1
  Si  Si13  1  0.250000  0.669707  0.225932  1
  Si  Si14  1  0.750000  0.329829  0.773775  1
  Si  Si15  1  0.250000  0.170171  0.273775  1
  Mo  Mo16  1  0.250000  0.004827  0.789518  1
  Mo  Mo17  1  0.750000  0.495173  0.289518  1
  Pt  Pt18  1  0.750000  0.502536  0.925511  1
  Pt  Pt19  1  0.250000  0.997464  0.425511  1
  Pt  Pt20  1  0.250000  0.005994  0.670263  1
  Pt  Pt21  1  0.750000  0.494006  0.170263  1
  Pt  Pt22  1  0.250000  0.504343  0.829893  1
  Pt  Pt23  1  0.750000  0.995657  0.329893  1
  Pt  Pt24  1  0.750000  0.500691  0.548989  1
  Pt  Pt25  1  0.250000  0.999309  0.048989  1
  Pt  Pt26  1  0.750000  0.003765  0.951407  1
  Pt  Pt27  1  0.250000  0.496235  0.451407  1
  Rh  Rh28  1  0.750000  0.000245  0.573900  1
  Rh  Rh29  1  0.250000  0.499755  0.073900  1
  W  W30  1  0.250000  0.502779  0.709662  1
  W  W31  1  0.750000  0.997221  0.209662  1
