# generated using pymatgen
data_K3Gd(IO3)6
_symmetry_space_group_name_H-M   'P 1'
_cell_length_a   7.19021279
_cell_length_b   7.24305816
_cell_length_c   10.96718970
_cell_angle_alpha   98.93382718
_cell_angle_beta   108.14105833
_cell_angle_gamma   103.03925322
_symmetry_Int_Tables_number   1
_chemical_formula_structural   K3Gd(IO3)6
_chemical_formula_sum   'K3 Gd1 I6 O18'
_cell_volume   512.84421173
_cell_formula_units_Z   1
loop_
 _symmetry_equiv_pos_site_id
 _symmetry_equiv_pos_as_xyz
  1  'x, y, z'
loop_
 _atom_site_type_symbol
 _atom_site_label
 _atom_site_symmetry_multiplicity
 _atom_site_fract_x
 _atom_site_fract_y
 _atom_site_fract_z
 _atom_site_occupancy
  K  K0  1  0.377636  0.540161  0.293390  1
  K  K1  1  0.622364  0.459839  0.706610  1
  K  K2  1  0.000000  0.500000  0.500000  1
  Gd  Gd3  1  0.000000  0.000000  0.000000  1
  I  I4  1  0.561219  0.033817  0.195971  1
  I  I5  1  0.438781  0.966183  0.804029  1
  I  I6  1  0.777584  0.531612  0.104661  1
  I  I7  1  0.222416  0.468388  0.895339  1
  I  I8  1  0.134161  0.061949  0.384205  1
  I  I9  1  0.865839  0.938051  0.615795  1
  O  O10  1  0.590352  0.655103  0.127016  1
  O  O11  1  0.409648  0.344897  0.872984  1
  O  O12  1  0.009517  0.358681  0.737765  1
  O  O13  1  0.990483  0.641319  0.262235  1
  O  O14  1  0.611822  0.300558  0.236761  1
  O  O15  1  0.388178  0.699442  0.763239  1
  O  O16  1  0.057222  0.109374  0.216781  1
  O  O17  1  0.942778  0.890626  0.783219  1
  O  O18  1  0.322192  0.963061  0.045417  1
  O  O19  1  0.677808  0.036939  0.954583  1
  O  O20  1  0.293671  0.308262  0.473475  1
  O  O21  1  0.706329  0.691738  0.526525  1
  O  O22  1  0.891251  0.080263  0.404699  1
  O  O23  1  0.108749  0.919737  0.595301  1
  O  O24  1  0.558640  0.036949  0.687535  1
  O  O25  1  0.441360  0.963051  0.312465  1
  O  O26  1  0.123394  0.327848  0.001880  1
  O  O27  1  0.876606  0.672152  0.998120  1
