# generated using pymatgen
data_TbHo5(CoSn6)2
_symmetry_space_group_name_H-M   'P 1'
_cell_length_a   8.47659532
_cell_length_b   8.47659602
_cell_length_c   13.12081752
_cell_angle_alpha   89.96601488
_cell_angle_beta   90.03398564
_cell_angle_gamma   148.86287262
_symmetry_Int_Tables_number   1
_chemical_formula_structural   TbHo5(CoSn6)2
_chemical_formula_sum   'Tb1 Ho5 Co2 Sn12'
_cell_volume   487.49287571
_cell_formula_units_Z   1
loop_
 _symmetry_equiv_pos_site_id
 _symmetry_equiv_pos_as_xyz
  1  'x, y, z'
loop_
 _atom_site_type_symbol
 _atom_site_label
 _atom_site_symmetry_multiplicity
 _atom_site_fract_x
 _atom_site_fract_y
 _atom_site_fract_z
 _atom_site_occupancy
  Tb  Tb0  1  0.899551  0.100449  0.406154  1
  Ho  Ho1  1  0.898736  0.101264  0.093397  1
  Ho  Ho2  1  0.101444  0.898556  0.594217  1
  Ho  Ho3  1  0.900064  0.099936  0.750895  1
  Ho  Ho4  1  0.100924  0.899076  0.906451  1
  Ho  Ho5  1  0.099920  0.900080  0.249247  1
  Co  Co6  1  0.300035  0.699965  0.249912  1
  Co  Co7  1  0.699698  0.300302  0.749753  1
  Sn  Sn8  1  0.756413  0.243587  0.571929  1
  Sn  Sn9  1  0.428061  0.571939  0.576839  1
  Sn  Sn10  1  0.572749  0.427251  0.424017  1
  Sn  Sn11  1  0.733663  0.266337  0.249411  1
  Sn  Sn12  1  0.265985  0.734015  0.750251  1
  Sn  Sn13  1  0.243869  0.756131  0.071330  1
  Sn  Sn14  1  0.243616  0.756384  0.428387  1
  Sn  Sn15  1  0.572499  0.427501  0.075244  1
  Sn  Sn16  1  0.454521  0.545479  0.248755  1
  Sn  Sn17  1  0.545579  0.454421  0.750703  1
  Sn  Sn18  1  0.755751  0.244249  0.928278  1
  Sn  Sn19  1  0.426921  0.573079  0.924831  1
