# generated using pymatgen
data_Y3In2Pt3Pb
_symmetry_space_group_name_H-M   'P 1'
_cell_length_a   7.72477300
_cell_length_b   7.67068211
_cell_length_c   3.95882400
_cell_angle_alpha   90.00000000
_cell_angle_beta   90.00000000
_cell_angle_gamma   120.23354617
_symmetry_Int_Tables_number   1
_chemical_formula_structural   Y3In2Pt3Pb
_chemical_formula_sum   'Y3 In2 Pt3 Pb1'
_cell_volume   202.67009216
_cell_formula_units_Z   1
loop_
 _symmetry_equiv_pos_site_id
 _symmetry_equiv_pos_as_xyz
  1  'x, y, z'
loop_
 _atom_site_type_symbol
 _atom_site_label
 _atom_site_symmetry_multiplicity
 _atom_site_fract_x
 _atom_site_fract_y
 _atom_site_fract_z
 _atom_site_occupancy
  Y  Y0  1  0.401860  0.000000  0.500000  1
  Y  Y1  1  0.004237  0.409715  0.500000  1
  Y  Y2  1  0.594522  0.590285  0.500000  1
  In  In3  1  0.260814  0.260260  0.000000  1
  In  In4  1  0.000554  0.739740  0.000000  1
  Pt  Pt5  1  0.010508  0.000000  0.500000  1
  Pt  Pt6  1  0.664063  0.339985  0.000000  1
  Pt  Pt7  1  0.324077  0.660015  0.000000  1
  Pb  Pb8  1  0.739365  0.000000  0.000000  1
