# generated using pymatgen
data_Y5B(WC3)2
_symmetry_space_group_name_H-M   'P 1'
_cell_length_a   8.45900676
_cell_length_b   8.45900693
_cell_length_c   3.42913100
_cell_angle_alpha   90.00000000
_cell_angle_beta   90.00000000
_cell_angle_gamma   122.69418687
_symmetry_Int_Tables_number   1
_chemical_formula_structural   Y5B(WC3)2
_chemical_formula_sum   'Y5 B1 W2 C6'
_cell_volume   206.49559837
_cell_formula_units_Z   1
loop_
 _symmetry_equiv_pos_site_id
 _symmetry_equiv_pos_as_xyz
  1  'x, y, z'
loop_
 _atom_site_type_symbol
 _atom_site_label
 _atom_site_symmetry_multiplicity
 _atom_site_fract_x
 _atom_site_fract_y
 _atom_site_fract_z
 _atom_site_occupancy
  Y  Y0  1  0.500000  0.500000  0.000000  1
  Y  Y1  1  0.075844  0.326481  0.500000  1
  Y  Y2  1  0.924156  0.673519  0.500000  1
  Y  Y3  1  0.673519  0.924156  0.500000  1
  Y  Y4  1  0.326481  0.075844  0.500000  1
  B  B5  1  0.000000  0.000000  0.000000  1
  W  W6  1  0.712582  0.287418  0.000000  1
  W  W7  1  0.287418  0.712582  0.000000  1
  C  C8  1  0.628358  0.371642  0.500000  1
  C  C9  1  0.371642  0.628358  0.500000  1
  C  C10  1  0.181762  0.181762  0.000000  1
  C  C11  1  0.818238  0.818238  0.000000  1
  C  C12  1  0.000000  0.500000  0.000000  1
  C  C13  1  0.500000  0.000000  0.000000  1
