# generated using pymatgen
data_SrEr7(Si3Pt)4
_symmetry_space_group_name_H-M   'P 1'
_cell_length_a   8.14320800
_cell_length_b   8.14320887
_cell_length_c   8.21557700
_cell_angle_alpha   90.00000000
_cell_angle_beta   90.00000000
_cell_angle_gamma   119.99999647
_symmetry_Int_Tables_number   1
_chemical_formula_structural   SrEr7(Si3Pt)4
_chemical_formula_sum   'Sr1 Er7 Si12 Pt4'
_cell_volume   471.80204604
_cell_formula_units_Z   1
loop_
 _symmetry_equiv_pos_site_id
 _symmetry_equiv_pos_as_xyz
  1  'x, y, z'
loop_
 _atom_site_type_symbol
 _atom_site_label
 _atom_site_symmetry_multiplicity
 _atom_site_fract_x
 _atom_site_fract_y
 _atom_site_fract_z
 _atom_site_occupancy
  Sr  Sr0  1  0.000000  0.000000  0.250000  1
  Er  Er1  1  0.000000  0.000000  0.750000  1
  Er  Er2  1  0.498888  0.501112  0.250000  1
  Er  Er3  1  0.498888  0.997776  0.250000  1
  Er  Er4  1  0.002224  0.501112  0.250000  1
  Er  Er5  1  0.501295  0.498705  0.750000  1
  Er  Er6  1  0.997410  0.498705  0.750000  1
  Er  Er7  1  0.501295  0.002590  0.750000  1
  Si  Si8  1  0.833736  0.166264  0.505394  1
  Si  Si9  1  0.833736  0.667474  0.505394  1
  Si  Si10  1  0.332526  0.166264  0.505394  1
  Si  Si11  1  0.833736  0.166264  0.994606  1
  Si  Si12  1  0.833736  0.667474  0.994606  1
  Si  Si13  1  0.332526  0.166264  0.994606  1
  Si  Si14  1  0.166244  0.833756  0.994195  1
  Si  Si15  1  0.667514  0.833756  0.994195  1
  Si  Si16  1  0.166244  0.332486  0.994195  1
  Si  Si17  1  0.166244  0.833756  0.505805  1
  Si  Si18  1  0.667514  0.833756  0.505805  1
  Si  Si19  1  0.166244  0.332486  0.505805  1
  Pt  Pt20  1  0.666667  0.333333  0.498331  1
  Pt  Pt21  1  0.666667  0.333333  0.001669  1
  Pt  Pt22  1  0.333333  0.666667  0.995198  1
  Pt  Pt23  1  0.333333  0.666667  0.504802  1
