# generated using pymatgen
data_Dy3YCo20(As3P)3
_symmetry_space_group_name_H-M   'P 1'
_cell_length_a   3.74386700
_cell_length_b   12.08208342
_cell_length_c   10.58148660
_cell_angle_alpha   90.09461652
_cell_angle_beta   90.00000000
_cell_angle_gamma   90.00000000
_symmetry_Int_Tables_number   1
_chemical_formula_structural   Dy3YCo20(As3P)3
_chemical_formula_sum   'Dy3 Y1 Co20 As9 P3'
_cell_volume   478.63927994
_cell_formula_units_Z   1
loop_
 _symmetry_equiv_pos_site_id
 _symmetry_equiv_pos_as_xyz
  1  'x, y, z'
loop_
 _atom_site_type_symbol
 _atom_site_label
 _atom_site_symmetry_multiplicity
 _atom_site_fract_x
 _atom_site_fract_y
 _atom_site_fract_z
 _atom_site_occupancy
  Dy  Dy0  1  0.750000  0.706372  0.082849  1
  Dy  Dy1  1  0.250000  0.297293  0.918328  1
  Dy  Dy2  1  0.250000  0.792138  0.582492  1
  Y  Y3  1  0.750000  0.209248  0.417566  1
  Co  Co4  1  0.750000  0.694719  0.388594  1
  Co  Co5  1  0.250000  0.306950  0.609871  1
  Co  Co6  1  0.250000  0.803342  0.888317  1
  Co  Co7  1  0.750000  0.196748  0.117515  1
  Co  Co8  1  0.750000  0.985352  0.207604  1
  Co  Co9  1  0.250000  0.009192  0.788251  1
  Co  Co10  1  0.250000  0.515314  0.706160  1
  Co  Co11  1  0.750000  0.485826  0.294468  1
  Co  Co12  1  0.750000  0.674645  0.771843  1
  Co  Co13  1  0.250000  0.326289  0.228377  1
  Co  Co14  1  0.250000  0.824640  0.273216  1
  Co  Co15  1  0.750000  0.178907  0.716297  1
  Co  Co16  1  0.750000  0.928016  0.975303  1
  Co  Co17  1  0.250000  0.061601  0.034765  1
  Co  Co18  1  0.250000  0.566269  0.471642  1
  Co  Co19  1  0.750000  0.435779  0.528018  1
  Co  Co20  1  0.750000  0.988219  0.593362  1
  Co  Co21  1  0.250000  0.010375  0.406190  1
  Co  Co22  1  0.250000  0.510952  0.094252  1
  Co  Co23  1  0.750000  0.489562  0.906400  1
  As  As24  1  0.750000  0.111679  0.916112  1
  As  As25  1  0.750000  0.889222  0.399497  1
  As  As26  1  0.250000  0.110429  0.599298  1
  As  As27  1  0.250000  0.609990  0.899207  1
  As  As28  1  0.750000  0.390611  0.102008  1
  As  As29  1  0.750000  0.869782  0.769728  1
  As  As30  1  0.250000  0.130335  0.232707  1
  As  As31  1  0.250000  0.629975  0.269704  1
  As  As32  1  0.750000  0.372239  0.729791  1
  P  P33  1  0.750000  0.611749  0.579296  1
  P  P34  1  0.250000  0.390228  0.420299  1
  P  P35  1  0.250000  0.886011  0.080673  1
