# generated using pymatgen
data_HfZr5Al16Pt6Rh
_symmetry_space_group_name_H-M   'P 1'
_cell_length_a   8.76738379
_cell_length_b   8.76738467
_cell_length_c   8.76233700
_cell_angle_alpha   60.01903948
_cell_angle_beta   60.01903615
_cell_angle_gamma   59.96190850
_symmetry_Int_Tables_number   1
_chemical_formula_structural   HfZr5Al16Pt6Rh
_chemical_formula_sum   'Hf1 Zr5 Al16 Pt6 Rh1'
_cell_volume   476.26064301
_cell_formula_units_Z   1
loop_
 _symmetry_equiv_pos_site_id
 _symmetry_equiv_pos_as_xyz
  1  'x, y, z'
loop_
 _atom_site_type_symbol
 _atom_site_label
 _atom_site_symmetry_multiplicity
 _atom_site_fract_x
 _atom_site_fract_y
 _atom_site_fract_z
 _atom_site_occupancy
  Hf  Hf0  1  0.684002  0.684002  0.315997  1
  Zr  Zr1  1  0.686552  0.314541  0.313447  1
  Zr  Zr2  1  0.314541  0.686552  0.685458  1
  Zr  Zr3  1  0.314541  0.686552  0.313447  1
  Zr  Zr4  1  0.312792  0.312792  0.687207  1
  Zr  Zr5  1  0.686552  0.314541  0.685458  1
  Al  Al6  1  0.334717  0.334717  0.334533  1
  Al  Al7  1  0.334717  0.334717  0.996031  1
  Al  Al8  1  0.995312  0.335040  0.334824  1
  Al  Al9  1  0.335040  0.995312  0.334824  1
  Al  Al10  1  0.665176  0.665176  0.664960  1
  Al  Al11  1  0.665176  0.665176  0.004688  1
  Al  Al12  1  0.665467  0.003969  0.665283  1
  Al  Al13  1  0.003969  0.665467  0.665283  1
  Al  Al14  1  0.118513  0.118513  0.118657  1
  Al  Al15  1  0.118513  0.118513  0.644316  1
  Al  Al16  1  0.644454  0.118408  0.118569  1
  Al  Al17  1  0.118408  0.644454  0.118569  1
  Al  Al18  1  0.881430  0.881430  0.881591  1
  Al  Al19  1  0.881430  0.881430  0.355549  1
  Al  Al20  1  0.881342  0.355687  0.881486  1
  Al  Al21  1  0.355687  0.881342  0.881486  1
  Pt  Pt22  1  0.500833  0.999728  0.000272  1
  Pt  Pt23  1  0.999728  0.500833  0.499167  1
  Pt  Pt24  1  0.999728  0.500833  0.000272  1
  Pt  Pt25  1  0.000161  0.000161  0.499839  1
  Pt  Pt26  1  0.500833  0.999728  0.499167  1
  Pt  Pt27  1  0.500161  0.500161  0.999839  1
  Rh  Rh28  1  0.000220  0.000220  0.999780  1
