# generated using pymatgen
data_Dy8Ho2IrRu3
_symmetry_space_group_name_H-M   'P 1'
_cell_length_a   6.35281883
_cell_length_b   7.30817854
_cell_length_c   8.47965455
_cell_angle_alpha   96.77299136
_cell_angle_beta   112.05955321
_cell_angle_gamma   90.01213745
_symmetry_Int_Tables_number   1
_chemical_formula_structural   Dy8Ho2IrRu3
_chemical_formula_sum   'Dy8 Ho2 Ir1 Ru3'
_cell_volume   361.89878258
_cell_formula_units_Z   1
loop_
 _symmetry_equiv_pos_site_id
 _symmetry_equiv_pos_as_xyz
  1  'x, y, z'
loop_
 _atom_site_type_symbol
 _atom_site_label
 _atom_site_symmetry_multiplicity
 _atom_site_fract_x
 _atom_site_fract_y
 _atom_site_fract_z
 _atom_site_occupancy
  Dy  Dy0  1  0.978410  0.917425  0.185547  1
  Dy  Dy1  1  0.791614  0.584996  0.812981  1
  Dy  Dy2  1  0.021856  0.084713  0.813964  1
  Dy  Dy3  1  0.209246  0.414534  0.185437  1
  Dy  Dy4  1  0.641164  0.815691  0.435317  1
  Dy  Dy5  1  0.207589  0.684988  0.566120  1
  Dy  Dy6  1  0.358305  0.185322  0.565423  1
  Dy  Dy7  1  0.793216  0.313786  0.435929  1
  Ho  Ho8  1  0.420397  0.750155  0.000036  1
  Ho  Ho9  1  0.578600  0.248721  0.998875  1
  Ir  Ir10  1  0.822202  0.576003  0.220994  1
  Ru  Ru11  1  0.604058  0.923239  0.779818  1
  Ru  Ru12  1  0.175805  0.424647  0.779235  1
  Ru  Ru13  1  0.397542  0.075779  0.220325  1
