# generated using pymatgen
data_Na4TmRuO6
_symmetry_space_group_name_H-M   'P 1'
_cell_length_a   5.61619779
_cell_length_b   5.61619906
_cell_length_c   5.80265869
_cell_angle_alpha   99.45851782
_cell_angle_beta   99.45846440
_cell_angle_gamma   119.93428802
_symmetry_Int_Tables_number   1
_chemical_formula_structural   Na4TmRuO6
_chemical_formula_sum   'Na4 Tm1 Ru1 O6'
_cell_volume   149.81631249
_cell_formula_units_Z   1
loop_
 _symmetry_equiv_pos_site_id
 _symmetry_equiv_pos_as_xyz
  1  'x, y, z'
loop_
 _atom_site_type_symbol
 _atom_site_label
 _atom_site_symmetry_multiplicity
 _atom_site_fract_x
 _atom_site_fract_y
 _atom_site_fract_z
 _atom_site_occupancy
  Na  Na0  1  0.499712  0.500288  0.000000  1
  Na  Na1  1  0.007522  0.992476  0.499999  1
  Na  Na2  1  0.657701  0.342299  0.500001  1
  Na  Na3  1  0.337269  0.662733  0.500000  1
  Tm  Tm4  1  0.833333  0.166668  0.000001  1
  Ru  Ru5  1  0.167245  0.832762  0.000001  1
  O  O6  1  0.951701  0.599379  0.207515  1
  O  O7  1  0.542082  0.923973  0.212777  1
  O  O8  1  0.218338  0.191543  0.213082  1
  O  O9  1  0.808459  0.781665  0.786918  1
  O  O10  1  0.076028  0.457918  0.787223  1
  O  O11  1  0.400617  0.048297  0.792486  1
