# generated using pymatgen
data_Ac(HoSe2)3
_symmetry_space_group_name_H-M   'P 1'
_cell_length_a   4.21078800
_cell_length_b   11.72031728
_cell_length_c   12.00074266
_cell_angle_alpha   70.94536211
_cell_angle_beta   90.00000000
_cell_angle_gamma   90.00000000
_symmetry_Int_Tables_number   1
_chemical_formula_structural   Ac(HoSe2)3
_chemical_formula_sum   'Ac2 Ho6 Se12'
_cell_volume   559.80672315
_cell_formula_units_Z   2
loop_
 _symmetry_equiv_pos_site_id
 _symmetry_equiv_pos_as_xyz
  1  'x, y, z'
loop_
 _atom_site_type_symbol
 _atom_site_label
 _atom_site_symmetry_multiplicity
 _atom_site_fract_x
 _atom_site_fract_y
 _atom_site_fract_z
 _atom_site_occupancy
  Ac  Ac0  1  0.750000  0.551246  0.802058  1
  Ac  Ac1  1  0.250000  0.448754  0.197942  1
  Ho  Ho2  1  0.750000  0.177895  0.999766  1
  Ho  Ho3  1  0.250000  0.822105  0.000234  1
  Ho  Ho4  1  0.750000  0.945115  0.665451  1
  Ho  Ho5  1  0.250000  0.054885  0.334549  1
  Ho  Ho6  1  0.750000  0.661042  0.411475  1
  Ho  Ho7  1  0.250000  0.338958  0.588525  1
  Se  Se8  1  0.750000  0.979169  0.887770  1
  Se  Se9  1  0.250000  0.020831  0.112230  1
  Se  Se10  1  0.750000  0.297714  0.748665  1
  Se  Se11  1  0.250000  0.702286  0.251335  1
  Se  Se12  1  0.750000  0.892124  0.443870  1
  Se  Se13  1  0.250000  0.107876  0.556130  1
  Se  Se14  1  0.750000  0.417000  0.411267  1
  Se  Se15  1  0.250000  0.583000  0.588733  1
  Se  Se16  1  0.750000  0.227898  0.230886  1
  Se  Se17  1  0.250000  0.772102  0.769114  1
  Se  Se18  1  0.750000  0.625885  0.035014  1
  Se  Se19  1  0.250000  0.374115  0.964986  1
