# generated using pymatgen
data_Sc5Al6CuRh12
_symmetry_space_group_name_H-M   'P 1'
_cell_length_a   4.40326403
_cell_length_b   6.18752200
_cell_length_c   13.14999600
_cell_angle_alpha   90.00049508
_cell_angle_beta   89.99919244
_cell_angle_gamma   90.00475370
_symmetry_Int_Tables_number   1
_chemical_formula_structural   Sc5Al6CuRh12
_chemical_formula_sum   'Sc5 Al6 Cu1 Rh12'
_cell_volume   358.27549342
_cell_formula_units_Z   1
loop_
 _symmetry_equiv_pos_site_id
 _symmetry_equiv_pos_as_xyz
  1  'x, y, z'
loop_
 _atom_site_type_symbol
 _atom_site_label
 _atom_site_symmetry_multiplicity
 _atom_site_fract_x
 _atom_site_fract_y
 _atom_site_fract_z
 _atom_site_occupancy
  Sc  Sc0  1  0.499913  0.500012  0.163305  1
  Sc  Sc1  1  0.999929  0.999933  0.331262  1
  Sc  Sc2  1  0.499986  0.499940  0.500030  1
  Sc  Sc3  1  0.000056  0.999937  0.668747  1
  Sc  Sc4  1  0.500071  0.499998  0.836758  1
  Al  Al5  1  0.999971  0.500024  0.000020  1
  Al  Al6  1  0.499920  0.999974  0.162190  1
  Al  Al7  1  0.999947  0.499986  0.328220  1
  Al  Al8  1  0.500000  0.999934  0.500030  1
  Al  Al9  1  0.000046  0.499973  0.671740  1
  Al  Al10  1  0.500084  0.999958  0.837872  1
  Cu  Cu11  1  0.000237  0.000251  0.999852  1
  Rh  Rh12  1  0.499986  0.240186  0.000030  1
  Rh  Rh13  1  0.500002  0.760054  0.000015  1
  Rh  Rh14  1  0.999897  0.245154  0.162641  1
  Rh  Rh15  1  0.999910  0.754949  0.162536  1
  Rh  Rh16  1  0.499979  0.249708  0.332174  1
  Rh  Rh17  1  0.499880  0.750189  0.332152  1
  Rh  Rh18  1  0.999890  0.250817  0.500021  1
  Rh  Rh19  1  0.000081  0.749051  0.500016  1
  Rh  Rh20  1  0.500096  0.249709  0.667883  1
  Rh  Rh21  1  0.500000  0.750187  0.667897  1
  Rh  Rh22  1  0.000059  0.245300  0.837253  1
  Rh  Rh23  1  0.000071  0.754779  0.837355  1
