# generated using pymatgen
data_Sc12InNi4Os
_symmetry_space_group_name_H-M   'P 1'
_cell_length_a   7.75281533
_cell_length_b   7.75281609
_cell_length_c   7.75281691
_cell_angle_alpha   111.16283703
_cell_angle_beta   110.79722102
_cell_angle_gamma   106.49422381
_symmetry_Int_Tables_number   1
_chemical_formula_structural   Sc12InNi4Os
_chemical_formula_sum   'Sc12 In1 Ni4 Os1'
_cell_volume   357.99539369
_cell_formula_units_Z   1
loop_
 _symmetry_equiv_pos_site_id
 _symmetry_equiv_pos_as_xyz
  1  'x, y, z'
loop_
 _atom_site_type_symbol
 _atom_site_label
 _atom_site_symmetry_multiplicity
 _atom_site_fract_x
 _atom_site_fract_y
 _atom_site_fract_z
 _atom_site_occupancy
  Sc  Sc0  1  0.422085  0.227488  0.194598  1
  Sc  Sc1  1  0.577915  0.772512  0.805402  1
  Sc  Sc2  1  0.032891  0.227488  0.805402  1
  Sc  Sc3  1  0.967109  0.772512  0.194598  1
  Sc  Sc4  1  0.321070  0.620942  0.299872  1
  Sc  Sc5  1  0.678930  0.379058  0.700128  1
  Sc  Sc6  1  0.321070  0.021197  0.700128  1
  Sc  Sc7  1  0.678930  0.978803  0.299872  1
  Sc  Sc8  1  0.181317  0.274386  0.455704  1
  Sc  Sc9  1  0.818683  0.725613  0.544296  1
  Sc  Sc10  1  0.181317  0.725613  0.906931  1
  Sc  Sc11  1  0.818683  0.274386  0.093069  1
  In  In12  1  0.500000  0.500000  0.000000  1
  Ni  Ni13  1  0.354819  0.000000  0.354819  1
  Ni  Ni14  1  0.645181  0.000000  0.645181  1
  Ni  Ni15  1  0.124085  0.624085  0.500000  1
  Ni  Ni16  1  0.875915  0.375915  0.500000  1
  Os  Os17  1  0.000000  0.000000  0.000000  1
