# generated using pymatgen
data_K2In13Rh4
_symmetry_space_group_name_H-M   'P 1'
_cell_length_a   15.41564780
_cell_length_b   15.41564854
_cell_length_c   14.18862100
_cell_angle_alpha   90.00000000
_cell_angle_beta   90.00000000
_cell_angle_gamma   164.27232588
_symmetry_Int_Tables_number   1
_chemical_formula_structural   K2In13Rh4
_chemical_formula_sum   'K4 In26 Rh8'
_cell_volume   913.98244045
_cell_formula_units_Z   2
loop_
 _symmetry_equiv_pos_site_id
 _symmetry_equiv_pos_as_xyz
  1  'x, y, z'
loop_
 _atom_site_type_symbol
 _atom_site_label
 _atom_site_symmetry_multiplicity
 _atom_site_fract_x
 _atom_site_fract_y
 _atom_site_fract_z
 _atom_site_occupancy
  K  K0  1  0.748914  0.251086  0.574563  1
  K  K1  1  0.539960  0.460040  0.894193  1
  K  K2  1  0.251086  0.748914  0.074563  1
  K  K3  1  0.460040  0.539960  0.394193  1
  In  In4  1  0.660075  0.339925  0.074482  1
  In  In5  1  0.502516  0.497484  0.639711  1
  In  In6  1  0.214349  0.785651  0.381136  1
  In  In7  1  0.848688  0.151312  0.053655  1
  In  In8  1  0.136557  0.863443  0.906820  1
  In  In9  1  0.862442  0.137558  0.730817  1
  In  In10  1  0.649530  0.350470  0.726677  1
  In  In11  1  0.963419  0.036581  0.788719  1
  In  In12  1  0.339925  0.660075  0.574482  1
  In  In13  1  0.226325  0.773675  0.788781  1
  In  In14  1  0.785651  0.214349  0.881136  1
  In  In15  1  0.773675  0.226325  0.288781  1
  In  In16  1  0.384022  0.615978  0.894007  1
  In  In17  1  0.930113  0.069887  0.568618  1
  In  In18  1  0.069887  0.930113  0.068618  1
  In  In19  1  0.045297  0.954703  0.494665  1
  In  In20  1  0.497484  0.502516  0.139711  1
  In  In21  1  0.151312  0.848688  0.553655  1
  In  In22  1  0.615978  0.384022  0.394007  1
  In  In23  1  0.137558  0.862442  0.230817  1
  In  In24  1  0.350470  0.649530  0.226677  1
  In  In25  1  0.928016  0.071984  0.216853  1
  In  In26  1  0.036581  0.963419  0.288719  1
  In  In27  1  0.863443  0.136557  0.406820  1
  In  In28  1  0.954703  0.045297  0.994665  1
  In  In29  1  0.071984  0.928016  0.716853  1
  Rh  Rh30  1  0.691184  0.308816  0.891781  1
  Rh  Rh31  1  0.419602  0.580398  0.699933  1
  Rh  Rh32  1  0.685058  0.314942  0.265675  1
  Rh  Rh33  1  0.587791  0.412209  0.584322  1
  Rh  Rh34  1  0.308816  0.691184  0.391781  1
  Rh  Rh35  1  0.580398  0.419602  0.199933  1
  Rh  Rh36  1  0.314942  0.685058  0.765675  1
  Rh  Rh37  1  0.412209  0.587791  0.084322  1
