# generated using pymatgen
data_YbHo3Er4(B6Os)4
_symmetry_space_group_name_H-M   'P 1'
_cell_length_a   3.63620300
_cell_length_b   9.11932541
_cell_length_c   11.50276104
_cell_angle_alpha   90.08332834
_cell_angle_beta   90.00000000
_cell_angle_gamma   90.00000000
_symmetry_Int_Tables_number   1
_chemical_formula_structural   YbHo3Er4(B6Os)4
_chemical_formula_sum   'Yb1 Ho3 Er4 B24 Os4'
_cell_volume   381.42791377
_cell_formula_units_Z   1
loop_
 _symmetry_equiv_pos_site_id
 _symmetry_equiv_pos_as_xyz
  1  'x, y, z'
loop_
 _atom_site_type_symbol
 _atom_site_label
 _atom_site_symmetry_multiplicity
 _atom_site_fract_x
 _atom_site_fract_y
 _atom_site_fract_z
 _atom_site_occupancy
  Yb  Yb0  1  0.000000  0.177427  0.913766  1
  Ho  Ho1  1  0.000000  0.321143  0.414774  1
  Ho  Ho2  1  0.000000  0.678202  0.586214  1
  Ho  Ho3  1  0.000000  0.823386  0.084905  1
  Er  Er4  1  0.000000  0.943829  0.372753  1
  Er  Er5  1  0.000000  0.056956  0.628820  1
  Er  Er6  1  0.000000  0.442100  0.127392  1
  Er  Er7  1  0.000000  0.555985  0.871820  1
  B  B8  1  0.500000  0.553996  0.432732  1
  B  B9  1  0.500000  0.446708  0.566568  1
  B  B10  1  0.500000  0.054021  0.067122  1
  B  B11  1  0.500000  0.946420  0.932605  1
  B  B12  1  0.500000  0.748652  0.419345  1
  B  B13  1  0.500000  0.252010  0.580888  1
  B  B14  1  0.500000  0.248147  0.081046  1
  B  B15  1  0.500000  0.751452  0.919010  1
  B  B16  1  0.500000  0.790807  0.265974  1
  B  B17  1  0.500000  0.209862  0.734076  1
  B  B18  1  0.500000  0.290340  0.234431  1
  B  B19  1  0.500000  0.708622  0.765779  1
  B  B20  1  0.500000  0.630890  0.184911  1
  B  B21  1  0.500000  0.369188  0.814360  1
  B  B22  1  0.500000  0.130920  0.315396  1
  B  B23  1  0.500000  0.868696  0.685589  1
  B  B24  1  0.500000  0.982888  0.212808  1
  B  B25  1  0.500000  0.017028  0.787572  1
  B  B26  1  0.500000  0.482606  0.287117  1
  B  B27  1  0.500000  0.517341  0.712082  1
  B  B28  1  0.500000  0.604306  0.028775  1
  B  B29  1  0.500000  0.396811  0.971404  1
  B  B30  1  0.500000  0.106445  0.470998  1
  B  B31  1  0.500000  0.893395  0.529642  1
  Os  Os32  1  0.000000  0.637383  0.321041  1
  Os  Os33  1  0.000000  0.363489  0.677724  1
  Os  Os34  1  0.000000  0.137572  0.180002  1
  Os  Os35  1  0.000000  0.860979  0.820558  1
