# generated using pymatgen
data_Hf4Al5VAu2
_symmetry_space_group_name_H-M   'P 1'
_cell_length_a   5.35036054
_cell_length_b   5.35035975
_cell_length_c   8.49114800
_cell_angle_alpha   90.00000000
_cell_angle_beta   90.00000000
_cell_angle_gamma   120.42700338
_symmetry_Int_Tables_number   1
_chemical_formula_structural   Hf4Al5VAu2
_chemical_formula_sum   'Hf4 Al5 V1 Au2'
_cell_volume   209.59372616
_cell_formula_units_Z   1
loop_
 _symmetry_equiv_pos_site_id
 _symmetry_equiv_pos_as_xyz
  1  'x, y, z'
loop_
 _atom_site_type_symbol
 _atom_site_label
 _atom_site_symmetry_multiplicity
 _atom_site_fract_x
 _atom_site_fract_y
 _atom_site_fract_z
 _atom_site_occupancy
  Hf  Hf0  1  0.329597  0.670403  0.924367  1
  Hf  Hf1  1  0.670548  0.329452  0.059586  1
  Hf  Hf2  1  0.670548  0.329452  0.440414  1
  Hf  Hf3  1  0.329597  0.670403  0.575633  1
  Al  Al4  1  0.826601  0.661134  0.750000  1
  Al  Al5  1  0.338866  0.173399  0.750000  1
  Al  Al6  1  0.175099  0.824901  0.250000  1
  Al  Al7  1  0.175499  0.343417  0.250000  1
  Al  Al8  1  0.656583  0.824501  0.250000  1
  V  V9  1  0.820948  0.179052  0.750000  1
  Au  Au10  1  0.003058  0.996942  0.004893  1
  Au  Au11  1  0.003058  0.996942  0.495107  1
