# generated using pymatgen
data_Ca2Yb5Pr13Sn16
_symmetry_space_group_name_H-M   'P 1'
_cell_length_a   8.07769549
_cell_length_b   8.55333543
_cell_length_c   16.17057015
_cell_angle_alpha   90.01404718
_cell_angle_beta   89.97295398
_cell_angle_gamma   89.99757176
_symmetry_Int_Tables_number   1
_chemical_formula_structural   Ca2Yb5Pr13Sn16
_chemical_formula_sum   'Ca2 Yb5 Pr13 Sn16'
_cell_volume   1117.24456892
_cell_formula_units_Z   1
loop_
 _symmetry_equiv_pos_site_id
 _symmetry_equiv_pos_as_xyz
  1  'x, y, z'
loop_
 _atom_site_type_symbol
 _atom_site_label
 _atom_site_symmetry_multiplicity
 _atom_site_fract_x
 _atom_site_fract_y
 _atom_site_fract_z
 _atom_site_occupancy
  Ca  Ca0  1  0.836666  0.502428  0.251601  1
  Ca  Ca1  1  0.337661  0.994746  0.250934  1
  Yb  Yb2  1  0.330477  0.829187  0.876777  1
  Yb  Yb3  1  0.832286  0.670863  0.622819  1
  Yb  Yb4  1  0.669391  0.169452  0.377277  1
  Yb  Yb5  1  0.162976  0.498960  0.749905  1
  Yb  Yb6  1  0.662098  0.002047  0.749864  1
  Pr  Pr7  1  0.166134  0.325860  0.123425  1
  Pr  Pr8  1  0.666526  0.172229  0.124326  1
  Pr  Pr9  1  0.165966  0.326817  0.375890  1
  Pr  Pr10  1  0.335655  0.827193  0.624909  1
  Pr  Pr11  1  0.835040  0.674856  0.874491  1
  Pr  Pr12  1  0.490568  0.315726  0.904274  1
  Pr  Pr13  1  0.991072  0.187423  0.596505  1
  Pr  Pr14  1  0.510520  0.685145  0.404511  1
  Pr  Pr15  1  0.008375  0.814620  0.095518  1
  Pr  Pr16  1  0.508845  0.683462  0.095758  1
  Pr  Pr17  1  0.005690  0.816044  0.404988  1
  Pr  Pr18  1  0.493352  0.315788  0.595081  1
  Pr  Pr19  1  0.990076  0.185632  0.902764  1
  Sn  Sn20  1  0.327709  0.033306  0.038503  1
  Sn  Sn21  1  0.827461  0.465539  0.461182  1
  Sn  Sn22  1  0.673928  0.965651  0.539780  1
  Sn  Sn23  1  0.173780  0.535792  0.960808  1
  Sn  Sn24  1  0.671184  0.963068  0.961602  1
  Sn  Sn25  1  0.173326  0.537810  0.537988  1
  Sn  Sn26  1  0.328768  0.036280  0.462112  1
  Sn  Sn27  1  0.825530  0.463399  0.036772  1
  Sn  Sn28  1  0.532992  0.604133  0.750081  1
  Sn  Sn29  1  0.032432  0.898519  0.749548  1
  Sn  Sn30  1  0.468520  0.397237  0.249806  1
  Sn  Sn31  1  0.967642  0.103198  0.250844  1
  Sn  Sn32  1  0.288950  0.141809  0.749604  1
  Sn  Sn33  1  0.788154  0.359539  0.750485  1
  Sn  Sn34  1  0.710131  0.857363  0.249325  1
  Sn  Sn35  1  0.210121  0.638875  0.249944  1
