# generated using pymatgen
data_Y5P12Ir16Rh3
_symmetry_space_group_name_H-M   'P 1'
_cell_length_a   12.73296900
_cell_length_b   12.73296995
_cell_length_c   3.96775600
_cell_angle_alpha   90.00000000
_cell_angle_beta   90.00000000
_cell_angle_gamma   119.99999495
_symmetry_Int_Tables_number   1
_chemical_formula_structural   Y5P12Ir16Rh3
_chemical_formula_sum   'Y5 P12 Ir16 Rh3'
_cell_volume   557.10237073
_cell_formula_units_Z   1
loop_
 _symmetry_equiv_pos_site_id
 _symmetry_equiv_pos_as_xyz
  1  'x, y, z'
loop_
 _atom_site_type_symbol
 _atom_site_label
 _atom_site_symmetry_multiplicity
 _atom_site_fract_x
 _atom_site_fract_y
 _atom_site_fract_z
 _atom_site_occupancy
  Y  Y0  1  0.000000  0.187312  0.500000  1
  Y  Y1  1  0.812688  0.812688  0.500000  1
  Y  Y2  1  0.187312  0.000000  0.500000  1
  Y  Y3  1  0.666667  0.333333  0.000000  1
  Y  Y4  1  0.333333  0.666667  0.000000  1
  P  P5  1  0.000000  0.821278  0.000000  1
  P  P6  1  0.178722  0.178722  0.000000  1
  P  P7  1  0.821278  0.000000  0.000000  1
  P  P8  1  0.687263  0.170188  0.500000  1
  P  P9  1  0.829812  0.517076  0.500000  1
  P  P10  1  0.482924  0.312737  0.500000  1
  P  P11  1  0.170188  0.687263  0.500000  1
  P  P12  1  0.517076  0.829812  0.500000  1
  P  P13  1  0.312737  0.482924  0.500000  1
  P  P14  1  0.000000  0.360913  0.000000  1
  P  P15  1  0.639087  0.639087  0.000000  1
  P  P16  1  0.360913  0.000000  0.000000  1
  Ir  Ir17  1  0.000000  0.717558  0.500000  1
  Ir  Ir18  1  0.282442  0.282442  0.500000  1
  Ir  Ir19  1  0.717558  0.000000  0.500000  1
  Ir  Ir20  1  0.806170  0.180558  0.000000  1
  Ir  Ir21  1  0.819442  0.625613  0.000000  1
  Ir  Ir22  1  0.374387  0.193830  0.000000  1
  Ir  Ir23  1  0.180558  0.806170  0.000000  1
  Ir  Ir24  1  0.625613  0.819442  0.000000  1
  Ir  Ir25  1  0.193830  0.374387  0.000000  1
  Ir  Ir26  1  0.866721  0.359492  0.500000  1
  Ir  Ir27  1  0.640508  0.507230  0.500000  1
  Ir  Ir28  1  0.492770  0.133279  0.500000  1
  Ir  Ir29  1  0.359492  0.866721  0.500000  1
  Ir  Ir30  1  0.507230  0.640508  0.500000  1
  Ir  Ir31  1  0.133279  0.492770  0.500000  1
  Ir  Ir32  1  0.000000  0.000000  0.000000  1
  Rh  Rh33  1  0.000000  0.540036  0.000000  1
  Rh  Rh34  1  0.459964  0.459964  0.000000  1
  Rh  Rh35  1  0.540036  0.000000  0.000000  1
