# generated using pymatgen
data_Li2CaUF8
_symmetry_space_group_name_H-M   'P 1'
_cell_length_a   6.68960427
_cell_length_b   6.68960461
_cell_length_c   6.68960439
_cell_angle_alpha   133.23164245
_cell_angle_beta   133.23164265
_cell_angle_gamma   68.29059736
_symmetry_Int_Tables_number   1
_chemical_formula_structural   Li2CaUF8
_chemical_formula_sum   'Li2 Ca1 U1 F8'
_cell_volume   156.11357694
_cell_formula_units_Z   1
loop_
 _symmetry_equiv_pos_site_id
 _symmetry_equiv_pos_as_xyz
  1  'x, y, z'
loop_
 _atom_site_type_symbol
 _atom_site_label
 _atom_site_symmetry_multiplicity
 _atom_site_fract_x
 _atom_site_fract_y
 _atom_site_fract_z
 _atom_site_occupancy
  Li  Li0  1  0.750000  0.250000  0.500000  1
  Li  Li1  1  0.000000  0.000000  0.000000  1
  Ca  Ca2  1  0.500000  0.500000  0.000000  1
  U  U3  1  0.250000  0.750000  0.500000  1
  F  F4  1  0.506028  0.454949  0.608728  1
  F  F5  1  0.240808  0.802451  0.877795  1
  F  F6  1  0.545051  0.153779  0.051079  1
  F  F7  1  0.102700  0.493972  0.948921  1
  F  F8  1  0.846221  0.897300  0.391272  1
  F  F9  1  0.197549  0.075344  0.438357  1
  F  F10  1  0.924656  0.363013  0.122205  1
  F  F11  1  0.636987  0.759192  0.561643  1
