# generated using pymatgen
data_Cs6NdInBr12
_symmetry_space_group_name_H-M   'P 1'
_cell_length_a   10.04967860
_cell_length_b   10.03089423
_cell_length_c   8.32293500
_cell_angle_alpha   90.00000000
_cell_angle_beta   90.00000000
_cell_angle_gamma   90.16503331
_symmetry_Int_Tables_number   1
_chemical_formula_structural   Cs6NdInBr12
_chemical_formula_sum   'Cs6 Nd1 In1 Br12'
_cell_volume   839.00881743
_cell_formula_units_Z   1
loop_
 _symmetry_equiv_pos_site_id
 _symmetry_equiv_pos_as_xyz
  1  'x, y, z'
loop_
 _atom_site_type_symbol
 _atom_site_label
 _atom_site_symmetry_multiplicity
 _atom_site_fract_x
 _atom_site_fract_y
 _atom_site_fract_z
 _atom_site_occupancy
  Cs  Cs0  1  0.000000  0.000000  0.500000  1
  Cs  Cs1  1  0.000000  0.000000  0.000000  1
  Cs  Cs2  1  0.238006  0.584976  0.500000  1
  Cs  Cs3  1  0.761994  0.415024  0.500000  1
  Cs  Cs4  1  0.417359  0.231097  0.000000  1
  Cs  Cs5  1  0.582641  0.768903  0.000000  1
  Nd  Nd6  1  0.000000  0.500000  0.000000  1
  In  In7  1  0.500000  0.000000  0.500000  1
  Br  Br8  1  0.686383  0.057301  0.734156  1
  Br  Br9  1  0.313617  0.942699  0.734156  1
  Br  Br10  1  0.941453  0.697121  0.246503  1
  Br  Br11  1  0.058547  0.302879  0.246503  1
  Br  Br12  1  0.313617  0.942699  0.265844  1
  Br  Br13  1  0.686383  0.057301  0.265844  1
  Br  Br14  1  0.058547  0.302879  0.753497  1
  Br  Br15  1  0.941453  0.697121  0.753497  1
  Br  Br16  1  0.568336  0.738047  0.500000  1
  Br  Br17  1  0.431664  0.261953  0.500000  1
  Br  Br18  1  0.278756  0.571476  0.000000  1
  Br  Br19  1  0.721244  0.428524  0.000000  1
