# generated using pymatgen
data_CuBi3(Rh2O7)2
_symmetry_space_group_name_H-M   'P 1'
_cell_length_a   7.14342486
_cell_length_b   7.34719946
_cell_length_c   7.34719900
_cell_angle_alpha   59.99999757
_cell_angle_beta   59.05178600
_cell_angle_gamma   59.05178931
_symmetry_Int_Tables_number   1
_chemical_formula_structural   CuBi3(Rh2O7)2
_chemical_formula_sum   'Cu1 Bi3 Rh4 O14'
_cell_volume   268.69506490
_cell_formula_units_Z   1
loop_
 _symmetry_equiv_pos_site_id
 _symmetry_equiv_pos_as_xyz
  1  'x, y, z'
loop_
 _atom_site_type_symbol
 _atom_site_label
 _atom_site_symmetry_multiplicity
 _atom_site_fract_x
 _atom_site_fract_y
 _atom_site_fract_z
 _atom_site_occupancy
  Cu  Cu0  1  0.625000  0.125000  0.125000  1
  Bi  Bi1  1  0.125000  0.125000  0.125000  1
  Bi  Bi2  1  0.125000  0.625000  0.125000  1
  Bi  Bi3  1  0.125000  0.125000  0.625000  1
  Rh  Rh4  1  0.625000  0.625000  0.625000  1
  Rh  Rh5  1  0.625000  0.625000  0.125000  1
  Rh  Rh6  1  0.125000  0.625000  0.625000  1
  Rh  Rh7  1  0.625000  0.125000  0.625000  1
  O  O8  1  0.294236  0.235255  0.235255  1
  O  O9  1  0.285800  0.711622  0.290955  1
  O  O10  1  0.964200  0.959045  0.538378  1
  O  O11  1  0.544951  0.953038  0.548972  1
  O  O12  1  0.705049  0.701028  0.296962  1
  O  O13  1  0.964200  0.538378  0.538378  1
  O  O14  1  0.705049  0.296962  0.701028  1
  O  O15  1  0.285800  0.290955  0.711622  1
  O  O16  1  0.705049  0.296962  0.296962  1
  O  O17  1  0.285800  0.711622  0.711622  1
  O  O18  1  0.964200  0.538378  0.959045  1
  O  O19  1  0.544951  0.548972  0.953038  1
  O  O20  1  0.955764  0.014745  0.014745  1
  O  O21  1  0.544951  0.953038  0.953038  1
