# generated using pymatgen
data_Tb9HoCo3Ru
_symmetry_space_group_name_H-M   'P 1'
_cell_length_a   6.30695483
_cell_length_b   6.99646425
_cell_length_c   8.57135453
_cell_angle_alpha   96.31501114
_cell_angle_beta   111.75826459
_cell_angle_gamma   89.93110879
_symmetry_Int_Tables_number   1
_chemical_formula_structural   Tb9HoCo3Ru
_chemical_formula_sum   'Tb9 Ho1 Co3 Ru1'
_cell_volume   348.82437452
_cell_formula_units_Z   1
loop_
 _symmetry_equiv_pos_site_id
 _symmetry_equiv_pos_as_xyz
  1  'x, y, z'
loop_
 _atom_site_type_symbol
 _atom_site_label
 _atom_site_symmetry_multiplicity
 _atom_site_fract_x
 _atom_site_fract_y
 _atom_site_fract_z
 _atom_site_occupancy
  Tb  Tb0  1  0.975969  0.913309  0.189090  1
  Tb  Tb1  1  0.795582  0.586958  0.811514  1
  Tb  Tb2  1  0.016584  0.088013  0.814596  1
  Tb  Tb3  1  0.200577  0.418894  0.187529  1
  Tb  Tb4  1  0.647839  0.810490  0.434396  1
  Tb  Tb5  1  0.214298  0.685168  0.569562  1
  Tb  Tb6  1  0.357372  0.185178  0.567873  1
  Tb  Tb7  1  0.790231  0.317450  0.432220  1
  Tb  Tb8  1  0.426707  0.745589  0.997106  1
  Ho  Ho9  1  0.573244  0.252161  0.998512  1
  Co  Co10  1  0.822075  0.573824  0.221830  1
  Co  Co11  1  0.602483  0.926273  0.779755  1
  Co  Co12  1  0.177297  0.426302  0.777098  1
  Ru  Ru13  1  0.399744  0.070390  0.218920  1
