# generated using pymatgen
data_TbZn3AgRh
_symmetry_space_group_name_H-M   'P 1'
_cell_length_a   5.30948983
_cell_length_b   5.30948969
_cell_length_c   5.21115407
_cell_angle_alpha   59.37379613
_cell_angle_beta   59.37380569
_cell_angle_gamma   60.00000266
_symmetry_Int_Tables_number   1
_chemical_formula_structural   TbZn3AgRh
_chemical_formula_sum   'Tb1 Zn3 Ag1 Rh1'
_cell_volume   102.88413100
_cell_formula_units_Z   1
loop_
 _symmetry_equiv_pos_site_id
 _symmetry_equiv_pos_as_xyz
  1  'x, y, z'
loop_
 _atom_site_type_symbol
 _atom_site_label
 _atom_site_symmetry_multiplicity
 _atom_site_fract_x
 _atom_site_fract_y
 _atom_site_fract_z
 _atom_site_occupancy
  Tb  Tb0  1  0.999878  0.999878  0.000364  1
  Zn  Zn1  1  0.622458  0.129236  0.625848  1
  Zn  Zn2  1  0.129236  0.622458  0.625848  1
  Zn  Zn3  1  0.622458  0.622458  0.625848  1
  Ag  Ag4  1  0.250739  0.250739  0.247785  1
  Rh  Rh5  1  0.625231  0.625231  0.124308  1
