# generated using pymatgen
data_Sr9Si10Sn
_symmetry_space_group_name_H-M   'P 1'
_cell_length_a   11.26124596
_cell_length_b   11.26125924
_cell_length_c   11.26125710
_cell_angle_alpha   155.53795899
_cell_angle_beta   111.10150753
_cell_angle_gamma   74.32042962
_symmetry_Int_Tables_number   1
_chemical_formula_structural   Sr9Si10Sn
_chemical_formula_sum   'Sr9 Si10 Sn1'
_cell_volume   545.57617941
_cell_formula_units_Z   1
loop_
 _symmetry_equiv_pos_site_id
 _symmetry_equiv_pos_as_xyz
  1  'x, y, z'
loop_
 _atom_site_type_symbol
 _atom_site_label
 _atom_site_symmetry_multiplicity
 _atom_site_fract_x
 _atom_site_fract_y
 _atom_site_fract_z
 _atom_site_occupancy
  Sr  Sr0  1  0.646716  0.810594  0.836121  1
  Sr  Sr1  1  0.025526  0.189406  0.836121  1
  Sr  Sr2  1  0.353284  0.189406  0.163879  1
  Sr  Sr3  1  0.692795  0.000000  0.692794  1
  Sr  Sr4  1  0.974474  0.810594  0.163879  1
  Sr  Sr5  1  0.000000  0.000000  0.000000  1
  Sr  Sr6  1  0.340390  0.840391  0.500000  1
  Sr  Sr7  1  0.307205  0.000000  0.307206  1
  Sr  Sr8  1  0.659610  0.159609  0.500000  1
  Si  Si9  1  0.548530  0.370823  0.177706  1
  Si  Si10  1  0.224255  0.567148  0.657106  1
  Si  Si11  1  0.910042  0.567148  0.342894  1
  Si  Si12  1  0.142053  0.642053  0.500000  1
  Si  Si13  1  0.806882  0.629177  0.177706  1
  Si  Si14  1  0.089958  0.432852  0.657106  1
  Si  Si15  1  0.193118  0.370823  0.822294  1
  Si  Si16  1  0.451470  0.629177  0.822294  1
  Si  Si17  1  0.857947  0.357947  0.500000  1
  Si  Si18  1  0.775745  0.432852  0.342894  1
  Sn  Sn19  1  0.500000  0.500000  0.000000  1
