# generated using pymatgen
data_Ho2Al8SiIr3
_symmetry_space_group_name_H-M   'P 1'
_cell_length_a   7.53070884
_cell_length_b   7.53070978
_cell_length_c   9.33867100
_cell_angle_alpha   90.00000000
_cell_angle_beta   90.00000000
_cell_angle_gamma   119.67317051
_symmetry_Int_Tables_number   1
_chemical_formula_structural   Ho2Al8SiIr3
_chemical_formula_sum   'Ho4 Al16 Si2 Ir6'
_cell_volume   460.15946478
_cell_formula_units_Z   2
loop_
 _symmetry_equiv_pos_site_id
 _symmetry_equiv_pos_as_xyz
  1  'x, y, z'
loop_
 _atom_site_type_symbol
 _atom_site_label
 _atom_site_symmetry_multiplicity
 _atom_site_fract_x
 _atom_site_fract_y
 _atom_site_fract_z
 _atom_site_occupancy
  Ho  Ho0  1  0.994796  0.674484  0.250000  1
  Ho  Ho1  1  0.005204  0.325516  0.750000  1
  Ho  Ho2  1  0.674484  0.994796  0.250000  1
  Ho  Ho3  1  0.325516  0.005204  0.750000  1
  Al  Al4  1  0.001059  0.336175  0.076912  1
  Al  Al5  1  0.998941  0.663825  0.923088  1
  Al  Al6  1  0.998941  0.663825  0.576912  1
  Al  Al7  1  0.336175  0.001059  0.423088  1
  Al  Al8  1  0.001059  0.336175  0.423088  1
  Al  Al9  1  0.663825  0.998941  0.576912  1
  Al  Al10  1  0.663825  0.998941  0.923088  1
  Al  Al11  1  0.336175  0.001059  0.076912  1
  Al  Al12  1  0.335599  0.335599  0.558156  1
  Al  Al13  1  0.664401  0.664401  0.441844  1
  Al  Al14  1  0.664401  0.664401  0.058156  1
  Al  Al15  1  0.335599  0.335599  0.941844  1
  Al  Al16  1  0.335173  0.548212  0.250000  1
  Al  Al17  1  0.664827  0.451788  0.750000  1
  Al  Al18  1  0.548212  0.335173  0.250000  1
  Al  Al19  1  0.451788  0.664827  0.750000  1
  Si  Si20  1  0.128179  0.128179  0.250000  1
  Si  Si21  1  0.871821  0.871821  0.750000  1
  Ir  Ir22  1  0.671815  0.328185  0.000000  1
  Ir  Ir23  1  0.328185  0.671815  0.000000  1
  Ir  Ir24  1  0.328185  0.671815  0.500000  1
  Ir  Ir25  1  0.671815  0.328185  0.500000  1
  Ir  Ir26  1  0.000000  0.000000  0.000000  1
  Ir  Ir27  1  0.000000  0.000000  0.500000  1
