# generated using pymatgen
data_Lu12Co6Ru
_symmetry_space_group_name_H-M   'P 1'
_cell_length_a   10.95361600
_cell_length_b   8.12182762
_cell_length_c   10.80143127
_cell_angle_alpha   55.13899864
_cell_angle_beta   90.00000000
_cell_angle_gamma   90.00000000
_symmetry_Int_Tables_number   1
_chemical_formula_structural   Lu12Co6Ru
_chemical_formula_sum   'Lu24 Co12 Ru2'
_cell_volume   788.48409158
_cell_formula_units_Z   2
loop_
 _symmetry_equiv_pos_site_id
 _symmetry_equiv_pos_as_xyz
  1  'x, y, z'
loop_
 _atom_site_type_symbol
 _atom_site_label
 _atom_site_symmetry_multiplicity
 _atom_site_fract_x
 _atom_site_fract_y
 _atom_site_fract_z
 _atom_site_occupancy
  Lu  Lu0  1  0.705907  0.233374  0.539789  1
  Lu  Lu1  1  0.205907  0.766626  0.960211  1
  Lu  Lu2  1  0.840545  0.501682  0.659281  1
  Lu  Lu3  1  0.340545  0.498318  0.840719  1
  Lu  Lu4  1  0.159455  0.498318  0.340719  1
  Lu  Lu5  1  0.659455  0.501682  0.159281  1
  Lu  Lu6  1  0.001836  0.842725  0.354600  1
  Lu  Lu7  1  0.501836  0.157275  0.145400  1
  Lu  Lu8  1  0.998164  0.157275  0.645400  1
  Lu  Lu9  1  0.498164  0.842725  0.854600  1
  Lu  Lu10  1  0.794093  0.233374  0.039789  1
  Lu  Lu11  1  0.294093  0.766626  0.460211  1
  Lu  Lu12  1  0.928963  0.769087  0.088278  1
  Lu  Lu13  1  0.428963  0.230913  0.411722  1
  Lu  Lu14  1  0.071037  0.230913  0.911722  1
  Lu  Lu15  1  0.571037  0.769087  0.588278  1
  Lu  Lu16  1  0.300999  0.245961  0.676956  1
  Lu  Lu17  1  0.800999  0.754039  0.823044  1
  Lu  Lu18  1  0.699001  0.754039  0.323044  1
  Lu  Lu19  1  0.199001  0.245961  0.176956  1
  Lu  Lu20  1  0.930406  0.260244  0.311167  1
  Lu  Lu21  1  0.430406  0.739756  0.188833  1
  Lu  Lu22  1  0.069594  0.739756  0.688833  1
  Lu  Lu23  1  0.569594  0.260244  0.811167  1
  Co  Co24  1  0.677247  0.906864  0.025022  1
  Co  Co25  1  0.177247  0.093136  0.474978  1
  Co  Co26  1  0.322753  0.093136  0.974978  1
  Co  Co27  1  0.822753  0.906864  0.525022  1
  Co  Co28  1  0.400570  0.493879  0.099402  1
  Co  Co29  1  0.900570  0.506121  0.400598  1
  Co  Co30  1  0.599430  0.506121  0.900598  1
  Co  Co31  1  0.099430  0.493879  0.599402  1
  Co  Co32  1  0.814995  0.101227  0.837632  1
  Co  Co33  1  0.314995  0.898773  0.662368  1
  Co  Co34  1  0.185005  0.898773  0.162368  1
  Co  Co35  1  0.685005  0.101227  0.337632  1
  Ru  Ru36  1  0.500000  0.500000  0.500000  1
  Ru  Ru37  1  0.000000  0.500000  0.000000  1
