# generated using pymatgen
data_Li4Nd12Si7BiH4
_symmetry_space_group_name_H-M   'P 1'
_cell_length_a   4.38870200
_cell_length_b   11.91813236
_cell_length_c   11.83598237
_cell_angle_alpha   89.78410413
_cell_angle_beta   90.00000000
_cell_angle_gamma   90.00000000
_symmetry_Int_Tables_number   1
_chemical_formula_structural   Li4Nd12Si7BiH4
_chemical_formula_sum   'Li4 Nd12 Si7 Bi1 H4'
_cell_volume   619.07821742
_cell_formula_units_Z   1
loop_
 _symmetry_equiv_pos_site_id
 _symmetry_equiv_pos_as_xyz
  1  'x, y, z'
loop_
 _atom_site_type_symbol
 _atom_site_label
 _atom_site_symmetry_multiplicity
 _atom_site_fract_x
 _atom_site_fract_y
 _atom_site_fract_z
 _atom_site_occupancy
  Li  Li0  1  0.250000  0.131431  0.873793  1
  Li  Li1  1  0.250000  0.634489  0.634559  1
  Li  Li2  1  0.750000  0.869034  0.126254  1
  Li  Li3  1  0.750000  0.380207  0.370252  1
  Nd  Nd4  1  0.250000  0.041286  0.640469  1
  Nd  Nd5  1  0.250000  0.553853  0.875933  1
  Nd  Nd6  1  0.750000  0.936016  0.371142  1
  Nd  Nd7  1  0.750000  0.446368  0.124414  1
  Nd  Nd8  1  0.250000  0.381798  0.571006  1
  Nd  Nd9  1  0.250000  0.865774  0.930177  1
  Nd  Nd10  1  0.750000  0.632192  0.432704  1
  Nd  Nd11  1  0.750000  0.125446  0.064584  1
  Nd  Nd12  1  0.250000  0.218859  0.286848  1
  Nd  Nd13  1  0.250000  0.708503  0.191134  1
  Nd  Nd14  1  0.750000  0.790542  0.695697  1
  Nd  Nd15  1  0.750000  0.292350  0.808588  1
  Si  Si16  1  0.250000  0.483060  0.322758  1
  Si  Si17  1  0.250000  0.980432  0.176104  1
  Si  Si18  1  0.750000  0.519248  0.679436  1
  Si  Si19  1  0.750000  0.018339  0.826357  1
  Si  Si20  1  0.250000  0.313243  0.000450  1
  Si  Si21  1  0.250000  0.815217  0.504660  1
  Si  Si22  1  0.750000  0.683368  0.002769  1
  Bi  Bi23  1  0.750000  0.183026  0.497368  1
  H  H24  1  0.250000  0.233208  0.730262  1
  H  H25  1  0.250000  0.730980  0.770277  1
  H  H26  1  0.750000  0.763614  0.267558  1
  H  H27  1  0.750000  0.268117  0.224451  1
