# generated using pymatgen
data_Lu12Zn3Ag9C4
_symmetry_space_group_name_H-M   'P 1'
_cell_length_a   9.16224230
_cell_length_b   9.16224216
_cell_length_c   9.16224329
_cell_angle_alpha   59.64125806
_cell_angle_beta   59.64126004
_cell_angle_gamma   59.64125310
_symmetry_Int_Tables_number   1
_chemical_formula_structural   Lu12Zn3Ag9C4
_chemical_formula_sum   'Lu12 Zn3 Ag9 C4'
_cell_volume   539.43061612
_cell_formula_units_Z   1
loop_
 _symmetry_equiv_pos_site_id
 _symmetry_equiv_pos_as_xyz
  1  'x, y, z'
loop_
 _atom_site_type_symbol
 _atom_site_label
 _atom_site_symmetry_multiplicity
 _atom_site_fract_x
 _atom_site_fract_y
 _atom_site_fract_z
 _atom_site_occupancy
  Lu  Lu0  1  0.441800  0.441800  0.057867  1
  Lu  Lu1  1  0.058419  0.441888  0.058419  1
  Lu  Lu2  1  0.441888  0.058419  0.058419  1
  Lu  Lu3  1  0.058419  0.058419  0.441888  1
  Lu  Lu4  1  0.441800  0.057867  0.441800  1
  Lu  Lu5  1  0.057867  0.441800  0.441800  1
  Lu  Lu6  1  0.808200  0.808200  0.192133  1
  Lu  Lu7  1  0.191581  0.808112  0.191581  1
  Lu  Lu8  1  0.808112  0.191581  0.191581  1
  Lu  Lu9  1  0.191581  0.191581  0.808112  1
  Lu  Lu10  1  0.808200  0.192133  0.808200  1
  Lu  Lu11  1  0.192133  0.808200  0.808200  1
  Zn  Zn12  1  0.625000  0.625000  0.125000  1
  Zn  Zn13  1  0.625000  0.125000  0.625000  1
  Zn  Zn14  1  0.125000  0.625000  0.625000  1
  Ag  Ag15  1  0.835009  0.835009  0.503062  1
  Ag  Ag16  1  0.835009  0.503062  0.835009  1
  Ag  Ag17  1  0.503062  0.835009  0.835009  1
  Ag  Ag18  1  0.832122  0.832122  0.832122  1
  Ag  Ag19  1  0.414991  0.414991  0.746938  1
  Ag  Ag20  1  0.414991  0.746938  0.414991  1
  Ag  Ag21  1  0.746938  0.414991  0.414991  1
  Ag  Ag22  1  0.417878  0.417878  0.417878  1
  Ag  Ag23  1  0.625000  0.625000  0.625000  1
  C  C24  1  0.125000  0.125000  0.625000  1
  C  C25  1  0.125000  0.625000  0.125000  1
  C  C26  1  0.625000  0.125000  0.125000  1
  C  C27  1  0.125000  0.125000  0.125000  1
