# generated using pymatgen
data_TbTmFe(Co2B)3
_symmetry_space_group_name_H-M   'P 1'
_cell_length_a   5.05048905
_cell_length_b   5.05083044
_cell_length_c   12.62520900
_cell_angle_alpha   89.99994418
_cell_angle_beta   90.00020421
_cell_angle_gamma   119.98107561
_symmetry_Int_Tables_number   1
_chemical_formula_structural   TbTmFe(Co2B)3
_chemical_formula_sum   'Tb2 Tm2 Fe2 Co12 B6'
_cell_volume   278.96403586
_cell_formula_units_Z   2
loop_
 _symmetry_equiv_pos_site_id
 _symmetry_equiv_pos_as_xyz
  1  'x, y, z'
loop_
 _atom_site_type_symbol
 _atom_site_label
 _atom_site_symmetry_multiplicity
 _atom_site_fract_x
 _atom_site_fract_y
 _atom_site_fract_z
 _atom_site_occupancy
  Tb  Tb0  1  0.999996  0.000002  0.001031  1
  Tb  Tb1  1  0.999992  0.000000  0.738846  1
  Tm  Tm2  1  0.999991  0.000002  0.499459  1
  Tm  Tm3  1  0.999989  0.999999  0.261099  1
  Fe  Fe4  1  0.333252  0.666625  0.000424  1
  Fe  Fe5  1  0.666737  0.333377  0.000421  1
  Co  Co6  1  0.500001  0.000024  0.156631  1
  Co  Co7  1  0.500001  0.499984  0.156619  1
  Co  Co8  1  0.999963  0.499985  0.156623  1
  Co  Co9  1  0.500006  0.000029  0.844457  1
  Co  Co10  1  0.500009  0.499983  0.844454  1
  Co  Co11  1  0.999965  0.499987  0.844435  1
  Co  Co12  1  0.499991  0.000002  0.384940  1
  Co  Co13  1  0.499991  0.499999  0.384937  1
  Co  Co14  1  0.999989  0.500000  0.384948  1
  Co  Co15  1  0.499992  0.000001  0.613952  1
  Co  Co16  1  0.499993  0.500000  0.613954  1
  Co  Co17  1  0.999990  0.499999  0.613948  1
  B  B18  1  0.333376  0.666668  0.499466  1
  B  B19  1  0.666607  0.333333  0.499466  1
  B  B20  1  0.333317  0.666661  0.268939  1
  B  B21  1  0.666661  0.333338  0.268938  1
  B  B22  1  0.666656  0.333348  0.731006  1
  B  B23  1  0.333333  0.666654  0.731005  1
