# generated using pymatgen
data_MgNb5(SiTc)6
_symmetry_space_group_name_H-M   'P 1'
_cell_length_a   7.66519185
_cell_length_b   7.56867682
_cell_length_c   7.66519177
_cell_angle_alpha   126.01283658
_cell_angle_beta   128.83934069
_cell_angle_gamma   77.85709825
_symmetry_Int_Tables_number   1
_chemical_formula_structural   MgNb5(SiTc)6
_chemical_formula_sum   'Mg1 Nb5 Si6 Tc6'
_cell_volume   271.18352083
_cell_formula_units_Z   1
loop_
 _symmetry_equiv_pos_site_id
 _symmetry_equiv_pos_as_xyz
  1  'x, y, z'
loop_
 _atom_site_type_symbol
 _atom_site_label
 _atom_site_symmetry_multiplicity
 _atom_site_fract_x
 _atom_site_fract_y
 _atom_site_fract_z
 _atom_site_occupancy
  Mg  Mg0  1  0.551525  0.100829  0.049305  1
  Nb  Nb1  1  0.449426  0.489160  0.539734  1
  Nb  Nb2  1  0.950425  0.493751  0.043326  1
  Nb  Nb3  1  0.049472  0.095004  0.545533  1
  Nb  Nb4  1  0.748927  0.898878  0.649951  1
  Nb  Nb5  1  0.245143  0.893968  0.148824  1
  Si  Si6  1  0.748964  0.496891  0.247928  1
  Si  Si7  1  0.253678  0.501916  0.748238  1
  Si  Si8  1  0.335607  0.829315  0.500925  1
  Si  Si9  1  0.664509  0.161078  0.492916  1
  Si  Si10  1  0.828390  0.829315  0.993707  1
  Si  Si11  1  0.168162  0.161078  0.996568  1
  Tc  Tc12  1  0.500076  0.241866  0.740017  1
  Tc  Tc13  1  0.001848  0.241866  0.241789  1
  Tc  Tc14  1  0.123976  0.755429  0.620730  1
  Tc  Tc15  1  0.877938  0.498213  0.630979  1
  Tc  Tc16  1  0.634699  0.755429  0.131454  1
  Tc  Tc17  1  0.367234  0.498213  0.120276  1
