# generated using pymatgen
data_Sr8Mg8Si15Hg
_symmetry_space_group_name_H-M   'P 1'
_cell_length_a   4.39091200
_cell_length_b   11.58686709
_cell_length_c   14.59784359
_cell_angle_alpha   89.54134012
_cell_angle_beta   90.00000000
_cell_angle_gamma   90.00000000
_symmetry_Int_Tables_number   1
_chemical_formula_structural   Sr8Mg8Si15Hg
_chemical_formula_sum   'Sr8 Mg8 Si15 Hg1'
_cell_volume   742.66943244
_cell_formula_units_Z   1
loop_
 _symmetry_equiv_pos_site_id
 _symmetry_equiv_pos_as_xyz
  1  'x, y, z'
loop_
 _atom_site_type_symbol
 _atom_site_label
 _atom_site_symmetry_multiplicity
 _atom_site_fract_x
 _atom_site_fract_y
 _atom_site_fract_z
 _atom_site_occupancy
  Sr  Sr0  1  0.250000  0.523552  0.196586  1
  Sr  Sr1  1  0.250000  0.735138  0.938468  1
  Sr  Sr2  1  0.750000  0.260085  0.062263  1
  Sr  Sr3  1  0.750000  0.240188  0.562851  1
  Sr  Sr4  1  0.250000  0.760301  0.437282  1
  Sr  Sr5  1  0.250000  0.978247  0.691679  1
  Sr  Sr6  1  0.750000  0.024550  0.303929  1
  Sr  Sr7  1  0.750000  0.476650  0.802436  1
  Mg  Mg8  1  0.250000  0.441067  0.441178  1
  Mg  Mg9  1  0.750000  0.558306  0.558524  1
  Mg  Mg10  1  0.750000  0.941934  0.063107  1
  Mg  Mg11  1  0.250000  0.065386  0.946440  1
  Mg  Mg12  1  0.250000  0.675618  0.687837  1
  Mg  Mg13  1  0.750000  0.321265  0.311081  1
  Mg  Mg14  1  0.750000  0.182492  0.809370  1
  Mg  Mg15  1  0.250000  0.820790  0.189712  1
  Si  Si16  1  0.250000  0.451163  0.630987  1
  Si  Si17  1  0.750000  0.546962  0.368007  1
  Si  Si18  1  0.250000  0.028742  0.464643  1
  Si  Si19  1  0.250000  0.051848  0.135497  1
  Si  Si20  1  0.250000  0.277759  0.722967  1
  Si  Si21  1  0.750000  0.722453  0.276868  1
  Si  Si22  1  0.750000  0.765736  0.770661  1
  Si  Si23  1  0.250000  0.213182  0.394587  1
  Si  Si24  1  0.750000  0.970251  0.532605  1
  Si  Si25  1  0.750000  0.531226  0.033286  1
  Si  Si26  1  0.250000  0.469772  0.967570  1
  Si  Si27  1  0.250000  0.290277  0.893740  1
  Si  Si28  1  0.750000  0.784922  0.603889  1
  Si  Si29  1  0.750000  0.712040  0.108123  1
  Si  Si30  1  0.250000  0.225730  0.225565  1
  Hg  Hg31  1  0.750000  0.952368  0.868263  1
