# generated using pymatgen
data_Li4La(PrSn2)3
_symmetry_space_group_name_H-M   'P 1'
_cell_length_a   10.36120453
_cell_length_b   10.36120513
_cell_length_c   7.43960500
_cell_angle_alpha   90.00000000
_cell_angle_beta   90.00000000
_cell_angle_gamma   153.41615248
_symmetry_Int_Tables_number   1
_chemical_formula_structural   Li4La(PrSn2)3
_chemical_formula_sum   'Li4 La1 Pr3 Sn6'
_cell_volume   357.41290133
_cell_formula_units_Z   1
loop_
 _symmetry_equiv_pos_site_id
 _symmetry_equiv_pos_as_xyz
  1  'x, y, z'
loop_
 _atom_site_type_symbol
 _atom_site_label
 _atom_site_symmetry_multiplicity
 _atom_site_fract_x
 _atom_site_fract_y
 _atom_site_fract_z
 _atom_site_occupancy
  Li  Li0  1  0.805702  0.194298  0.437206  1
  Li  Li1  1  0.194331  0.805669  0.562707  1
  Li  Li2  1  0.805702  0.194298  0.062794  1
  Li  Li3  1  0.194331  0.805669  0.937293  1
  La  La4  1  0.549549  0.450451  0.750000  1
  Pr  Pr5  1  0.450280  0.549720  0.250000  1
  Pr  Pr6  1  0.342084  0.657916  0.750000  1
  Pr  Pr7  1  0.657807  0.342193  0.250000  1
  Sn  Sn8  1  0.932268  0.067732  0.944281  1
  Sn  Sn9  1  0.067719  0.932281  0.056671  1
  Sn  Sn10  1  0.932268  0.067732  0.555719  1
  Sn  Sn11  1  0.067719  0.932281  0.443329  1
  Sn  Sn12  1  0.720126  0.279874  0.750000  1
  Sn  Sn13  1  0.280113  0.719887  0.250000  1
