# generated using pymatgen
data_RuW2Br9
_symmetry_space_group_name_H-M   'P 1'
_cell_length_a   8.74062886
_cell_length_b   10.92871500
_cell_length_c   9.36009987
_cell_angle_alpha   90.00000000
_cell_angle_beta   110.85194020
_cell_angle_gamma   90.00000000
_symmetry_Int_Tables_number   1
_chemical_formula_structural   RuW2Br9
_chemical_formula_sum   'Ru2 W4 Br18'
_cell_volume   835.55133730
_cell_formula_units_Z   2
loop_
 _symmetry_equiv_pos_site_id
 _symmetry_equiv_pos_as_xyz
  1  'x, y, z'
loop_
 _atom_site_type_symbol
 _atom_site_label
 _atom_site_symmetry_multiplicity
 _atom_site_fract_x
 _atom_site_fract_y
 _atom_site_fract_z
 _atom_site_occupancy
  Ru  Ru0  1  0.827520  0.250000  0.130831  1
  Ru  Ru1  1  0.172479  0.750000  0.869169  1
  W  W2  1  0.831395  0.131892  0.360845  1
  W  W3  1  0.831395  0.368107  0.360845  1
  W  W4  1  0.168605  0.631892  0.639155  1
  W  W5  1  0.168605  0.868108  0.639155  1
  Br  Br6  1  0.451469  0.750000  0.043070  1
  Br  Br7  1  0.099360  0.250000  0.117048  1
  Br  Br8  1  0.827769  0.017748  0.122149  1
  Br  Br9  1  0.827769  0.482252  0.122149  1
  Br  Br10  1  0.543383  0.089449  0.306981  1
  Br  Br11  1  0.543383  0.410551  0.306981  1
  Br  Br12  1  0.142586  0.750000  0.391775  1
  Br  Br13  1  0.143086  0.089452  0.477885  1
  Br  Br14  1  0.143086  0.410547  0.477885  1
  Br  Br15  1  0.856913  0.589452  0.522114  1
  Br  Br16  1  0.856913  0.910548  0.522114  1
  Br  Br17  1  0.857414  0.250000  0.608225  1
  Br  Br18  1  0.456617  0.589448  0.693019  1
  Br  Br19  1  0.456617  0.910552  0.693019  1
  Br  Br20  1  0.172231  0.517748  0.877851  1
  Br  Br21  1  0.172231  0.982253  0.877851  1
  Br  Br22  1  0.900639  0.750000  0.882952  1
  Br  Br23  1  0.548531  0.250000  0.956930  1
