# generated using pymatgen
data_TbLu5(GaIr2)6
_symmetry_space_group_name_H-M   'P 1'
_cell_length_a   5.54211300
_cell_length_b   5.54211169
_cell_length_c   15.74035100
_cell_angle_alpha   90.00000000
_cell_angle_beta   90.00000000
_cell_angle_gamma   119.99998992
_symmetry_Int_Tables_number   1
_chemical_formula_structural   TbLu5(GaIr2)6
_chemical_formula_sum   'Tb1 Lu5 Ga6 Ir12'
_cell_volume   418.69303715
_cell_formula_units_Z   1
loop_
 _symmetry_equiv_pos_site_id
 _symmetry_equiv_pos_as_xyz
  1  'x, y, z'
loop_
 _atom_site_type_symbol
 _atom_site_label
 _atom_site_symmetry_multiplicity
 _atom_site_fract_x
 _atom_site_fract_y
 _atom_site_fract_z
 _atom_site_occupancy
  Tb  Tb0  1  0.333333  0.666667  0.750000  1
  Lu  Lu1  1  0.333333  0.666667  0.539600  1
  Lu  Lu2  1  0.666667  0.333333  0.458921  1
  Lu  Lu3  1  0.666667  0.333333  0.041079  1
  Lu  Lu4  1  0.333333  0.666667  0.960400  1
  Lu  Lu5  1  0.666667  0.333333  0.250000  1
  Ga  Ga6  1  0.000000  0.000000  0.250000  1
  Ga  Ga7  1  0.000000  0.000000  0.750000  1
  Ga  Ga8  1  0.333333  0.666667  0.250000  1
  Ga  Ga9  1  0.666667  0.333333  0.750000  1
  Ga  Ga10  1  0.000000  0.000000  0.000229  1
  Ga  Ga11  1  0.000000  0.000000  0.499771  1
  Ir  Ir12  1  0.169836  0.339673  0.124477  1
  Ir  Ir13  1  0.829950  0.659902  0.875975  1
  Ir  Ir14  1  0.660327  0.830164  0.124477  1
  Ir  Ir15  1  0.829950  0.659902  0.624025  1
  Ir  Ir16  1  0.340098  0.170050  0.875975  1
  Ir  Ir17  1  0.169836  0.339673  0.375523  1
  Ir  Ir18  1  0.169836  0.830164  0.124477  1
  Ir  Ir19  1  0.340098  0.170050  0.624025  1
  Ir  Ir20  1  0.829950  0.170050  0.875975  1
  Ir  Ir21  1  0.660327  0.830164  0.375523  1
  Ir  Ir22  1  0.829950  0.170050  0.624025  1
  Ir  Ir23  1  0.169836  0.830164  0.375523  1
