# generated using pymatgen
data_Pr4ZnGa23Pd2
_symmetry_space_group_name_H-M   'P 1'
_cell_length_a   6.16185713
_cell_length_b   6.16189613
_cell_length_c   15.58301830
_cell_angle_alpha   89.98453754
_cell_angle_beta   89.98453749
_cell_angle_gamma   90.11450919
_symmetry_Int_Tables_number   1
_chemical_formula_structural   Pr4ZnGa23Pd2
_chemical_formula_sum   'Pr4 Zn1 Ga23 Pd2'
_cell_volume   591.66608985
_cell_formula_units_Z   1
loop_
 _symmetry_equiv_pos_site_id
 _symmetry_equiv_pos_as_xyz
  1  'x, y, z'
loop_
 _atom_site_type_symbol
 _atom_site_label
 _atom_site_symmetry_multiplicity
 _atom_site_fract_x
 _atom_site_fract_y
 _atom_site_fract_z
 _atom_site_occupancy
  Pr  Pr0  1  0.750184  0.250188  0.246168  1
  Pr  Pr1  1  0.250016  0.750016  0.245798  1
  Pr  Pr2  1  0.248501  0.748501  0.754135  1
  Pr  Pr3  1  0.751590  0.251589  0.754186  1
  Zn  Zn4  1  0.499870  0.999869  0.910480  1
  Ga  Ga5  1  0.252039  0.248034  0.186928  1
  Ga  Ga6  1  0.748033  0.752041  0.186928  1
  Ga  Ga7  1  0.745502  0.754786  0.814143  1
  Ga  Ga8  1  0.254787  0.245502  0.814144  1
  Ga  Ga9  1  0.250281  0.249414  0.345914  1
  Ga  Ga10  1  0.749413  0.750283  0.345914  1
  Ga  Ga11  1  0.750185  0.749648  0.654871  1
  Ga  Ga12  1  0.249648  0.250185  0.654871  1
  Ga  Ga13  1  0.999891  0.000124  0.911902  1
  Ga  Ga14  1  0.500125  0.499891  0.911903  1
  Ga  Ga15  1  0.999995  0.499995  0.909901  1
  Ga  Ga16  1  0.499918  0.999919  0.085392  1
  Ga  Ga17  1  0.000133  0.999977  0.088147  1
  Ga  Ga18  1  0.499978  0.500133  0.088147  1
  Ga  Ga19  1  0.999581  0.499582  0.090362  1
  Ga  Ga20  1  0.582536  0.082538  0.431223  1
  Ga  Ga21  1  0.083298  0.916616  0.431315  1
  Ga  Ga22  1  0.416616  0.583298  0.431316  1
  Ga  Ga23  1  0.917971  0.417972  0.430962  1
  Ga  Ga24  1  0.420623  0.920623  0.568525  1
  Ga  Ga25  1  0.920561  0.079017  0.568191  1
  Ga  Ga26  1  0.579019  0.420559  0.568191  1
  Ga  Ga27  1  0.079971  0.579970  0.568201  1
  Pd  Pd28  1  0.753661  0.253652  0.000822  1
  Pd  Pd29  1  0.246074  0.746077  0.001020  1
