# generated using pymatgen
data_Dy6Sc4(InBi)3
_symmetry_space_group_name_H-M   'P 1'
_cell_length_a   8.89820000
_cell_length_b   8.89603777
_cell_length_c   6.24476400
_cell_angle_alpha   90.00000000
_cell_angle_beta   90.00000000
_cell_angle_gamma   120.00803308
_symmetry_Int_Tables_number   1
_chemical_formula_structural   Dy6Sc4(InBi)3
_chemical_formula_sum   'Dy6 Sc4 In3 Bi3'
_cell_volume   428.06555482
_cell_formula_units_Z   1
loop_
 _symmetry_equiv_pos_site_id
 _symmetry_equiv_pos_as_xyz
  1  'x, y, z'
loop_
 _atom_site_type_symbol
 _atom_site_label
 _atom_site_symmetry_multiplicity
 _atom_site_fract_x
 _atom_site_fract_y
 _atom_site_fract_z
 _atom_site_occupancy
  Dy  Dy0  1  0.993570  0.755898  0.750000  1
  Dy  Dy1  1  0.993857  0.234443  0.250000  1
  Dy  Dy2  1  0.759414  0.765557  0.250000  1
  Dy  Dy3  1  0.763802  0.000000  0.750000  1
  Dy  Dy4  1  0.237671  0.244102  0.750000  1
  Dy  Dy5  1  0.241973  0.000000  0.250000  1
  Sc  Sc6  1  0.335579  0.666157  0.502947  1
  Sc  Sc7  1  0.669422  0.333843  0.997053  1
  Sc  Sc8  1  0.669422  0.333843  0.502947  1
  Sc  Sc9  1  0.335579  0.666157  0.997053  1
  In  In10  1  0.001228  0.400199  0.750000  1
  In  In11  1  0.601030  0.599801  0.750000  1
  In  In12  1  0.599131  0.000000  0.250000  1
  Bi  Bi13  1  0.397356  0.000000  0.750000  1
  Bi  Bi14  1  0.399623  0.398279  0.250000  1
  Bi  Bi15  1  0.001343  0.601721  0.250000  1
