# generated using pymatgen
data_NdDy2Er5Cd2PdPt
_symmetry_space_group_name_H-M   'P 1'
_cell_length_a   9.67086264
_cell_length_b   9.67086259
_cell_length_c   9.65256400
_cell_angle_alpha   60.06257849
_cell_angle_beta   60.06257865
_cell_angle_gamma   59.87485219
_symmetry_Int_Tables_number   1
_chemical_formula_structural   NdDy2Er5Cd2PdPt
_chemical_formula_sum   'Nd2 Dy4 Er10 Cd4 Pd2 Pt2'
_cell_volume   638.34438964
_cell_formula_units_Z   2
loop_
 _symmetry_equiv_pos_site_id
 _symmetry_equiv_pos_as_xyz
  1  'x, y, z'
loop_
 _atom_site_type_symbol
 _atom_site_label
 _atom_site_symmetry_multiplicity
 _atom_site_fract_x
 _atom_site_fract_y
 _atom_site_fract_z
 _atom_site_occupancy
  Nd  Nd0  1  0.567675  0.567675  0.932325  1
  Nd  Nd1  1  0.932688  0.932688  0.567312  1
  Dy  Dy2  1  0.937951  0.562477  0.561902  1
  Dy  Dy3  1  0.562477  0.937951  0.937669  1
  Dy  Dy4  1  0.562477  0.937951  0.561902  1
  Dy  Dy5  1  0.937951  0.562477  0.937669  1
  Er  Er6  1  0.352409  0.352409  0.349202  1
  Er  Er7  1  0.352409  0.352409  0.945979  1
  Er  Er8  1  0.353923  0.942958  0.351560  1
  Er  Er9  1  0.942958  0.353923  0.351560  1
  Er  Er10  1  0.809856  0.189172  0.189040  1
  Er  Er11  1  0.189172  0.809856  0.811932  1
  Er  Er12  1  0.189172  0.809856  0.189040  1
  Er  Er13  1  0.809856  0.189172  0.811932  1
  Er  Er14  1  0.189420  0.189420  0.810580  1
  Er  Er15  1  0.811142  0.811142  0.188858  1
  Cd  Cd16  1  0.582157  0.582157  0.578196  1
  Cd  Cd17  1  0.582157  0.582157  0.257491  1
  Cd  Cd18  1  0.578335  0.256723  0.582471  1
  Cd  Cd19  1  0.256723  0.578335  0.582471  1
  Pd  Pd20  1  0.144170  0.144170  0.141721  1
  Pd  Pd21  1  0.144170  0.144170  0.569939  1
  Pt  Pt22  1  0.140442  0.570307  0.144626  1
  Pt  Pt23  1  0.570307  0.140442  0.144626  1
