# generated using pymatgen
data_Zn22Fe2Rh
_symmetry_space_group_name_H-M   'P 1'
_cell_length_a   7.72943283
_cell_length_b   7.72943405
_cell_length_c   7.75169714
_cell_angle_alpha   72.34989419
_cell_angle_beta   72.34989574
_cell_angle_gamma   58.16105867
_symmetry_Int_Tables_number   1
_chemical_formula_structural   Zn22Fe2Rh
_chemical_formula_sum   'Zn22 Fe2 Rh1'
_cell_volume   368.99784685
_cell_formula_units_Z   1
loop_
 _symmetry_equiv_pos_site_id
 _symmetry_equiv_pos_as_xyz
  1  'x, y, z'
loop_
 _atom_site_type_symbol
 _atom_site_label
 _atom_site_symmetry_multiplicity
 _atom_site_fract_x
 _atom_site_fract_y
 _atom_site_fract_z
 _atom_site_occupancy
  Zn  Zn0  1  0.342234  0.745493  0.311383  1
  Zn  Zn1  1  0.662649  0.253976  0.683014  1
  Zn  Zn2  1  0.253976  0.662649  0.683014  1
  Zn  Zn3  1  0.745493  0.342234  0.311383  1
  Zn  Zn4  1  0.678230  0.324140  0.002337  1
  Zn  Zn5  1  0.324140  0.678230  0.002337  1
  Zn  Zn6  1  0.830350  0.830350  0.783392  1
  Zn  Zn7  1  0.167388  0.167388  0.220584  1
  Zn  Zn8  1  0.976631  0.976631  0.176944  1
  Zn  Zn9  1  0.021965  0.021965  0.824837  1
  Zn  Zn10  1  0.352949  0.352949  0.276528  1
  Zn  Zn11  1  0.649994  0.649994  0.725019  1
  Zn  Zn12  1  0.685279  0.685279  0.375997  1
  Zn  Zn13  1  0.311847  0.311847  0.623509  1
  Zn  Zn14  1  0.663394  0.023652  0.463788  1
  Zn  Zn15  1  0.337696  0.976201  0.535908  1
  Zn  Zn16  1  0.976201  0.337696  0.535908  1
  Zn  Zn17  1  0.023652  0.663394  0.463788  1
  Zn  Zn18  1  0.622948  0.992630  0.098942  1
  Zn  Zn19  1  0.384065  0.997122  0.900206  1
  Zn  Zn20  1  0.997122  0.384065  0.900206  1
  Zn  Zn21  1  0.992630  0.622948  0.098942  1
  Fe  Fe22  1  0.656037  0.656037  0.057706  1
  Fe  Fe23  1  0.999892  0.999892  0.500579  1
  Rh  Rh24  1  0.343239  0.343239  0.943751  1
