# generated using pymatgen
data_Ho5Lu(AlC3)2
_symmetry_space_group_name_H-M   'P 1'
_cell_length_a   3.53627700
_cell_length_b   6.98398653
_cell_length_c   9.93356373
_cell_angle_alpha   90.16837586
_cell_angle_beta   90.00000000
_cell_angle_gamma   90.00000000
_symmetry_Int_Tables_number   1
_chemical_formula_structural   Ho5Lu(AlC3)2
_chemical_formula_sum   'Ho5 Lu1 Al2 C6'
_cell_volume   245.33125294
_cell_formula_units_Z   1
loop_
 _symmetry_equiv_pos_site_id
 _symmetry_equiv_pos_as_xyz
  1  'x, y, z'
loop_
 _atom_site_type_symbol
 _atom_site_label
 _atom_site_symmetry_multiplicity
 _atom_site_fract_x
 _atom_site_fract_y
 _atom_site_fract_z
 _atom_site_occupancy
  Ho  Ho0  1  0.500000  0.491293  0.798481  1
  Ho  Ho1  1  0.500000  0.989756  0.200212  1
  Ho  Ho2  1  0.500000  0.010513  0.800742  1
  Ho  Ho3  1  0.000000  0.749262  0.458417  1
  Ho  Ho4  1  0.000000  0.249323  0.541434  1
  Lu  Lu5  1  0.500000  0.514092  0.201604  1
  Al  Al6  1  0.000000  0.745003  0.005639  1
  Al  Al7  1  0.000000  0.256508  0.996484  1
  C  C8  1  0.500000  0.508044  0.564005  1
  C  C9  1  0.500000  0.489664  0.430998  1
  C  C10  1  0.500000  0.990021  0.566807  1
  C  C11  1  0.500000  0.008694  0.433853  1
  C  C12  1  0.000000  0.746876  0.209040  1
  C  C13  1  0.000000  0.250950  0.792286  1
