# generated using pymatgen
data_TaBr(OF3)2
_symmetry_space_group_name_H-M   'P 1'
_cell_length_a   5.24887327
_cell_length_b   5.24887332
_cell_length_c   6.09083150
_cell_angle_alpha   91.47573954
_cell_angle_beta   91.47573898
_cell_angle_gamma   88.44814000
_symmetry_Int_Tables_number   1
_chemical_formula_structural   TaBr(OF3)2
_chemical_formula_sum   'Ta1 Br1 O2 F6'
_cell_volume   167.63658765
_cell_formula_units_Z   1
loop_
 _symmetry_equiv_pos_site_id
 _symmetry_equiv_pos_as_xyz
  1  'x, y, z'
loop_
 _atom_site_type_symbol
 _atom_site_label
 _atom_site_symmetry_multiplicity
 _atom_site_fract_x
 _atom_site_fract_y
 _atom_site_fract_z
 _atom_site_occupancy
  Ta  Ta0  1  0.005814  0.005814  0.498155  1
  Br  Br1  1  0.493817  0.493817  0.138146  1
  O  O2  1  0.308649  0.308649  0.994634  1
  O  O3  1  0.663125  0.663125  0.982052  1
  F  F4  1  0.817462  0.192105  0.260962  1
  F  F5  1  0.192105  0.817462  0.260962  1
  F  F6  1  0.750794  0.750794  0.460715  1
  F  F7  1  0.260225  0.260225  0.481923  1
  F  F8  1  0.818054  0.189953  0.711226  1
  F  F9  1  0.189953  0.818054  0.711226  1
