# generated using pymatgen
data_SmDy2PtO7
_symmetry_space_group_name_H-M   'P 1'
_cell_length_a   6.49332436
_cell_length_b   6.49332393
_cell_length_c   7.49087400
_cell_angle_alpha   90.00000000
_cell_angle_beta   90.00000000
_cell_angle_gamma   109.30889029
_symmetry_Int_Tables_number   1
_chemical_formula_structural   SmDy2PtO7
_chemical_formula_sum   'Sm2 Dy4 Pt2 O14'
_cell_volume   298.07356702
_cell_formula_units_Z   2
loop_
 _symmetry_equiv_pos_site_id
 _symmetry_equiv_pos_as_xyz
  1  'x, y, z'
loop_
 _atom_site_type_symbol
 _atom_site_label
 _atom_site_symmetry_multiplicity
 _atom_site_fract_x
 _atom_site_fract_y
 _atom_site_fract_z
 _atom_site_occupancy
  Sm  Sm0  1  0.500000  0.500000  0.500000  1
  Sm  Sm1  1  0.500000  0.500000  0.000000  1
  Dy  Dy2  1  0.532711  0.999086  0.750000  1
  Dy  Dy3  1  0.999086  0.532711  0.250000  1
  Dy  Dy4  1  0.467289  0.000914  0.250000  1
  Dy  Dy5  1  0.000914  0.467289  0.750000  1
  Pt  Pt6  1  0.000000  0.000000  0.500000  1
  Pt  Pt7  1  0.000000  0.000000  0.000000  1
  O  O8  1  0.675425  0.925283  0.473634  1
  O  O9  1  0.925283  0.675425  0.526366  1
  O  O10  1  0.675425  0.925283  0.026366  1
  O  O11  1  0.925283  0.675425  0.973634  1
  O  O12  1  0.324575  0.074717  0.526366  1
  O  O13  1  0.074717  0.324575  0.473634  1
  O  O14  1  0.324575  0.074717  0.973634  1
  O  O15  1  0.074717  0.324575  0.026366  1
  O  O16  1  0.925418  0.074582  0.750000  1
  O  O17  1  0.074582  0.925418  0.250000  1
  O  O18  1  0.364900  0.635100  0.750000  1
  O  O19  1  0.635100  0.364900  0.250000  1
  O  O20  1  0.639593  0.360407  0.750000  1
  O  O21  1  0.360407  0.639593  0.250000  1
