# generated using pymatgen
data_Sc5GaBiSe
_symmetry_space_group_name_H-M   'P 1'
_cell_length_a   7.41401100
_cell_length_b   8.52737100
_cell_length_c   11.15394100
_cell_angle_alpha   90.00000000
_cell_angle_beta   90.00000000
_cell_angle_gamma   90.00000000
_symmetry_Int_Tables_number   1
_chemical_formula_structural   Sc5GaBiSe
_chemical_formula_sum   'Sc20 Ga4 Bi4 Se4'
_cell_volume   705.17470770
_cell_formula_units_Z   4
loop_
 _symmetry_equiv_pos_site_id
 _symmetry_equiv_pos_as_xyz
  1  'x, y, z'
loop_
 _atom_site_type_symbol
 _atom_site_label
 _atom_site_symmetry_multiplicity
 _atom_site_fract_x
 _atom_site_fract_y
 _atom_site_fract_z
 _atom_site_occupancy
  Sc  Sc0  1  0.191680  0.056329  0.941067  1
  Sc  Sc1  1  0.309177  0.049129  0.428656  1
  Sc  Sc2  1  0.308320  0.443671  0.441067  1
  Sc  Sc3  1  0.340729  0.722025  0.714923  1
  Sc  Sc4  1  0.471622  0.751226  0.002548  1
  Sc  Sc5  1  0.147713  0.227646  0.213072  1
  Sc  Sc6  1  0.809177  0.950871  0.071344  1
  Sc  Sc7  1  0.647713  0.772354  0.286928  1
  Sc  Sc8  1  0.028378  0.748774  0.502548  1
  Sc  Sc9  1  0.691680  0.943671  0.558933  1
  Sc  Sc10  1  0.190823  0.450871  0.928656  1
  Sc  Sc11  1  0.352287  0.272354  0.713072  1
  Sc  Sc12  1  0.159271  0.777975  0.214923  1
  Sc  Sc13  1  0.971622  0.248774  0.497452  1
  Sc  Sc14  1  0.690823  0.549129  0.571344  1
  Sc  Sc15  1  0.659271  0.222025  0.285077  1
  Sc  Sc16  1  0.808320  0.556329  0.058933  1
  Sc  Sc17  1  0.528378  0.251226  0.997452  1
  Sc  Sc18  1  0.840729  0.277975  0.785077  1
  Sc  Sc19  1  0.852287  0.727646  0.786928  1
  Ga  Ga20  1  0.066134  0.492691  0.666748  1
  Ga  Ga21  1  0.566134  0.507309  0.833252  1
  Ga  Ga22  1  0.933866  0.992691  0.333252  1
  Ga  Ga23  1  0.433866  0.007309  0.166748  1
  Bi  Bi24  1  0.571907  0.991626  0.820418  1
  Bi  Bi25  1  0.428093  0.491626  0.179582  1
  Bi  Bi26  1  0.071907  0.008374  0.679582  1
  Bi  Bi27  1  0.928093  0.508374  0.320418  1
  Se  Se28  1  0.421123  0.747317  0.479247  1
  Se  Se29  1  0.078877  0.752683  0.979247  1
  Se  Se30  1  0.578877  0.247317  0.520753  1
  Se  Se31  1  0.921123  0.252683  0.020753  1
