# generated using pymatgen
data_Tb16Cd4TcNi3
_symmetry_space_group_name_H-M   'P 1'
_cell_length_a   9.61587995
_cell_length_b   9.61587966
_cell_length_c   9.61587951
_cell_angle_alpha   59.44735598
_cell_angle_beta   59.44735842
_cell_angle_gamma   59.44735697
_symmetry_Int_Tables_number   1
_chemical_formula_structural   Tb16Cd4TcNi3
_chemical_formula_sum   'Tb16 Cd4 Tc1 Ni3'
_cell_volume   620.80791645
_cell_formula_units_Z   1
loop_
 _symmetry_equiv_pos_site_id
 _symmetry_equiv_pos_as_xyz
  1  'x, y, z'
loop_
 _atom_site_type_symbol
 _atom_site_label
 _atom_site_symmetry_multiplicity
 _atom_site_fract_x
 _atom_site_fract_y
 _atom_site_fract_z
 _atom_site_occupancy
  Tb  Tb0  1  0.347607  0.347607  0.347607  1
  Tb  Tb1  1  0.351142  0.351142  0.954079  1
  Tb  Tb2  1  0.351142  0.954079  0.351142  1
  Tb  Tb3  1  0.954079  0.351142  0.351142  1
  Tb  Tb4  1  0.810580  0.188069  0.188069  1
  Tb  Tb5  1  0.187408  0.810706  0.810706  1
  Tb  Tb6  1  0.188069  0.810580  0.188069  1
  Tb  Tb7  1  0.810706  0.187408  0.810706  1
  Tb  Tb8  1  0.188069  0.188069  0.810580  1
  Tb  Tb9  1  0.810706  0.810706  0.187408  1
  Tb  Tb10  1  0.936050  0.565165  0.565165  1
  Tb  Tb11  1  0.555835  0.938935  0.938935  1
  Tb  Tb12  1  0.565165  0.936050  0.565165  1
  Tb  Tb13  1  0.938935  0.555835  0.938935  1
  Tb  Tb14  1  0.565165  0.565165  0.936050  1
  Tb  Tb15  1  0.938935  0.938935  0.555835  1
  Cd  Cd16  1  0.579964  0.579964  0.579964  1
  Cd  Cd17  1  0.579962  0.579962  0.255985  1
  Cd  Cd18  1  0.579962  0.255985  0.579962  1
  Cd  Cd19  1  0.255985  0.579962  0.579962  1
  Tc  Tc20  1  0.143307  0.143307  0.143307  1
  Ni  Ni21  1  0.142932  0.142932  0.575364  1
  Ni  Ni22  1  0.142932  0.575364  0.142932  1
  Ni  Ni23  1  0.575364  0.142932  0.142932  1
