# generated using pymatgen
data_Na2H6PdPt
_symmetry_space_group_name_H-M   'P 1'
_cell_length_a   5.07266700
_cell_length_b   5.07269426
_cell_length_c   5.07266500
_cell_angle_alpha   120.00001132
_cell_angle_beta   89.99977410
_cell_angle_gamma   120.00066344
_symmetry_Int_Tables_number   1
_chemical_formula_structural   Na2H6PdPt
_chemical_formula_sum   'Na2 H6 Pd1 Pt1'
_cell_volume   92.29807696
_cell_formula_units_Z   1
loop_
 _symmetry_equiv_pos_site_id
 _symmetry_equiv_pos_as_xyz
  1  'x, y, z'
loop_
 _atom_site_type_symbol
 _atom_site_label
 _atom_site_symmetry_multiplicity
 _atom_site_fract_x
 _atom_site_fract_y
 _atom_site_fract_z
 _atom_site_occupancy
  Na  Na0  1  0.750000  0.500000  0.250001  1
  Na  Na1  1  0.249999  0.499999  0.749999  1
  H  H2  1  0.241696  0.999999  0.241696  1
  H  H3  1  0.241697  0.483392  0.241697  1
  H  H4  1  0.758304  0.999999  0.241695  1
  H  H5  1  0.758303  0.516608  0.758303  1
  H  H6  1  0.241696  0.000001  0.758305  1
  H  H7  1  0.758305  0.000000  0.758305  1
  Pd  Pd8  1  0.499995  0.999993  0.499992  1
  Pt  Pt9  1  0.999998  0.000001  0.000005  1
