# generated using pymatgen
data_Er4ThNi19
_symmetry_space_group_name_H-M   'P 1'
_cell_length_a   4.90175429
_cell_length_b   4.90175328
_cell_length_c   16.38256852
_cell_angle_alpha   81.39609875
_cell_angle_beta   81.39610064
_cell_angle_gamma   60.00001014
_symmetry_Int_Tables_number   1
_chemical_formula_structural   Er4ThNi19
_chemical_formula_sum   'Er4 Th1 Ni19'
_cell_volume   335.76625906
_cell_formula_units_Z   1
loop_
 _symmetry_equiv_pos_site_id
 _symmetry_equiv_pos_as_xyz
  1  'x, y, z'
loop_
 _atom_site_type_symbol
 _atom_site_label
 _atom_site_symmetry_multiplicity
 _atom_site_fract_x
 _atom_site_fract_y
 _atom_site_fract_z
 _atom_site_occupancy
  Er  Er0  1  0.079601  0.079601  0.761197  1
  Er  Er1  1  0.920399  0.920399  0.238803  1
  Er  Er2  1  0.152191  0.152191  0.543427  1
  Er  Er3  1  0.847809  0.847809  0.456573  1
  Th  Th4  1  0.000000  0.000000  0.000000  1
  Ni  Ni5  1  0.500000  0.500000  0.500000  1
  Ni  Ni6  1  0.250244  0.250244  0.249266  1
  Ni  Ni7  1  0.749756  0.749756  0.750734  1
  Ni  Ni8  1  0.333330  0.333330  0.000011  1
  Ni  Ni9  1  0.666670  0.666670  0.999989  1
  Ni  Ni10  1  0.416292  0.416292  0.751125  1
  Ni  Ni11  1  0.583708  0.583708  0.248875  1
  Ni  Ni12  1  0.123069  0.624676  0.627580  1
  Ni  Ni13  1  0.624676  0.624676  0.627580  1
  Ni  Ni14  1  0.624676  0.123069  0.627580  1
  Ni  Ni15  1  0.876931  0.375324  0.372420  1
  Ni  Ni16  1  0.375324  0.375324  0.372420  1
  Ni  Ni17  1  0.375324  0.876931  0.372420  1
  Ni  Ni18  1  0.041631  0.541795  0.874780  1
  Ni  Ni19  1  0.541795  0.541795  0.874780  1
  Ni  Ni20  1  0.541795  0.041631  0.874780  1
  Ni  Ni21  1  0.958369  0.458205  0.125220  1
  Ni  Ni22  1  0.458205  0.458205  0.125220  1
  Ni  Ni23  1  0.458205  0.958369  0.125220  1
