# generated using pymatgen
data_Y2Al20Ru3Rh
_symmetry_space_group_name_H-M   'P 1'
_cell_length_a   6.85331504
_cell_length_b   6.85994449
_cell_length_c   9.15621434
_cell_angle_alpha   90.14974506
_cell_angle_beta   90.15470481
_cell_angle_gamma   96.77676413
_symmetry_Int_Tables_number   1
_chemical_formula_structural   Y2Al20Ru3Rh
_chemical_formula_sum   'Y2 Al20 Ru3 Rh1'
_cell_volume   427.45352273
_cell_formula_units_Z   1
loop_
 _symmetry_equiv_pos_site_id
 _symmetry_equiv_pos_as_xyz
  1  'x, y, z'
loop_
 _atom_site_type_symbol
 _atom_site_label
 _atom_site_symmetry_multiplicity
 _atom_site_fract_x
 _atom_site_fract_y
 _atom_site_fract_z
 _atom_site_occupancy
  Y  Y0  1  0.871517  0.126727  0.750561  1
  Y  Y1  1  0.128483  0.873273  0.249439  1
  Al  Al2  1  0.620960  0.376094  0.550673  1
  Al  Al3  1  0.379040  0.623906  0.449327  1
  Al  Al4  1  0.377187  0.623331  0.049566  1
  Al  Al5  1  0.622813  0.376669  0.950434  1
  Al  Al6  1  0.227445  0.225715  0.499313  1
  Al  Al7  1  0.772555  0.774285  0.500687  1
  Al  Al8  1  0.773757  0.774190  0.999900  1
  Al  Al9  1  0.226243  0.225810  0.000100  1
  Al  Al10  1  0.844099  0.156435  0.099797  1
  Al  Al11  1  0.155901  0.843565  0.900203  1
  Al  Al12  1  0.157376  0.844808  0.601178  1
  Al  Al13  1  0.842624  0.155192  0.398822  1
  Al  Al14  1  0.858458  0.587223  0.750840  1
  Al  Al15  1  0.141542  0.412777  0.249160  1
  Al  Al16  1  0.412936  0.140618  0.750418  1
  Al  Al17  1  0.587064  0.859382  0.249582  1
  Al  Al18  1  0.222877  0.480609  0.752242  1
  Al  Al19  1  0.777123  0.519391  0.247758  1
  Al  Al20  1  0.519227  0.778747  0.749797  1
  Al  Al21  1  0.480773  0.221253  0.250203  1
  Ru  Ru22  1  0.000000  0.500000  0.000000  1
  Ru  Ru23  1  0.500000  0.000000  0.000000  1
  Ru  Ru24  1  0.500000  0.000000  0.500000  1
  Rh  Rh25  1  0.000000  0.500000  0.500000  1
