# generated using pymatgen
data_Ta5NbCo16Si6Ge
_symmetry_space_group_name_H-M   'P 1'
_cell_length_a   7.91805135
_cell_length_b   7.92982882
_cell_length_c   7.91458505
_cell_angle_alpha   59.96521521
_cell_angle_beta   60.02124244
_cell_angle_gamma   59.92186105
_symmetry_Int_Tables_number   1
_chemical_formula_structural   Ta5NbCo16Si6Ge
_chemical_formula_sum   'Ta5 Nb1 Co16 Si6 Ge1'
_cell_volume   351.15070520
_cell_formula_units_Z   1
loop_
 _symmetry_equiv_pos_site_id
 _symmetry_equiv_pos_as_xyz
  1  'x, y, z'
loop_
 _atom_site_type_symbol
 _atom_site_label
 _atom_site_symmetry_multiplicity
 _atom_site_fract_x
 _atom_site_fract_y
 _atom_site_fract_z
 _atom_site_occupancy
  Ta  Ta0  1  0.702166  0.297764  0.702518  1
  Ta  Ta1  1  0.299539  0.703637  0.700461  1
  Ta  Ta2  1  0.297482  0.702449  0.297834  1
  Ta  Ta3  1  0.299127  0.296196  0.700873  1
  Ta  Ta4  1  0.700622  0.704209  0.299378  1
  Nb  Nb5  1  0.700241  0.296662  0.299759  1
  Co  Co6  1  0.879544  0.886111  0.879561  1
  Co  Co7  1  0.998865  0.331731  0.338897  1
  Co  Co8  1  0.119607  0.118131  0.644046  1
  Co  Co9  1  0.661103  0.669492  0.001135  1
  Co  Co10  1  0.338822  0.331705  0.997942  1
  Co  Co11  1  0.665471  0.666441  0.665476  1
  Co  Co12  1  0.333483  0.333728  0.334581  1
  Co  Co13  1  0.880779  0.881112  0.355793  1
  Co  Co14  1  0.334524  0.997388  0.334529  1
  Co  Co15  1  0.121203  0.113400  0.120183  1
  Co  Co16  1  0.879817  0.354785  0.878797  1
  Co  Co17  1  0.644207  0.117685  0.119221  1
  Co  Co18  1  0.120439  0.645217  0.120456  1
  Co  Co19  1  0.665419  0.001792  0.666517  1
  Co  Co20  1  0.355954  0.881782  0.880393  1
  Co  Co21  1  0.002058  0.668468  0.661178  1
  Si  Si22  1  0.500087  0.500129  0.999952  1
  Si  Si23  1  0.999733  0.999952  0.000267  1
  Si  Si24  1  0.500073  0.999939  0.499927  1
  Si  Si25  1  0.000048  0.000168  0.499913  1
  Si  Si26  1  0.999884  0.500078  0.499924  1
  Si  Si27  1  0.500076  0.999886  0.000116  1
  Ge  Ge28  1  0.999627  0.499964  0.000373  1
