# generated using pymatgen
data_Yb8IrRuO12
_symmetry_space_group_name_H-M   'P 1'
_cell_length_a   6.45577431
_cell_length_b   6.45577519
_cell_length_c   6.45577614
_cell_angle_alpha   90.53468780
_cell_angle_beta   90.53468139
_cell_angle_gamma   90.53469392
_symmetry_Int_Tables_number   1
_chemical_formula_structural   Yb8IrRuO12
_chemical_formula_sum   'Yb8 Ir1 Ru1 O12'
_cell_volume   269.02219315
_cell_formula_units_Z   1
loop_
 _symmetry_equiv_pos_site_id
 _symmetry_equiv_pos_as_xyz
  1  'x, y, z'
loop_
 _atom_site_type_symbol
 _atom_site_label
 _atom_site_symmetry_multiplicity
 _atom_site_fract_x
 _atom_site_fract_y
 _atom_site_fract_z
 _atom_site_occupancy
  Yb  Yb0  1  0.614005  0.883373  0.252637  1
  Yb  Yb1  1  0.883373  0.252637  0.614005  1
  Yb  Yb2  1  0.749483  0.749483  0.749483  1
  Yb  Yb3  1  0.250517  0.250517  0.250517  1
  Yb  Yb4  1  0.747363  0.385995  0.116627  1
  Yb  Yb5  1  0.116627  0.747363  0.385995  1
  Yb  Yb6  1  0.385995  0.116627  0.747363  1
  Yb  Yb7  1  0.252637  0.614005  0.883373  1
  Ir  Ir8  1  0.500000  0.500000  0.500000  1
  Ru  Ru9  1  0.000000  0.000000  0.000000  1
  O  O10  1  0.579355  0.441224  0.801768  1
  O  O11  1  0.801768  0.579355  0.441224  1
  O  O12  1  0.441224  0.801768  0.579355  1
  O  O13  1  0.925833  0.702331  0.056193  1
  O  O14  1  0.056193  0.925833  0.702331  1
  O  O15  1  0.702331  0.056193  0.925833  1
  O  O16  1  0.420645  0.558776  0.198232  1
  O  O17  1  0.198232  0.420645  0.558776  1
  O  O18  1  0.558776  0.198232  0.420645  1
  O  O19  1  0.074167  0.297669  0.943807  1
  O  O20  1  0.297669  0.943807  0.074167  1
  O  O21  1  0.943807  0.074167  0.297669  1
