# generated using pymatgen
data_TbDyTm2Fe3Os5
_symmetry_space_group_name_H-M   'P 1'
_cell_length_a   5.24954891
_cell_length_b   5.29239439
_cell_length_c   9.12626753
_cell_angle_alpha   73.14480303
_cell_angle_beta   91.02915459
_cell_angle_gamma   120.27036373
_symmetry_Int_Tables_number   1
_chemical_formula_structural   TbDyTm2Fe3Os5
_chemical_formula_sum   'Tb1 Dy1 Tm2 Fe3 Os5'
_cell_volume   207.03851771
_cell_formula_units_Z   1
loop_
 _symmetry_equiv_pos_site_id
 _symmetry_equiv_pos_as_xyz
  1  'x, y, z'
loop_
 _atom_site_type_symbol
 _atom_site_label
 _atom_site_symmetry_multiplicity
 _atom_site_fract_x
 _atom_site_fract_y
 _atom_site_fract_z
 _atom_site_occupancy
  Tb  Tb0  1  0.875779  0.750244  0.375291  1
  Dy  Dy1  1  0.499201  0.999669  0.499862  1
  Tm  Tm2  1  0.378122  0.751921  0.874281  1
  Tm  Tm3  1  0.996903  0.998150  0.000604  1
  Fe  Fe4  1  0.687482  0.375008  0.937467  1
  Fe  Fe5  1  0.940927  0.377708  0.185510  1
  Fe  Fe6  1  0.434046  0.372318  0.689410  1
  Os  Os7  1  0.440482  0.376717  0.180988  1
  Os  Os8  1  0.934523  0.373285  0.694004  1
  Os  Os9  1  0.440482  0.882778  0.180988  1
  Os  Os10  1  0.934523  0.867232  0.694004  1
  Os  Os11  1  0.187529  0.374969  0.437591  1
