# generated using pymatgen
data_Dy4ZnRu7
_symmetry_space_group_name_H-M   'P 1'
_cell_length_a   5.32400129
_cell_length_b   5.32400127
_cell_length_c   8.78040402
_cell_angle_alpha   89.99355299
_cell_angle_beta   90.00644846
_cell_angle_gamma   119.95607248
_symmetry_Int_Tables_number   1
_chemical_formula_structural   Dy4ZnRu7
_chemical_formula_sum   'Dy4 Zn1 Ru7'
_cell_volume   215.63214220
_cell_formula_units_Z   1
loop_
 _symmetry_equiv_pos_site_id
 _symmetry_equiv_pos_as_xyz
  1  'x, y, z'
loop_
 _atom_site_type_symbol
 _atom_site_label
 _atom_site_symmetry_multiplicity
 _atom_site_fract_x
 _atom_site_fract_y
 _atom_site_fract_z
 _atom_site_occupancy
  Dy  Dy0  1  0.666727  0.333273  0.570633  1
  Dy  Dy1  1  0.333273  0.666727  0.429367  1
  Dy  Dy2  1  0.333277  0.666723  0.064213  1
  Dy  Dy3  1  0.666723  0.333277  0.935787  1
  Zn  Zn4  1  0.000000  0.000000  0.500000  1
  Ru  Ru5  1  0.000000  0.000000  0.000000  1
  Ru  Ru6  1  0.171365  0.342548  0.750608  1
  Ru  Ru7  1  0.171175  0.828825  0.750599  1
  Ru  Ru8  1  0.657452  0.828635  0.750608  1
  Ru  Ru9  1  0.828635  0.657452  0.249392  1
  Ru  Ru10  1  0.828825  0.171175  0.249401  1
  Ru  Ru11  1  0.342548  0.171365  0.249392  1
