# generated using pymatgen
data_BaFe3Sb12Rh
_symmetry_space_group_name_H-M   'P 1'
_cell_length_a   8.02359203
_cell_length_b   8.03837504
_cell_length_c   8.03837470
_cell_angle_alpha   109.50844971
_cell_angle_beta   109.43397329
_cell_angle_gamma   109.43396417
_symmetry_Int_Tables_number   1
_chemical_formula_structural   BaFe3Sb12Rh
_chemical_formula_sum   'Ba1 Fe3 Sb12 Rh1'
_cell_volume   399.28491125
_cell_formula_units_Z   1
loop_
 _symmetry_equiv_pos_site_id
 _symmetry_equiv_pos_as_xyz
  1  'x, y, z'
loop_
 _atom_site_type_symbol
 _atom_site_label
 _atom_site_symmetry_multiplicity
 _atom_site_fract_x
 _atom_site_fract_y
 _atom_site_fract_z
 _atom_site_occupancy
  Ba  Ba0  1  0.000000  0.000000  0.000000  1
  Fe  Fe1  1  0.000000  0.000000  0.500000  1
  Fe  Fe2  1  0.000000  0.500000  0.000000  1
  Fe  Fe3  1  0.500000  0.500000  0.500000  1
  Sb  Sb4  1  0.334811  0.181062  0.832548  1
  Sb  Sb5  1  0.665189  0.818938  0.167452  1
  Sb  Sb6  1  0.662931  0.498834  0.836412  1
  Sb  Sb7  1  0.337069  0.501166  0.163588  1
  Sb  Sb8  1  0.173482  0.836412  0.337578  1
  Sb  Sb9  1  0.826518  0.163588  0.662422  1
  Sb  Sb10  1  0.497736  0.832548  0.651486  1
  Sb  Sb11  1  0.502264  0.167452  0.348514  1
  Sb  Sb12  1  0.846250  0.348514  0.181062  1
  Sb  Sb13  1  0.153750  0.651486  0.818938  1
  Sb  Sb14  1  0.835903  0.662422  0.498834  1
  Sb  Sb15  1  0.164097  0.337578  0.501166  1
  Rh  Rh16  1  0.500000  0.000000  0.000000  1
