# generated using pymatgen
data_Tb4Nd8Th4Mg3CdIr4
_symmetry_space_group_name_H-M   'P 1'
_cell_length_a   9.94002825
_cell_length_b   9.95171793
_cell_length_c   9.97598400
_cell_angle_alpha   59.91931284
_cell_angle_beta   59.88027607
_cell_angle_gamma   60.02915328
_symmetry_Int_Tables_number   1
_chemical_formula_structural   Tb4Nd8Th4Mg3CdIr4
_chemical_formula_sum   'Tb4 Nd8 Th4 Mg3 Cd1 Ir4'
_cell_volume   696.88670162
_cell_formula_units_Z   1
loop_
 _symmetry_equiv_pos_site_id
 _symmetry_equiv_pos_as_xyz
  1  'x, y, z'
loop_
 _atom_site_type_symbol
 _atom_site_label
 _atom_site_symmetry_multiplicity
 _atom_site_fract_x
 _atom_site_fract_y
 _atom_site_fract_z
 _atom_site_occupancy
  Tb  Tb0  1  0.812481  0.187381  0.187364  1
  Tb  Tb1  1  0.188846  0.811639  0.811975  1
  Tb  Tb2  1  0.188846  0.811639  0.187541  1
  Tb  Tb3  1  0.812481  0.187381  0.812775  1
  Nd  Nd4  1  0.187699  0.187256  0.812523  1
  Nd  Nd5  1  0.815328  0.815015  0.184829  1
  Nd  Nd6  1  0.941472  0.560524  0.562035  1
  Nd  Nd7  1  0.562326  0.939161  0.936182  1
  Nd  Nd8  1  0.562326  0.939161  0.562330  1
  Nd  Nd9  1  0.941472  0.560524  0.935969  1
  Nd  Nd10  1  0.563864  0.563339  0.936398  1
  Nd  Nd11  1  0.940408  0.937192  0.561200  1
  Th  Th12  1  0.347011  0.346918  0.345127  1
  Th  Th13  1  0.347011  0.346918  0.960944  1
  Th  Th14  1  0.345016  0.958328  0.348328  1
  Th  Th15  1  0.957904  0.345332  0.348382  1
  Mg  Mg16  1  0.574970  0.578325  0.580623  1
  Mg  Mg17  1  0.574970  0.578325  0.266079  1
  Mg  Mg18  1  0.576374  0.265975  0.578824  1
  Cd  Cd19  1  0.260188  0.580651  0.579580  1
  Ir  Ir20  1  0.142392  0.142399  0.148804  1
  Ir  Ir21  1  0.142392  0.142399  0.566403  1
  Ir  Ir22  1  0.147699  0.566455  0.142922  1
  Ir  Ir23  1  0.566523  0.147760  0.142858  1
