# generated using pymatgen
data_Nd5Tm3(P3Pd4)4
_symmetry_space_group_name_H-M   'P 1'
_cell_length_a   13.20672400
_cell_length_b   13.20672271
_cell_length_c   4.07250200
_cell_angle_alpha   90.00000000
_cell_angle_beta   90.00000000
_cell_angle_gamma   120.00000322
_symmetry_Int_Tables_number   1
_chemical_formula_structural   Nd5Tm3(P3Pd4)4
_chemical_formula_sum   'Nd5 Tm3 P12 Pd16'
_cell_volume   615.15149710
_cell_formula_units_Z   1
loop_
 _symmetry_equiv_pos_site_id
 _symmetry_equiv_pos_as_xyz
  1  'x, y, z'
loop_
 _atom_site_type_symbol
 _atom_site_label
 _atom_site_symmetry_multiplicity
 _atom_site_fract_x
 _atom_site_fract_y
 _atom_site_fract_z
 _atom_site_occupancy
  Nd  Nd0  1  0.187078  0.187078  0.500000  1
  Nd  Nd1  1  0.812922  0.000000  0.500000  1
  Nd  Nd2  1  0.000000  0.812922  0.500000  1
  Nd  Nd3  1  0.333333  0.666667  0.000000  1
  Nd  Nd4  1  0.666667  0.333333  0.000000  1
  Tm  Tm5  1  0.557688  0.557688  0.000000  1
  Tm  Tm6  1  0.442312  0.000000  0.000000  1
  Tm  Tm7  1  0.000000  0.442312  0.000000  1
  P  P8  1  0.825005  0.825005  0.000000  1
  P  P9  1  0.174995  0.000000  0.000000  1
  P  P10  1  0.000000  0.174995  0.000000  1
  P  P11  1  0.168376  0.477736  0.500000  1
  P  P12  1  0.522264  0.690639  0.500000  1
  P  P13  1  0.309361  0.831624  0.500000  1
  P  P14  1  0.690639  0.522264  0.500000  1
  P  P15  1  0.831624  0.309361  0.500000  1
  P  P16  1  0.477736  0.168376  0.500000  1
  P  P17  1  0.354305  0.354305  0.000000  1
  P  P18  1  0.645695  0.000000  0.000000  1
  P  P19  1  0.000000  0.645695  0.000000  1
  Pd  Pd20  1  0.725931  0.725931  0.500000  1
  Pd  Pd21  1  0.274069  0.000000  0.500000  1
  Pd  Pd22  1  0.000000  0.274069  0.500000  1
  Pd  Pd23  1  0.187045  0.379332  0.000000  1
  Pd  Pd24  1  0.620668  0.807713  0.000000  1
  Pd  Pd25  1  0.192287  0.812955  0.000000  1
  Pd  Pd26  1  0.807713  0.620668  0.000000  1
  Pd  Pd27  1  0.812955  0.192287  0.000000  1
  Pd  Pd28  1  0.379332  0.187045  0.000000  1
  Pd  Pd29  1  0.360739  0.489011  0.500000  1
  Pd  Pd30  1  0.510989  0.871728  0.500000  1
  Pd  Pd31  1  0.128272  0.639261  0.500000  1
  Pd  Pd32  1  0.871728  0.510989  0.500000  1
  Pd  Pd33  1  0.639261  0.128272  0.500000  1
  Pd  Pd34  1  0.489011  0.360739  0.500000  1
  Pd  Pd35  1  0.000000  0.000000  0.000000  1
