# generated using pymatgen
data_La5FeCoB6
_symmetry_space_group_name_H-M   'P 1'
_cell_length_a   9.06304053
_cell_length_b   9.06304010
_cell_length_c   9.06304045
_cell_angle_alpha   35.08639592
_cell_angle_beta   35.08639888
_cell_angle_gamma   35.08639062
_symmetry_Int_Tables_number   1
_chemical_formula_structural   La5FeCoB6
_chemical_formula_sum   'La5 Fe1 Co1 B6'
_cell_volume   219.64910516
_cell_formula_units_Z   1
loop_
 _symmetry_equiv_pos_site_id
 _symmetry_equiv_pos_as_xyz
  1  'x, y, z'
loop_
 _atom_site_type_symbol
 _atom_site_label
 _atom_site_symmetry_multiplicity
 _atom_site_fract_x
 _atom_site_fract_y
 _atom_site_fract_z
 _atom_site_occupancy
  La  La0  1  0.582100  0.582100  0.582100  1
  La  La1  1  0.418047  0.418047  0.418047  1
  La  La2  1  0.750760  0.750760  0.750760  1
  La  La3  1  0.249568  0.249568  0.249568  1
  La  La4  1  0.997842  0.997842  0.997842  1
  Fe  Fe5  1  0.876650  0.876650  0.876650  1
  Co  Co6  1  0.123332  0.123332  0.123332  1
  B  B7  1  0.500367  0.832998  0.167486  1
  B  B8  1  0.167486  0.500367  0.832998  1
  B  B9  1  0.832998  0.167486  0.500367  1
  B  B10  1  0.500367  0.167486  0.832998  1
  B  B11  1  0.832998  0.500367  0.167486  1
  B  B12  1  0.167486  0.832998  0.500367  1
