# generated using pymatgen
data_AlAsBr6
_symmetry_space_group_name_H-M   'P 1'
_cell_length_a   9.72049448
_cell_length_b   9.72049489
_cell_length_c   7.08241100
_cell_angle_alpha   70.54132617
_cell_angle_beta   70.54131906
_cell_angle_gamma   79.81130515
_symmetry_Int_Tables_number   1
_chemical_formula_structural   AlAsBr6
_chemical_formula_sum   'Al2 As2 Br12'
_cell_volume   593.30154890
_cell_formula_units_Z   2
loop_
 _symmetry_equiv_pos_site_id
 _symmetry_equiv_pos_as_xyz
  1  'x, y, z'
loop_
 _atom_site_type_symbol
 _atom_site_label
 _atom_site_symmetry_multiplicity
 _atom_site_fract_x
 _atom_site_fract_y
 _atom_site_fract_z
 _atom_site_occupancy
  Al  Al0  1  0.196213  0.196213  0.659680  1
  Al  Al1  1  0.803787  0.803787  0.340320  1
  As  As2  1  0.802258  0.197742  0.000000  1
  As  As3  1  0.197742  0.802258  0.000000  1
  Br  Br4  1  0.214763  0.578805  0.929092  1
  Br  Br5  1  0.421195  0.785237  0.070908  1
  Br  Br6  1  0.785237  0.421195  0.070908  1
  Br  Br7  1  0.578805  0.214763  0.929092  1
  Br  Br8  1  0.027677  0.721848  0.423214  1
  Br  Br9  1  0.278152  0.972323  0.576786  1
  Br  Br10  1  0.972323  0.278152  0.576786  1
  Br  Br11  1  0.721848  0.027677  0.423214  1
  Br  Br12  1  0.858186  0.858186  0.978038  1
  Br  Br13  1  0.141814  0.141814  0.021962  1
  Br  Br14  1  0.636492  0.636492  0.527599  1
  Br  Br15  1  0.363508  0.363508  0.472401  1
