# generated using pymatgen
data_La5Nd(OsBr3)2
_symmetry_space_group_name_H-M   'P 1'
_cell_length_a   4.33578300
_cell_length_b   9.16771375
_cell_length_c   12.22806229
_cell_angle_alpha   87.15575944
_cell_angle_beta   90.00000000
_cell_angle_gamma   90.00000000
_symmetry_Int_Tables_number   1
_chemical_formula_structural   La5Nd(OsBr3)2
_chemical_formula_sum   'La5 Nd1 Os2 Br6'
_cell_volume   485.45714462
_cell_formula_units_Z   1
loop_
 _symmetry_equiv_pos_site_id
 _symmetry_equiv_pos_as_xyz
  1  'x, y, z'
loop_
 _atom_site_type_symbol
 _atom_site_label
 _atom_site_symmetry_multiplicity
 _atom_site_fract_x
 _atom_site_fract_y
 _atom_site_fract_z
 _atom_site_occupancy
  La  La0  1  0.750000  0.673454  0.124250  1
  La  La1  1  0.250000  0.882398  0.339859  1
  La  La2  1  0.250000  0.324481  0.878435  1
  La  La3  1  0.250000  0.897337  0.890382  1
  La  La4  1  0.750000  0.121344  0.658669  1
  Nd  Nd5  1  0.750000  0.098885  0.109265  1
  Os  Os6  1  0.250000  0.881685  0.127393  1
  Os  Os7  1  0.750000  0.115935  0.871346  1
  Br  Br8  1  0.250000  0.391768  0.129609  1
  Br  Br9  1  0.750000  0.121148  0.380211  1
  Br  Br10  1  0.750000  0.604607  0.871972  1
  Br  Br11  1  0.250000  0.357029  0.625934  1
  Br  Br12  1  0.750000  0.646833  0.376222  1
  Br  Br13  1  0.250000  0.883098  0.616451  1
