# generated using pymatgen
data_Ho9Tm11CoBi8Os3
_symmetry_space_group_name_H-M   'P 1'
_cell_length_a   7.88173879
_cell_length_b   8.96060900
_cell_length_c   12.38747362
_cell_angle_alpha   90.00000000
_cell_angle_beta   89.80921157
_cell_angle_gamma   90.00000000
_symmetry_Int_Tables_number   1
_chemical_formula_structural   Ho9Tm11CoBi8Os3
_chemical_formula_sum   'Ho9 Tm11 Co1 Bi8 Os3'
_cell_volume   874.86269827
_cell_formula_units_Z   1
loop_
 _symmetry_equiv_pos_site_id
 _symmetry_equiv_pos_as_xyz
  1  'x, y, z'
loop_
 _atom_site_type_symbol
 _atom_site_label
 _atom_site_symmetry_multiplicity
 _atom_site_fract_x
 _atom_site_fract_y
 _atom_site_fract_z
 _atom_site_occupancy
  Ho  Ho0  1  0.842541  0.250000  0.790715  1
  Ho  Ho1  1  0.879646  0.750000  0.805995  1
  Ho  Ho2  1  0.119792  0.250000  0.193365  1
  Ho  Ho3  1  0.378445  0.250000  0.692790  1
  Ho  Ho4  1  0.616019  0.750000  0.313080  1
  Ho  Ho5  1  0.056961  0.750000  0.496831  1
  Ho  Ho6  1  0.944415  0.250000  0.503072  1
  Ho  Ho7  1  0.557816  0.250000  0.003951  1
  Ho  Ho8  1  0.441876  0.750000  0.995811  1
  Tm  Tm9  1  0.344997  0.750000  0.701245  1
  Tm  Tm10  1  0.657585  0.250000  0.292539  1
  Tm  Tm11  1  0.155963  0.750000  0.206694  1
  Tm  Tm12  1  0.673248  0.542710  0.563554  1
  Tm  Tm13  1  0.327215  0.460327  0.437101  1
  Tm  Tm14  1  0.173303  0.457540  0.936187  1
  Tm  Tm15  1  0.327215  0.039673  0.437101  1
  Tm  Tm16  1  0.826199  0.543839  0.064347  1
  Tm  Tm17  1  0.673248  0.957290  0.563554  1
  Tm  Tm18  1  0.826199  0.956161  0.064347  1
  Tm  Tm19  1  0.173303  0.042460  0.936187  1
  Co  Co20  1  0.429908  0.750000  0.491931  1
  Bi  Bi21  1  0.569180  0.509117  0.826928  1
  Bi  Bi22  1  0.430135  0.492195  0.173371  1
  Bi  Bi23  1  0.071444  0.492404  0.672090  1
  Bi  Bi24  1  0.430135  0.007805  0.173371  1
  Bi  Bi25  1  0.929869  0.509012  0.327974  1
  Bi  Bi26  1  0.569180  0.990883  0.826928  1
  Bi  Bi27  1  0.929869  0.990988  0.327974  1
  Bi  Bi28  1  0.071444  0.007596  0.672090  1
  Os  Os29  1  0.074780  0.750000  0.990169  1
  Os  Os30  1  0.924888  0.250000  0.009788  1
  Os  Os31  1  0.573183  0.250000  0.508920  1
