# generated using pymatgen
data_Zn7Ni4GeRh4
_symmetry_space_group_name_H-M   'P 1'
_cell_length_a   5.86284404
_cell_length_b   5.86313116
_cell_length_c   6.09333806
_cell_angle_alpha   89.98863981
_cell_angle_beta   90.01141789
_cell_angle_gamma   90.20155754
_symmetry_Int_Tables_number   1
_chemical_formula_structural   Zn7Ni4GeRh4
_chemical_formula_sum   'Zn7 Ni4 Ge1 Rh4'
_cell_volume   209.45489775
_cell_formula_units_Z   1
loop_
 _symmetry_equiv_pos_site_id
 _symmetry_equiv_pos_as_xyz
  1  'x, y, z'
loop_
 _atom_site_type_symbol
 _atom_site_label
 _atom_site_symmetry_multiplicity
 _atom_site_fract_x
 _atom_site_fract_y
 _atom_site_fract_z
 _atom_site_occupancy
  Zn  Zn0  1  0.499984  0.999995  0.248961  1
  Zn  Zn1  1  0.999996  0.500012  0.251085  1
  Zn  Zn2  1  0.000008  0.999993  0.251067  1
  Zn  Zn3  1  0.999984  0.499993  0.748999  1
  Zn  Zn4  1  0.999999  0.000007  0.748987  1
  Zn  Zn5  1  0.500014  0.499986  0.750850  1
  Zn  Zn6  1  0.499995  0.000011  0.750965  1
  Ni  Ni7  1  0.748634  0.252208  0.004142  1
  Ni  Ni8  1  0.251393  0.747771  0.004106  1
  Ni  Ni9  1  0.747060  0.252109  0.495923  1
  Ni  Ni10  1  0.252931  0.747901  0.495925  1
  Ge  Ge11  1  0.500007  0.499997  0.249013  1
  Rh  Rh12  1  0.253242  0.254291  0.002875  1
  Rh  Rh13  1  0.746756  0.745718  0.002869  1
  Rh  Rh14  1  0.255323  0.254265  0.497118  1
  Rh  Rh15  1  0.744674  0.745737  0.497119  1
