# generated using pymatgen
data_K3Ta2Tl3Se8
_symmetry_space_group_name_H-M   'P 1'
_cell_length_a   9.24351900
_cell_length_b   9.84637565
_cell_length_c   11.66932500
_cell_angle_alpha   85.17081075
_cell_angle_beta   90.00000000
_cell_angle_gamma   90.00000000
_symmetry_Int_Tables_number   1
_chemical_formula_structural   K3Ta2Tl3Se8
_chemical_formula_sum   'K6 Ta4 Tl6 Se16'
_cell_volume   1058.31518927
_cell_formula_units_Z   2
loop_
 _symmetry_equiv_pos_site_id
 _symmetry_equiv_pos_as_xyz
  1  'x, y, z'
loop_
 _atom_site_type_symbol
 _atom_site_label
 _atom_site_symmetry_multiplicity
 _atom_site_fract_x
 _atom_site_fract_y
 _atom_site_fract_z
 _atom_site_occupancy
  K  K0  1  0.381985  0.591896  0.806580  1
  K  K1  1  0.115418  0.110583  0.289713  1
  K  K2  1  0.615418  0.389417  0.210287  1
  K  K3  1  0.881985  0.908104  0.693420  1
  K  K4  1  0.439959  0.789450  0.456223  1
  K  K5  1  0.939959  0.710550  0.043777  1
  Ta  Ta6  1  0.193876  0.528400  0.257764  1
  Ta  Ta7  1  0.693876  0.971600  0.242236  1
  Ta  Ta8  1  0.303959  0.021966  0.742933  1
  Ta  Ta9  1  0.803959  0.478034  0.757067  1
  Tl  Tl10  1  0.580634  0.242318  0.561344  1
  Tl  Tl11  1  0.080634  0.257682  0.938656  1
  Tl  Tl12  1  0.105433  0.324722  0.559667  1
  Tl  Tl13  1  0.605433  0.175278  0.940333  1
  Tl  Tl14  1  0.900290  0.692776  0.442244  1
  Tl  Tl15  1  0.400290  0.807224  0.057756  1
  Se  Se16  1  0.362100  0.445583  0.403955  1
  Se  Se17  1  0.700196  0.503744  0.942703  1
  Se  Se18  1  0.862100  0.054417  0.096045  1
  Se  Se19  1  0.200196  0.996256  0.557297  1
  Se  Se20  1  0.031531  0.592450  0.726295  1
  Se  Se21  1  0.531531  0.907550  0.773705  1
  Se  Se22  1  0.462572  0.075634  0.195489  1
  Se  Se23  1  0.962572  0.424366  0.304511  1
  Se  Se24  1  0.836111  0.236093  0.737809  1
  Se  Se25  1  0.336111  0.263907  0.762191  1
  Se  Se26  1  0.669049  0.727917  0.236867  1
  Se  Se27  1  0.169049  0.772083  0.263133  1
  Se  Se28  1  0.640875  0.560035  0.606477  1
  Se  Se29  1  0.140875  0.939965  0.893523  1
  Se  Se30  1  0.776012  0.019313  0.429944  1
  Se  Se31  1  0.276012  0.480687  0.070056  1
