# generated using pymatgen
data_Ba5(LiAg)3
_symmetry_space_group_name_H-M   'P 1'
_cell_length_a   17.40620744
_cell_length_b   17.40620700
_cell_length_c   5.12175500
_cell_angle_alpha   90.00000000
_cell_angle_beta   90.00000000
_cell_angle_gamma   164.99579147
_symmetry_Int_Tables_number   1
_chemical_formula_structural   Ba5(LiAg)3
_chemical_formula_sum   'Ba5 Li3 Ag3'
_cell_volume   401.73749302
_cell_formula_units_Z   1
loop_
 _symmetry_equiv_pos_site_id
 _symmetry_equiv_pos_as_xyz
  1  'x, y, z'
loop_
 _atom_site_type_symbol
 _atom_site_label
 _atom_site_symmetry_multiplicity
 _atom_site_fract_x
 _atom_site_fract_y
 _atom_site_fract_z
 _atom_site_occupancy
  Ba  Ba0  1  0.999064  0.000936  0.000000  1
  Ba  Ba1  1  0.615328  0.384670  0.000000  1
  Ba  Ba2  1  0.384390  0.615608  0.000000  1
  Ba  Ba3  1  0.803457  0.196541  0.500001  1
  Ba  Ba4  1  0.195489  0.804509  0.500001  1
  Li  Li5  1  0.728682  0.271316  0.000000  1
  Li  Li6  1  0.917922  0.082077  0.500001  1
  Li  Li7  1  0.539831  0.460167  0.500001  1
  Ag  Ag8  1  0.272258  0.727740  0.000000  1
  Ag  Ag9  1  0.458857  0.541141  0.500001  1
  Ag  Ag10  1  0.084713  0.915286  0.500001  1
