# generated using pymatgen
data_La8TbIr6
_symmetry_space_group_name_H-M   'P 1'
_cell_length_a   7.77529468
_cell_length_b   7.77529472
_cell_length_c   7.77529501
_cell_angle_alpha   69.98739105
_cell_angle_beta   69.98739195
_cell_angle_gamma   69.98740492
_symmetry_Int_Tables_number   1
_chemical_formula_structural   La8TbIr6
_chemical_formula_sum   'La8 Tb1 Ir6'
_cell_volume   401.28809345
_cell_formula_units_Z   1
loop_
 _symmetry_equiv_pos_site_id
 _symmetry_equiv_pos_as_xyz
  1  'x, y, z'
loop_
 _atom_site_type_symbol
 _atom_site_label
 _atom_site_symmetry_multiplicity
 _atom_site_fract_x
 _atom_site_fract_y
 _atom_site_fract_z
 _atom_site_occupancy
  La  La0  1  0.803011  0.803011  0.803011  1
  La  La1  1  0.196989  0.196989  0.196989  1
  La  La2  1  0.154292  0.388873  0.674436  1
  La  La3  1  0.674436  0.154292  0.388873  1
  La  La4  1  0.388873  0.674436  0.154292  1
  La  La5  1  0.845708  0.611127  0.325564  1
  La  La6  1  0.325564  0.845708  0.611127  1
  La  La7  1  0.611127  0.325564  0.845708  1
  Tb  Tb8  1  0.000000  0.000000  0.000000  1
  Ir  Ir9  1  0.957501  0.165336  0.594406  1
  Ir  Ir10  1  0.594406  0.957501  0.165336  1
  Ir  Ir11  1  0.165336  0.594406  0.957501  1
  Ir  Ir12  1  0.042499  0.834664  0.405594  1
  Ir  Ir13  1  0.405594  0.042499  0.834664  1
  Ir  Ir14  1  0.834664  0.405594  0.042499  1
