# generated using pymatgen
data_Er3Tm3Ni20As13
_symmetry_space_group_name_H-M   'P 1'
_cell_length_a   13.09901200
_cell_length_b   13.09901186
_cell_length_c   3.84461100
_cell_angle_alpha   90.00000000
_cell_angle_beta   90.00000000
_cell_angle_gamma   120.00000034
_symmetry_Int_Tables_number   1
_chemical_formula_structural   Er3Tm3Ni20As13
_chemical_formula_sum   'Er3 Tm3 Ni20 As13'
_cell_volume   571.29458797
_cell_formula_units_Z   1
loop_
 _symmetry_equiv_pos_site_id
 _symmetry_equiv_pos_as_xyz
  1  'x, y, z'
loop_
 _atom_site_type_symbol
 _atom_site_label
 _atom_site_symmetry_multiplicity
 _atom_site_fract_x
 _atom_site_fract_y
 _atom_site_fract_z
 _atom_site_occupancy
  Er  Er0  1  0.528144  0.810778  0.000000  1
  Er  Er1  1  0.282634  0.471856  0.000000  1
  Er  Er2  1  0.189222  0.717366  0.000000  1
  Tm  Tm3  1  0.809405  0.280570  0.500000  1
  Tm  Tm4  1  0.471164  0.190595  0.500000  1
  Tm  Tm5  1  0.719430  0.528836  0.500000  1
  Ni  Ni6  1  0.800223  0.907598  0.000000  1
  Ni  Ni7  1  0.107374  0.199777  0.000000  1
  Ni  Ni8  1  0.092402  0.892626  0.000000  1
  Ni  Ni9  1  0.333333  0.666667  0.500000  1
  Ni  Ni10  1  0.929780  0.080980  0.500000  1
  Ni  Ni11  1  0.151200  0.070220  0.500000  1
  Ni  Ni12  1  0.919020  0.848800  0.500000  1
  Ni  Ni13  1  0.666667  0.333333  0.000000  1
  Ni  Ni14  1  0.564109  0.582317  0.000000  1
  Ni  Ni15  1  0.018208  0.435891  0.000000  1
  Ni  Ni16  1  0.417683  0.981792  0.000000  1
  Ni  Ni17  1  0.682900  0.752973  0.500000  1
  Ni  Ni18  1  0.070074  0.317100  0.500000  1
  Ni  Ni19  1  0.247027  0.929926  0.500000  1
  Ni  Ni20  1  0.979140  0.564310  0.500000  1
  Ni  Ni21  1  0.585170  0.020860  0.500000  1
  Ni  Ni22  1  0.435690  0.414830  0.500000  1
  Ni  Ni23  1  0.753927  0.075910  0.000000  1
  Ni  Ni24  1  0.321983  0.246073  0.000000  1
  Ni  Ni25  1  0.924090  0.678017  0.000000  1
  As  As26  1  0.476038  0.614055  0.500000  1
  As  As27  1  0.138017  0.523962  0.500000  1
  As  As28  1  0.385945  0.861983  0.500000  1
  As  As29  1  0.718391  0.950964  0.500000  1
  As  As30  1  0.232574  0.281609  0.500000  1
  As  As31  1  0.049036  0.767426  0.500000  1
  As  As32  1  0.860289  0.474537  0.000000  1
  As  As33  1  0.614249  0.139711  0.000000  1
  As  As34  1  0.525463  0.385751  0.000000  1
  As  As35  1  0.947140  0.231637  0.000000  1
  As  As36  1  0.284497  0.052860  0.000000  1
  As  As37  1  0.768363  0.715503  0.000000  1
  As  As38  1  0.000000  0.000000  0.000000  1
