# generated using pymatgen
data_NbZn3(GaCo2)4
_symmetry_space_group_name_H-M   'P 1'
_cell_length_a   5.80503800
_cell_length_b   5.80551300
_cell_length_c   5.80648600
_cell_angle_alpha   90.00223025
_cell_angle_beta   90.00088818
_cell_angle_gamma   90.00124356
_symmetry_Int_Tables_number   1
_chemical_formula_structural   NbZn3(GaCo2)4
_chemical_formula_sum   'Nb1 Zn3 Ga4 Co8'
_cell_volume   195.68568276
_cell_formula_units_Z   1
loop_
 _symmetry_equiv_pos_site_id
 _symmetry_equiv_pos_as_xyz
  1  'x, y, z'
loop_
 _atom_site_type_symbol
 _atom_site_label
 _atom_site_symmetry_multiplicity
 _atom_site_fract_x
 _atom_site_fract_y
 _atom_site_fract_z
 _atom_site_occupancy
  Nb  Nb0  1  0.750133  0.249968  0.000035  1
  Zn  Zn1  1  0.249615  0.750052  0.000014  1
  Zn  Zn2  1  0.250371  0.750038  0.499973  1
  Zn  Zn3  1  0.749609  0.249977  0.499981  1
  Ga  Ga4  1  0.249851  0.249918  0.000041  1
  Ga  Ga5  1  0.750334  0.750073  0.000041  1
  Ga  Ga6  1  0.749671  0.750111  0.499941  1
  Ga  Ga7  1  0.250367  0.249924  0.499941  1
  Co  Co8  1  0.498498  0.998454  0.251725  1
  Co  Co9  1  0.498528  0.501526  0.251698  1
  Co  Co10  1  0.001512  0.998551  0.252379  1
  Co  Co11  1  0.001489  0.501436  0.252354  1
  Co  Co12  1  0.001502  0.998560  0.747621  1
  Co  Co13  1  0.001464  0.501408  0.747663  1
  Co  Co14  1  0.498518  0.998476  0.748289  1
  Co  Co15  1  0.498539  0.501518  0.748304  1
