# generated using pymatgen
data_Er3Tm5Tc(B8Os)3
_symmetry_space_group_name_H-M   'P 1'
_cell_length_a   3.62893000
_cell_length_b   9.08618247
_cell_length_c   11.46634600
_cell_angle_alpha   89.95027637
_cell_angle_beta   90.00000000
_cell_angle_gamma   90.00000000
_symmetry_Int_Tables_number   1
_chemical_formula_structural   Er3Tm5Tc(B8Os)3
_chemical_formula_sum   'Er3 Tm5 Tc1 B24 Os3'
_cell_volume   378.08106209
_cell_formula_units_Z   1
loop_
 _symmetry_equiv_pos_site_id
 _symmetry_equiv_pos_as_xyz
  1  'x, y, z'
loop_
 _atom_site_type_symbol
 _atom_site_label
 _atom_site_symmetry_multiplicity
 _atom_site_fract_x
 _atom_site_fract_y
 _atom_site_fract_z
 _atom_site_occupancy
  Er  Er0  1  0.000000  0.323497  0.413009  1
  Er  Er1  1  0.000000  0.677634  0.583529  1
  Er  Er2  1  0.000000  0.819815  0.088086  1
  Tm  Tm3  1  0.000000  0.178185  0.914884  1
  Tm  Tm4  1  0.000000  0.942747  0.372737  1
  Tm  Tm5  1  0.000000  0.056859  0.627290  1
  Tm  Tm6  1  0.000000  0.444480  0.127943  1
  Tm  Tm7  1  0.000000  0.556606  0.872470  1
  Tc  Tc8  1  0.000000  0.637634  0.321093  1
  B  B9  1  0.500000  0.552862  0.433273  1
  B  B10  1  0.500000  0.446567  0.567084  1
  B  B11  1  0.500000  0.053600  0.066629  1
  B  B12  1  0.500000  0.946679  0.933443  1
  B  B13  1  0.500000  0.748799  0.419614  1
  B  B14  1  0.500000  0.251348  0.580343  1
  B  B15  1  0.500000  0.248892  0.079957  1
  B  B16  1  0.500000  0.751211  0.919750  1
  B  B17  1  0.500000  0.791786  0.265989  1
  B  B18  1  0.500000  0.208388  0.734188  1
  B  B19  1  0.500000  0.291413  0.233299  1
  B  B20  1  0.500000  0.708938  0.766078  1
  B  B21  1  0.500000  0.631136  0.185271  1
  B  B22  1  0.500000  0.368474  0.815291  1
  B  B23  1  0.500000  0.131109  0.314498  1
  B  B24  1  0.500000  0.869205  0.685111  1
  B  B25  1  0.500000  0.982202  0.212884  1
  B  B26  1  0.500000  0.018094  0.787554  1
  B  B27  1  0.500000  0.481678  0.287031  1
  B  B28  1  0.500000  0.517501  0.713079  1
  B  B29  1  0.500000  0.605733  0.028863  1
  B  B30  1  0.500000  0.393676  0.970412  1
  B  B31  1  0.500000  0.106202  0.470739  1
  B  B32  1  0.500000  0.894910  0.529603  1
  Os  Os33  1  0.000000  0.361849  0.679579  1
  Os  Os34  1  0.000000  0.137509  0.178064  1
  Os  Os35  1  0.000000  0.862781  0.821333  1
