# generated using pymatgen
data_TaRh(SeO3)4
_symmetry_space_group_name_H-M   'P 1'
_cell_length_a   8.28458900
_cell_length_b   8.23922629
_cell_length_c   8.36239355
_cell_angle_alpha   88.96370276
_cell_angle_beta   90.00000000
_cell_angle_gamma   90.00000000
_symmetry_Int_Tables_number   1
_chemical_formula_structural   TaRh(SeO3)4
_chemical_formula_sum   'Ta2 Rh2 Se8 O24'
_cell_volume   570.71194413
_cell_formula_units_Z   2
loop_
 _symmetry_equiv_pos_site_id
 _symmetry_equiv_pos_as_xyz
  1  'x, y, z'
loop_
 _atom_site_type_symbol
 _atom_site_label
 _atom_site_symmetry_multiplicity
 _atom_site_fract_x
 _atom_site_fract_y
 _atom_site_fract_z
 _atom_site_occupancy
  Ta  Ta0  1  0.000000  0.000000  0.500000  1
  Ta  Ta1  1  0.500000  0.000000  0.000000  1
  Rh  Rh2  1  0.000000  0.500000  0.000000  1
  Rh  Rh3  1  0.500000  0.500000  0.500000  1
  Se  Se4  1  0.315136  0.649792  0.182767  1
  Se  Se5  1  0.815136  0.350208  0.317233  1
  Se  Se6  1  0.669040  0.800812  0.667839  1
  Se  Se7  1  0.169040  0.199188  0.832161  1
  Se  Se8  1  0.684864  0.350208  0.817233  1
  Se  Se9  1  0.184864  0.649792  0.682767  1
  Se  Se10  1  0.330960  0.199188  0.332161  1
  Se  Se11  1  0.830960  0.800812  0.167839  1
  O  O12  1  0.243712  0.526569  0.034232  1
  O  O13  1  0.743712  0.473431  0.465768  1
  O  O14  1  0.770691  0.954718  0.560286  1
  O  O15  1  0.270691  0.045282  0.939714  1
  O  O16  1  0.545735  0.930880  0.776500  1
  O  O17  1  0.463803  0.521935  0.257732  1
  O  O18  1  0.963803  0.478065  0.242268  1
  O  O19  1  0.045735  0.069120  0.723500  1
  O  O20  1  0.941510  0.224453  0.439094  1
  O  O21  1  0.534361  0.745377  0.523464  1
  O  O22  1  0.441510  0.775547  0.060906  1
  O  O23  1  0.034361  0.254623  0.976536  1
  O  O24  1  0.756288  0.473431  0.965768  1
  O  O25  1  0.256288  0.526569  0.534232  1
  O  O26  1  0.229309  0.045282  0.439714  1
  O  O27  1  0.729309  0.954718  0.060286  1
  O  O28  1  0.454265  0.069120  0.223500  1
  O  O29  1  0.536197  0.478065  0.742268  1
  O  O30  1  0.036197  0.521935  0.757732  1
  O  O31  1  0.954265  0.930880  0.276500  1
  O  O32  1  0.058490  0.775547  0.560906  1
  O  O33  1  0.465639  0.254623  0.476536  1
  O  O34  1  0.558490  0.224453  0.939094  1
  O  O35  1  0.965639  0.745377  0.023464  1
