# generated using pymatgen
data_Th4Al24FePd8
_symmetry_space_group_name_H-M   'P 1'
_cell_length_a   7.60559119
_cell_length_b   7.60759737
_cell_length_c   13.29387320
_cell_angle_alpha   84.66676212
_cell_angle_beta   100.94607170
_cell_angle_gamma   119.82510175
_symmetry_Int_Tables_number   1
_chemical_formula_structural   Th4Al24FePd8
_chemical_formula_sum   'Th4 Al24 Fe1 Pd8'
_cell_volume   655.16476155
_cell_formula_units_Z   1
loop_
 _symmetry_equiv_pos_site_id
 _symmetry_equiv_pos_as_xyz
  1  'x, y, z'
loop_
 _atom_site_type_symbol
 _atom_site_label
 _atom_site_symmetry_multiplicity
 _atom_site_fract_x
 _atom_site_fract_y
 _atom_site_fract_z
 _atom_site_occupancy
  Th  Th0  1  0.437915  0.832088  0.808264  1
  Th  Th1  1  0.562085  0.167912  0.191736  1
  Th  Th2  1  0.769271  0.503096  0.808150  1
  Th  Th3  1  0.230729  0.496904  0.191850  1
  Al  Al4  1  0.480609  0.175800  0.948871  1
  Al  Al5  1  0.519391  0.824200  0.051129  1
  Al  Al6  1  0.020800  0.165443  0.559932  1
  Al  Al7  1  0.979200  0.834557  0.440068  1
  Al  Al8  1  0.352461  0.833614  0.558342  1
  Al  Al9  1  0.647539  0.166386  0.441658  1
  Al  Al10  1  0.622136  0.834446  0.334450  1
  Al  Al11  1  0.377864  0.165554  0.665550  1
  Al  Al12  1  0.055526  0.489219  0.665175  1
  Al  Al13  1  0.944474  0.510781  0.334825  1
  Al  Al14  1  0.733006  0.844122  0.663295  1
  Al  Al15  1  0.266994  0.155878  0.336705  1
  Al  Al16  1  0.158750  0.497509  0.949450  1
  Al  Al17  1  0.841250  0.502491  0.050550  1
  Al  Al18  1  0.812487  0.826184  0.960676  1
  Al  Al19  1  0.187513  0.173816  0.039324  1
  Al  Al20  1  0.312080  0.499084  0.442121  1
  Al  Al21  1  0.687920  0.500916  0.557879  1
  Al  Al22  1  0.098067  0.836224  0.183314  1
  Al  Al23  1  0.901933  0.163776  0.816686  1
  Al  Al24  1  0.310075  0.370231  0.821477  1
  Al  Al25  1  0.689925  0.629769  0.178523  1
  Al  Al26  1  0.101922  0.964457  0.816396  1
  Al  Al27  1  0.898078  0.035543  0.183604  1
  Fe  Fe28  1  0.500000  0.500000  0.000000  1
  Pd  Pd29  1  0.386482  0.505944  0.638610  1
  Pd  Pd30  1  0.613518  0.494056  0.361390  1
  Pd  Pd31  1  0.172389  0.828414  0.999422  1
  Pd  Pd32  1  0.827611  0.171586  0.000578  1
  Pd  Pd33  1  0.294079  0.832962  0.363165  1
  Pd  Pd34  1  0.705921  0.167038  0.636835  1
  Pd  Pd35  1  0.046967  0.826011  0.637356  1
  Pd  Pd36  1  0.953033  0.173989  0.362644  1
