# generated using pymatgen
data_Rb5Co(AuO)2
_symmetry_space_group_name_H-M   'P 1'
_cell_length_a   5.74444200
_cell_length_b   7.50879100
_cell_length_c   14.36306800
_cell_angle_alpha   90.00000000
_cell_angle_beta   90.00000000
_cell_angle_gamma   90.00000000
_symmetry_Int_Tables_number   1
_chemical_formula_structural   Rb5Co(AuO)2
_chemical_formula_sum   'Rb10 Co2 Au4 O4'
_cell_volume   619.53390918
_cell_formula_units_Z   2
loop_
 _symmetry_equiv_pos_site_id
 _symmetry_equiv_pos_as_xyz
  1  'x, y, z'
loop_
 _atom_site_type_symbol
 _atom_site_label
 _atom_site_symmetry_multiplicity
 _atom_site_fract_x
 _atom_site_fract_y
 _atom_site_fract_z
 _atom_site_occupancy
  Rb  Rb0  1  0.500000  0.168165  0.899501  1
  Rb  Rb1  1  0.500000  0.831835  0.100499  1
  Rb  Rb2  1  0.000000  0.000000  0.500000  1
  Rb  Rb3  1  0.000000  0.500000  0.000000  1
  Rb  Rb4  1  0.000000  0.116245  0.234348  1
  Rb  Rb5  1  0.000000  0.883755  0.765652  1
  Rb  Rb6  1  0.000000  0.616245  0.265652  1
  Rb  Rb7  1  0.000000  0.383755  0.734348  1
  Rb  Rb8  1  0.500000  0.331835  0.399501  1
  Rb  Rb9  1  0.500000  0.668165  0.600499  1
  Co  Co10  1  0.000000  0.500000  0.500000  1
  Co  Co11  1  0.000000  0.000000  0.000000  1
  Au  Au12  1  0.500000  0.147052  0.644487  1
  Au  Au13  1  0.500000  0.852948  0.355513  1
  Au  Au14  1  0.500000  0.647052  0.855513  1
  Au  Au15  1  0.500000  0.352948  0.144487  1
  O  O16  1  0.000000  0.152394  0.904481  1
  O  O17  1  0.000000  0.847606  0.095519  1
  O  O18  1  0.000000  0.652394  0.595519  1
  O  O19  1  0.000000  0.347606  0.404481  1
