# generated using pymatgen
data_V2Co4IrRh
_symmetry_space_group_name_H-M   'P 1'
_cell_length_a   5.18211683
_cell_length_b   5.18211807
_cell_length_c   4.13909500
_cell_angle_alpha   90.00000000
_cell_angle_beta   90.00000000
_cell_angle_gamma   119.98673654
_symmetry_Int_Tables_number   1
_chemical_formula_structural   V2Co4IrRh
_chemical_formula_sum   'V2 Co4 Ir1 Rh1'
_cell_volume   96.27389863
_cell_formula_units_Z   1
loop_
 _symmetry_equiv_pos_site_id
 _symmetry_equiv_pos_as_xyz
  1  'x, y, z'
loop_
 _atom_site_type_symbol
 _atom_site_label
 _atom_site_symmetry_multiplicity
 _atom_site_fract_x
 _atom_site_fract_y
 _atom_site_fract_z
 _atom_site_occupancy
  V  V0  1  0.339292  0.660708  0.750000  1
  V  V1  1  0.660779  0.339221  0.250000  1
  Co  Co2  1  0.173409  0.331408  0.250000  1
  Co  Co3  1  0.668592  0.826591  0.250000  1
  Co  Co4  1  0.826573  0.668568  0.750000  1
  Co  Co5  1  0.331432  0.173427  0.750000  1
  Ir  Ir6  1  0.164547  0.835453  0.250000  1
  Rh  Rh7  1  0.835377  0.164623  0.750000  1
