# generated using pymatgen
data_Tb10Dy3Er7Sn16
_symmetry_space_group_name_H-M   'P 1'
_cell_length_a   8.02957525
_cell_length_b   8.17565822
_cell_length_c   15.45510450
_cell_angle_alpha   90.01643697
_cell_angle_beta   90.03290001
_cell_angle_gamma   90.01715274
_symmetry_Int_Tables_number   1
_chemical_formula_structural   Tb10Dy3Er7Sn16
_chemical_formula_sum   'Tb10 Dy3 Er7 Sn16'
_cell_volume   1014.58196251
_cell_formula_units_Z   1
loop_
 _symmetry_equiv_pos_site_id
 _symmetry_equiv_pos_as_xyz
  1  'x, y, z'
loop_
 _atom_site_type_symbol
 _atom_site_label
 _atom_site_symmetry_multiplicity
 _atom_site_fract_x
 _atom_site_fract_y
 _atom_site_fract_z
 _atom_site_occupancy
  Tb  Tb0  1  0.366648  0.837075  0.622388  1
  Tb  Tb1  1  0.866820  0.662709  0.877824  1
  Tb  Tb2  1  0.519372  0.320532  0.902860  1
  Tb  Tb3  1  0.019496  0.179442  0.597106  1
  Tb  Tb4  1  0.480816  0.679597  0.403259  1
  Tb  Tb5  1  0.980074  0.820697  0.097166  1
  Tb  Tb6  1  0.480989  0.679590  0.096769  1
  Tb  Tb7  1  0.981484  0.820646  0.403567  1
  Tb  Tb8  1  0.518698  0.321079  0.596793  1
  Tb  Tb9  1  0.019073  0.178487  0.902403  1
  Dy  Dy10  1  0.134198  0.337117  0.121928  1
  Dy  Dy11  1  0.633544  0.163153  0.122601  1
  Dy  Dy12  1  0.133566  0.336955  0.377900  1
  Er  Er13  1  0.365685  0.837706  0.876385  1
  Er  Er14  1  0.865008  0.662476  0.622898  1
  Er  Er15  1  0.634649  0.162482  0.377566  1
  Er  Er16  1  0.197487  0.503292  0.750279  1
  Er  Er17  1  0.697633  0.996831  0.749496  1
  Er  Er18  1  0.802372  0.496780  0.250783  1
  Er  Er19  1  0.302837  0.003237  0.249752  1
  Sn  Sn20  1  0.294331  0.036195  0.040935  1
  Sn  Sn21  1  0.793358  0.461864  0.459045  1
  Sn  Sn22  1  0.707175  0.961979  0.541432  1
  Sn  Sn23  1  0.207615  0.538576  0.957731  1
  Sn  Sn24  1  0.702905  0.962522  0.957668  1
  Sn  Sn25  1  0.202842  0.537773  0.542482  1
  Sn  Sn26  1  0.296648  0.037989  0.457702  1
  Sn  Sn27  1  0.794238  0.462842  0.042513  1
  Sn  Sn28  1  0.563512  0.618497  0.749888  1
  Sn  Sn29  1  0.063227  0.881250  0.749824  1
  Sn  Sn30  1  0.436852  0.381320  0.250413  1
  Sn  Sn31  1  0.936471  0.118111  0.250426  1
  Sn  Sn32  1  0.328802  0.148736  0.749967  1
  Sn  Sn33  1  0.828761  0.351921  0.749658  1
  Sn  Sn34  1  0.671317  0.852027  0.250413  1
  Sn  Sn35  1  0.171496  0.648518  0.250181  1
