# generated using pymatgen
data_Nd6Dy10Cd4NiRu3
_symmetry_space_group_name_H-M   'P 1'
_cell_length_a   9.64520753
_cell_length_b   9.79455374
_cell_length_c   9.79455400
_cell_angle_alpha   59.99999914
_cell_angle_beta   59.48645752
_cell_angle_gamma   59.48645491
_symmetry_Int_Tables_number   1
_chemical_formula_structural   Nd6Dy10Cd4NiRu3
_chemical_formula_sum   'Nd6 Dy10 Cd4 Ni1 Ru3'
_cell_volume   649.15862384
_cell_formula_units_Z   1
loop_
 _symmetry_equiv_pos_site_id
 _symmetry_equiv_pos_as_xyz
  1  'x, y, z'
loop_
 _atom_site_type_symbol
 _atom_site_label
 _atom_site_symmetry_multiplicity
 _atom_site_fract_x
 _atom_site_fract_y
 _atom_site_fract_z
 _atom_site_occupancy
  Nd  Nd0  1  0.187645  0.810655  0.810655  1
  Nd  Nd1  1  0.806562  0.189698  0.189698  1
  Nd  Nd2  1  0.806562  0.189698  0.814042  1
  Nd  Nd3  1  0.187645  0.810655  0.191044  1
  Nd  Nd4  1  0.806562  0.814042  0.189698  1
  Nd  Nd5  1  0.187645  0.191044  0.810655  1
  Dy  Dy6  1  0.598050  0.594770  0.594770  1
  Dy  Dy7  1  0.598050  0.594770  0.212411  1
  Dy  Dy8  1  0.598050  0.212411  0.594770  1
  Dy  Dy9  1  0.218058  0.593981  0.593981  1
  Dy  Dy10  1  0.062637  0.437046  0.437046  1
  Dy  Dy11  1  0.435393  0.063708  0.063708  1
  Dy  Dy12  1  0.435393  0.063708  0.437190  1
  Dy  Dy13  1  0.062637  0.437046  0.063271  1
  Dy  Dy14  1  0.435393  0.437190  0.063708  1
  Dy  Dy15  1  0.062637  0.063271  0.437046  1
  Cd  Cd16  1  0.828750  0.828928  0.828928  1
  Cd  Cd17  1  0.828750  0.828928  0.513393  1
  Cd  Cd18  1  0.828750  0.513393  0.828928  1
  Cd  Cd19  1  0.510341  0.829886  0.829886  1
  Ni  Ni20  1  0.829159  0.390281  0.390281  1
  Ru  Ru21  1  0.395111  0.387710  0.387710  1
  Ru  Ru22  1  0.395111  0.387710  0.829468  1
  Ru  Ru23  1  0.395111  0.829468  0.387710  1
