# generated using pymatgen
data_Eu10InSiPt4
_symmetry_space_group_name_H-M   'P 1'
_cell_length_a   9.27964222
_cell_length_b   9.27964208
_cell_length_c   9.27964200
_cell_angle_alpha   127.96023740
_cell_angle_beta   127.96023674
_cell_angle_gamma   76.68945542
_symmetry_Int_Tables_number   1
_chemical_formula_structural   Eu10InSiPt4
_chemical_formula_sum   'Eu10 In1 Si1 Pt4'
_cell_volume   482.42880661
_cell_formula_units_Z   1
loop_
 _symmetry_equiv_pos_site_id
 _symmetry_equiv_pos_as_xyz
  1  'x, y, z'
loop_
 _atom_site_type_symbol
 _atom_site_label
 _atom_site_symmetry_multiplicity
 _atom_site_fract_x
 _atom_site_fract_y
 _atom_site_fract_z
 _atom_site_occupancy
  Eu  Eu0  1  0.538587  0.025702  0.837295  1
  Eu  Eu1  1  0.188406  0.701291  0.162705  1
  Eu  Eu2  1  0.025702  0.188406  0.487115  1
  Eu  Eu3  1  0.701291  0.538587  0.512885  1
  Eu  Eu4  1  0.474298  0.961413  0.162705  1
  Eu  Eu5  1  0.798709  0.311594  0.837295  1
  Eu  Eu6  1  0.961413  0.798709  0.487115  1
  Eu  Eu7  1  0.311594  0.474298  0.512885  1
  Eu  Eu8  1  0.498695  0.498695  0.000000  1
  Eu  Eu9  1  0.001305  0.001305  0.000000  1
  In  In10  1  0.250000  0.250000  0.000000  1
  Si  Si11  1  0.750000  0.750000  0.000000  1
  Pt  Pt12  1  0.871776  0.371776  0.243552  1
  Pt  Pt13  1  0.128224  0.628224  0.756448  1
  Pt  Pt14  1  0.371776  0.128224  0.500000  1
  Pt  Pt15  1  0.628224  0.871776  0.500000  1
