# generated using pymatgen
data_Lu4TaInB4(Ir4Ru)2
_symmetry_space_group_name_H-M   'P 1'
_cell_length_a   9.58551600
_cell_length_b   9.58551600
_cell_length_c   3.18969900
_cell_angle_alpha   90.00000000
_cell_angle_beta   90.00000000
_cell_angle_gamma   90.00000000
_symmetry_Int_Tables_number   1
_chemical_formula_structural   Lu4TaInB4(Ir4Ru)2
_chemical_formula_sum   'Lu4 Ta1 In1 B4 Ir8 Ru2'
_cell_volume   293.07629667
_cell_formula_units_Z   1
loop_
 _symmetry_equiv_pos_site_id
 _symmetry_equiv_pos_as_xyz
  1  'x, y, z'
loop_
 _atom_site_type_symbol
 _atom_site_label
 _atom_site_symmetry_multiplicity
 _atom_site_fract_x
 _atom_site_fract_y
 _atom_site_fract_z
 _atom_site_occupancy
  Lu  Lu0  1  0.824704  0.672264  0.000000  1
  Lu  Lu1  1  0.175296  0.327736  0.000000  1
  Lu  Lu2  1  0.327736  0.824704  0.000000  1
  Lu  Lu3  1  0.672264  0.175296  0.000000  1
  Ta  Ta4  1  0.000000  0.000000  0.000000  1
  In  In5  1  0.500000  0.500000  0.000000  1
  B  B6  1  0.615393  0.876077  0.000000  1
  B  B7  1  0.384607  0.123923  0.000000  1
  B  B8  1  0.123923  0.615393  0.000000  1
  B  B9  1  0.876077  0.384607  0.000000  1
  Ir  Ir10  1  0.575145  0.725310  0.500000  1
  Ir  Ir11  1  0.424855  0.274690  0.500000  1
  Ir  Ir12  1  0.068398  0.781833  0.500000  1
  Ir  Ir13  1  0.931602  0.218167  0.500000  1
  Ir  Ir14  1  0.274690  0.575145  0.500000  1
  Ir  Ir15  1  0.725310  0.424855  0.500000  1
  Ir  Ir16  1  0.218167  0.068398  0.500000  1
  Ir  Ir17  1  0.781833  0.931602  0.500000  1
  Ru  Ru18  1  0.500000  0.000000  0.500000  1
  Ru  Ru19  1  0.000000  0.500000  0.500000  1
