# generated using pymatgen
data_BaLaLuS4
_symmetry_space_group_name_H-M   'P 1'
_cell_length_a   4.13123400
_cell_length_b   12.20878900
_cell_length_c   14.79876600
_cell_angle_alpha   90.00000000
_cell_angle_beta   90.00000000
_cell_angle_gamma   90.00000000
_symmetry_Int_Tables_number   1
_chemical_formula_structural   BaLaLuS4
_chemical_formula_sum   'Ba4 La4 Lu4 S16'
_cell_volume   746.41075068
_cell_formula_units_Z   4
loop_
 _symmetry_equiv_pos_site_id
 _symmetry_equiv_pos_as_xyz
  1  'x, y, z'
loop_
 _atom_site_type_symbol
 _atom_site_label
 _atom_site_symmetry_multiplicity
 _atom_site_fract_x
 _atom_site_fract_y
 _atom_site_fract_z
 _atom_site_occupancy
  Ba  Ba0  1  0.250000  0.752421  0.344503  1
  Ba  Ba1  1  0.250000  0.252421  0.155497  1
  Ba  Ba2  1  0.750000  0.247579  0.655497  1
  Ba  Ba3  1  0.750000  0.747579  0.844503  1
  La  La4  1  0.250000  0.413902  0.391105  1
  La  La5  1  0.250000  0.913902  0.108895  1
  La  La6  1  0.750000  0.586098  0.608895  1
  La  La7  1  0.750000  0.086098  0.891105  1
  Lu  Lu8  1  0.250000  0.431089  0.897296  1
  Lu  Lu9  1  0.250000  0.931089  0.602704  1
  Lu  Lu10  1  0.750000  0.568911  0.102704  1
  Lu  Lu11  1  0.750000  0.068911  0.397296  1
  S  S12  1  0.250000  0.227894  0.823442  1
  S  S13  1  0.250000  0.727894  0.676558  1
  S  S14  1  0.750000  0.772106  0.176558  1
  S  S15  1  0.750000  0.272106  0.323442  1
  S  S16  1  0.250000  0.127221  0.514670  1
  S  S17  1  0.250000  0.627221  0.985330  1
  S  S18  1  0.750000  0.872779  0.485330  1
  S  S19  1  0.750000  0.372779  0.014670  1
  S  S20  1  0.250000  0.510949  0.208742  1
  S  S21  1  0.250000  0.010949  0.291258  1
  S  S22  1  0.750000  0.489051  0.791258  1
  S  S23  1  0.750000  0.989051  0.708742  1
  S  S24  1  0.250000  0.425115  0.582688  1
  S  S25  1  0.250000  0.925115  0.917312  1
  S  S26  1  0.750000  0.574885  0.417312  1
  S  S27  1  0.750000  0.074885  0.082688  1
