# generated using pymatgen
data_NaDy(Se2O5)2
_symmetry_space_group_name_H-M   'P 1'
_cell_length_a   7.10950912
_cell_length_b   7.10950801
_cell_length_c   6.37911400
_cell_angle_alpha   73.94273027
_cell_angle_beta   73.94274122
_cell_angle_gamma   108.74758103
_symmetry_Int_Tables_number   1
_chemical_formula_structural   NaDy(Se2O5)2
_chemical_formula_sum   'Na1 Dy1 Se4 O10'
_cell_volume   268.70711990
_cell_formula_units_Z   1
loop_
 _symmetry_equiv_pos_site_id
 _symmetry_equiv_pos_as_xyz
  1  'x, y, z'
loop_
 _atom_site_type_symbol
 _atom_site_label
 _atom_site_symmetry_multiplicity
 _atom_site_fract_x
 _atom_site_fract_y
 _atom_site_fract_z
 _atom_site_occupancy
  Na  Na0  1  0.588598  0.411402  0.250000  1
  Dy  Dy1  1  0.422286  0.577714  0.750000  1
  Se  Se2  1  0.277196  0.995390  0.880818  1
  Se  Se3  1  0.004610  0.722804  0.619182  1
  Se  Se4  1  0.701081  0.981102  0.140476  1
  Se  Se5  1  0.018898  0.298919  0.359524  1
  O  O6  1  0.075683  0.924317  0.750000  1
  O  O7  1  0.916724  0.083276  0.250000  1
  O  O8  1  0.396171  0.264620  0.704856  1
  O  O9  1  0.735380  0.603829  0.795144  1
  O  O10  1  0.584834  0.718170  0.347035  1
  O  O11  1  0.281830  0.415166  0.152965  1
  O  O12  1  0.922495  0.479474  0.280253  1
  O  O13  1  0.520526  0.077505  0.219747  1
  O  O14  1  0.097646  0.543959  0.733453  1
  O  O15  1  0.456041  0.902354  0.766547  1
