# generated using pymatgen
data_Hf7ZrIn4Pd5Au3
_symmetry_space_group_name_H-M   'P 1'
_cell_length_a   7.50761766
_cell_length_b   7.50757335
_cell_length_c   6.98142723
_cell_angle_alpha   89.95828757
_cell_angle_beta   89.99791095
_cell_angle_gamma   89.89392116
_symmetry_Int_Tables_number   1
_chemical_formula_structural   Hf7ZrIn4Pd5Au3
_chemical_formula_sum   'Hf7 Zr1 In4 Pd5 Au3'
_cell_volume   393.50031727
_cell_formula_units_Z   1
loop_
 _symmetry_equiv_pos_site_id
 _symmetry_equiv_pos_as_xyz
  1  'x, y, z'
loop_
 _atom_site_type_symbol
 _atom_site_label
 _atom_site_symmetry_multiplicity
 _atom_site_fract_x
 _atom_site_fract_y
 _atom_site_fract_z
 _atom_site_occupancy
  Hf  Hf0  1  0.139611  0.151799  0.002374  1
  Hf  Hf1  1  0.843668  0.856454  0.999373  1
  Hf  Hf2  1  0.652568  0.352863  0.496037  1
  Hf  Hf3  1  0.362185  0.645058  0.495207  1
  Hf  Hf4  1  0.690703  0.313643  0.003717  1
  Hf  Hf5  1  0.321043  0.685669  0.003695  1
  Hf  Hf6  1  0.804826  0.811541  0.499847  1
  Zr  Zr7  1  0.187264  0.193435  0.496421  1
  In  In8  1  0.501962  0.003359  0.248991  1
  In  In9  1  0.502967  0.997021  0.750485  1
  In  In10  1  0.999995  0.495402  0.248817  1
  In  In11  1  0.994015  0.496812  0.750140  1
  Pd  Pd12  1  0.372093  0.371191  0.209432  1
  Pd  Pd13  1  0.632727  0.631191  0.788146  1
  Pd  Pd14  1  0.633729  0.631682  0.211037  1
  Pd  Pd15  1  0.865770  0.129638  0.713188  1
  Pd  Pd16  1  0.866122  0.129052  0.288394  1
  Au  Au17  1  0.371960  0.370004  0.793033  1
  Au  Au18  1  0.127806  0.867157  0.288499  1
  Au  Au19  1  0.128985  0.867029  0.713166  1
