# generated using pymatgen
data_TbErU2(ReB6)2
_symmetry_space_group_name_H-M   'P 1'
_cell_length_a   3.63555300
_cell_length_b   9.29643379
_cell_length_c   11.41490497
_cell_angle_alpha   89.95282233
_cell_angle_beta   90.00000000
_cell_angle_gamma   90.00000000
_symmetry_Int_Tables_number   1
_chemical_formula_structural   TbErU2(ReB6)2
_chemical_formula_sum   'Tb2 Er2 U4 Re4 B24'
_cell_volume   385.79714881
_cell_formula_units_Z   2
loop_
 _symmetry_equiv_pos_site_id
 _symmetry_equiv_pos_as_xyz
  1  'x, y, z'
loop_
 _atom_site_type_symbol
 _atom_site_label
 _atom_site_symmetry_multiplicity
 _atom_site_fract_x
 _atom_site_fract_y
 _atom_site_fract_z
 _atom_site_occupancy
  Tb  Tb0  1  0.000000  0.836493  0.092391  1
  Tb  Tb1  1  0.000000  0.163507  0.907609  1
  Er  Er2  1  0.000000  0.336679  0.407847  1
  Er  Er3  1  0.000000  0.663321  0.592153  1
  U  U4  1  0.000000  0.956363  0.396393  1
  U  U5  1  0.000000  0.043637  0.603607  1
  U  U6  1  0.000000  0.456378  0.103698  1
  U  U7  1  0.000000  0.543622  0.896302  1
  Re  Re8  1  0.000000  0.644830  0.318924  1
  Re  Re9  1  0.000000  0.355170  0.681076  1
  Re  Re10  1  0.000000  0.146221  0.182127  1
  Re  Re11  1  0.000000  0.853779  0.817873  1
  B  B12  1  0.500000  0.551216  0.431351  1
  B  B13  1  0.500000  0.448784  0.568649  1
  B  B14  1  0.500000  0.052271  0.069465  1
  B  B15  1  0.500000  0.947729  0.930535  1
  B  B16  1  0.500000  0.742447  0.423403  1
  B  B17  1  0.500000  0.257553  0.576597  1
  B  B18  1  0.500000  0.243410  0.077399  1
  B  B19  1  0.500000  0.756590  0.922601  1
  B  B20  1  0.500000  0.801545  0.275532  1
  B  B21  1  0.500000  0.198455  0.724468  1
  B  B22  1  0.500000  0.302239  0.225294  1
  B  B23  1  0.500000  0.697761  0.774706  1
  B  B24  1  0.500000  0.643644  0.188851  1
  B  B25  1  0.500000  0.356356  0.811149  1
  B  B26  1  0.500000  0.144570  0.311795  1
  B  B27  1  0.500000  0.855430  0.688205  1
  B  B28  1  0.500000  0.989484  0.219903  1
  B  B29  1  0.500000  0.010516  0.780097  1
  B  B30  1  0.500000  0.488608  0.280909  1
  B  B31  1  0.500000  0.511392  0.719091  1
  B  B32  1  0.500000  0.639134  0.038616  1
  B  B33  1  0.500000  0.360866  0.961384  1
  B  B34  1  0.500000  0.140819  0.461145  1
  B  B35  1  0.500000  0.859181  0.538855  1
