# generated using pymatgen
data_Zr2Ta3Fe
_symmetry_space_group_name_H-M   'P 1'
_cell_length_a   5.25227741
_cell_length_b   5.25227673
_cell_length_c   5.25227698
_cell_angle_alpha   64.61394668
_cell_angle_beta   64.61394814
_cell_angle_gamma   64.61394389
_symmetry_Int_Tables_number   1
_chemical_formula_structural   Zr2Ta3Fe
_chemical_formula_sum   'Zr2 Ta3 Fe1'
_cell_volume   112.81109086
_cell_formula_units_Z   1
loop_
 _symmetry_equiv_pos_site_id
 _symmetry_equiv_pos_as_xyz
  1  'x, y, z'
loop_
 _atom_site_type_symbol
 _atom_site_label
 _atom_site_symmetry_multiplicity
 _atom_site_fract_x
 _atom_site_fract_y
 _atom_site_fract_z
 _atom_site_occupancy
  Zr  Zr0  1  0.000507  0.000507  0.000507  1
  Zr  Zr1  1  0.249493  0.249493  0.249493  1
  Ta  Ta2  1  0.625000  0.625000  0.125000  1
  Ta  Ta3  1  0.625000  0.125000  0.625000  1
  Ta  Ta4  1  0.125000  0.625000  0.625000  1
  Fe  Fe5  1  0.625000  0.625000  0.625000  1
