# generated using pymatgen
data_Ce3Dy2Er(SiPt5)2
_symmetry_space_group_name_H-M   'P 1'
_cell_length_a   8.29602376
_cell_length_b   8.28329222
_cell_length_c   8.28329107
_cell_angle_alpha   127.65040176
_cell_angle_beta   126.20803455
_cell_angle_gamma   78.33681371
_symmetry_Int_Tables_number   1
_chemical_formula_structural   Ce3Dy2Er(SiPt5)2
_chemical_formula_sum   'Ce3 Dy2 Er1 Si2 Pt10'
_cell_volume   352.24546459
_cell_formula_units_Z   1
loop_
 _symmetry_equiv_pos_site_id
 _symmetry_equiv_pos_as_xyz
  1  'x, y, z'
loop_
 _atom_site_type_symbol
 _atom_site_label
 _atom_site_symmetry_multiplicity
 _atom_site_fract_x
 _atom_site_fract_y
 _atom_site_fract_z
 _atom_site_occupancy
  Ce  Ce0  1  0.382152  0.748755  0.633397  1
  Ce  Ce1  1  0.228217  0.950832  0.277385  1
  Ce  Ce2  1  0.772529  0.051097  0.721432  1
  Dy  Dy3  1  0.613323  0.251589  0.361733  1
  Dy  Dy4  1  0.169830  0.449120  0.720711  1
  Er  Er5  1  0.825772  0.548636  0.277136  1
  Si  Si6  1  0.218854  0.250674  0.968179  1
  Si  Si7  1  0.782704  0.749185  0.033519  1
  Pt  Pt8  1  0.169697  0.898579  0.856837  1
  Pt  Pt9  1  0.831729  0.098843  0.141459  1
  Pt  Pt10  1  0.457235  0.188404  0.857017  1
  Pt  Pt11  1  0.544910  0.400488  0.734212  1
  Pt  Pt12  1  0.831729  0.690268  0.732885  1
  Pt  Pt13  1  0.457235  0.600218  0.268830  1
  Pt  Pt14  1  0.544910  0.810698  0.144423  1
  Pt  Pt15  1  0.169697  0.312859  0.271118  1
  Pt  Pt16  1  0.999739  0.000536  0.500522  1
  Pt  Pt17  1  0.999739  0.499217  0.999203  1
