# generated using pymatgen
data_Dy3Y17Co3Bi8Ru
_symmetry_space_group_name_H-M   'P 1'
_cell_length_a   8.04448004
_cell_length_b   8.94090839
_cell_length_c   12.47587258
_cell_angle_alpha   89.96636881
_cell_angle_beta   90.19654918
_cell_angle_gamma   89.99688157
_symmetry_Int_Tables_number   1
_chemical_formula_structural   Dy3Y17Co3Bi8Ru
_chemical_formula_sum   'Dy3 Y17 Co3 Bi8 Ru1'
_cell_volume   897.32118925
_cell_formula_units_Z   1
loop_
 _symmetry_equiv_pos_site_id
 _symmetry_equiv_pos_as_xyz
  1  'x, y, z'
loop_
 _atom_site_type_symbol
 _atom_site_label
 _atom_site_symmetry_multiplicity
 _atom_site_fract_x
 _atom_site_fract_y
 _atom_site_fract_z
 _atom_site_occupancy
  Dy  Dy0  1  0.676612  0.458440  0.564452  1
  Dy  Dy1  1  0.824175  0.463847  0.063067  1
  Dy  Dy2  1  0.174965  0.534324  0.936997  1
  Y  Y3  1  0.846675  0.749834  0.799978  1
  Y  Y4  1  0.152578  0.250156  0.198761  1
  Y  Y5  1  0.347340  0.250184  0.699643  1
  Y  Y6  1  0.654124  0.749925  0.295782  1
  Y  Y7  1  0.378118  0.749877  0.693418  1
  Y  Y8  1  0.618962  0.250126  0.310063  1
  Y  Y9  1  0.880657  0.250171  0.810851  1
  Y  Y10  1  0.118615  0.749872  0.187743  1
  Y  Y11  1  0.950104  0.749759  0.503750  1
  Y  Y12  1  0.049730  0.250183  0.496937  1
  Y  Y13  1  0.451708  0.250416  0.997253  1
  Y  Y14  1  0.548728  0.749591  0.002513  1
  Y  Y15  1  0.677414  0.041902  0.564862  1
  Y  Y16  1  0.323454  0.965757  0.435894  1
  Y  Y17  1  0.175834  0.965336  0.936558  1
  Y  Y18  1  0.323526  0.534223  0.435921  1
  Y  Y19  1  0.823329  0.036495  0.063485  1
  Co  Co20  1  0.434293  0.250367  0.491013  1
  Co  Co21  1  0.061164  0.250963  0.992038  1
  Co  Co22  1  0.937158  0.749069  0.007389  1
  Bi  Bi23  1  0.570672  0.491748  0.826883  1
  Bi  Bi24  1  0.428835  0.507933  0.173319  1
  Bi  Bi25  1  0.070801  0.507687  0.674338  1
  Bi  Bi26  1  0.428953  0.992121  0.173226  1
  Bi  Bi27  1  0.930582  0.492200  0.326080  1
  Bi  Bi28  1  0.570521  0.008241  0.826976  1
  Bi  Bi29  1  0.930588  0.007792  0.326140  1
  Bi  Bi30  1  0.070645  0.992354  0.674240  1
  Ru  Ru31  1  0.569139  0.749109  0.510430  1
