# generated using pymatgen
data_Y2Nb3CoNi8As7
_symmetry_space_group_name_H-M   'P 1'
_cell_length_a   3.86316500
_cell_length_b   9.64501754
_cell_length_c   9.60703585
_cell_angle_alpha   119.82159528
_cell_angle_beta   90.00000000
_cell_angle_gamma   90.00000000
_symmetry_Int_Tables_number   1
_chemical_formula_structural   Y2Nb3CoNi8As7
_chemical_formula_sum   'Y2 Nb3 Co1 Ni8 As7'
_cell_volume   310.55910073
_cell_formula_units_Z   1
loop_
 _symmetry_equiv_pos_site_id
 _symmetry_equiv_pos_as_xyz
  1  'x, y, z'
loop_
 _atom_site_type_symbol
 _atom_site_label
 _atom_site_symmetry_multiplicity
 _atom_site_fract_x
 _atom_site_fract_y
 _atom_site_fract_z
 _atom_site_occupancy
  Y  Y0  1  0.000000  0.667681  0.336076  1
  Y  Y1  1  0.500000  0.333516  0.666728  1
  Nb  Nb2  1  0.500000  0.777032  0.892345  1
  Nb  Nb3  1  0.500000  0.116764  0.222479  1
  Nb  Nb4  1  0.500000  0.105657  0.882392  1
  Co  Co5  1  0.000000  0.845833  0.718844  1
  Ni  Ni6  1  0.000000  0.573393  0.935775  1
  Ni  Ni7  1  0.000000  0.363496  0.427077  1
  Ni  Ni8  1  0.000000  0.063153  0.636811  1
  Ni  Ni9  1  0.000000  0.871781  0.156035  1
  Ni  Ni10  1  0.000000  0.283144  0.127931  1
  Ni  Ni11  1  0.500000  0.942105  0.381940  1
  Ni  Ni12  1  0.500000  0.438738  0.056797  1
  Ni  Ni13  1  0.500000  0.618465  0.560499  1
  As  As14  1  0.000000  0.999337  0.998759  1
  As  As15  1  0.500000  0.707024  0.119211  1
  As  As16  1  0.500000  0.411518  0.292156  1
  As  As17  1  0.500000  0.879032  0.589136  1
  As  As18  1  0.000000  0.583680  0.691820  1
  As  As19  1  0.000000  0.110772  0.417936  1
  As  As20  1  0.000000  0.307881  0.889249  1
