# generated using pymatgen
data_TbNdFe3Tc14C3
_symmetry_space_group_name_H-M   'P 1'
_cell_length_a   6.90793828
_cell_length_b   6.90793732
_cell_length_c   6.90793697
_cell_angle_alpha   82.58175242
_cell_angle_beta   82.58175167
_cell_angle_gamma   82.58174629
_symmetry_Int_Tables_number   1
_chemical_formula_structural   TbNdFe3Tc14C3
_chemical_formula_sum   'Tb1 Nd1 Fe3 Tc14 C3'
_cell_volume   322.02276529
_cell_formula_units_Z   1
loop_
 _symmetry_equiv_pos_site_id
 _symmetry_equiv_pos_as_xyz
  1  'x, y, z'
loop_
 _atom_site_type_symbol
 _atom_site_label
 _atom_site_symmetry_multiplicity
 _atom_site_fract_x
 _atom_site_fract_y
 _atom_site_fract_z
 _atom_site_occupancy
  Tb  Tb0  1  0.348069  0.348069  0.348069  1
  Nd  Nd1  1  0.650480  0.650480  0.650480  1
  Fe  Fe2  1  0.999716  0.999716  0.500158  1
  Fe  Fe3  1  0.500158  0.999716  0.999716  1
  Fe  Fe4  1  0.999716  0.500158  0.999716  1
  Tc  Tc5  1  0.723966  0.275639  0.000460  1
  Tc  Tc6  1  0.000460  0.723966  0.275639  1
  Tc  Tc7  1  0.275639  0.000460  0.723966  1
  Tc  Tc8  1  0.000460  0.275639  0.723966  1
  Tc  Tc9  1  0.723966  0.000460  0.275639  1
  Tc  Tc10  1  0.275639  0.723966  0.000460  1
  Tc  Tc11  1  0.346989  0.346989  0.863310  1
  Tc  Tc12  1  0.863310  0.346989  0.346989  1
  Tc  Tc13  1  0.346989  0.863310  0.346989  1
  Tc  Tc14  1  0.651899  0.651899  0.139426  1
  Tc  Tc15  1  0.139426  0.651899  0.651899  1
  Tc  Tc16  1  0.651899  0.139426  0.651899  1
  Tc  Tc17  1  0.899881  0.899881  0.899881  1
  Tc  Tc18  1  0.100725  0.100725  0.100725  1
  C  C19  1  0.497520  0.497520  0.005572  1
  C  C20  1  0.005572  0.497520  0.497520  1
  C  C21  1  0.497520  0.005572  0.497520  1
