# generated using pymatgen
data_LiDy3In4Ru
_symmetry_space_group_name_H-M   'P 1'
_cell_length_a   8.15824800
_cell_length_b   8.15824848
_cell_length_c   3.63738000
_cell_angle_alpha   90.00000000
_cell_angle_beta   90.00000000
_cell_angle_gamma   120.00000615
_symmetry_Int_Tables_number   1
_chemical_formula_structural   LiDy3In4Ru
_chemical_formula_sum   'Li1 Dy3 In4 Ru1'
_cell_volume   209.65880756
_cell_formula_units_Z   1
loop_
 _symmetry_equiv_pos_site_id
 _symmetry_equiv_pos_as_xyz
  1  'x, y, z'
loop_
 _atom_site_type_symbol
 _atom_site_label
 _atom_site_symmetry_multiplicity
 _atom_site_fract_x
 _atom_site_fract_y
 _atom_site_fract_z
 _atom_site_occupancy
  Li  Li0  1  0.666667  0.333333  0.500000  1
  Dy  Dy1  1  0.048000  0.290734  0.500000  1
  Dy  Dy2  1  0.709266  0.757264  0.500000  1
  Dy  Dy3  1  0.242736  0.952000  0.500000  1
  In  In4  1  0.664663  0.068021  0.000000  1
  In  In5  1  0.931979  0.596643  0.000000  1
  In  In6  1  0.403357  0.335337  0.000000  1
  In  In7  1  0.333333  0.666667  0.000000  1
  Ru  Ru8  1  0.000000  0.000000  0.000000  1
