# generated using pymatgen
data_Tb4Pr4Dy12Si15Ir
_symmetry_space_group_name_H-M   'P 1'
_cell_length_a   7.42737272
_cell_length_b   7.83143731
_cell_length_c   14.76154672
_cell_angle_alpha   89.99251766
_cell_angle_beta   90.17776247
_cell_angle_gamma   90.23095745
_symmetry_Int_Tables_number   1
_chemical_formula_structural   Tb4Pr4Dy12Si15Ir
_chemical_formula_sum   'Tb4 Pr4 Dy12 Si15 Ir1'
_cell_volume   858.62383012
_cell_formula_units_Z   1
loop_
 _symmetry_equiv_pos_site_id
 _symmetry_equiv_pos_as_xyz
  1  'x, y, z'
loop_
 _atom_site_type_symbol
 _atom_site_label
 _atom_site_symmetry_multiplicity
 _atom_site_fract_x
 _atom_site_fract_y
 _atom_site_fract_z
 _atom_site_occupancy
  Tb  Tb0  1  0.517345  0.318778  0.099168  1
  Tb  Tb1  1  0.022452  0.186983  0.399881  1
  Tb  Tb2  1  0.518488  0.319224  0.403646  1
  Tb  Tb3  1  0.480158  0.681787  0.595209  1
  Pr  Pr4  1  0.017341  0.183392  0.099077  1
  Pr  Pr5  1  0.984635  0.823657  0.904795  1
  Pr  Pr6  1  0.484256  0.678374  0.906557  1
  Pr  Pr7  1  0.984010  0.822776  0.592661  1
  Dy  Dy8  1  0.152053  0.510998  0.749246  1
  Dy  Dy9  1  0.842471  0.487056  0.249986  1
  Dy  Dy10  1  0.341654  0.014846  0.250906  1
  Dy  Dy11  1  0.667308  0.988952  0.749160  1
  Dy  Dy12  1  0.316264  0.174893  0.625199  1
  Dy  Dy13  1  0.675231  0.821564  0.375668  1
  Dy  Dy14  1  0.178836  0.678956  0.376532  1
  Dy  Dy15  1  0.676623  0.823467  0.126948  1
  Dy  Dy16  1  0.832658  0.314836  0.623409  1
  Dy  Dy17  1  0.317659  0.175546  0.873053  1
  Dy  Dy18  1  0.829658  0.318547  0.874008  1
  Dy  Dy19  1  0.177542  0.679291  0.124791  1
  Si  Si20  1  0.970964  0.891242  0.252243  1
  Si  Si21  1  0.471845  0.603603  0.251456  1
  Si  Si22  1  0.527708  0.395869  0.746868  1
  Si  Si23  1  0.276011  0.870114  0.747844  1
  Si  Si24  1  0.720233  0.128616  0.253386  1
  Si  Si25  1  0.227072  0.374127  0.252599  1
  Si  Si26  1  0.765044  0.620000  0.746617  1
  Si  Si27  1  0.156893  0.467838  0.535819  1
  Si  Si28  1  0.849539  0.526999  0.459414  1
  Si  Si29  1  0.348886  0.971764  0.460017  1
  Si  Si30  1  0.845483  0.531717  0.039123  1
  Si  Si31  1  0.644585  0.030796  0.537172  1
  Si  Si32  1  0.151824  0.469961  0.963146  1
  Si  Si33  1  0.648686  0.036950  0.964941  1
  Si  Si34  1  0.352439  0.972971  0.040027  1
  Ir  Ir35  1  0.026146  0.103513  0.749429  1
