# generated using pymatgen
data_Na4Ti(SeS)2
_symmetry_space_group_name_H-M   'P 1'
_cell_length_a   7.14043300
_cell_length_b   8.68369500
_cell_length_c   13.74202800
_cell_angle_alpha   90.00000000
_cell_angle_beta   90.00000000
_cell_angle_gamma   90.00000000
_symmetry_Int_Tables_number   1
_chemical_formula_structural   Na4Ti(SeS)2
_chemical_formula_sum   'Na16 Ti4 Se8 S8'
_cell_volume   852.07915058
_cell_formula_units_Z   4
loop_
 _symmetry_equiv_pos_site_id
 _symmetry_equiv_pos_as_xyz
  1  'x, y, z'
loop_
 _atom_site_type_symbol
 _atom_site_label
 _atom_site_symmetry_multiplicity
 _atom_site_fract_x
 _atom_site_fract_y
 _atom_site_fract_z
 _atom_site_occupancy
  Na  Na0  1  0.500000  0.500000  0.500000  1
  Na  Na1  1  0.118121  0.453044  0.267224  1
  Na  Na2  1  0.118121  0.046956  0.267224  1
  Na  Na3  1  0.992398  0.750000  0.462852  1
  Na  Na4  1  0.007602  0.250000  0.537148  1
  Na  Na5  1  0.618121  0.953044  0.232776  1
  Na  Na6  1  0.381879  0.046956  0.767224  1
  Na  Na7  1  0.881879  0.953044  0.732776  1
  Na  Na8  1  0.381879  0.453044  0.767224  1
  Na  Na9  1  0.000000  0.500000  0.000000  1
  Na  Na10  1  0.492398  0.250000  0.037148  1
  Na  Na11  1  0.618121  0.546956  0.232776  1
  Na  Na12  1  0.507602  0.750000  0.962852  1
  Na  Na13  1  0.000000  0.000000  0.000000  1
  Na  Na14  1  0.881879  0.546956  0.732776  1
  Na  Na15  1  0.500000  0.000000  0.500000  1
  Ti  Ti16  1  0.769424  0.250000  0.837151  1
  Ti  Ti17  1  0.730576  0.250000  0.337151  1
  Ti  Ti18  1  0.269424  0.750000  0.662849  1
  Ti  Ti19  1  0.230576  0.750000  0.162849  1
  Se  Se20  1  0.602828  0.750000  0.648591  1
  Se  Se21  1  0.397172  0.250000  0.351409  1
  Se  Se22  1  0.332076  0.750000  0.330458  1
  Se  Se23  1  0.167924  0.750000  0.830458  1
  Se  Se24  1  0.102828  0.250000  0.851409  1
  Se  Se25  1  0.897172  0.750000  0.148591  1
  Se  Se26  1  0.667924  0.250000  0.669542  1
  Se  Se27  1  0.832076  0.250000  0.169542  1
  S  S28  1  0.836676  0.468823  0.404385  1
  S  S29  1  0.663324  0.031177  0.904385  1
  S  S30  1  0.336676  0.968823  0.095615  1
  S  S31  1  0.336676  0.531177  0.095615  1
  S  S32  1  0.163324  0.531177  0.595615  1
  S  S33  1  0.836676  0.031177  0.404385  1
  S  S34  1  0.163324  0.968823  0.595615  1
  S  S35  1  0.663324  0.468823  0.904385  1
