# generated using pymatgen
data_Pr7Er3(Sn3Cl)2
_symmetry_space_group_name_H-M   'P 1'
_cell_length_a   9.40148200
_cell_length_b   9.40148302
_cell_length_c   6.71366500
_cell_angle_alpha   90.00000000
_cell_angle_beta   90.00000000
_cell_angle_gamma   119.99998938
_symmetry_Int_Tables_number   1
_chemical_formula_structural   Pr7Er3(Sn3Cl)2
_chemical_formula_sum   'Pr7 Er3 Sn6 Cl2'
_cell_volume   513.90522111
_cell_formula_units_Z   1
loop_
 _symmetry_equiv_pos_site_id
 _symmetry_equiv_pos_as_xyz
  1  'x, y, z'
loop_
 _atom_site_type_symbol
 _atom_site_label
 _atom_site_symmetry_multiplicity
 _atom_site_fract_x
 _atom_site_fract_y
 _atom_site_fract_z
 _atom_site_occupancy
  Pr  Pr0  1  0.333333  0.666667  0.000000  1
  Pr  Pr1  1  0.737881  0.998921  0.749544  1
  Pr  Pr2  1  0.737881  0.738961  0.250456  1
  Pr  Pr3  1  0.001079  0.262119  0.250456  1
  Pr  Pr4  1  0.001079  0.738961  0.749544  1
  Pr  Pr5  1  0.261039  0.262119  0.749544  1
  Pr  Pr6  1  0.261039  0.998921  0.250456  1
  Er  Er7  1  0.666667  0.333333  0.000000  1
  Er  Er8  1  0.333333  0.666667  0.500000  1
  Er  Er9  1  0.666667  0.333333  0.500000  1
  Sn  Sn10  1  0.610914  0.604911  0.744343  1
  Sn  Sn11  1  0.993997  0.604911  0.255657  1
  Sn  Sn12  1  0.610914  0.006003  0.255657  1
  Sn  Sn13  1  0.395089  0.006003  0.744343  1
  Sn  Sn14  1  0.993997  0.389086  0.744343  1
  Sn  Sn15  1  0.395089  0.389086  0.255657  1
  Cl  Cl16  1  0.000000  0.000000  0.500000  1
  Cl  Cl17  1  0.000000  0.000000  0.000000  1
