# generated using pymatgen
data_Sc6Al5(GaNi8)2
_symmetry_space_group_name_H-M   'P 1'
_cell_length_a   8.27163730
_cell_length_b   8.27163655
_cell_length_c   8.28064700
_cell_angle_alpha   59.96394707
_cell_angle_beta   59.96395006
_cell_angle_gamma   60.07208302
_symmetry_Int_Tables_number   1
_chemical_formula_structural   Sc6Al5(GaNi8)2
_chemical_formula_sum   'Sc6 Al5 Ga2 Ni16'
_cell_volume   400.61859413
_cell_formula_units_Z   1
loop_
 _symmetry_equiv_pos_site_id
 _symmetry_equiv_pos_as_xyz
  1  'x, y, z'
loop_
 _atom_site_type_symbol
 _atom_site_label
 _atom_site_symmetry_multiplicity
 _atom_site_fract_x
 _atom_site_fract_y
 _atom_site_fract_z
 _atom_site_occupancy
  Sc  Sc0  1  0.784519  0.215481  0.784519  1
  Sc  Sc1  1  0.785081  0.785081  0.214919  1
  Sc  Sc2  1  0.215481  0.784519  0.784519  1
  Sc  Sc3  1  0.214919  0.214919  0.785081  1
  Sc  Sc4  1  0.784519  0.215481  0.215481  1
  Sc  Sc5  1  0.215481  0.784519  0.215481  1
  Al  Al6  1  0.000000  0.500000  0.000000  1
  Al  Al7  1  0.500000  0.500000  0.500000  1
  Al  Al8  1  0.500000  0.000000  0.500000  1
  Al  Al9  1  0.000000  0.500000  0.500000  1
  Al  Al10  1  0.500000  0.000000  0.000000  1
  Ga  Ga11  1  0.500000  0.500000  0.000000  1
  Ga  Ga12  1  0.000000  0.000000  0.500000  1
  Ni  Ni13  1  0.170224  0.170224  0.169265  1
  Ni  Ni14  1  0.622525  0.622525  0.135300  1
  Ni  Ni15  1  0.377475  0.377475  0.380351  1
  Ni  Ni16  1  0.169265  0.490286  0.170224  1
  Ni  Ni17  1  0.170224  0.170224  0.490286  1
  Ni  Ni18  1  0.135300  0.619649  0.622525  1
  Ni  Ni19  1  0.619649  0.135300  0.622525  1
  Ni  Ni20  1  0.829776  0.829776  0.830735  1
  Ni  Ni21  1  0.864700  0.380351  0.377475  1
  Ni  Ni22  1  0.377475  0.377475  0.864700  1
  Ni  Ni23  1  0.380351  0.864700  0.377475  1
  Ni  Ni24  1  0.509714  0.830735  0.829776  1
  Ni  Ni25  1  0.622525  0.622525  0.619649  1
  Ni  Ni26  1  0.829776  0.829776  0.509714  1
  Ni  Ni27  1  0.490286  0.169265  0.170224  1
  Ni  Ni28  1  0.830735  0.509714  0.829776  1
