# generated using pymatgen
data_Ho17Tm3Co3Bi8Os
_symmetry_space_group_name_H-M   'P 1'
_cell_length_a   7.93950743
_cell_length_b   8.89492967
_cell_length_c   12.37173933
_cell_angle_alpha   89.95549087
_cell_angle_beta   89.77826304
_cell_angle_gamma   90.00187710
_symmetry_Int_Tables_number   1
_chemical_formula_structural   Ho17Tm3Co3Bi8Os
_chemical_formula_sum   'Ho17 Tm3 Co3 Bi8 Os1'
_cell_volume   873.70225256
_cell_formula_units_Z   1
loop_
 _symmetry_equiv_pos_site_id
 _symmetry_equiv_pos_as_xyz
  1  'x, y, z'
loop_
 _atom_site_type_symbol
 _atom_site_label
 _atom_site_symmetry_multiplicity
 _atom_site_fract_x
 _atom_site_fract_y
 _atom_site_fract_z
 _atom_site_occupancy
  Ho  Ho0  1  0.346086  0.749793  0.700482  1
  Ho  Ho1  1  0.653187  0.250188  0.300940  1
  Ho  Ho2  1  0.847294  0.250209  0.800075  1
  Ho  Ho3  1  0.155204  0.749897  0.206032  1
  Ho  Ho4  1  0.881253  0.749833  0.805809  1
  Ho  Ho5  1  0.114474  0.250207  0.188996  1
  Ho  Ho6  1  0.385393  0.250358  0.687999  1
  Ho  Ho7  1  0.614417  0.749712  0.313002  1
  Ho  Ho8  1  0.324629  0.038553  0.437035  1
  Ho  Ho9  1  0.824756  0.537370  0.063560  1
  Ho  Ho10  1  0.674788  0.962787  0.562968  1
  Ho  Ho11  1  0.824395  0.962767  0.063661  1
  Ho  Ho12  1  0.176147  0.042670  0.935601  1
  Ho  Ho13  1  0.053176  0.749783  0.497965  1
  Ho  Ho14  1  0.946806  0.250242  0.502425  1
  Ho  Ho15  1  0.554694  0.250134  0.002694  1
  Ho  Ho16  1  0.444057  0.749793  0.996890  1
  Tm  Tm17  1  0.673598  0.537277  0.562755  1
  Tm  Tm18  1  0.325871  0.461320  0.437260  1
  Tm  Tm19  1  0.175309  0.457368  0.935727  1
  Co  Co20  1  0.931334  0.250207  0.008780  1
  Co  Co21  1  0.565042  0.250564  0.507847  1
  Co  Co22  1  0.433881  0.749431  0.492436  1
  Bi  Bi23  1  0.571459  0.508790  0.826263  1
  Bi  Bi24  1  0.429555  0.490567  0.173537  1
  Bi  Bi25  1  0.071603  0.490237  0.672307  1
  Bi  Bi26  1  0.429504  0.009413  0.173396  1
  Bi  Bi27  1  0.928262  0.508971  0.327461  1
  Bi  Bi28  1  0.571693  0.991220  0.826339  1
  Bi  Bi29  1  0.927979  0.991006  0.327360  1
  Bi  Bi30  1  0.071812  0.009757  0.672322  1
  Os  Os31  1  0.072341  0.749575  0.990076  1
