# generated using pymatgen
data_Pu2B10Ir
_symmetry_space_group_name_H-M   'P 1'
_cell_length_a   4.18186800
_cell_length_b   5.70363200
_cell_length_c   11.34989800
_cell_angle_alpha   90.00000000
_cell_angle_beta   90.00000000
_cell_angle_gamma   90.00000000
_symmetry_Int_Tables_number   1
_chemical_formula_structural   Pu2B10Ir
_chemical_formula_sum   'Pu4 B20 Ir2'
_cell_volume   270.71590735
_cell_formula_units_Z   2
loop_
 _symmetry_equiv_pos_site_id
 _symmetry_equiv_pos_as_xyz
  1  'x, y, z'
loop_
 _atom_site_type_symbol
 _atom_site_label
 _atom_site_symmetry_multiplicity
 _atom_site_fract_x
 _atom_site_fract_y
 _atom_site_fract_z
 _atom_site_occupancy
  Pu  Pu0  1  0.500000  0.200021  0.362845  1
  Pu  Pu1  1  0.500000  0.799979  0.637155  1
  Pu  Pu2  1  0.500000  0.299979  0.862845  1
  Pu  Pu3  1  0.500000  0.700021  0.137155  1
  B  B4  1  0.000000  0.381359  0.042357  1
  B  B5  1  0.000000  0.618641  0.957643  1
  B  B6  1  0.000000  0.118641  0.542357  1
  B  B7  1  0.000000  0.881359  0.457643  1
  B  B8  1  0.000000  0.362621  0.197165  1
  B  B9  1  0.000000  0.637379  0.802835  1
  B  B10  1  0.000000  0.137379  0.697165  1
  B  B11  1  0.000000  0.862621  0.302835  1
  B  B12  1  0.000000  0.054821  0.193213  1
  B  B13  1  0.000000  0.945179  0.806787  1
  B  B14  1  0.000000  0.445179  0.693213  1
  B  B15  1  0.000000  0.554821  0.306787  1
  B  B16  1  0.302259  0.218659  0.118099  1
  B  B17  1  0.697741  0.781341  0.881901  1
  B  B18  1  0.302259  0.781341  0.881901  1
  B  B19  1  0.697741  0.281341  0.618099  1
  B  B20  1  0.697741  0.218659  0.118099  1
  B  B21  1  0.302259  0.718659  0.381901  1
  B  B22  1  0.697741  0.718659  0.381901  1
  B  B23  1  0.302259  0.281341  0.618099  1
  Ir  Ir24  1  0.000000  0.000000  0.000000  1
  Ir  Ir25  1  0.000000  0.500000  0.500000  1
