# generated using pymatgen
data_Er2Co9Tc3P7
_symmetry_space_group_name_H-M   'P 1'
_cell_length_a   3.68663000
_cell_length_b   9.01549861
_cell_length_c   9.01550000
_cell_angle_alpha   119.99999776
_cell_angle_beta   90.00000000
_cell_angle_gamma   90.00000000
_symmetry_Int_Tables_number   1
_chemical_formula_structural   Er2Co9Tc3P7
_chemical_formula_sum   'Er2 Co9 Tc3 P7'
_cell_volume   259.50143442
_cell_formula_units_Z   1
loop_
 _symmetry_equiv_pos_site_id
 _symmetry_equiv_pos_as_xyz
  1  'x, y, z'
loop_
 _atom_site_type_symbol
 _atom_site_label
 _atom_site_symmetry_multiplicity
 _atom_site_fract_x
 _atom_site_fract_y
 _atom_site_fract_z
 _atom_site_occupancy
  Er  Er0  1  0.000000  0.666667  0.333333  1
  Er  Er1  1  0.500000  0.333333  0.666667  1
  Co  Co2  1  0.000000  0.565748  0.938301  1
  Co  Co3  1  0.000000  0.372553  0.434252  1
  Co  Co4  1  0.000000  0.061699  0.627447  1
  Co  Co5  1  0.000000  0.877107  0.158584  1
  Co  Co6  1  0.000000  0.281476  0.122893  1
  Co  Co7  1  0.000000  0.841416  0.718524  1
  Co  Co8  1  0.500000  0.945395  0.383578  1
  Co  Co9  1  0.500000  0.438181  0.054605  1
  Co  Co10  1  0.500000  0.616422  0.561819  1
  Tc  Tc11  1  0.500000  0.779508  0.901509  1
  Tc  Tc12  1  0.500000  0.122001  0.220492  1
  Tc  Tc13  1  0.500000  0.098491  0.877999  1
  P  P14  1  0.000000  0.000000  0.000000  1
  P  P15  1  0.500000  0.708050  0.117253  1
  P  P16  1  0.500000  0.409203  0.291950  1
  P  P17  1  0.500000  0.882747  0.590797  1
  P  P18  1  0.000000  0.588182  0.700664  1
  P  P19  1  0.000000  0.112482  0.411818  1
  P  P20  1  0.000000  0.299336  0.887518  1
