# generated using pymatgen
data_ErLu3(AlPd)4
_symmetry_space_group_name_H-M   'P 1'
_cell_length_a   4.41009200
_cell_length_b   6.78223840
_cell_length_c   7.74195229
_cell_angle_alpha   89.38711462
_cell_angle_beta   90.00000000
_cell_angle_gamma   90.00000000
_symmetry_Int_Tables_number   1
_chemical_formula_structural   ErLu3(AlPd)4
_chemical_formula_sum   'Er1 Lu3 Al4 Pd4'
_cell_volume   231.55083104
_cell_formula_units_Z   1
loop_
 _symmetry_equiv_pos_site_id
 _symmetry_equiv_pos_as_xyz
  1  'x, y, z'
loop_
 _atom_site_type_symbol
 _atom_site_label
 _atom_site_symmetry_multiplicity
 _atom_site_fract_x
 _atom_site_fract_y
 _atom_site_fract_z
 _atom_site_occupancy
  Er  Er0  1  0.750000  0.468141  0.820766  1
  Lu  Lu1  1  0.250000  0.032020  0.320012  1
  Lu  Lu2  1  0.250000  0.533394  0.180699  1
  Lu  Lu3  1  0.750000  0.967995  0.678666  1
  Al  Al4  1  0.250000  0.145557  0.940433  1
  Al  Al5  1  0.250000  0.646023  0.559419  1
  Al  Al6  1  0.750000  0.855373  0.059573  1
  Al  Al7  1  0.750000  0.354409  0.440019  1
  Pd  Pd8  1  0.250000  0.266942  0.618830  1
  Pd  Pd9  1  0.250000  0.770735  0.878436  1
  Pd  Pd10  1  0.750000  0.730765  0.379476  1
  Pd  Pd11  1  0.750000  0.228647  0.123670  1
