# generated using pymatgen
data_Tb7Er9Zn3InRh4
_symmetry_space_group_name_H-M   'P 1'
_cell_length_a   9.52968113
_cell_length_b   9.48603451
_cell_length_c   9.53027753
_cell_angle_alpha   59.82113006
_cell_angle_beta   59.83219896
_cell_angle_gamma   59.80456023
_symmetry_Int_Tables_number   1
_chemical_formula_structural   Tb7Er9Zn3InRh4
_chemical_formula_sum   'Tb7 Er9 Zn3 In1 Rh4'
_cell_volume   606.69244523
_cell_formula_units_Z   1
loop_
 _symmetry_equiv_pos_site_id
 _symmetry_equiv_pos_as_xyz
  1  'x, y, z'
loop_
 _atom_site_type_symbol
 _atom_site_label
 _atom_site_symmetry_multiplicity
 _atom_site_fract_x
 _atom_site_fract_y
 _atom_site_fract_z
 _atom_site_occupancy
  Tb  Tb0  1  0.189434  0.190682  0.810697  1
  Tb  Tb1  1  0.437653  0.063344  0.062390  1
  Tb  Tb2  1  0.434889  0.060053  0.433071  1
  Tb  Tb3  1  0.062346  0.437286  0.064129  1
  Tb  Tb4  1  0.647809  0.057518  0.645716  1
  Tb  Tb5  1  0.191765  0.808378  0.810075  1
  Tb  Tb6  1  0.061978  0.064767  0.436301  1
  Er  Er7  1  0.809484  0.189900  0.189602  1
  Er  Er8  1  0.809572  0.809275  0.191454  1
  Er  Er9  1  0.646654  0.645913  0.058790  1
  Er  Er10  1  0.649021  0.647436  0.647340  1
  Er  Er11  1  0.058501  0.436783  0.434678  1
  Er  Er12  1  0.056452  0.647223  0.646272  1
  Er  Er13  1  0.808413  0.192208  0.810177  1
  Er  Er14  1  0.435693  0.435941  0.058918  1
  Er  Er15  1  0.190502  0.808744  0.191422  1
  Zn  Zn16  1  0.422582  0.740775  0.422212  1
  Zn  Zn17  1  0.422196  0.422695  0.742281  1
  Zn  Zn18  1  0.742661  0.422596  0.421746  1
  In  In19  1  0.421479  0.424647  0.421268  1
  Rh  Rh20  1  0.854100  0.431575  0.855623  1
  Rh  Rh21  1  0.858246  0.854011  0.428762  1
  Rh  Rh22  1  0.431449  0.852493  0.858321  1
  Rh  Rh23  1  0.857122  0.855758  0.858752  1
