# generated using pymatgen
data_Ho6Al24FePd2Ru5
_symmetry_space_group_name_H-M   'P 1'
_cell_length_a   8.82076946
_cell_length_b   8.78412204
_cell_length_c   9.51506583
_cell_angle_alpha   89.99999898
_cell_angle_beta   90.11707402
_cell_angle_gamma   119.86265477
_symmetry_Int_Tables_number   1
_chemical_formula_structural   Ho6Al24FePd2Ru5
_chemical_formula_sum   'Ho6 Al24 Fe1 Pd2 Ru5'
_cell_volume   639.35998086
_cell_formula_units_Z   1
loop_
 _symmetry_equiv_pos_site_id
 _symmetry_equiv_pos_as_xyz
  1  'x, y, z'
loop_
 _atom_site_type_symbol
 _atom_site_label
 _atom_site_symmetry_multiplicity
 _atom_site_fract_x
 _atom_site_fract_y
 _atom_site_fract_z
 _atom_site_occupancy
  Ho  Ho0  1  0.191564  0.386821  0.252255  1
  Ho  Ho1  1  0.808436  0.613179  0.747745  1
  Ho  Ho2  1  0.614971  0.807486  0.250579  1
  Ho  Ho3  1  0.385029  0.192514  0.749421  1
  Ho  Ho4  1  0.191564  0.804743  0.252255  1
  Ho  Ho5  1  0.808436  0.195257  0.747745  1
  Al  Al6  1  0.328092  0.664046  0.025736  1
  Al  Al7  1  0.671908  0.335954  0.974264  1
  Al  Al8  1  0.666734  0.333366  0.520521  1
  Al  Al9  1  0.333266  0.666634  0.479479  1
  Al  Al10  1  0.160639  0.320523  0.575920  1
  Al  Al11  1  0.839361  0.679477  0.424080  1
  Al  Al12  1  0.680326  0.840163  0.575531  1
  Al  Al13  1  0.842412  0.675846  0.078647  1
  Al  Al14  1  0.319674  0.159837  0.424469  1
  Al  Al15  1  0.157588  0.324154  0.921353  1
  Al  Al16  1  0.160639  0.840119  0.575920  1
  Al  Al17  1  0.321839  0.160918  0.080471  1
  Al  Al18  1  0.839361  0.159881  0.424080  1
  Al  Al19  1  0.678161  0.839082  0.919529  1
  Al  Al20  1  0.842412  0.166565  0.078647  1
  Al  Al21  1  0.157588  0.833435  0.921353  1
  Al  Al22  1  0.562281  0.124956  0.252132  1
  Al  Al23  1  0.437719  0.875044  0.747868  1
  Al  Al24  1  0.876818  0.438409  0.249182  1
  Al  Al25  1  0.123182  0.561591  0.750818  1
  Al  Al26  1  0.562281  0.437326  0.252132  1
  Al  Al27  1  0.437719  0.562674  0.747868  1
  Al  Al28  1  0.998567  0.999284  0.256633  1
  Al  Al29  1  0.001433  0.000716  0.743367  1
  Fe  Fe30  1  0.000000  0.000000  0.500000  1
  Pd  Pd31  1  0.500000  0.000000  0.000000  1
  Pd  Pd32  1  0.500000  0.500000  0.000000  1
  Ru  Ru33  1  0.000000  0.500000  0.000000  1
  Ru  Ru34  1  0.500000  0.000000  0.500000  1
  Ru  Ru35  1  0.000000  0.500000  0.500000  1
  Ru  Ru36  1  0.500000  0.500000  0.500000  1
  Ru  Ru37  1  0.000000  0.000000  0.000000  1
