# generated using pymatgen
data_Tb7Lu9(Ga3Co)2
_symmetry_space_group_name_H-M   'P 1'
_cell_length_a   9.87763022
_cell_length_b   9.87762803
_cell_length_c   6.92980000
_cell_angle_alpha   90.00196780
_cell_angle_beta   89.99802968
_cell_angle_gamma   119.96439126
_symmetry_Int_Tables_number   1
_chemical_formula_structural   Tb7Lu9(Ga3Co)2
_chemical_formula_sum   'Tb7 Lu9 Ga6 Co2'
_cell_volume   585.75025208
_cell_formula_units_Z   1
loop_
 _symmetry_equiv_pos_site_id
 _symmetry_equiv_pos_as_xyz
  1  'x, y, z'
loop_
 _atom_site_type_symbol
 _atom_site_label
 _atom_site_symmetry_multiplicity
 _atom_site_fract_x
 _atom_site_fract_y
 _atom_site_fract_z
 _atom_site_occupancy
  Tb  Tb0  1  0.929061  0.464551  0.791649  1
  Tb  Tb1  1  0.535449  0.070939  0.791649  1
  Tb  Tb2  1  0.464503  0.928421  0.291575  1
  Tb  Tb3  1  0.071579  0.535497  0.291575  1
  Tb  Tb4  1  0.535121  0.464879  0.791921  1
  Tb  Tb5  1  0.999980  0.000020  0.268881  1
  Tb  Tb6  1  0.000099  0.999901  0.768984  1
  Lu  Lu7  1  0.173834  0.826166  0.988144  1
  Lu  Lu8  1  0.348149  0.174975  0.487178  1
  Lu  Lu9  1  0.825025  0.651851  0.487178  1
  Lu  Lu10  1  0.174876  0.348505  0.989040  1
  Lu  Lu11  1  0.651495  0.825124  0.989040  1
  Lu  Lu12  1  0.826190  0.173810  0.488074  1
  Lu  Lu13  1  0.333884  0.666116  0.673944  1
  Lu  Lu14  1  0.666136  0.333864  0.174808  1
  Lu  Lu15  1  0.463637  0.536363  0.292254  1
  Ga  Ga16  1  0.163479  0.836521  0.542132  1
  Ga  Ga17  1  0.327180  0.163669  0.042401  1
  Ga  Ga18  1  0.836331  0.672820  0.042401  1
  Ga  Ga19  1  0.164689  0.328025  0.540949  1
  Ga  Ga20  1  0.671975  0.835311  0.540949  1
  Ga  Ga21  1  0.836468  0.163532  0.041631  1
  Co  Co22  1  0.334184  0.665816  0.054309  1
  Co  Co23  1  0.666674  0.333326  0.553343  1
