# generated using pymatgen
data_DyZn2(Cu2Au3)2
_symmetry_space_group_name_H-M   'P 1'
_cell_length_a   5.21561927
_cell_length_b   6.91545073
_cell_length_c   6.91545117
_cell_angle_alpha   98.50291960
_cell_angle_beta   112.15409989
_cell_angle_gamma   67.84588863
_symmetry_Int_Tables_number   1
_chemical_formula_structural   DyZn2(Cu2Au3)2
_chemical_formula_sum   'Dy1 Zn2 Cu4 Au6'
_cell_volume   213.95459994
_cell_formula_units_Z   1
loop_
 _symmetry_equiv_pos_site_id
 _symmetry_equiv_pos_as_xyz
  1  'x, y, z'
loop_
 _atom_site_type_symbol
 _atom_site_label
 _atom_site_symmetry_multiplicity
 _atom_site_fract_x
 _atom_site_fract_y
 _atom_site_fract_z
 _atom_site_occupancy
  Dy  Dy0  1  0.000000  0.000000  0.000000  1
  Zn  Zn1  1  0.500000  0.760045  0.760045  1
  Zn  Zn2  1  0.500000  0.239955  0.239955  1
  Cu  Cu3  1  0.500000  0.000000  0.500000  1
  Cu  Cu4  1  0.000000  0.000000  0.500000  1
  Cu  Cu5  1  0.500000  0.500000  0.000000  1
  Cu  Cu6  1  0.000000  0.500000  0.000000  1
  Au  Au7  1  0.662809  0.337191  0.662809  1
  Au  Au8  1  0.337191  0.662809  0.337191  1
  Au  Au9  1  0.000000  0.335345  0.335345  1
  Au  Au10  1  0.000000  0.664655  0.664655  1
  Au  Au11  1  0.682776  0.817224  0.182776  1
  Au  Au12  1  0.317224  0.182776  0.817224  1
