# generated using pymatgen
data_Li4YbPr3Pd4
_symmetry_space_group_name_H-M   'P 1'
_cell_length_a   4.16747900
_cell_length_b   7.30119048
_cell_length_c   8.59526797
_cell_angle_alpha   89.61216271
_cell_angle_beta   90.00000000
_cell_angle_gamma   90.00000000
_symmetry_Int_Tables_number   1
_chemical_formula_structural   Li4YbPr3Pd4
_chemical_formula_sum   'Li4 Yb1 Pr3 Pd4'
_cell_volume   261.52702297
_cell_formula_units_Z   1
loop_
 _symmetry_equiv_pos_site_id
 _symmetry_equiv_pos_as_xyz
  1  'x, y, z'
loop_
 _atom_site_type_symbol
 _atom_site_label
 _atom_site_symmetry_multiplicity
 _atom_site_fract_x
 _atom_site_fract_y
 _atom_site_fract_z
 _atom_site_occupancy
  Li  Li0  1  0.250000  0.631447  0.558877  1
  Li  Li1  1  0.750000  0.372070  0.448004  1
  Li  Li2  1  0.250000  0.123610  0.939323  1
  Li  Li3  1  0.750000  0.874770  0.051161  1
  Yb  Yb4  1  0.750000  0.958436  0.681350  1
  Pr  Pr5  1  0.250000  0.543065  0.182864  1
  Pr  Pr6  1  0.750000  0.457857  0.815376  1
  Pr  Pr7  1  0.250000  0.041538  0.321310  1
  Pd  Pd8  1  0.750000  0.745920  0.378578  1
  Pd  Pd9  1  0.250000  0.250820  0.624070  1
  Pd  Pd10  1  0.750000  0.247498  0.122483  1
  Pd  Pd11  1  0.250000  0.752967  0.876605  1
