# generated using pymatgen
data_La4Dy6Os3Rh
_symmetry_space_group_name_H-M   'P 1'
_cell_length_a   6.56183015
_cell_length_b   7.23788454
_cell_length_c   8.89908100
_cell_angle_alpha   96.84877425
_cell_angle_beta   111.69688546
_cell_angle_gamma   90.03513142
_symmetry_Int_Tables_number   1
_chemical_formula_structural   La4Dy6Os3Rh
_chemical_formula_sum   'La4 Dy6 Os3 Rh1'
_cell_volume   389.44702893
_cell_formula_units_Z   1
loop_
 _symmetry_equiv_pos_site_id
 _symmetry_equiv_pos_as_xyz
  1  'x, y, z'
loop_
 _atom_site_type_symbol
 _atom_site_label
 _atom_site_symmetry_multiplicity
 _atom_site_fract_x
 _atom_site_fract_y
 _atom_site_fract_z
 _atom_site_occupancy
  La  La0  1  0.787761  0.084285  0.806614  1
  La  La1  1  0.982489  0.414991  0.194342  1
  La  La2  1  0.214222  0.913580  0.194059  1
  La  La3  1  0.022729  0.587699  0.808423  1
  Dy  Dy4  1  0.200732  0.183157  0.565702  1
  Dy  Dy5  1  0.637491  0.312466  0.427561  1
  Dy  Dy6  1  0.794068  0.814422  0.433117  1
  Dy  Dy7  1  0.362888  0.686495  0.566500  1
  Dy  Dy8  1  0.429355  0.248794  0.000939  1
  Dy  Dy9  1  0.571219  0.754418  0.003655  1
  Os  Os10  1  0.820801  0.078256  0.226288  1
  Os  Os11  1  0.405766  0.575400  0.224798  1
  Os  Os12  1  0.179620  0.922457  0.772877  1
  Rh  Rh13  1  0.590856  0.423579  0.775126  1
