# generated using pymatgen
data_Tm4PdPt3F28
_symmetry_space_group_name_H-M   'P 1'
_cell_length_a   5.49124314
_cell_length_b   8.80089172
_cell_length_c   11.89989700
_cell_angle_alpha   62.53643132
_cell_angle_beta   90.01271908
_cell_angle_gamma   90.02695897
_symmetry_Int_Tables_number   1
_chemical_formula_structural   Tm4PdPt3F28
_chemical_formula_sum   'Tm4 Pd1 Pt3 F28'
_cell_volume   510.28531411
_cell_formula_units_Z   1
loop_
 _symmetry_equiv_pos_site_id
 _symmetry_equiv_pos_as_xyz
  1  'x, y, z'
loop_
 _atom_site_type_symbol
 _atom_site_label
 _atom_site_symmetry_multiplicity
 _atom_site_fract_x
 _atom_site_fract_y
 _atom_site_fract_z
 _atom_site_occupancy
  Tm  Tm0  1  0.261030  0.815463  0.263102  1
  Tm  Tm1  1  0.738879  0.184255  0.736097  1
  Tm  Tm2  1  0.761269  0.185202  0.235988  1
  Tm  Tm3  1  0.237999  0.815543  0.764179  1
  Pd  Pd4  1  0.759632  0.727766  0.042596  1
  Pt  Pt5  1  0.240650  0.272545  0.957274  1
  Pt  Pt6  1  0.259664  0.272724  0.456986  1
  Pt  Pt7  1  0.740247  0.727321  0.542972  1
  F  F8  1  0.938665  0.703962  0.414302  1
  F  F9  1  0.060908  0.296100  0.585507  1
  F  F10  1  0.439430  0.296221  0.085597  1
  F  F11  1  0.559674  0.704157  0.916463  1
  F  F12  1  0.469671  0.726502  0.137556  1
  F  F13  1  0.534947  0.272449  0.863149  1
  F  F14  1  0.965608  0.273657  0.362291  1
  F  F15  1  0.034461  0.726352  0.637690  1
  F  F16  1  0.953798  0.744377  0.174555  1
  F  F17  1  0.046684  0.254681  0.824288  1
  F  F18  1  0.453158  0.255450  0.323703  1
  F  F19  1  0.547225  0.744488  0.676695  1
  F  F20  1  0.773360  0.478380  0.141796  1
  F  F21  1  0.228499  0.523926  0.857909  1
  F  F22  1  0.272317  0.524086  0.357061  1
  F  F23  1  0.727474  0.475877  0.642865  1
  F  F24  1  0.938496  0.278972  0.044643  1
  F  F25  1  0.057779  0.720433  0.955364  1
  F  F26  1  0.438208  0.721065  0.455276  1
  F  F27  1  0.561686  0.278915  0.544624  1
  F  F28  1  0.742502  0.978378  0.448355  1
  F  F29  1  0.257836  0.021664  0.551689  1
  F  F30  1  0.242430  0.021652  0.051601  1
  F  F31  1  0.757396  0.976242  0.948905  1
  F  F32  1  0.583132  0.971129  0.232644  1
  F  F33  1  0.415887  0.029770  0.767243  1
  F  F34  1  0.083315  0.029256  0.267374  1
  F  F35  1  0.916089  0.971042  0.731658  1
