# generated using pymatgen
data_Tb2Er8InSb5
_symmetry_space_group_name_H-M   'P 1'
_cell_length_a   8.92100200
_cell_length_b   8.90904715
_cell_length_c   6.35292600
_cell_angle_alpha   90.00000000
_cell_angle_beta   90.00000000
_cell_angle_gamma   120.04439888
_symmetry_Int_Tables_number   1
_chemical_formula_structural   Tb2Er8InSb5
_chemical_formula_sum   'Tb2 Er8 In1 Sb5'
_cell_volume   437.07387506
_cell_formula_units_Z   1
loop_
 _symmetry_equiv_pos_site_id
 _symmetry_equiv_pos_as_xyz
  1  'x, y, z'
loop_
 _atom_site_type_symbol
 _atom_site_label
 _atom_site_symmetry_multiplicity
 _atom_site_fract_x
 _atom_site_fract_y
 _atom_site_fract_z
 _atom_site_occupancy
  Tb  Tb0  1  0.997971  0.243876  0.250000  1
  Tb  Tb1  1  0.754095  0.756124  0.250000  1
  Er  Er2  1  0.004353  0.759280  0.750000  1
  Er  Er3  1  0.756404  0.000000  0.750000  1
  Er  Er4  1  0.245074  0.240720  0.750000  1
  Er  Er5  1  0.243015  0.000000  0.250000  1
  Er  Er6  1  0.333627  0.668706  0.499181  1
  Er  Er7  1  0.664921  0.331294  0.000819  1
  Er  Er8  1  0.664921  0.331294  0.499181  1
  Er  Er9  1  0.333627  0.668706  0.000819  1
  In  In10  1  0.394907  0.000000  0.750000  1
  Sb  Sb11  1  0.389593  0.389905  0.250000  1
  Sb  Sb12  1  0.999687  0.610095  0.250000  1
  Sb  Sb13  1  0.000758  0.390118  0.750000  1
  Sb  Sb14  1  0.610640  0.609882  0.750000  1
  Sb  Sb15  1  0.606404  0.000000  0.250000  1
