# generated using pymatgen
data_Tb2Mn4Co8SiP6
_symmetry_space_group_name_H-M   'P 1'
_cell_length_a   9.05769246
_cell_length_b   9.08666544
_cell_length_c   3.63213700
_cell_angle_alpha   90.00000000
_cell_angle_beta   90.00000000
_cell_angle_gamma   119.76978716
_symmetry_Int_Tables_number   1
_chemical_formula_structural   Tb2Mn4Co8SiP6
_chemical_formula_sum   'Tb2 Mn4 Co8 Si1 P6'
_cell_volume   259.48828836
_cell_formula_units_Z   1
loop_
 _symmetry_equiv_pos_site_id
 _symmetry_equiv_pos_as_xyz
  1  'x, y, z'
loop_
 _atom_site_type_symbol
 _atom_site_label
 _atom_site_symmetry_multiplicity
 _atom_site_fract_x
 _atom_site_fract_y
 _atom_site_fract_z
 _atom_site_occupancy
  Tb  Tb0  1  0.670398  0.335516  0.000000  1
  Tb  Tb1  1  0.332983  0.665834  0.500000  1
  Mn  Mn2  1  0.879055  0.155038  0.000000  1
  Mn  Mn3  1  0.102093  0.875412  0.500000  1
  Mn  Mn4  1  0.775687  0.897496  0.500000  1
  Mn  Mn5  1  0.112989  0.219598  0.500000  1
  Co  Co6  1  0.060451  0.630571  0.000000  1
  Co  Co7  1  0.569858  0.937840  0.000000  1
  Co  Co8  1  0.369949  0.432901  0.000000  1
  Co  Co9  1  0.273545  0.115650  0.000000  1
  Co  Co10  1  0.844735  0.725615  0.000000  1
  Co  Co11  1  0.436477  0.046833  0.500000  1
  Co  Co12  1  0.619792  0.569589  0.500000  1
  Co  Co13  1  0.950398  0.388374  0.500000  1
  Si  Si14  1  0.404600  0.290468  0.500000  1
  P  P15  1  0.298701  0.888943  0.000000  1
  P  P16  1  0.588430  0.698089  0.000000  1
  P  P17  1  0.110022  0.410521  0.000000  1
  P  P18  1  0.888120  0.599661  0.500000  1
  P  P19  1  0.711400  0.117726  0.500000  1
  P  P20  1  0.000319  0.998329  0.000000  1
