# generated using pymatgen
data_Dy20Bi8PdRu3
_symmetry_space_group_name_H-M   'P 1'
_cell_length_a   8.00078293
_cell_length_b   9.02159800
_cell_length_c   12.47453000
_cell_angle_alpha   90.00000000
_cell_angle_beta   89.97233601
_cell_angle_gamma   90.00000000
_symmetry_Int_Tables_number   1
_chemical_formula_structural   Dy20Bi8PdRu3
_chemical_formula_sum   'Dy20 Bi8 Pd1 Ru3'
_cell_volume   900.40956562
_cell_formula_units_Z   1
loop_
 _symmetry_equiv_pos_site_id
 _symmetry_equiv_pos_as_xyz
  1  'x, y, z'
loop_
 _atom_site_type_symbol
 _atom_site_label
 _atom_site_symmetry_multiplicity
 _atom_site_fract_x
 _atom_site_fract_y
 _atom_site_fract_z
 _atom_site_occupancy
  Dy  Dy0  1  0.844056  0.750000  0.794916  1
  Dy  Dy1  1  0.157647  0.250000  0.206831  1
  Dy  Dy2  1  0.341787  0.250000  0.706546  1
  Dy  Dy3  1  0.662896  0.750000  0.287710  1
  Dy  Dy4  1  0.370433  0.750000  0.696915  1
  Dy  Dy5  1  0.623247  0.250000  0.308304  1
  Dy  Dy6  1  0.878194  0.250000  0.806842  1
  Dy  Dy7  1  0.123814  0.750000  0.193853  1
  Dy  Dy8  1  0.953789  0.750000  0.502503  1
  Dy  Dy9  1  0.049457  0.250000  0.497177  1
  Dy  Dy10  1  0.444168  0.250000  0.996040  1
  Dy  Dy11  1  0.553171  0.750000  0.002614  1
  Dy  Dy12  1  0.678352  0.050361  0.566075  1
  Dy  Dy13  1  0.321994  0.963450  0.433554  1
  Dy  Dy14  1  0.175387  0.957332  0.936069  1
  Dy  Dy15  1  0.321994  0.536550  0.433554  1
  Dy  Dy16  1  0.824652  0.040747  0.063988  1
  Dy  Dy17  1  0.678352  0.449639  0.566075  1
  Dy  Dy18  1  0.824652  0.459253  0.063988  1
  Dy  Dy19  1  0.175387  0.542668  0.936069  1
  Bi  Bi20  1  0.569697  0.492030  0.826654  1
  Bi  Bi21  1  0.431174  0.507761  0.172315  1
  Bi  Bi22  1  0.069020  0.507833  0.672629  1
  Bi  Bi23  1  0.431174  0.992239  0.172315  1
  Bi  Bi24  1  0.929342  0.491977  0.327541  1
  Bi  Bi25  1  0.569697  0.007970  0.826654  1
  Bi  Bi26  1  0.929342  0.008023  0.327541  1
  Bi  Bi27  1  0.069020  0.992167  0.672629  1
  Pd  Pd28  1  0.574690  0.750000  0.511349  1
  Ru  Ru29  1  0.424597  0.250000  0.488895  1
  Ru  Ru30  1  0.073986  0.250000  0.989427  1
  Ru  Ru31  1  0.924829  0.750000  0.012426  1
