# generated using pymatgen
data_CeDy3Ho2Ta2O14
_symmetry_space_group_name_H-M   'P 1'
_cell_length_a   6.51055679
_cell_length_b   6.50964909
_cell_length_c   7.52377172
_cell_angle_alpha   90.06287179
_cell_angle_beta   89.90541003
_cell_angle_gamma   108.60674291
_symmetry_Int_Tables_number   1
_chemical_formula_structural   CeDy3Ho2Ta2O14
_chemical_formula_sum   'Ce1 Dy3 Ho2 Ta2 O14'
_cell_volume   302.20084490
_cell_formula_units_Z   1
loop_
 _symmetry_equiv_pos_site_id
 _symmetry_equiv_pos_as_xyz
  1  'x, y, z'
loop_
 _atom_site_type_symbol
 _atom_site_label
 _atom_site_symmetry_multiplicity
 _atom_site_fract_x
 _atom_site_fract_y
 _atom_site_fract_z
 _atom_site_occupancy
  Ce  Ce0  1  0.487284  0.486942  0.000476  1
  Dy  Dy1  1  0.539822  0.539303  0.499674  1
  Dy  Dy2  1  0.000272  0.465056  0.740904  1
  Dy  Dy3  1  0.534396  0.001300  0.755399  1
  Ho  Ho4  1  0.001472  0.534440  0.244542  1
  Ho  Ho5  1  0.465043  0.999846  0.259273  1
  Ta  Ta6  1  0.002672  0.002795  0.499455  1
  Ta  Ta7  1  0.999604  0.999790  0.000566  1
  O  O8  1  0.932811  0.066826  0.750172  1
  O  O9  1  0.641031  0.358615  0.741708  1
  O  O10  1  0.307083  0.048541  0.542463  1
  O  O11  1  0.940076  0.686540  0.958708  1
  O  O12  1  0.632759  0.367649  0.258056  1
  O  O13  1  0.918266  0.672520  0.524541  1
  O  O14  1  0.324637  0.073301  0.974103  1
  O  O15  1  0.072795  0.324448  0.027531  1
  O  O16  1  0.672661  0.918442  0.473852  1
  O  O17  1  0.368450  0.632059  0.741761  1
  O  O18  1  0.687187  0.941597  0.043270  1
  O  O19  1  0.046552  0.306321  0.455439  1
  O  O20  1  0.357240  0.642062  0.258292  1
  O  O21  1  0.067891  0.931603  0.249814  1
