# generated using pymatgen
data_Zr3NbB4(SbRu5)2
_symmetry_space_group_name_H-M   'P 1'
_cell_length_a   9.51629159
_cell_length_b   9.51629201
_cell_length_c   3.10256700
_cell_angle_alpha   90.00000000
_cell_angle_beta   90.00000000
_cell_angle_gamma   90.22777947
_symmetry_Int_Tables_number   1
_chemical_formula_structural   Zr3NbB4(SbRu5)2
_chemical_formula_sum   'Zr3 Nb1 B4 Sb2 Ru10'
_cell_volume   280.96565663
_cell_formula_units_Z   1
loop_
 _symmetry_equiv_pos_site_id
 _symmetry_equiv_pos_as_xyz
  1  'x, y, z'
loop_
 _atom_site_type_symbol
 _atom_site_label
 _atom_site_symmetry_multiplicity
 _atom_site_fract_x
 _atom_site_fract_y
 _atom_site_fract_z
 _atom_site_occupancy
  Zr  Zr0  1  0.824369  0.675948  0.000000  1
  Zr  Zr1  1  0.175948  0.324369  0.000000  1
  Zr  Zr2  1  0.324825  0.824825  0.000000  1
  Nb  Nb3  1  0.675917  0.175917  0.000000  1
  B  B4  1  0.621175  0.879610  0.000000  1
  B  B5  1  0.379610  0.121175  0.000000  1
  B  B6  1  0.120441  0.620441  0.000000  1
  B  B7  1  0.877988  0.377988  0.000000  1
  Sb  Sb8  1  0.499364  0.501193  0.000000  1
  Sb  Sb9  1  0.001193  0.999364  0.000000  1
  Ru  Ru10  1  0.571017  0.721176  0.500000  1
  Ru  Ru11  1  0.435445  0.278790  0.500000  1
  Ru  Ru12  1  0.069510  0.779297  0.500000  1
  Ru  Ru13  1  0.924102  0.217622  0.500000  1
  Ru  Ru14  1  0.279297  0.569510  0.500000  1
  Ru  Ru15  1  0.717622  0.424102  0.500000  1
  Ru  Ru16  1  0.221176  0.071017  0.500000  1
  Ru  Ru17  1  0.778790  0.935445  0.500000  1
  Ru  Ru18  1  0.503535  0.003535  0.500000  1
  Ru  Ru19  1  0.998677  0.498677  0.500000  1
