# generated using pymatgen
data_LuTa3Nb2(ReSi)6
_symmetry_space_group_name_H-M   'P 1'
_cell_length_a   7.66342201
_cell_length_b   7.59020544
_cell_length_c   7.66342346
_cell_angle_alpha   126.94193849
_cell_angle_beta   125.88444295
_cell_angle_gamma   79.44579279
_symmetry_Int_Tables_number   1
_chemical_formula_structural   LuTa3Nb2(ReSi)6
_chemical_formula_sum   'Lu1 Ta3 Nb2 Re6 Si6'
_cell_volume   278.63248825
_cell_formula_units_Z   1
loop_
 _symmetry_equiv_pos_site_id
 _symmetry_equiv_pos_as_xyz
  1  'x, y, z'
loop_
 _atom_site_type_symbol
 _atom_site_label
 _atom_site_symmetry_multiplicity
 _atom_site_fract_x
 _atom_site_fract_y
 _atom_site_fract_z
 _atom_site_occupancy
  Lu  Lu0  1  0.536742  0.067484  0.030743  1
  Ta  Ta1  1  0.054619  0.105223  0.550604  1
  Ta  Ta2  1  0.744736  0.902952  0.658216  1
  Ta  Ta3  1  0.252397  0.906565  0.154167  1
  Nb  Nb4  1  0.458689  0.499442  0.540753  1
  Nb  Nb5  1  0.946894  0.485124  0.038230  1
  Re  Re6  1  0.486180  0.244261  0.729954  1
  Re  Re7  1  0.014307  0.244261  0.258082  1
  Re  Re8  1  0.085693  0.750779  0.585556  1
  Re  Re9  1  0.894480  0.498813  0.643394  1
  Re  Re10  1  0.665224  0.750779  0.165088  1
  Re  Re11  1  0.355418  0.498813  0.104332  1
  Si  Si12  1  0.735925  0.475142  0.239217  1
  Si  Si13  1  0.275818  0.543392  0.767575  1
  Si  Si14  1  0.321114  0.823506  0.481267  1
  Si  Si15  1  0.671514  0.161078  0.503065  1
  Si  Si16  1  0.842240  0.823506  0.002393  1
  Si  Si17  1  0.158013  0.161078  0.989564  1
