# generated using pymatgen
data_Y3Sc2CdPt3
_symmetry_space_group_name_H-M   'P 1'
_cell_length_a   7.38236800
_cell_length_b   7.25533795
_cell_length_c   4.39326300
_cell_angle_alpha   90.00000000
_cell_angle_beta   90.00000000
_cell_angle_gamma   120.58088639
_symmetry_Int_Tables_number   1
_chemical_formula_structural   Y3Sc2CdPt3
_chemical_formula_sum   'Y3 Sc2 Cd1 Pt3'
_cell_volume   202.58122656
_cell_formula_units_Z   1
loop_
 _symmetry_equiv_pos_site_id
 _symmetry_equiv_pos_as_xyz
  1  'x, y, z'
loop_
 _atom_site_type_symbol
 _atom_site_label
 _atom_site_symmetry_multiplicity
 _atom_site_fract_x
 _atom_site_fract_y
 _atom_site_fract_z
 _atom_site_occupancy
  Y  Y0  1  0.423146  0.000000  0.000000  1
  Y  Y1  1  0.991546  0.397696  0.000000  1
  Y  Y2  1  0.593849  0.602304  0.000000  1
  Sc  Sc3  1  0.246696  0.252999  0.500000  1
  Sc  Sc4  1  0.993697  0.747001  0.500000  1
  Cd  Cd5  1  0.754290  0.000000  0.500000  1
  Pt  Pt6  1  0.029831  0.000000  0.000000  1
  Pt  Pt7  1  0.654171  0.341397  0.500000  1
  Pt  Pt8  1  0.312775  0.658603  0.500000  1
