# generated using pymatgen
data_Ca3TmSb3
_symmetry_space_group_name_H-M   'P 1'
_cell_length_a   8.10746007
_cell_length_b   8.10746102
_cell_length_c   8.17619787
_cell_angle_alpha   70.53116173
_cell_angle_beta   70.53115825
_cell_angle_gamma   108.96875514
_symmetry_Int_Tables_number   1
_chemical_formula_structural   Ca3TmSb3
_chemical_formula_sum   'Ca6 Tm2 Sb6'
_cell_volume   416.27473105
_cell_formula_units_Z   2
loop_
 _symmetry_equiv_pos_site_id
 _symmetry_equiv_pos_as_xyz
  1  'x, y, z'
loop_
 _atom_site_type_symbol
 _atom_site_label
 _atom_site_symmetry_multiplicity
 _atom_site_fract_x
 _atom_site_fract_y
 _atom_site_fract_z
 _atom_site_occupancy
  Ca  Ca0  1  0.000969  0.362053  0.494783  1
  Ca  Ca1  1  0.495718  0.496332  0.146482  1
  Ca  Ca2  1  0.642168  0.145544  0.359629  1
  Ca  Ca3  1  0.362053  0.000969  0.994783  1
  Ca  Ca4  1  0.496332  0.495718  0.646482  1
  Ca  Ca5  1  0.145544  0.642168  0.859629  1
  Tm  Tm6  1  0.855845  0.001959  0.997984  1
  Tm  Tm7  1  0.001959  0.855845  0.497984  1
  Sb  Sb8  1  0.638894  0.874380  0.749655  1
  Sb  Sb9  1  0.874380  0.638894  0.249655  1
  Sb  Sb10  1  0.235069  0.115388  0.630704  1
  Sb  Sb11  1  0.758119  0.377560  0.870761  1
  Sb  Sb12  1  0.377560  0.758119  0.370761  1
  Sb  Sb13  1  0.115388  0.235069  0.130704  1
