# generated using pymatgen
data_NdEr4Tl3InPd2
_symmetry_space_group_name_H-M   'P 1'
_cell_length_a   3.62485900
_cell_length_b   8.23711581
_cell_length_c   18.42350779
_cell_angle_alpha   89.94937244
_cell_angle_beta   90.00000000
_cell_angle_gamma   90.00000000
_symmetry_Int_Tables_number   1
_chemical_formula_structural   NdEr4Tl3InPd2
_chemical_formula_sum   'Nd2 Er8 Tl6 In2 Pd4'
_cell_volume   550.09594384
_cell_formula_units_Z   2
loop_
 _symmetry_equiv_pos_site_id
 _symmetry_equiv_pos_as_xyz
  1  'x, y, z'
loop_
 _atom_site_type_symbol
 _atom_site_label
 _atom_site_symmetry_multiplicity
 _atom_site_fract_x
 _atom_site_fract_y
 _atom_site_fract_z
 _atom_site_occupancy
  Nd  Nd0  1  0.000000  0.500000  0.500000  1
  Nd  Nd1  1  0.000000  0.000000  0.000000  1
  Er  Er2  1  0.000000  0.739652  0.283039  1
  Er  Er3  1  0.000000  0.260348  0.716961  1
  Er  Er4  1  0.000000  0.759703  0.783390  1
  Er  Er5  1  0.000000  0.240297  0.216610  1
  Er  Er6  1  0.000000  0.621344  0.086380  1
  Er  Er7  1  0.000000  0.378656  0.913620  1
  Er  Er8  1  0.000000  0.879984  0.587556  1
  Er  Er9  1  0.000000  0.120016  0.412444  1
  Tl  Tl10  1  0.500000  0.698895  0.933394  1
  Tl  Tl11  1  0.500000  0.301105  0.066606  1
  Tl  Tl12  1  0.500000  0.803175  0.434685  1
  Tl  Tl13  1  0.500000  0.196825  0.565315  1
  Tl  Tl14  1  0.500000  0.585131  0.653004  1
  Tl  Tl15  1  0.500000  0.414869  0.346996  1
  In  In16  1  0.500000  0.914439  0.153916  1
  In  In17  1  0.500000  0.085561  0.846084  1
  Pd  Pd18  1  0.500000  0.530190  0.196559  1
  Pd  Pd19  1  0.500000  0.469810  0.803441  1
  Pd  Pd20  1  0.500000  0.974848  0.698011  1
  Pd  Pd21  1  0.500000  0.025152  0.301989  1
