# generated using pymatgen
data_CeGa(PtAu)2
_symmetry_space_group_name_H-M   'P 1'
_cell_length_a   5.52737690
_cell_length_b   5.26556999
_cell_length_c   5.52737607
_cell_angle_alpha   120.19644046
_cell_angle_beta   119.57606127
_cell_angle_gamma   91.64086916
_symmetry_Int_Tables_number   1
_chemical_formula_structural   CeGa(PtAu)2
_chemical_formula_sum   'Ce1 Ga1 Pt2 Au2'
_cell_volume   112.42348733
_cell_formula_units_Z   1
loop_
 _symmetry_equiv_pos_site_id
 _symmetry_equiv_pos_as_xyz
  1  'x, y, z'
loop_
 _atom_site_type_symbol
 _atom_site_label
 _atom_site_symmetry_multiplicity
 _atom_site_fract_x
 _atom_site_fract_y
 _atom_site_fract_z
 _atom_site_occupancy
  Ce  Ce0  1  0.007873  0.010893  0.003020  1
  Ga  Ga1  1  0.620325  0.866279  0.245954  1
  Pt  Pt2  1  0.124078  0.369685  0.747182  1
  Pt  Pt3  1  0.622502  0.369685  0.245607  1
  Au  Au4  1  0.622678  0.372052  0.749374  1
  Au  Au5  1  0.252543  0.761406  0.508863  1
