# generated using pymatgen
data_Mn8NbMoRu2
_symmetry_space_group_name_H-M   'P 1'
_cell_length_a   4.69363800
_cell_length_b   4.69363649
_cell_length_c   7.74973100
_cell_angle_alpha   90.00000000
_cell_angle_beta   90.00000000
_cell_angle_gamma   120.00001065
_symmetry_Int_Tables_number   1
_chemical_formula_structural   Mn8NbMoRu2
_chemical_formula_sum   'Mn8 Nb1 Mo1 Ru2'
_cell_volume   147.85508183
_cell_formula_units_Z   1
loop_
 _symmetry_equiv_pos_site_id
 _symmetry_equiv_pos_as_xyz
  1  'x, y, z'
loop_
 _atom_site_type_symbol
 _atom_site_label
 _atom_site_symmetry_multiplicity
 _atom_site_fract_x
 _atom_site_fract_y
 _atom_site_fract_z
 _atom_site_occupancy
  Mn  Mn0  1  0.173265  0.346530  0.747970  1
  Mn  Mn1  1  0.826278  0.173722  0.252600  1
  Mn  Mn2  1  0.347444  0.173722  0.252600  1
  Mn  Mn3  1  0.653470  0.826735  0.747970  1
  Mn  Mn4  1  0.000000  0.000000  0.001326  1
  Mn  Mn5  1  0.000000  0.000000  0.500403  1
  Mn  Mn6  1  0.826278  0.652556  0.252600  1
  Mn  Mn7  1  0.173265  0.826735  0.747970  1
  Nb  Nb8  1  0.333333  0.666667  0.060786  1
  Mo  Mo9  1  0.333333  0.666667  0.439039  1
  Ru  Ru10  1  0.666667  0.333333  0.923135  1
  Ru  Ru11  1  0.666667  0.333333  0.573602  1
