# generated using pymatgen
data_Er3Lu(Co3Si5)2
_symmetry_space_group_name_H-M   'P 1'
_cell_length_a   7.78536815
_cell_length_b   7.78418139
_cell_length_c   5.42709806
_cell_angle_alpha   70.94701280
_cell_angle_beta   70.92919525
_cell_angle_gamma   93.50977215
_symmetry_Int_Tables_number   1
_chemical_formula_structural   Er3Lu(Co3Si5)2
_chemical_formula_sum   'Er3 Lu1 Co6 Si10'
_cell_volume   288.58180486
_cell_formula_units_Z   1
loop_
 _symmetry_equiv_pos_site_id
 _symmetry_equiv_pos_as_xyz
  1  'x, y, z'
loop_
 _atom_site_type_symbol
 _atom_site_label
 _atom_site_symmetry_multiplicity
 _atom_site_fract_x
 _atom_site_fract_y
 _atom_site_fract_z
 _atom_site_occupancy
  Er  Er0  1  0.129922  0.404312  0.736387  1
  Er  Er1  1  0.595648  0.870006  0.763548  1
  Er  Er2  1  0.869865  0.595854  0.263705  1
  Lu  Lu3  1  0.404636  0.129835  0.235777  1
  Co  Co4  1  0.997820  0.002490  0.749980  1
  Co  Co5  1  0.539914  0.261947  0.626013  1
  Co  Co6  1  0.262591  0.540493  0.125434  1
  Co  Co7  1  0.459461  0.738106  0.374389  1
  Co  Co8  1  0.002820  0.997733  0.249882  1
  Co  Co9  1  0.737179  0.459236  0.875001  1
  Si  Si10  1  0.772327  0.226916  0.250270  1
  Si  Si11  1  0.227199  0.773374  0.749554  1
  Si  Si12  1  0.510761  0.488127  0.250412  1
  Si  Si13  1  0.488687  0.510898  0.750109  1
  Si  Si14  1  0.213152  0.787590  0.250103  1
  Si  Si15  1  0.786919  0.212866  0.749812  1
  Si  Si16  1  0.736467  0.933365  0.166635  1
  Si  Si17  1  0.933018  0.736591  0.666748  1
  Si  Si18  1  0.263779  0.067230  0.833062  1
  Si  Si19  1  0.067834  0.263030  0.333179  1
