# generated using pymatgen
data_Sr4CaHo(RuO6)2
_symmetry_space_group_name_H-M   'P 1'
_cell_length_a   5.81332326
_cell_length_b   5.87070889
_cell_length_c   8.24804458
_cell_angle_alpha   90.06262654
_cell_angle_beta   90.43489668
_cell_angle_gamma   89.99173181
_symmetry_Int_Tables_number   1
_chemical_formula_structural   Sr4CaHo(RuO6)2
_chemical_formula_sum   'Sr4 Ca1 Ho1 Ru2 O12'
_cell_volume   281.48369552
_cell_formula_units_Z   1
loop_
 _symmetry_equiv_pos_site_id
 _symmetry_equiv_pos_as_xyz
  1  'x, y, z'
loop_
 _atom_site_type_symbol
 _atom_site_label
 _atom_site_symmetry_multiplicity
 _atom_site_fract_x
 _atom_site_fract_y
 _atom_site_fract_z
 _atom_site_occupancy
  Sr  Sr0  1  0.508213  0.464308  0.246601  1
  Sr  Sr1  1  0.991414  0.961845  0.248024  1
  Sr  Sr2  1  0.008585  0.038154  0.751976  1
  Sr  Sr3  1  0.491786  0.535692  0.753399  1
  Ca  Ca4  1  0.000000  0.500001  0.000000  1
  Ho  Ho5  1  0.500000  0.000000  0.500000  1
  Ru  Ru6  1  0.500000  0.000000  0.000000  1
  Ru  Ru7  1  0.000000  0.500001  0.500000  1
  O  O8  1  0.765402  0.193568  0.039191  1
  O  O9  1  0.689203  0.732351  0.041282  1
  O  O10  1  0.424154  0.019385  0.235421  1
  O  O11  1  0.075686  0.519742  0.271999  1
  O  O12  1  0.802799  0.227647  0.458282  1
  O  O13  1  0.729662  0.700807  0.460287  1
  O  O14  1  0.270337  0.299193  0.539713  1
  O  O15  1  0.197200  0.772352  0.541718  1
  O  O16  1  0.924313  0.480260  0.728001  1
  O  O17  1  0.575846  0.980615  0.764579  1
  O  O18  1  0.310795  0.267648  0.958718  1
  O  O19  1  0.234597  0.806431  0.960809  1
