# generated using pymatgen
data_GdLuB6Ru
_symmetry_space_group_name_H-M   'P 1'
_cell_length_a   3.63569100
_cell_length_b   9.09589700
_cell_length_c   11.49824400
_cell_angle_alpha   90.00000000
_cell_angle_beta   90.00000000
_cell_angle_gamma   90.00000000
_symmetry_Int_Tables_number   1
_chemical_formula_structural   GdLuB6Ru
_chemical_formula_sum   'Gd4 Lu4 B24 Ru4'
_cell_volume   380.24544419
_cell_formula_units_Z   4
loop_
 _symmetry_equiv_pos_site_id
 _symmetry_equiv_pos_as_xyz
  1  'x, y, z'
loop_
 _atom_site_type_symbol
 _atom_site_label
 _atom_site_symmetry_multiplicity
 _atom_site_fract_x
 _atom_site_fract_y
 _atom_site_fract_z
 _atom_site_occupancy
  Gd  Gd0  1  0.000000  0.322046  0.413997  1
  Gd  Gd1  1  0.000000  0.677954  0.586003  1
  Gd  Gd2  1  0.000000  0.822046  0.086003  1
  Gd  Gd3  1  0.000000  0.177954  0.913997  1
  Lu  Lu4  1  0.000000  0.944079  0.372678  1
  Lu  Lu5  1  0.000000  0.055921  0.627322  1
  Lu  Lu6  1  0.000000  0.444079  0.127322  1
  Lu  Lu7  1  0.000000  0.555921  0.872678  1
  B  B8  1  0.500000  0.554909  0.432219  1
  B  B9  1  0.500000  0.445091  0.567781  1
  B  B10  1  0.500000  0.054909  0.067781  1
  B  B11  1  0.500000  0.945091  0.932219  1
  B  B12  1  0.500000  0.750009  0.419007  1
  B  B13  1  0.500000  0.249991  0.580993  1
  B  B14  1  0.500000  0.250009  0.080993  1
  B  B15  1  0.500000  0.749991  0.919007  1
  B  B16  1  0.500000  0.791929  0.266081  1
  B  B17  1  0.500000  0.208071  0.733919  1
  B  B18  1  0.500000  0.291929  0.233919  1
  B  B19  1  0.500000  0.708071  0.766081  1
  B  B20  1  0.500000  0.630776  0.184351  1
  B  B21  1  0.500000  0.369224  0.815649  1
  B  B22  1  0.500000  0.130776  0.315649  1
  B  B23  1  0.500000  0.869224  0.684351  1
  B  B24  1  0.500000  0.983427  0.213848  1
  B  B25  1  0.500000  0.016573  0.786152  1
  B  B26  1  0.500000  0.483427  0.286152  1
  B  B27  1  0.500000  0.516573  0.713848  1
  B  B28  1  0.500000  0.603039  0.028295  1
  B  B29  1  0.500000  0.396961  0.971705  1
  B  B30  1  0.500000  0.103039  0.471705  1
  B  B31  1  0.500000  0.896961  0.528295  1
  Ru  Ru32  1  0.000000  0.639026  0.319807  1
  Ru  Ru33  1  0.000000  0.360974  0.680193  1
  Ru  Ru34  1  0.000000  0.139026  0.180193  1
  Ru  Ru35  1  0.000000  0.860974  0.819807  1
