# generated using pymatgen
data_PrNd9InSi5
_symmetry_space_group_name_H-M   'P 1'
_cell_length_a   7.77874798
_cell_length_b   7.78560183
_cell_length_c   9.19391067
_cell_angle_alpha   114.95440664
_cell_angle_beta   114.89006915
_cell_angle_gamma   90.33406867
_symmetry_Int_Tables_number   1
_chemical_formula_structural   PrNd9InSi5
_chemical_formula_sum   'Pr1 Nd9 In1 Si5'
_cell_volume   446.40231920
_cell_formula_units_Z   1
loop_
 _symmetry_equiv_pos_site_id
 _symmetry_equiv_pos_as_xyz
  1  'x, y, z'
loop_
 _atom_site_type_symbol
 _atom_site_label
 _atom_site_symmetry_multiplicity
 _atom_site_fract_x
 _atom_site_fract_y
 _atom_site_fract_z
 _atom_site_occupancy
  Pr  Pr0  1  0.523180  0.050036  0.719372  1
  Nd  Nd1  1  0.524966  0.522973  0.048988  1
  Nd  Nd2  1  0.977607  0.975281  0.951633  1
  Nd  Nd3  1  0.976381  0.828025  0.278713  1
  Nd  Nd4  1  0.301871  0.450959  0.279754  1
  Nd  Nd5  1  0.828903  0.302377  0.278774  1
  Nd  Nd6  1  0.448858  0.976394  0.278777  1
  Nd  Nd7  1  0.048661  0.198550  0.720358  1
  Nd  Nd8  1  0.672357  0.523537  0.721340  1
  Nd  Nd9  1  0.197524  0.670853  0.721370  1
  In  In10  1  0.750766  0.749057  0.499688  1
  Si  Si11  1  0.248763  0.250609  0.499092  1
  Si  Si12  1  0.615968  0.883664  0.000620  1
  Si  Si13  1  0.383570  0.116352  0.000887  1
  Si  Si14  1  0.884831  0.385224  0.000704  1
  Si  Si15  1  0.115795  0.616110  0.999929  1
