# generated using pymatgen
data_Hf4TaTc8W3
_symmetry_space_group_name_H-M   'P 1'
_cell_length_a   6.41307601
_cell_length_b   4.51928800
_cell_length_c   9.04827401
_cell_angle_alpha   90.00000000
_cell_angle_beta   90.00541093
_cell_angle_gamma   90.00000000
_symmetry_Int_Tables_number   1
_chemical_formula_structural   Hf4TaTc8W3
_chemical_formula_sum   'Hf4 Ta1 Tc8 W3'
_cell_volume   262.24193912
_cell_formula_units_Z   1
loop_
 _symmetry_equiv_pos_site_id
 _symmetry_equiv_pos_as_xyz
  1  'x, y, z'
loop_
 _atom_site_type_symbol
 _atom_site_label
 _atom_site_symmetry_multiplicity
 _atom_site_fract_x
 _atom_site_fract_y
 _atom_site_fract_z
 _atom_site_occupancy
  Hf  Hf0  1  0.249995  0.249999  0.125004  1
  Hf  Hf1  1  0.749988  0.749999  0.375308  1
  Hf  Hf2  1  0.250012  0.249999  0.625016  1
  Hf  Hf3  1  0.750004  0.749999  0.874672  1
  Ta  Ta4  1  0.749994  0.249999  0.125003  1
  Tc  Tc5  1  0.003245  0.749999  0.125002  1
  Tc  Tc6  1  0.496736  0.749999  0.124999  1
  Tc  Tc7  1  0.001386  0.249999  0.377465  1
  Tc  Tc8  1  0.498603  0.249999  0.377464  1
  Tc  Tc9  1  0.500225  0.749999  0.624990  1
  Tc  Tc10  1  0.999781  0.749999  0.624988  1
  Tc  Tc11  1  0.498620  0.249999  0.872538  1
  Tc  Tc12  1  0.001403  0.249999  0.872536  1
  W  W13  1  0.249987  0.749999  0.375029  1
  W  W14  1  0.750012  0.249999  0.624990  1
  W  W15  1  0.250004  0.749999  0.875002  1
