# generated using pymatgen
data_Lu3ThHgRh
_symmetry_space_group_name_H-M   'P 1'
_cell_length_a   9.56507170
_cell_length_b   9.56507250
_cell_length_c   9.56507200
_cell_angle_alpha   60.00000173
_cell_angle_beta   59.99999898
_cell_angle_gamma   59.99999807
_symmetry_Int_Tables_number   1
_chemical_formula_structural   Lu3ThHgRh
_chemical_formula_sum   'Lu12 Th4 Hg4 Rh4'
_cell_volume   618.79919185
_cell_formula_units_Z   4
loop_
 _symmetry_equiv_pos_site_id
 _symmetry_equiv_pos_as_xyz
  1  'x, y, z'
loop_
 _atom_site_type_symbol
 _atom_site_label
 _atom_site_symmetry_multiplicity
 _atom_site_fract_x
 _atom_site_fract_y
 _atom_site_fract_z
 _atom_site_occupancy
  Lu  Lu0  1  0.063223  0.436777  0.436777  1
  Lu  Lu1  1  0.436777  0.063223  0.063223  1
  Lu  Lu2  1  0.436777  0.063223  0.436777  1
  Lu  Lu3  1  0.063223  0.436777  0.063223  1
  Lu  Lu4  1  0.436777  0.436777  0.063223  1
  Lu  Lu5  1  0.063223  0.063223  0.436777  1
  Lu  Lu6  1  0.184164  0.815836  0.815836  1
  Lu  Lu7  1  0.815836  0.184164  0.184164  1
  Lu  Lu8  1  0.815836  0.184164  0.815836  1
  Lu  Lu9  1  0.184164  0.815836  0.184164  1
  Lu  Lu10  1  0.815836  0.815836  0.184164  1
  Lu  Lu11  1  0.184164  0.184164  0.815836  1
  Th  Th12  1  0.602639  0.602639  0.602639  1
  Th  Th13  1  0.602639  0.602639  0.192083  1
  Th  Th14  1  0.602639  0.192083  0.602639  1
  Th  Th15  1  0.192083  0.602639  0.602639  1
  Hg  Hg16  1  0.837288  0.837288  0.837288  1
  Hg  Hg17  1  0.837288  0.837288  0.488138  1
  Hg  Hg18  1  0.837288  0.488138  0.837288  1
  Hg  Hg19  1  0.488138  0.837288  0.837288  1
  Rh  Rh20  1  0.392997  0.392997  0.392997  1
  Rh  Rh21  1  0.392997  0.392997  0.821010  1
  Rh  Rh22  1  0.392997  0.821010  0.392997  1
  Rh  Rh23  1  0.821010  0.392997  0.392997  1
