# generated using pymatgen
data_MnNi2Ag4SnO8
_symmetry_space_group_name_H-M   'P 1'
_cell_length_a   5.34376566
_cell_length_b   6.21027756
_cell_length_c   7.23952655
_cell_angle_alpha   64.49422905
_cell_angle_beta   104.15299061
_cell_angle_gamma   90.00599842
_symmetry_Int_Tables_number   1
_chemical_formula_structural   MnNi2Ag4SnO8
_chemical_formula_sum   'Mn1 Ni2 Ag4 Sn1 O8'
_cell_volume   208.73230512
_cell_formula_units_Z   1
loop_
 _symmetry_equiv_pos_site_id
 _symmetry_equiv_pos_as_xyz
  1  'x, y, z'
loop_
 _atom_site_type_symbol
 _atom_site_label
 _atom_site_symmetry_multiplicity
 _atom_site_fract_x
 _atom_site_fract_y
 _atom_site_fract_z
 _atom_site_occupancy
  Mn  Mn0  1  0.500003  0.741175  0.499956  1
  Ni  Ni1  1  0.500050  0.256453  0.500038  1
  Ni  Ni2  1  0.000020  0.498776  0.500010  1
  Ag  Ag3  1  0.003453  0.999725  0.000929  1
  Ag  Ag4  1  0.498755  0.252965  0.995380  1
  Ag  Ag5  1  0.996509  0.500620  0.999083  1
  Ag  Ag6  1  0.501261  0.748414  0.004561  1
  Sn  Sn7  1  0.000094  0.003631  0.500084  1
  O  O8  1  0.869191  0.669029  0.662246  1
  O  O9  1  0.396953  0.899525  0.665545  1
  O  O10  1  0.889826  0.166193  0.667621  1
  O  O11  1  0.395722  0.434640  0.661382  1
  O  O12  1  0.130729  0.831962  0.337744  1
  O  O13  1  0.603095  0.065715  0.334487  1
  O  O14  1  0.110176  0.334461  0.332401  1
  O  O15  1  0.604166  0.596717  0.338530  1
