# generated using pymatgen
data_LuPa2(SnIr)3
_symmetry_space_group_name_H-M   'P 1'
_cell_length_a   7.39924700
_cell_length_b   7.45352801
_cell_length_c   4.01697100
_cell_angle_alpha   90.00000000
_cell_angle_beta   90.00000000
_cell_angle_gamma   119.75938920
_symmetry_Int_Tables_number   1
_chemical_formula_structural   LuPa2(SnIr)3
_chemical_formula_sum   'Lu1 Pa2 Sn3 Ir3'
_cell_volume   192.32095795
_cell_formula_units_Z   1
loop_
 _symmetry_equiv_pos_site_id
 _symmetry_equiv_pos_as_xyz
  1  'x, y, z'
loop_
 _atom_site_type_symbol
 _atom_site_label
 _atom_site_symmetry_multiplicity
 _atom_site_fract_x
 _atom_site_fract_y
 _atom_site_fract_z
 _atom_site_occupancy
  Lu  Lu0  1  0.404940  0.000000  0.500000  1
  Pa  Pa1  1  0.001925  0.410969  0.500000  1
  Pa  Pa2  1  0.590955  0.589031  0.500000  1
  Sn  Sn3  1  0.011055  0.753965  0.000000  1
  Sn  Sn4  1  0.257090  0.246035  0.000000  1
  Sn  Sn5  1  0.733043  0.000000  0.000000  1
  Ir  Ir6  1  0.329589  0.648710  0.000000  1
  Ir  Ir7  1  0.680879  0.351290  0.000000  1
  Ir  Ir8  1  0.990524  0.000000  0.500000  1
