# generated using pymatgen
data_La5Nd(PtBr3)2
_symmetry_space_group_name_H-M   'P 1'
_cell_length_a   10.70541833
_cell_length_b   10.70541661
_cell_length_c   10.72565916
_cell_angle_alpha   109.75206832
_cell_angle_beta   109.39401490
_cell_angle_gamma   109.19108872
_symmetry_Int_Tables_number   1
_chemical_formula_structural   La5Nd(PtBr3)2
_chemical_formula_sum   'La10 Nd2 Pt4 Br12'
_cell_volume   947.13218885
_cell_formula_units_Z   2
loop_
 _symmetry_equiv_pos_site_id
 _symmetry_equiv_pos_as_xyz
  1  'x, y, z'
loop_
 _atom_site_type_symbol
 _atom_site_label
 _atom_site_symmetry_multiplicity
 _atom_site_fract_x
 _atom_site_fract_y
 _atom_site_fract_z
 _atom_site_occupancy
  La  La0  1  0.748425  0.014477  0.483363  1
  La  La1  1  0.235902  0.472736  0.485650  1
  La  La2  1  0.264254  0.747235  0.234382  1
  La  La3  1  0.031114  0.265062  0.016637  1
  La  La4  1  0.012853  0.029871  0.265618  1
  La  La5  1  0.487086  0.750252  0.014350  1
  La  La6  1  0.485764  0.237560  0.470940  1
  La  La7  1  0.011582  0.483467  0.745539  1
  La  La8  1  0.266620  0.014824  0.029060  1
  La  La9  1  0.237928  0.266042  0.754461  1
  Nd  Nd10  1  0.470289  0.484305  0.235370  1
  Nd  Nd11  1  0.748935  0.234920  0.264630  1
  Pt  Pt12  1  0.250801  0.250530  0.250578  1
  Pt  Pt13  1  0.499952  0.000223  0.249422  1
  Pt  Pt14  1  0.000689  0.250894  0.500158  1
  Pt  Pt15  1  0.250736  0.500531  0.999842  1
  Br  Br16  1  0.249844  0.753628  0.745795  1
  Br  Br17  1  0.507833  0.504048  0.754205  1
  Br  Br18  1  0.992781  0.746151  0.996297  1
  Br  Br19  1  0.745897  0.250086  0.754139  1
  Br  Br20  1  0.995948  0.991758  0.745861  1
  Br  Br21  1  0.249855  0.996485  0.503703  1
  Br  Br22  1  0.751660  0.505928  0.498709  1
  Br  Br23  1  0.507219  0.252952  0.001291  1
  Br  Br24  1  0.751563  0.743781  0.250002  1
  Br  Br25  1  0.745784  0.998528  0.993620  1
  Br  Br26  1  0.993779  0.501560  0.249998  1
  Br  Br27  1  0.504909  0.752165  0.506380  1
