# generated using pymatgen
data_Cs13K5(GaSb4)2
_symmetry_space_group_name_H-M   'P 1'
_cell_length_a   11.28891685
_cell_length_b   11.15721725
_cell_length_c   11.75820800
_cell_angle_alpha   90.00000000
_cell_angle_beta   90.00000000
_cell_angle_gamma   119.61481834
_symmetry_Int_Tables_number   1
_chemical_formula_structural   Cs13K5(GaSb4)2
_chemical_formula_sum   'Cs13 K5 Ga2 Sb8'
_cell_volume   1287.51568861
_cell_formula_units_Z   1
loop_
 _symmetry_equiv_pos_site_id
 _symmetry_equiv_pos_as_xyz
  1  'x, y, z'
loop_
 _atom_site_type_symbol
 _atom_site_label
 _atom_site_symmetry_multiplicity
 _atom_site_fract_x
 _atom_site_fract_y
 _atom_site_fract_z
 _atom_site_occupancy
  Cs  Cs0  1  0.208009  0.790475  0.959272  1
  Cs  Cs1  1  0.208009  0.417533  0.959272  1
  Cs  Cs2  1  0.582883  0.791441  0.958509  1
  Cs  Cs3  1  0.418715  0.209358  0.455627  1
  Cs  Cs4  1  0.791564  0.583215  0.042305  1
  Cs  Cs5  1  0.791564  0.208350  0.457695  1
  Cs  Cs6  1  0.791564  0.583215  0.457695  1
  Cs  Cs7  1  0.208009  0.790475  0.540728  1
  Cs  Cs8  1  0.582883  0.791441  0.541491  1
  Cs  Cs9  1  0.418715  0.209358  0.044373  1
  Cs  Cs10  1  0.791564  0.208350  0.042305  1
  Cs  Cs11  1  0.208009  0.417533  0.540728  1
  Cs  Cs12  1  0.236010  0.118006  0.750000  1
  K  K13  1  0.879031  0.119289  0.750000  1
  K  K14  1  0.760179  0.880089  0.250000  1
  K  K15  1  0.119234  0.238752  0.250000  1
  K  K16  1  0.119234  0.880483  0.250000  1
  K  K17  1  0.879031  0.759742  0.750000  1
  Ga  Ga18  1  0.333254  0.666627  0.250000  1
  Ga  Ga19  1  0.667727  0.333863  0.750000  1
  Sb  Sb20  1  0.994060  0.997031  0.005838  1
  Sb  Sb21  1  0.058342  0.529171  0.250000  1
  Sb  Sb22  1  0.471029  0.944891  0.250000  1
  Sb  Sb23  1  0.536526  0.055211  0.750000  1
  Sb  Sb24  1  0.536526  0.481316  0.750000  1
  Sb  Sb25  1  0.994060  0.997031  0.494162  1
  Sb  Sb26  1  0.471029  0.526137  0.250000  1
  Sb  Sb27  1  0.943239  0.471619  0.750000  1
