# generated using pymatgen
data_CsRb3Cd4(SiAs2)4
_symmetry_space_group_name_H-M   'P 1'
_cell_length_a   8.59228532
_cell_length_b   8.57852211
_cell_length_c   8.75169385
_cell_angle_alpha   70.82664232
_cell_angle_beta   76.39205536
_cell_angle_gamma   73.27432808
_symmetry_Int_Tables_number   1
_chemical_formula_structural   CsRb3Cd4(SiAs2)4
_chemical_formula_sum   'Cs1 Rb3 Cd4 Si4 As8'
_cell_volume   576.41138620
_cell_formula_units_Z   1
loop_
 _symmetry_equiv_pos_site_id
 _symmetry_equiv_pos_as_xyz
  1  'x, y, z'
loop_
 _atom_site_type_symbol
 _atom_site_label
 _atom_site_symmetry_multiplicity
 _atom_site_fract_x
 _atom_site_fract_y
 _atom_site_fract_z
 _atom_site_occupancy
  Cs  Cs0  1  0.450041  0.768166  0.323352  1
  Rb  Rb1  1  0.549032  0.235874  0.678994  1
  Rb  Rb2  1  0.435035  0.797765  0.817425  1
  Rb  Rb3  1  0.564942  0.204129  0.181860  1
  Cd  Cd4  1  0.998574  0.896708  0.687028  1
  Cd  Cd5  1  0.004914  0.102019  0.311738  1
  Cd  Cd6  1  0.966263  0.817833  0.171620  1
  Cd  Cd7  1  0.032720  0.182394  0.827821  1
  Si  Si8  1  0.961311  0.583397  0.596269  1
  Si  Si9  1  0.038462  0.415608  0.404260  1
  Si  Si10  1  0.141011  0.447545  0.979961  1
  Si  Si11  1  0.855882  0.552043  0.020936  1
  As  As12  1  0.812724  0.864474  0.467405  1
  As  As13  1  0.189490  0.136002  0.532918  1
  As  As14  1  0.792824  0.411517  0.310584  1
  As  As15  1  0.207849  0.583345  0.691985  1
  As  As16  1  0.771500  0.857233  0.959151  1
  As  As17  1  0.229528  0.144415  0.037411  1
  As  As18  1  0.773873  0.455374  0.825296  1
  As  As19  1  0.224027  0.544160  0.173985  1
