# generated using pymatgen
data_Ho2Er6Sc12Si15Sn
_symmetry_space_group_name_H-M   'P 1'
_cell_length_a   7.09782061
_cell_length_b   7.38602943
_cell_length_c   14.00937734
_cell_angle_alpha   90.04538573
_cell_angle_beta   89.58338319
_cell_angle_gamma   90.02414986
_symmetry_Int_Tables_number   1
_chemical_formula_structural   Ho2Er6Sc12Si15Sn
_chemical_formula_sum   'Ho2 Er6 Sc12 Si15 Sn1'
_cell_volume   734.41786200
_cell_formula_units_Z   1
loop_
 _symmetry_equiv_pos_site_id
 _symmetry_equiv_pos_as_xyz
  1  'x, y, z'
loop_
 _atom_site_type_symbol
 _atom_site_label
 _atom_site_symmetry_multiplicity
 _atom_site_fract_x
 _atom_site_fract_y
 _atom_site_fract_z
 _atom_site_occupancy
  Ho  Ho0  1  0.010933  0.176324  0.096276  1
  Ho  Ho1  1  0.988720  0.824488  0.904796  1
  Er  Er2  1  0.489516  0.676600  0.904636  1
  Er  Er3  1  0.989867  0.830117  0.598350  1
  Er  Er4  1  0.510207  0.323450  0.096650  1
  Er  Er5  1  0.004970  0.169793  0.399001  1
  Er  Er6  1  0.512822  0.319608  0.399487  1
  Er  Er7  1  0.501924  0.685221  0.599944  1
  Sc  Sc8  1  0.163583  0.502509  0.755104  1
  Sc  Sc9  1  0.836013  0.497198  0.249128  1
  Sc  Sc10  1  0.336193  0.003029  0.249285  1
  Sc  Sc11  1  0.665357  0.996984  0.751819  1
  Sc  Sc12  1  0.344106  0.162468  0.630970  1
  Sc  Sc13  1  0.663155  0.824899  0.372460  1
  Sc  Sc14  1  0.162303  0.683805  0.368981  1
  Sc  Sc15  1  0.666378  0.822731  0.124176  1
  Sc  Sc16  1  0.824261  0.323494  0.626684  1
  Sc  Sc17  1  0.331784  0.176184  0.875714  1
  Sc  Sc18  1  0.832057  0.323288  0.875730  1
  Sc  Sc19  1  0.167801  0.676803  0.125019  1
  Si  Si20  1  0.035980  0.117605  0.751310  1
  Si  Si21  1  0.962163  0.886144  0.246692  1
  Si  Si22  1  0.464562  0.614018  0.248425  1
  Si  Si23  1  0.533859  0.386730  0.752380  1
  Si  Si24  1  0.287685  0.869011  0.752489  1
  Si  Si25  1  0.711232  0.127851  0.247416  1
  Si  Si26  1  0.211385  0.371558  0.249102  1
  Si  Si27  1  0.790031  0.629084  0.751598  1
  Si  Si28  1  0.829341  0.538662  0.458674  1
  Si  Si29  1  0.336805  0.964165  0.460272  1
  Si  Si30  1  0.840455  0.534604  0.039411  1
  Si  Si31  1  0.663880  0.037046  0.537723  1
  Si  Si32  1  0.158434  0.465014  0.961733  1
  Si  Si33  1  0.658060  0.035336  0.960986  1
  Si  Si34  1  0.340532  0.965373  0.039742  1
  Sn  Sn35  1  0.173643  0.458804  0.537839  1
