# generated using pymatgen
data_Li2Pr3HoIr3
_symmetry_space_group_name_H-M   'P 1'
_cell_length_a   7.48296500
_cell_length_b   7.49995374
_cell_length_c   4.13291600
_cell_angle_alpha   90.00000000
_cell_angle_beta   90.00000000
_cell_angle_gamma   119.92510114
_symmetry_Int_Tables_number   1
_chemical_formula_structural   Li2Pr3HoIr3
_chemical_formula_sum   'Li2 Pr3 Ho1 Ir3'
_cell_volume   201.02348109
_cell_formula_units_Z   1
loop_
 _symmetry_equiv_pos_site_id
 _symmetry_equiv_pos_as_xyz
  1  'x, y, z'
loop_
 _atom_site_type_symbol
 _atom_site_label
 _atom_site_symmetry_multiplicity
 _atom_site_fract_x
 _atom_site_fract_y
 _atom_site_fract_z
 _atom_site_occupancy
  Li  Li0  1  0.239420  0.242590  0.000000  1
  Li  Li1  1  0.996829  0.757410  0.000000  1
  Pr  Pr2  1  0.388729  0.000000  0.499999  1
  Pr  Pr3  1  0.012644  0.432266  0.499999  1
  Pr  Pr4  1  0.580378  0.567733  0.499999  1
  Ho  Ho5  1  0.760625  0.000000  0.000000  1
  Ir  Ir6  1  0.674901  0.326581  0.000000  1
  Ir  Ir7  1  0.348321  0.673419  0.000000  1
  Ir  Ir8  1  0.998153  0.000000  0.499999  1
