# generated using pymatgen
data_Ce(NdSi2)2
_symmetry_space_group_name_H-M   'P 1'
_cell_length_a   3.98845184
_cell_length_b   4.39966404
_cell_length_c   9.44026976
_cell_angle_alpha   76.51565956
_cell_angle_beta   77.81602508
_cell_angle_gamma   90.00458965
_symmetry_Int_Tables_number   1
_chemical_formula_structural   Ce(NdSi2)2
_chemical_formula_sum   'Ce1 Nd2 Si4'
_cell_volume   157.24945490
_cell_formula_units_Z   1
loop_
 _symmetry_equiv_pos_site_id
 _symmetry_equiv_pos_as_xyz
  1  'x, y, z'
loop_
 _atom_site_type_symbol
 _atom_site_label
 _atom_site_symmetry_multiplicity
 _atom_site_fract_x
 _atom_site_fract_y
 _atom_site_fract_z
 _atom_site_occupancy
  Ce  Ce0  1  0.000001  0.000000  0.000001  1
  Nd  Nd1  1  0.682245  0.182361  0.635510  1
  Nd  Nd2  1  0.317749  0.817638  0.364492  1
  Si  Si3  1  0.856559  0.356503  0.286796  1
  Si  Si4  1  0.143443  0.643498  0.713202  1
  Si  Si5  1  0.565133  0.565168  0.869753  1
  Si  Si6  1  0.434871  0.434833  0.130247  1
