# generated using pymatgen
data_BaZn9Pt2
_symmetry_space_group_name_H-M   'P 1'
_cell_length_a   8.50467472
_cell_length_b   8.50467511
_cell_length_c   8.50467487
_cell_angle_alpha   99.81589469
_cell_angle_beta   99.81589284
_cell_angle_gamma   131.22625639
_symmetry_Int_Tables_number   1
_chemical_formula_structural   BaZn9Pt2
_chemical_formula_sum   'Ba2 Zn18 Pt4'
_cell_volume   421.37516518
_cell_formula_units_Z   2
loop_
 _symmetry_equiv_pos_site_id
 _symmetry_equiv_pos_as_xyz
  1  'x, y, z'
loop_
 _atom_site_type_symbol
 _atom_site_label
 _atom_site_symmetry_multiplicity
 _atom_site_fract_x
 _atom_site_fract_y
 _atom_site_fract_z
 _atom_site_occupancy
  Ba  Ba0  1  0.000000  0.000000  0.000000  1
  Ba  Ba1  1  0.250000  0.750000  0.500000  1
  Zn  Zn2  1  0.063176  0.646404  0.831656  1
  Zn  Zn3  1  0.814747  0.231518  0.168344  1
  Zn  Zn4  1  0.750000  0.250000  0.500000  1
  Zn  Zn5  1  0.500000  0.500000  0.000000  1
  Zn  Zn6  1  0.814747  0.646404  0.583228  1
  Zn  Zn7  1  0.896404  0.813176  0.331656  1
  Zn  Zn8  1  0.481518  0.564747  0.668344  1
  Zn  Zn9  1  0.063176  0.231518  0.416772  1
  Zn  Zn10  1  0.768482  0.936824  0.583228  1
  Zn  Zn11  1  0.353596  0.185253  0.416772  1
  Zn  Zn12  1  0.435253  0.518482  0.331656  1
  Zn  Zn13  1  0.186824  0.103596  0.668344  1
  Zn  Zn14  1  0.435253  0.103596  0.916772  1
  Zn  Zn15  1  0.353596  0.936824  0.168344  1
  Zn  Zn16  1  0.768482  0.185253  0.831656  1
  Zn  Zn17  1  0.186824  0.518482  0.083228  1
  Zn  Zn18  1  0.481518  0.813176  0.916772  1
  Zn  Zn19  1  0.896404  0.564747  0.083228  1
  Pt  Pt20  1  0.625000  0.375000  0.750000  1
  Pt  Pt21  1  0.625000  0.375000  0.250000  1
  Pt  Pt22  1  0.125000  0.375000  0.750000  1
  Pt  Pt23  1  0.625000  0.875000  0.250000  1
