# generated using pymatgen
data_RbHf2AsSe6
_symmetry_space_group_name_H-M   'P 1'
_cell_length_a   9.62584203
_cell_length_b   9.62584123
_cell_length_c   9.62584100
_cell_angle_alpha   40.23008422
_cell_angle_beta   40.23008983
_cell_angle_gamma   40.23009429
_symmetry_Int_Tables_number   1
_chemical_formula_structural   RbHf2AsSe6
_chemical_formula_sum   'Rb1 Hf2 As1 Se6'
_cell_volume   335.36791766
_cell_formula_units_Z   1
loop_
 _symmetry_equiv_pos_site_id
 _symmetry_equiv_pos_as_xyz
  1  'x, y, z'
loop_
 _atom_site_type_symbol
 _atom_site_label
 _atom_site_symmetry_multiplicity
 _atom_site_fract_x
 _atom_site_fract_y
 _atom_site_fract_z
 _atom_site_occupancy
  Rb  Rb0  1  0.000604  0.000604  0.000604  1
  Hf  Hf1  1  0.500580  0.500580  0.500580  1
  Hf  Hf2  1  0.832518  0.832518  0.832518  1
  As  As3  1  0.166791  0.166791  0.166791  1
  Se  Se4  1  0.560703  0.224137  0.889058  1
  Se  Se5  1  0.889058  0.560703  0.224137  1
  Se  Se6  1  0.224137  0.889058  0.560703  1
  Se  Se7  1  0.771423  0.110131  0.444057  1
  Se  Se8  1  0.110131  0.444057  0.771423  1
  Se  Se9  1  0.444057  0.771423  0.110131  1
