# generated using pymatgen
data_TmTa3WN6
_symmetry_space_group_name_H-M   'P 1'
_cell_length_a   5.24832205
_cell_length_b   5.24724541
_cell_length_c   10.74161200
_cell_angle_alpha   90.01558171
_cell_angle_beta   89.99220528
_cell_angle_gamma   119.99322278
_symmetry_Int_Tables_number   1
_chemical_formula_structural   TmTa3WN6
_chemical_formula_sum   'Tm2 Ta6 W2 N12'
_cell_volume   256.20145038
_cell_formula_units_Z   2
loop_
 _symmetry_equiv_pos_site_id
 _symmetry_equiv_pos_as_xyz
  1  'x, y, z'
loop_
 _atom_site_type_symbol
 _atom_site_label
 _atom_site_symmetry_multiplicity
 _atom_site_fract_x
 _atom_site_fract_y
 _atom_site_fract_z
 _atom_site_occupancy
  Tm  Tm0  1  0.666774  0.333458  0.001480  1
  Tm  Tm1  1  0.333226  0.666686  0.001480  1
  Ta  Ta2  1  0.000000  0.325016  0.740763  1
  Ta  Ta3  1  0.324618  0.324759  0.260513  1
  Ta  Ta4  1  0.675382  0.000141  0.260513  1
  Ta  Ta5  1  0.000000  0.675578  0.260367  1
  Ta  Ta6  1  0.332380  0.667240  0.492437  1
  Ta  Ta7  1  0.667620  0.334858  0.492437  1
  W  W8  1  0.674423  0.673153  0.740185  1
  W  W9  1  0.325577  0.998730  0.740185  1
  N  N10  1  0.666547  0.667434  0.386387  1
  N  N11  1  0.333453  0.000886  0.386387  1
  N  N12  1  0.000000  0.332819  0.385891  1
  N  N13  1  0.347935  0.345513  0.618005  1
  N  N14  1  0.652065  0.997579  0.618005  1
  N  N15  1  0.000000  0.656514  0.618205  1
  N  N16  1  0.342154  0.339044  0.857540  1
  N  N17  1  0.657846  0.996890  0.857540  1
  N  N18  1  0.000000  0.663188  0.857656  1
  N  N19  1  0.657273  0.657384  0.141243  1
  N  N20  1  0.342727  0.000110  0.141243  1
  N  N21  1  0.000000  0.343018  0.141537  1
