# generated using pymatgen
data_Y10Sn6Br
_symmetry_space_group_name_H-M   'P 1'
_cell_length_a   6.56816400
_cell_length_b   9.08419707
_cell_length_c   9.08414000
_cell_angle_alpha   120.00020731
_cell_angle_beta   89.99958128
_cell_angle_gamma   90.00084008
_symmetry_Int_Tables_number   1
_chemical_formula_structural   Y10Sn6Br
_chemical_formula_sum   'Y10 Sn6 Br1'
_cell_volume   469.40107335
_cell_formula_units_Z   1
loop_
 _symmetry_equiv_pos_site_id
 _symmetry_equiv_pos_as_xyz
  1  'x, y, z'
loop_
 _atom_site_type_symbol
 _atom_site_label
 _atom_site_symmetry_multiplicity
 _atom_site_fract_x
 _atom_site_fract_y
 _atom_site_fract_z
 _atom_site_occupancy
  Y  Y0  1  0.500000  0.333318  0.666633  1
  Y  Y1  1  0.500000  0.666683  0.333367  1
  Y  Y2  1  0.000000  0.666643  0.333285  1
  Y  Y3  1  0.000000  0.333359  0.666715  1
  Y  Y4  1  0.765759  0.254868  0.000000  1
  Y  Y5  1  0.765720  0.745123  0.745123  1
  Y  Y6  1  0.765720  0.999999  0.254877  1
  Y  Y7  1  0.234241  0.745130  0.000000  1
  Y  Y8  1  0.234282  0.254878  0.254880  1
  Y  Y9  1  0.234282  0.999998  0.745120  1
  Sn  Sn10  1  0.751574  0.607612  0.000000  1
  Sn  Sn11  1  0.751644  0.392382  0.392389  1
  Sn  Sn12  1  0.751644  0.999994  0.607611  1
  Sn  Sn13  1  0.248425  0.392388  0.000000  1
  Sn  Sn14  1  0.248356  0.607618  0.607612  1
  Sn  Sn15  1  0.248356  0.000006  0.392388  1
  Br  Br16  1  0.499999  0.000001  0.000000  1
