# generated using pymatgen
data_HoLu2Co7(P3Rh)2
_symmetry_space_group_name_H-M   'P 1'
_cell_length_a   3.70275200
_cell_length_b   10.63481500
_cell_length_c   12.32123300
_cell_angle_alpha   90.00000000
_cell_angle_beta   90.00000000
_cell_angle_gamma   90.00000000
_symmetry_Int_Tables_number   1
_chemical_formula_structural   HoLu2Co7(P3Rh)2
_chemical_formula_sum   'Ho2 Lu4 Co14 P12 Rh4'
_cell_volume   485.18652971
_cell_formula_units_Z   2
loop_
 _symmetry_equiv_pos_site_id
 _symmetry_equiv_pos_as_xyz
  1  'x, y, z'
loop_
 _atom_site_type_symbol
 _atom_site_label
 _atom_site_symmetry_multiplicity
 _atom_site_fract_x
 _atom_site_fract_y
 _atom_site_fract_z
 _atom_site_occupancy
  Ho  Ho0  1  0.000000  0.500000  0.520515  1
  Ho  Ho1  1  0.500000  0.000000  0.479485  1
  Lu  Lu2  1  0.500000  0.814004  0.206078  1
  Lu  Lu3  1  0.500000  0.185996  0.206078  1
  Lu  Lu4  1  0.000000  0.685996  0.793922  1
  Lu  Lu5  1  0.000000  0.314004  0.793922  1
  Co  Co6  1  0.000000  0.500000  0.987987  1
  Co  Co7  1  0.500000  0.000000  0.012013  1
  Co  Co8  1  0.500000  0.300047  0.429511  1
  Co  Co9  1  0.500000  0.699953  0.429511  1
  Co  Co10  1  0.000000  0.199953  0.570489  1
  Co  Co11  1  0.000000  0.800047  0.570489  1
  Co  Co12  1  0.500000  0.879507  0.710249  1
  Co  Co13  1  0.500000  0.120493  0.710249  1
  Co  Co14  1  0.000000  0.620493  0.289751  1
  Co  Co15  1  0.000000  0.379507  0.289751  1
  Co  Co16  1  0.500000  0.331782  0.993662  1
  Co  Co17  1  0.500000  0.668218  0.993662  1
  Co  Co18  1  0.000000  0.168218  0.006338  1
  Co  Co19  1  0.000000  0.831782  0.006338  1
  P  P20  1  0.500000  0.302766  0.614277  1
  P  P21  1  0.500000  0.697234  0.614277  1
  P  P22  1  0.000000  0.197234  0.385723  1
  P  P23  1  0.000000  0.802766  0.385723  1
  P  P24  1  0.500000  0.500000  0.889237  1
  P  P25  1  0.000000  0.000000  0.110763  1
  P  P26  1  0.500000  0.843709  0.893668  1
  P  P27  1  0.500000  0.156291  0.893668  1
  P  P28  1  0.000000  0.656291  0.106332  1
  P  P29  1  0.000000  0.343709  0.106332  1
  P  P30  1  0.500000  0.500000  0.350521  1
  P  P31  1  0.000000  0.000000  0.649479  1
  Rh  Rh32  1  0.500000  0.500000  0.160171  1
  Rh  Rh33  1  0.000000  0.000000  0.839829  1
  Rh  Rh34  1  0.500000  0.500000  0.704183  1
  Rh  Rh35  1  0.000000  0.000000  0.295817  1
