# generated using pymatgen
data_YbDy6CoCl12
_symmetry_space_group_name_H-M   'P 1'
_cell_length_a   8.82535847
_cell_length_b   8.82535904
_cell_length_c   8.82535938
_cell_angle_alpha   106.82807827
_cell_angle_beta   106.82807506
_cell_angle_gamma   106.82808445
_symmetry_Int_Tables_number   1
_chemical_formula_structural   YbDy6CoCl12
_chemical_formula_sum   'Yb1 Dy6 Co1 Cl12'
_cell_volume   575.12055701
_cell_formula_units_Z   1
loop_
 _symmetry_equiv_pos_site_id
 _symmetry_equiv_pos_as_xyz
  1  'x, y, z'
loop_
 _atom_site_type_symbol
 _atom_site_label
 _atom_site_symmetry_multiplicity
 _atom_site_fract_x
 _atom_site_fract_y
 _atom_site_fract_z
 _atom_site_occupancy
  Yb  Yb0  1  0.500000  0.500000  0.500000  1
  Dy  Dy1  1  0.313392  0.109922  0.022536  1
  Dy  Dy2  1  0.109922  0.022536  0.313392  1
  Dy  Dy3  1  0.022536  0.313392  0.109922  1
  Dy  Dy4  1  0.686608  0.890078  0.977464  1
  Dy  Dy5  1  0.890078  0.977464  0.686608  1
  Dy  Dy6  1  0.977464  0.686608  0.890078  1
  Co  Co7  1  0.000000  0.000000  0.000000  1
  Cl  Cl8  1  0.210287  0.069000  0.678081  1
  Cl  Cl9  1  0.069000  0.678081  0.210287  1
  Cl  Cl10  1  0.678081  0.210287  0.069000  1
  Cl  Cl11  1  0.789713  0.931000  0.321919  1
  Cl  Cl12  1  0.931000  0.321919  0.789713  1
  Cl  Cl13  1  0.321919  0.789713  0.931000  1
  Cl  Cl14  1  0.371810  0.456489  0.163602  1
  Cl  Cl15  1  0.456489  0.163602  0.371810  1
  Cl  Cl16  1  0.163602  0.371810  0.456489  1
  Cl  Cl17  1  0.628190  0.543511  0.836398  1
  Cl  Cl18  1  0.543511  0.836398  0.628190  1
  Cl  Cl19  1  0.836398  0.628190  0.543511  1
