# generated using pymatgen
data_Li5CdPb4
_symmetry_space_group_name_H-M   'P 1'
_cell_length_a   3.62434400
_cell_length_b   3.62434400
_cell_length_c   16.77032500
_cell_angle_alpha   90.00000000
_cell_angle_beta   90.00000000
_cell_angle_gamma   90.00000000
_symmetry_Int_Tables_number   1
_chemical_formula_structural   Li5CdPb4
_chemical_formula_sum   'Li5 Cd1 Pb4'
_cell_volume   220.29279950
_cell_formula_units_Z   1
loop_
 _symmetry_equiv_pos_site_id
 _symmetry_equiv_pos_as_xyz
  1  'x, y, z'
loop_
 _atom_site_type_symbol
 _atom_site_label
 _atom_site_symmetry_multiplicity
 _atom_site_fract_x
 _atom_site_fract_y
 _atom_site_fract_z
 _atom_site_occupancy
  Li  Li0  1  0.500000  0.500000  0.092701  1
  Li  Li1  1  0.500000  0.500000  0.298668  1
  Li  Li2  1  0.500000  0.500000  0.500000  1
  Li  Li3  1  0.500000  0.500000  0.701332  1
  Li  Li4  1  0.500000  0.500000  0.907299  1
  Cd  Cd5  1  0.000000  0.000000  0.000000  1
  Pb  Pb6  1  0.000000  0.000000  0.193068  1
  Pb  Pb7  1  0.000000  0.000000  0.398850  1
  Pb  Pb8  1  0.000000  0.000000  0.601150  1
  Pb  Pb9  1  0.000000  0.000000  0.806932  1
