# generated using pymatgen
data_Yb3In2HgPd3
_symmetry_space_group_name_H-M   'P 1'
_cell_length_a   7.59474163
_cell_length_b   7.71510482
_cell_length_c   3.99771900
_cell_angle_alpha   90.00000000
_cell_angle_beta   90.00000000
_cell_angle_gamma   120.52565678
_symmetry_Int_Tables_number   1
_chemical_formula_structural   Yb3In2HgPd3
_chemical_formula_sum   'Yb3 In2 Hg1 Pd3'
_cell_volume   201.77756377
_cell_formula_units_Z   1
loop_
 _symmetry_equiv_pos_site_id
 _symmetry_equiv_pos_as_xyz
  1  'x, y, z'
loop_
 _atom_site_type_symbol
 _atom_site_label
 _atom_site_symmetry_multiplicity
 _atom_site_fract_x
 _atom_site_fract_y
 _atom_site_fract_z
 _atom_site_occupancy
  Yb  Yb0  1  0.000000  0.587375  0.500000  1
  Yb  Yb1  1  0.607286  0.007977  0.500000  1
  Yb  Yb2  1  0.392714  0.400691  0.500000  1
  In  In3  1  0.259975  0.997200  0.000000  1
  In  In4  1  0.740025  0.737225  0.000000  1
  Hg  Hg5  1  0.000000  0.265822  0.000000  1
  Pd  Pd6  1  0.000000  0.985632  0.500000  1
  Pd  Pd7  1  0.655267  0.336671  0.000000  1
  Pd  Pd8  1  0.344733  0.681405  0.000000  1
