# generated using pymatgen
data_Tb5EuHoNiI12
_symmetry_space_group_name_H-M   'P 1'
_cell_length_a   9.79475463
_cell_length_b   9.79836792
_cell_length_c   9.79362112
_cell_angle_alpha   106.54136280
_cell_angle_beta   106.51903985
_cell_angle_gamma   106.55460180
_symmetry_Int_Tables_number   1
_chemical_formula_structural   Tb5EuHoNiI12
_chemical_formula_sum   'Tb5 Eu1 Ho1 Ni1 I12'
_cell_volume   792.42518459
_cell_formula_units_Z   1
loop_
 _symmetry_equiv_pos_site_id
 _symmetry_equiv_pos_as_xyz
  1  'x, y, z'
loop_
 _atom_site_type_symbol
 _atom_site_label
 _atom_site_symmetry_multiplicity
 _atom_site_fract_x
 _atom_site_fract_y
 _atom_site_fract_z
 _atom_site_occupancy
  Tb  Tb0  1  0.707417  0.905970  0.976744  1
  Tb  Tb1  1  0.976967  0.707543  0.905592  1
  Tb  Tb2  1  0.093957  0.022923  0.292403  1
  Tb  Tb3  1  0.292344  0.094009  0.022510  1
  Tb  Tb4  1  0.022759  0.292324  0.093496  1
  Eu  Eu5  1  0.500002  0.500002  0.499979  1
  Ho  Ho6  1  0.906749  0.977088  0.709583  1
  Ni  Ni7  1  0.999920  0.999965  0.999741  1
  I  I8  1  0.925933  0.320528  0.776232  1
  I  I9  1  0.777056  0.926259  0.322306  1
  I  I10  1  0.321643  0.776810  0.926136  1
  I  I11  1  0.073880  0.678472  0.223179  1
  I  I12  1  0.221728  0.073442  0.678179  1
  I  I13  1  0.678366  0.223192  0.073887  1
  I  I14  1  0.548527  0.859667  0.626279  1
  I  I15  1  0.626321  0.547291  0.859234  1
  I  I16  1  0.859298  0.627380  0.547423  1
  I  I17  1  0.452679  0.140795  0.373664  1
  I  I18  1  0.373705  0.452717  0.140779  1
  I  I19  1  0.140749  0.373622  0.452654  1
