# generated using pymatgen
data_Tb5Dy3Ho12(CoBi2)4
_symmetry_space_group_name_H-M   'P 1'
_cell_length_a   7.99738003
_cell_length_b   8.88363200
_cell_length_c   12.37783005
_cell_angle_alpha   89.99964997
_cell_angle_beta   90.01027027
_cell_angle_gamma   89.99988465
_symmetry_Int_Tables_number   1
_chemical_formula_structural   Tb5Dy3Ho12(CoBi2)4
_chemical_formula_sum   'Tb5 Dy3 Ho12 Co4 Bi8'
_cell_volume   879.39259093
_cell_formula_units_Z   1
loop_
 _symmetry_equiv_pos_site_id
 _symmetry_equiv_pos_as_xyz
  1  'x, y, z'
loop_
 _atom_site_type_symbol
 _atom_site_label
 _atom_site_symmetry_multiplicity
 _atom_site_fract_x
 _atom_site_fract_y
 _atom_site_fract_z
 _atom_site_occupancy
  Tb  Tb0  1  0.153554  0.750001  0.199711  1
  Tb  Tb1  1  0.884659  0.750000  0.810628  1
  Tb  Tb2  1  0.115433  0.250000  0.189452  1
  Tb  Tb3  1  0.384604  0.249999  0.689418  1
  Tb  Tb4  1  0.615412  0.750001  0.310655  1
  Dy  Dy5  1  0.346486  0.750001  0.699536  1
  Dy  Dy6  1  0.653541  0.249998  0.300390  1
  Dy  Dy7  1  0.846452  0.249999  0.800338  1
  Ho  Ho8  1  0.675416  0.537975  0.562757  1
  Ho  Ho9  1  0.324606  0.462110  0.437257  1
  Ho  Ho10  1  0.175504  0.462073  0.937176  1
  Ho  Ho11  1  0.324608  0.037890  0.437258  1
  Ho  Ho12  1  0.824462  0.537928  0.062737  1
  Ho  Ho13  1  0.675413  0.962027  0.562756  1
  Ho  Ho14  1  0.824463  0.962073  0.062736  1
  Ho  Ho15  1  0.175505  0.037927  0.937177  1
  Ho  Ho16  1  0.052694  0.750001  0.497879  1
  Ho  Ho17  1  0.947252  0.249999  0.502156  1
  Ho  Ho18  1  0.552639  0.249997  0.002194  1
  Ho  Ho19  1  0.447391  0.750002  0.997769  1
  Co  Co20  1  0.066385  0.750004  0.991624  1
  Co  Co21  1  0.933599  0.249997  0.008245  1
  Co  Co22  1  0.566388  0.249997  0.508248  1
  Co  Co23  1  0.433539  0.750002  0.491743  1
  Bi  Bi24  1  0.571538  0.509606  0.827319  1
  Bi  Bi25  1  0.428597  0.490261  0.172665  1
  Bi  Bi26  1  0.071560  0.490400  0.672691  1
  Bi  Bi27  1  0.428597  0.009739  0.172664  1
  Bi  Bi28  1  0.928302  0.509446  0.327405  1
  Bi  Bi29  1  0.571538  0.990394  0.827319  1
  Bi  Bi30  1  0.928302  0.990554  0.327405  1
  Bi  Bi31  1  0.071560  0.009600  0.672691  1
