# generated using pymatgen
data_Lu2C(NO)2
_symmetry_space_group_name_H-M   'P 1'
_cell_length_a   3.62425600
_cell_length_b   3.62425420
_cell_length_c   8.09851400
_cell_angle_alpha   90.00043931
_cell_angle_beta   89.99992969
_cell_angle_gamma   119.99986434
_symmetry_Int_Tables_number   1
_chemical_formula_structural   Lu2C(NO)2
_chemical_formula_sum   'Lu2 C1 N2 O2'
_cell_volume   92.12427444
_cell_formula_units_Z   1
loop_
 _symmetry_equiv_pos_site_id
 _symmetry_equiv_pos_as_xyz
  1  'x, y, z'
loop_
 _atom_site_type_symbol
 _atom_site_label
 _atom_site_symmetry_multiplicity
 _atom_site_fract_x
 _atom_site_fract_y
 _atom_site_fract_z
 _atom_site_occupancy
  Lu  Lu0  1  0.333326  0.666670  0.174913  1
  Lu  Lu1  1  0.666675  0.333330  0.825086  1
  C  C2  1  0.000001  0.000001  0.499999  1
  N  N3  1  0.999997  0.000002  0.347484  1
  N  N4  1  0.000005  0.000002  0.652515  1
  O  O5  1  0.666667  0.333335  0.102473  1
  O  O6  1  0.333334  0.666666  0.897526  1
