# generated using pymatgen
data_BaYb11(InAs3)4
_symmetry_space_group_name_H-M   'P 1'
_cell_length_a   4.31590500
_cell_length_b   12.46141582
_cell_length_c   13.91756800
_cell_angle_alpha   90.12948489
_cell_angle_beta   90.00000000
_cell_angle_gamma   90.00000000
_symmetry_Int_Tables_number   1
_chemical_formula_structural   BaYb11(InAs3)4
_chemical_formula_sum   'Ba1 Yb11 In4 As12'
_cell_volume   748.51672303
_cell_formula_units_Z   1
loop_
 _symmetry_equiv_pos_site_id
 _symmetry_equiv_pos_as_xyz
  1  'x, y, z'
loop_
 _atom_site_type_symbol
 _atom_site_label
 _atom_site_symmetry_multiplicity
 _atom_site_fract_x
 _atom_site_fract_y
 _atom_site_fract_z
 _atom_site_occupancy
  Ba  Ba0  1  0.750000  0.842269  0.000656  1
  Yb  Yb1  1  0.750000  0.769801  0.297495  1
  Yb  Yb2  1  0.750000  0.344932  0.493814  1
  Yb  Yb3  1  0.250000  0.651318  0.505689  1
  Yb  Yb4  1  0.250000  0.155945  0.993832  1
  Yb  Yb5  1  0.250000  0.435890  0.895281  1
  Yb  Yb6  1  0.250000  0.940227  0.605374  1
  Yb  Yb7  1  0.750000  0.560003  0.108058  1
  Yb  Yb8  1  0.250000  0.230459  0.710031  1
  Yb  Yb9  1  0.250000  0.724699  0.778044  1
  Yb  Yb10  1  0.750000  0.065493  0.392671  1
  Yb  Yb11  1  0.750000  0.274524  0.216865  1
  In  In12  1  0.250000  0.447739  0.300919  1
  In  In13  1  0.750000  0.060461  0.793931  1
  In  In14  1  0.750000  0.549745  0.697505  1
  In  In15  1  0.250000  0.945688  0.204754  1
  As  As16  1  0.250000  0.952121  0.850267  1
  As  As17  1  0.750000  0.549664  0.372112  1
  As  As18  1  0.250000  0.244004  0.373767  1
  As  As19  1  0.750000  0.259606  0.873255  1
  As  As20  1  0.250000  0.393343  0.110625  1
  As  As21  1  0.250000  0.897480  0.393830  1
  As  As22  1  0.250000  0.732900  0.145864  1
  As  As23  1  0.750000  0.601508  0.885803  1
  As  As24  1  0.750000  0.755103  0.623597  1
  As  As25  1  0.250000  0.446623  0.628828  1
  As  As26  1  0.750000  0.110993  0.605557  1
  As  As27  1  0.750000  0.057463  0.141579  1
