# generated using pymatgen
data_Er3Tm(CO5)2
_symmetry_space_group_name_H-M   'P 1'
_cell_length_a   3.88875428
_cell_length_b   3.88875466
_cell_length_c   15.01324000
_cell_angle_alpha   90.02214627
_cell_angle_beta   89.97785276
_cell_angle_gamma   122.21994269
_symmetry_Int_Tables_number   1
_chemical_formula_structural   Er3Tm(CO5)2
_chemical_formula_sum   'Er3 Tm1 C2 O10'
_cell_volume   192.07450206
_cell_formula_units_Z   1
loop_
 _symmetry_equiv_pos_site_id
 _symmetry_equiv_pos_as_xyz
  1  'x, y, z'
loop_
 _atom_site_type_symbol
 _atom_site_label
 _atom_site_symmetry_multiplicity
 _atom_site_fract_x
 _atom_site_fract_y
 _atom_site_fract_z
 _atom_site_occupancy
  Er  Er0  1  0.335559  0.664441  0.907336  1
  Er  Er1  1  0.664317  0.335683  0.092648  1
  Er  Er2  1  0.664605  0.335395  0.407593  1
  Tm  Tm3  1  0.335124  0.664876  0.592743  1
  C  C4  1  0.074527  0.925473  0.749785  1
  C  C5  1  0.925461  0.074539  0.249734  1
  O  O6  1  0.986222  0.013778  0.826748  1
  O  O7  1  0.014247  0.985753  0.172984  1
  O  O8  1  0.014260  0.985740  0.326474  1
  O  O9  1  0.985416  0.014584  0.673153  1
  O  O10  1  0.335882  0.664118  0.443291  1
  O  O11  1  0.664252  0.335748  0.557957  1
  O  O12  1  0.664211  0.335789  0.942689  1
  O  O13  1  0.335873  0.664127  0.057503  1
  O  O14  1  0.262263  0.737737  0.749545  1
  O  O15  1  0.737782  0.262218  0.249820  1
