# generated using pymatgen
data_DyTm2Mn4Co5P6
_symmetry_space_group_name_H-M   'P 1'
_cell_length_a   3.70979600
_cell_length_b   10.46095400
_cell_length_c   12.33725300
_cell_angle_alpha   90.00000000
_cell_angle_beta   90.00000000
_cell_angle_gamma   90.00000000
_symmetry_Int_Tables_number   1
_chemical_formula_structural   DyTm2Mn4Co5P6
_chemical_formula_sum   'Dy2 Tm4 Mn8 Co10 P12'
_cell_volume   478.78417988
_cell_formula_units_Z   2
loop_
 _symmetry_equiv_pos_site_id
 _symmetry_equiv_pos_as_xyz
  1  'x, y, z'
loop_
 _atom_site_type_symbol
 _atom_site_label
 _atom_site_symmetry_multiplicity
 _atom_site_fract_x
 _atom_site_fract_y
 _atom_site_fract_z
 _atom_site_occupancy
  Dy  Dy0  1  0.000000  0.500000  0.523227  1
  Dy  Dy1  1  0.500000  0.000000  0.476773  1
  Tm  Tm2  1  0.500000  0.819869  0.209558  1
  Tm  Tm3  1  0.500000  0.180131  0.209558  1
  Tm  Tm4  1  0.000000  0.680131  0.790442  1
  Tm  Tm5  1  0.000000  0.319869  0.790442  1
  Mn  Mn6  1  0.500000  0.500000  0.161868  1
  Mn  Mn7  1  0.000000  0.000000  0.838132  1
  Mn  Mn8  1  0.000000  0.500000  0.989233  1
  Mn  Mn9  1  0.500000  0.000000  0.010767  1
  Mn  Mn10  1  0.500000  0.330516  0.996048  1
  Mn  Mn11  1  0.500000  0.669484  0.996048  1
  Mn  Mn12  1  0.000000  0.169484  0.003952  1
  Mn  Mn13  1  0.000000  0.830516  0.003952  1
  Co  Co14  1  0.500000  0.500000  0.698673  1
  Co  Co15  1  0.000000  0.000000  0.301327  1
  Co  Co16  1  0.500000  0.296116  0.431627  1
  Co  Co17  1  0.500000  0.703884  0.431627  1
  Co  Co18  1  0.000000  0.203884  0.568373  1
  Co  Co19  1  0.000000  0.796116  0.568373  1
  Co  Co20  1  0.500000  0.879319  0.704078  1
  Co  Co21  1  0.500000  0.120681  0.704078  1
  Co  Co22  1  0.000000  0.620681  0.295922  1
  Co  Co23  1  0.000000  0.379319  0.295922  1
  P  P24  1  0.500000  0.500000  0.876309  1
  P  P25  1  0.000000  0.000000  0.123691  1
  P  P26  1  0.500000  0.500000  0.345868  1
  P  P27  1  0.000000  0.000000  0.654132  1
  P  P28  1  0.500000  0.311089  0.614927  1
  P  P29  1  0.500000  0.688911  0.614927  1
  P  P30  1  0.000000  0.188911  0.385073  1
  P  P31  1  0.000000  0.811089  0.385073  1
  P  P32  1  0.500000  0.848876  0.882576  1
  P  P33  1  0.500000  0.151124  0.882576  1
  P  P34  1  0.000000  0.651124  0.117424  1
  P  P35  1  0.000000  0.348876  0.117424  1
