# generated using pymatgen
data_Ca28Tl11
_symmetry_space_group_name_H-M   'P 1'
_cell_length_a   5.43972142
_cell_length_b   7.64125184
_cell_length_c   31.69855000
_cell_angle_alpha   96.92269073
_cell_angle_beta   94.92225053
_cell_angle_gamma   90.00000852
_symmetry_Int_Tables_number   1
_chemical_formula_structural   Ca28Tl11
_chemical_formula_sum   'Ca28 Tl11'
_cell_volume   1303.09016549
_cell_formula_units_Z   1
loop_
 _symmetry_equiv_pos_site_id
 _symmetry_equiv_pos_as_xyz
  1  'x, y, z'
loop_
 _atom_site_type_symbol
 _atom_site_label
 _atom_site_symmetry_multiplicity
 _atom_site_fract_x
 _atom_site_fract_y
 _atom_site_fract_z
 _atom_site_occupancy
  Ca  Ca0  1  0.817769  0.915433  0.635538  1
  Ca  Ca1  1  0.559752  0.233711  0.119503  1
  Ca  Ca2  1  0.724407  0.254080  0.448814  1
  Ca  Ca3  1  0.636959  0.174216  0.273919  1
  Ca  Ca4  1  0.323683  0.236138  0.647366  1
  Ca  Ca5  1  0.853438  0.571947  0.706876  1
  Ca  Ca6  1  0.543775  0.669432  0.087549  1
  Ca  Ca7  1  0.000000  0.559889  0.000000  1
  Ca  Ca8  1  0.617322  0.592243  0.234643  1
  Ca  Ca9  1  0.916668  0.529720  0.833338  1
  Ca  Ca10  1  0.262564  0.258974  0.525128  1
  Ca  Ca11  1  0.275593  0.805266  0.551186  1
  Ca  Ca12  1  0.903820  0.991224  0.807639  1
  Ca  Ca13  1  0.363041  0.900299  0.726081  1
  Ca  Ca14  1  0.456225  0.581883  0.912451  1
  Ca  Ca15  1  0.676317  0.588772  0.352634  1
  Ca  Ca16  1  0.440248  0.114206  0.880497  1
  Ca  Ca17  1  0.146562  0.865072  0.293125  1
  Ca  Ca18  1  0.096180  0.183585  0.192361  1
  Ca  Ca19  1  0.793757  0.471034  0.587514  1
  Ca  Ca20  1  0.382678  0.357599  0.765357  1
  Ca  Ca21  1  0.500000  0.245582  0.000000  1
  Ca  Ca22  1  0.737436  0.733847  0.474872  1
  Ca  Ca23  1  0.969807  0.925917  0.939613  1
  Ca  Ca24  1  0.083332  0.696381  0.166662  1
  Ca  Ca25  1  0.206243  0.883519  0.412486  1
  Ca  Ca26  1  0.182231  0.279895  0.364462  1
  Ca  Ca27  1  0.030193  0.986305  0.060387  1
  Tl  Tl28  1  0.680075  0.004358  0.360151  1
  Tl  Tl29  1  0.139282  0.448361  0.278563  1
  Tl  Tl30  1  0.773055  0.064476  0.546112  1
  Tl  Tl31  1  0.956592  0.313801  0.913183  1
  Tl  Tl32  1  0.319925  0.644208  0.639849  1
  Tl  Tl33  1  0.860718  0.169797  0.721437  1
  Tl  Tl34  1  0.043408  0.400619  0.086817  1
  Tl  Tl35  1  0.590892  0.931199  0.181785  1
  Tl  Tl36  1  0.409108  0.749415  0.818215  1
  Tl  Tl37  1  0.226945  0.518364  0.453888  1
  Tl  Tl38  1  0.500000  0.833236  0.000000  1
