# generated using pymatgen
data_La2Pr2HgPt
_symmetry_space_group_name_H-M   'P 1'
_cell_length_a   10.12133976
_cell_length_b   10.12133850
_cell_length_c   10.14904300
_cell_angle_alpha   59.90940827
_cell_angle_beta   59.90941240
_cell_angle_gamma   60.18116661
_symmetry_Int_Tables_number   1
_chemical_formula_structural   La2Pr2HgPt
_chemical_formula_sum   'La8 Pr8 Hg4 Pt4'
_cell_volume   735.15595718
_cell_formula_units_Z   4
loop_
 _symmetry_equiv_pos_site_id
 _symmetry_equiv_pos_as_xyz
  1  'x, y, z'
loop_
 _atom_site_type_symbol
 _atom_site_label
 _atom_site_symmetry_multiplicity
 _atom_site_fract_x
 _atom_site_fract_y
 _atom_site_fract_z
 _atom_site_occupancy
  La  La0  1  0.350878  0.350878  0.352832  1
  La  La1  1  0.350878  0.350878  0.945413  1
  La  La2  1  0.352832  0.945413  0.350878  1
  La  La3  1  0.945413  0.352832  0.350878  1
  La  La4  1  0.807266  0.192734  0.192734  1
  La  La5  1  0.192734  0.807266  0.807266  1
  La  La6  1  0.192734  0.807266  0.192734  1
  La  La7  1  0.807266  0.192734  0.807266  1
  Pr  Pr8  1  0.195200  0.195200  0.804800  1
  Pr  Pr9  1  0.804800  0.804800  0.195200  1
  Pr  Pr10  1  0.935162  0.564838  0.564838  1
  Pr  Pr11  1  0.564838  0.935162  0.935162  1
  Pr  Pr12  1  0.564838  0.935162  0.564838  1
  Pr  Pr13  1  0.935162  0.564838  0.935162  1
  Pr  Pr14  1  0.564052  0.564052  0.935948  1
  Pr  Pr15  1  0.935948  0.935948  0.564052  1
  Hg  Hg16  1  0.585743  0.585743  0.584416  1
  Hg  Hg17  1  0.585743  0.585743  0.244097  1
  Hg  Hg18  1  0.584416  0.244097  0.585743  1
  Hg  Hg19  1  0.244097  0.584416  0.585743  1
  Pt  Pt20  1  0.141549  0.141549  0.146047  1
  Pt  Pt21  1  0.141549  0.141549  0.570856  1
  Pt  Pt22  1  0.146047  0.570856  0.141549  1
  Pt  Pt23  1  0.570856  0.146047  0.141549  1
