# generated using pymatgen
data_Tb11Dy(Si3Ir)4
_symmetry_space_group_name_H-M   'P 1'
_cell_length_a   4.23154900
_cell_length_b   10.60774901
_cell_length_c   12.25720900
_cell_angle_alpha   90.02502969
_cell_angle_beta   90.00000000
_cell_angle_gamma   90.00000000
_symmetry_Int_Tables_number   1
_chemical_formula_structural   Tb11Dy(Si3Ir)4
_chemical_formula_sum   'Tb11 Dy1 Si12 Ir4'
_cell_volume   550.19185852
_cell_formula_units_Z   1
loop_
 _symmetry_equiv_pos_site_id
 _symmetry_equiv_pos_as_xyz
  1  'x, y, z'
loop_
 _atom_site_type_symbol
 _atom_site_label
 _atom_site_symmetry_multiplicity
 _atom_site_fract_x
 _atom_site_fract_y
 _atom_site_fract_z
 _atom_site_occupancy
  Tb  Tb0  1  0.250000  0.880509  0.020441  1
  Tb  Tb1  1  0.250000  0.619564  0.520275  1
  Tb  Tb2  1  0.750000  0.119659  0.979446  1
  Tb  Tb3  1  0.750000  0.380257  0.479761  1
  Tb  Tb4  1  0.250000  0.919042  0.603204  1
  Tb  Tb5  1  0.250000  0.581129  0.103455  1
  Tb  Tb6  1  0.750000  0.080948  0.396974  1
  Tb  Tb7  1  0.750000  0.418920  0.896561  1
  Tb  Tb8  1  0.250000  0.658761  0.801228  1
  Tb  Tb9  1  0.250000  0.841650  0.301323  1
  Tb  Tb10  1  0.750000  0.341090  0.198804  1
  Dy  Dy11  1  0.750000  0.158565  0.698866  1
  Si  Si12  1  0.250000  0.010138  0.820809  1
  Si  Si13  1  0.250000  0.489780  0.320905  1
  Si  Si14  1  0.750000  0.990092  0.179071  1
  Si  Si15  1  0.750000  0.510165  0.679057  1
  Si  Si16  1  0.250000  0.246305  0.840467  1
  Si  Si17  1  0.250000  0.253466  0.340960  1
  Si  Si18  1  0.750000  0.753686  0.159327  1
  Si  Si19  1  0.750000  0.746353  0.659080  1
  Si  Si20  1  0.250000  0.201089  0.543591  1
  Si  Si21  1  0.250000  0.298983  0.043124  1
  Si  Si22  1  0.750000  0.798633  0.456686  1
  Si  Si23  1  0.750000  0.701260  0.956846  1
  Ir  Ir24  1  0.250000  0.388939  0.681278  1
  Ir  Ir25  1  0.250000  0.110853  0.181295  1
  Ir  Ir26  1  0.750000  0.610779  0.318676  1
  Ir  Ir27  1  0.750000  0.889385  0.818490  1
