# generated using pymatgen
data_Y3Ho2CoSb2
_symmetry_space_group_name_H-M   'P 1'
_cell_length_a   7.91468900
_cell_length_b   8.75291000
_cell_length_c   12.25054300
_cell_angle_alpha   90.00000000
_cell_angle_beta   90.00000000
_cell_angle_gamma   90.00000000
_symmetry_Int_Tables_number   1
_chemical_formula_structural   Y3Ho2CoSb2
_chemical_formula_sum   'Y12 Ho8 Co4 Sb8'
_cell_volume   848.67548324
_cell_formula_units_Z   4
loop_
 _symmetry_equiv_pos_site_id
 _symmetry_equiv_pos_as_xyz
  1  'x, y, z'
loop_
 _atom_site_type_symbol
 _atom_site_label
 _atom_site_symmetry_multiplicity
 _atom_site_fract_x
 _atom_site_fract_y
 _atom_site_fract_z
 _atom_site_occupancy
  Y  Y0  1  0.155582  0.750000  0.203768  1
  Y  Y1  1  0.655582  0.250000  0.296232  1
  Y  Y2  1  0.844418  0.250000  0.796232  1
  Y  Y3  1  0.344418  0.750000  0.703768  1
  Y  Y4  1  0.455758  0.750000  0.998309  1
  Y  Y5  1  0.955758  0.250000  0.501691  1
  Y  Y6  1  0.544242  0.250000  0.001691  1
  Y  Y7  1  0.044242  0.750000  0.498309  1
  Y  Y8  1  0.624605  0.750000  0.306541  1
  Y  Y9  1  0.124605  0.250000  0.193459  1
  Y  Y10  1  0.375395  0.250000  0.693459  1
  Y  Y11  1  0.875395  0.750000  0.806541  1
  Ho  Ho12  1  0.823720  0.965394  0.065235  1
  Ho  Ho13  1  0.323720  0.034606  0.434765  1
  Ho  Ho14  1  0.176280  0.465394  0.934765  1
  Ho  Ho15  1  0.676280  0.534606  0.565235  1
  Ho  Ho16  1  0.176280  0.034606  0.934765  1
  Ho  Ho17  1  0.676280  0.965394  0.565235  1
  Ho  Ho18  1  0.823720  0.534606  0.065235  1
  Ho  Ho19  1  0.323720  0.465394  0.434765  1
  Co  Co20  1  0.436405  0.750000  0.490882  1
  Co  Co21  1  0.936405  0.250000  0.009118  1
  Co  Co22  1  0.563595  0.250000  0.509118  1
  Co  Co23  1  0.063595  0.750000  0.990882  1
  Sb  Sb24  1  0.930298  0.992121  0.326779  1
  Sb  Sb25  1  0.430298  0.007879  0.173221  1
  Sb  Sb26  1  0.069702  0.492121  0.673221  1
  Sb  Sb27  1  0.569702  0.507879  0.826779  1
  Sb  Sb28  1  0.069702  0.007879  0.673221  1
  Sb  Sb29  1  0.569702  0.992121  0.826779  1
  Sb  Sb30  1  0.930298  0.507879  0.326779  1
  Sb  Sb31  1  0.430298  0.492121  0.173221  1
