# generated using pymatgen
data_Dy4Y6Si5Sn
_symmetry_space_group_name_H-M   'P 1'
_cell_length_a   8.53163300
_cell_length_b   8.56052631
_cell_length_c   6.41081500
_cell_angle_alpha   90.00000000
_cell_angle_beta   90.00000000
_cell_angle_gamma   119.88841650
_symmetry_Int_Tables_number   1
_chemical_formula_structural   Dy4Y6Si5Sn
_chemical_formula_sum   'Dy4 Y6 Si5 Sn1'
_cell_volume   405.94175660
_cell_formula_units_Z   1
loop_
 _symmetry_equiv_pos_site_id
 _symmetry_equiv_pos_as_xyz
  1  'x, y, z'
loop_
 _atom_site_type_symbol
 _atom_site_label
 _atom_site_symmetry_multiplicity
 _atom_site_fract_x
 _atom_site_fract_y
 _atom_site_fract_z
 _atom_site_occupancy
  Dy  Dy0  1  0.673405  0.341858  0.003108  1
  Dy  Dy1  1  0.331545  0.658142  0.496892  1
  Dy  Dy2  1  0.331545  0.658142  0.003108  1
  Dy  Dy3  1  0.673405  0.341858  0.496892  1
  Y  Y4  1  0.989667  0.748692  0.750000  1
  Y  Y5  1  0.998814  0.242981  0.250000  1
  Y  Y6  1  0.755833  0.757019  0.250000  1
  Y  Y7  1  0.764596  0.000000  0.750000  1
  Y  Y8  1  0.240975  0.251308  0.750000  1
  Y  Y9  1  0.241695  0.000000  0.250000  1
  Si  Si10  1  0.393535  0.392275  0.250000  1
  Si  Si11  1  0.001259  0.607725  0.250000  1
  Si  Si12  1  0.998674  0.394281  0.750000  1
  Si  Si13  1  0.604393  0.605719  0.750000  1
  Si  Si14  1  0.605726  0.000000  0.250000  1
  Sn  Sn15  1  0.394931  0.000000  0.750000  1
