# generated using pymatgen
data_Y6Ni18P13Ir2
_symmetry_space_group_name_H-M   'P 1'
_cell_length_a   12.79197800
_cell_length_b   12.79197808
_cell_length_c   3.77732800
_cell_angle_alpha   90.00000000
_cell_angle_beta   90.00000000
_cell_angle_gamma   119.99999980
_symmetry_Int_Tables_number   1
_chemical_formula_structural   Y6Ni18P13Ir2
_chemical_formula_sum   'Y6 Ni18 P13 Ir2'
_cell_volume   535.29198503
_cell_formula_units_Z   1
loop_
 _symmetry_equiv_pos_site_id
 _symmetry_equiv_pos_as_xyz
  1  'x, y, z'
loop_
 _atom_site_type_symbol
 _atom_site_label
 _atom_site_symmetry_multiplicity
 _atom_site_fract_x
 _atom_site_fract_y
 _atom_site_fract_z
 _atom_site_occupancy
  Y  Y0  1  0.466075  0.184330  0.000000  1
  Y  Y1  1  0.718256  0.533925  0.000000  1
  Y  Y2  1  0.815670  0.281744  0.000000  1
  Y  Y3  1  0.534657  0.815270  0.500000  1
  Y  Y4  1  0.280613  0.465343  0.500000  1
  Y  Y5  1  0.184730  0.719387  0.500000  1
  Ni  Ni6  1  0.193798  0.091002  0.000000  1
  Ni  Ni7  1  0.897203  0.806202  0.000000  1
  Ni  Ni8  1  0.908998  0.102797  0.000000  1
  Ni  Ni9  1  0.850827  0.927762  0.500000  1
  Ni  Ni10  1  0.076935  0.149173  0.500000  1
  Ni  Ni11  1  0.072238  0.923065  0.500000  1
  Ni  Ni12  1  0.436612  0.413718  0.000000  1
  Ni  Ni13  1  0.977107  0.563388  0.000000  1
  Ni  Ni14  1  0.586282  0.022893  0.000000  1
  Ni  Ni15  1  0.566708  0.589866  0.500000  1
  Ni  Ni16  1  0.023157  0.433292  0.500000  1
  Ni  Ni17  1  0.410134  0.976843  0.500000  1
  Ni  Ni18  1  0.076083  0.316441  0.000000  1
  Ni  Ni19  1  0.240357  0.923917  0.000000  1
  Ni  Ni20  1  0.683559  0.759643  0.000000  1
  Ni  Ni21  1  0.931085  0.686447  0.500000  1
  Ni  Ni22  1  0.755362  0.068915  0.500000  1
  Ni  Ni23  1  0.313553  0.244638  0.500000  1
  P  P24  1  0.233194  0.280859  0.000000  1
  P  P25  1  0.047666  0.766806  0.000000  1
  P  P26  1  0.719141  0.952334  0.000000  1
  P  P27  1  0.769621  0.723893  0.500000  1
  P  P28  1  0.954272  0.230379  0.500000  1
  P  P29  1  0.276107  0.045728  0.500000  1
  P  P30  1  0.483005  0.613376  0.000000  1
  P  P31  1  0.130371  0.516995  0.000000  1
  P  P32  1  0.386624  0.869629  0.000000  1
  P  P33  1  0.517696  0.387957  0.500000  1
  P  P34  1  0.870261  0.482304  0.500000  1
  P  P35  1  0.612043  0.129739  0.500000  1
  P  P36  1  0.000000  0.000000  0.000000  1
  Ir  Ir37  1  0.333333  0.666667  0.000000  1
  Ir  Ir38  1  0.666667  0.333333  0.500000  1
