# generated using pymatgen
data_K4HfPtBr12
_symmetry_space_group_name_H-M   'P 1'
_cell_length_a   7.82707308
_cell_length_b   7.45042466
_cell_length_c   12.78262100
_cell_angle_alpha   54.32118899
_cell_angle_beta   89.99202098
_cell_angle_gamma   90.39537423
_symmetry_Int_Tables_number   1
_chemical_formula_structural   K4HfPtBr12
_chemical_formula_sum   'K4 Hf1 Pt1 Br12'
_cell_volume   605.48076001
_cell_formula_units_Z   1
loop_
 _symmetry_equiv_pos_site_id
 _symmetry_equiv_pos_as_xyz
  1  'x, y, z'
loop_
 _atom_site_type_symbol
 _atom_site_label
 _atom_site_symmetry_multiplicity
 _atom_site_fract_x
 _atom_site_fract_y
 _atom_site_fract_z
 _atom_site_occupancy
  K  K0  1  0.423092  0.728194  0.253579  1
  K  K1  1  0.923272  0.256341  0.256938  1
  K  K2  1  0.076728  0.743659  0.743062  1
  K  K3  1  0.576908  0.271806  0.746421  1
  Hf  Hf4  1  0.000000  0.000000  0.000000  1
  Pt  Pt5  1  0.500000  0.000000  0.500000  1
  Br  Br6  1  0.823261  0.332226  0.960725  1
  Br  Br7  1  0.510582  0.155589  0.265174  1
  Br  Br8  1  0.489418  0.844411  0.734826  1
  Br  Br9  1  0.286836  0.213937  0.964550  1
  Br  Br10  1  0.319034  0.684112  0.542033  1
  Br  Br11  1  0.234055  0.217579  0.460612  1
  Br  Br12  1  0.176739  0.667774  0.039275  1
  Br  Br13  1  0.765945  0.782421  0.539388  1
  Br  Br14  1  0.713164  0.786063  0.035450  1
  Br  Br15  1  0.008728  0.822902  0.247474  1
  Br  Br16  1  0.991272  0.177098  0.752526  1
  Br  Br17  1  0.680966  0.315888  0.457967  1
