# generated using pymatgen
data_La13Yb3Cd4(CoOs)2
_symmetry_space_group_name_H-M   'P 1'
_cell_length_a   9.96486562
_cell_length_b   9.93860392
_cell_length_c   9.96486739
_cell_angle_alpha   60.26890694
_cell_angle_beta   60.86016374
_cell_angle_gamma   60.26891126
_symmetry_Int_Tables_number   1
_chemical_formula_structural   La13Yb3Cd4(CoOs)2
_chemical_formula_sum   'La13 Yb3 Cd4 Co2 Os2'
_cell_volume   705.13724474
_cell_formula_units_Z   1
loop_
 _symmetry_equiv_pos_site_id
 _symmetry_equiv_pos_as_xyz
  1  'x, y, z'
loop_
 _atom_site_type_symbol
 _atom_site_label
 _atom_site_symmetry_multiplicity
 _atom_site_fract_x
 _atom_site_fract_y
 _atom_site_fract_z
 _atom_site_occupancy
  La  La0  1  0.683776  0.693777  0.308500  1
  La  La1  1  0.159384  0.150729  0.538322  1
  La  La2  1  0.308500  0.693777  0.683776  1
  La  La3  1  0.158199  0.149991  0.158199  1
  La  La4  1  0.538322  0.150729  0.159384  1
  La  La5  1  0.308781  0.690721  0.308781  1
  La  La6  1  0.314819  0.309007  0.683566  1
  La  La7  1  0.690156  0.304801  0.690156  1
  La  La8  1  0.934383  0.561933  0.557089  1
  La  La9  1  0.557089  0.561933  0.934383  1
  La  La10  1  0.158452  0.534599  0.158452  1
  La  La11  1  0.683566  0.309007  0.314819  1
  La  La12  1  0.942196  0.560110  0.942196  1
  Yb  Yb13  1  0.936044  0.942113  0.561437  1
  Yb  Yb14  1  0.562562  0.937391  0.562562  1
  Yb  Yb15  1  0.561437  0.942113  0.936044  1
  Cd  Cd16  1  0.237394  0.921588  0.920835  1
  Cd  Cd17  1  0.920221  0.922232  0.920221  1
  Cd  Cd18  1  0.920835  0.921588  0.237394  1
  Cd  Cd19  1  0.921322  0.236720  0.921322  1
  Co  Co20  1  0.363667  0.913522  0.363667  1
  Co  Co21  1  0.364244  0.358508  0.364244  1
  Os  Os22  1  0.914080  0.366554  0.360571  1
  Os  Os23  1  0.360571  0.366554  0.914080  1
