# generated using pymatgen
data_Y3Cr(Co4P3)2
_symmetry_space_group_name_H-M   'P 1'
_cell_length_a   3.69373200
_cell_length_b   10.54415500
_cell_length_c   12.19429800
_cell_angle_alpha   90.00000000
_cell_angle_beta   90.00000000
_cell_angle_gamma   90.00000000
_symmetry_Int_Tables_number   1
_chemical_formula_structural   Y3Cr(Co4P3)2
_chemical_formula_sum   'Y6 Cr2 Co16 P12'
_cell_volume   474.93477198
_cell_formula_units_Z   2
loop_
 _symmetry_equiv_pos_site_id
 _symmetry_equiv_pos_as_xyz
  1  'x, y, z'
loop_
 _atom_site_type_symbol
 _atom_site_label
 _atom_site_symmetry_multiplicity
 _atom_site_fract_x
 _atom_site_fract_y
 _atom_site_fract_z
 _atom_site_occupancy
  Y  Y0  1  0.000000  0.500000  0.522618  1
  Y  Y1  1  0.500000  0.000000  0.477382  1
  Y  Y2  1  0.500000  0.817938  0.204729  1
  Y  Y3  1  0.500000  0.182062  0.204729  1
  Y  Y4  1  0.000000  0.682062  0.795271  1
  Y  Y5  1  0.000000  0.317938  0.795271  1
  Cr  Cr6  1  0.500000  0.500000  0.156091  1
  Cr  Cr7  1  0.000000  0.000000  0.843909  1
  Co  Co8  1  0.500000  0.500000  0.702299  1
  Co  Co9  1  0.000000  0.000000  0.297701  1
  Co  Co10  1  0.000000  0.500000  0.987004  1
  Co  Co11  1  0.500000  0.000000  0.012996  1
  Co  Co12  1  0.500000  0.332781  0.992683  1
  Co  Co13  1  0.500000  0.667219  0.992683  1
  Co  Co14  1  0.000000  0.167219  0.007317  1
  Co  Co15  1  0.000000  0.832781  0.007317  1
  Co  Co16  1  0.500000  0.296242  0.430665  1
  Co  Co17  1  0.500000  0.703758  0.430665  1
  Co  Co18  1  0.000000  0.203758  0.569335  1
  Co  Co19  1  0.000000  0.796242  0.569335  1
  Co  Co20  1  0.500000  0.879483  0.708986  1
  Co  Co21  1  0.500000  0.120517  0.708986  1
  Co  Co22  1  0.000000  0.620517  0.291014  1
  Co  Co23  1  0.000000  0.379483  0.291014  1
  P  P24  1  0.500000  0.500000  0.882468  1
  P  P25  1  0.000000  0.000000  0.117532  1
  P  P26  1  0.500000  0.500000  0.343655  1
  P  P27  1  0.000000  0.000000  0.656345  1
  P  P28  1  0.500000  0.310947  0.615978  1
  P  P29  1  0.500000  0.689053  0.615978  1
  P  P30  1  0.000000  0.189053  0.384022  1
  P  P31  1  0.000000  0.810947  0.384022  1
  P  P32  1  0.500000  0.847706  0.892453  1
  P  P33  1  0.500000  0.152294  0.892453  1
  P  P34  1  0.000000  0.652294  0.107547  1
  P  P35  1  0.000000  0.347706  0.107547  1
