# generated using pymatgen
data_Y8Ho11ErPb16
_symmetry_space_group_name_H-M   'P 1'
_cell_length_a   8.20434701
_cell_length_b   8.26435203
_cell_length_c   15.61124000
_cell_angle_alpha   90.00000000
_cell_angle_beta   90.00000000
_cell_angle_gamma   90.00236074
_symmetry_Int_Tables_number   1
_chemical_formula_structural   Y8Ho11ErPb16
_chemical_formula_sum   'Y8 Ho11 Er1 Pb16'
_cell_volume   1058.49845621
_cell_formula_units_Z   1
loop_
 _symmetry_equiv_pos_site_id
 _symmetry_equiv_pos_as_xyz
  1  'x, y, z'
loop_
 _atom_site_type_symbol
 _atom_site_label
 _atom_site_symmetry_multiplicity
 _atom_site_fract_x
 _atom_site_fract_y
 _atom_site_fract_z
 _atom_site_occupancy
  Y  Y0  1  0.536178  0.324570  0.899984  1
  Y  Y1  1  0.036230  0.175442  0.599864  1
  Y  Y2  1  0.463657  0.675692  0.399919  1
  Y  Y3  1  0.963975  0.824717  0.100069  1
  Y  Y4  1  0.463657  0.675692  0.100081  1
  Y  Y5  1  0.963975  0.824717  0.399931  1
  Y  Y6  1  0.536178  0.324570  0.600016  1
  Y  Y7  1  0.036230  0.175442  0.900136  1
  Ho  Ho8  1  0.377234  0.841797  0.879092  1
  Ho  Ho9  1  0.877233  0.658304  0.621105  1
  Ho  Ho10  1  0.622571  0.158081  0.378704  1
  Ho  Ho11  1  0.122890  0.341692  0.121268  1
  Ho  Ho12  1  0.622571  0.158081  0.121296  1
  Ho  Ho13  1  0.122890  0.341692  0.378732  1
  Ho  Ho14  1  0.377234  0.841797  0.620908  1
  Ho  Ho15  1  0.877233  0.658304  0.878895  1
  Ho  Ho16  1  0.209411  0.504365  0.750000  1
  Ho  Ho17  1  0.709398  0.995704  0.750000  1
  Ho  Ho18  1  0.790604  0.495710  0.250000  1
  Er  Er19  1  0.290520  0.004599  0.250000  1
  Pb  Pb20  1  0.281759  0.033566  0.043367  1
  Pb  Pb21  1  0.781684  0.465915  0.457043  1
  Pb  Pb22  1  0.718368  0.966072  0.542801  1
  Pb  Pb23  1  0.218251  0.533848  0.957190  1
  Pb  Pb24  1  0.718368  0.966072  0.957199  1
  Pb  Pb25  1  0.218251  0.533848  0.542810  1
  Pb  Pb26  1  0.281759  0.033566  0.456633  1
  Pb  Pb27  1  0.781684  0.465915  0.042957  1
  Pb  Pb28  1  0.572427  0.626257  0.750000  1
  Pb  Pb29  1  0.072573  0.873929  0.750000  1
  Pb  Pb30  1  0.427276  0.373619  0.250000  1
  Pb  Pb31  1  0.927889  0.125624  0.250000  1
  Pb  Pb32  1  0.348508  0.153223  0.750000  1
  Pb  Pb33  1  0.848598  0.346581  0.750000  1
  Pb  Pb34  1  0.650891  0.846762  0.250000  1
  Pb  Pb35  1  0.151846  0.654236  0.250000  1
