# generated using pymatgen
data_Ta6Ti2V2Si6B
_symmetry_space_group_name_H-M   'P 1'
_cell_length_a   7.50017700
_cell_length_b   7.50017741
_cell_length_c   5.08788200
_cell_angle_alpha   90.00000000
_cell_angle_beta   90.00000000
_cell_angle_gamma   120.00000260
_symmetry_Int_Tables_number   1
_chemical_formula_structural   Ta6Ti2V2Si6B
_chemical_formula_sum   'Ta6 Ti2 V2 Si6 B1'
_cell_volume   247.86242808
_cell_formula_units_Z   1
loop_
 _symmetry_equiv_pos_site_id
 _symmetry_equiv_pos_as_xyz
  1  'x, y, z'
loop_
 _atom_site_type_symbol
 _atom_site_label
 _atom_site_symmetry_multiplicity
 _atom_site_fract_x
 _atom_site_fract_y
 _atom_site_fract_z
 _atom_site_occupancy
  Ta  Ta0  1  0.000000  0.755474  0.245806  1
  Ta  Ta1  1  0.244526  0.244526  0.245806  1
  Ta  Ta2  1  0.755474  0.000000  0.245806  1
  Ta  Ta3  1  0.000000  0.244526  0.754194  1
  Ta  Ta4  1  0.755474  0.755474  0.754194  1
  Ta  Ta5  1  0.244526  0.000000  0.754194  1
  Ti  Ti6  1  0.333333  0.666667  0.500000  1
  Ti  Ti7  1  0.666667  0.333333  0.500000  1
  V  V8  1  0.666667  0.333333  0.000000  1
  V  V9  1  0.333333  0.666667  0.000000  1
  Si  Si10  1  0.000000  0.403145  0.237830  1
  Si  Si11  1  0.596855  0.596855  0.237830  1
  Si  Si12  1  0.403145  0.000000  0.237830  1
  Si  Si13  1  0.000000  0.596855  0.762170  1
  Si  Si14  1  0.403145  0.403145  0.762170  1
  Si  Si15  1  0.596855  0.000000  0.762170  1
  B  B16  1  0.000000  0.000000  0.500000  1
