# generated using pymatgen
data_Ta6V5GaN2
_symmetry_space_group_name_H-M   'P 1'
_cell_length_a   8.25238062
_cell_length_b   8.25238107
_cell_length_c   8.22977100
_cell_angle_alpha   60.09060336
_cell_angle_beta   60.09060156
_cell_angle_gamma   60.26856072
_symmetry_Int_Tables_number   1
_chemical_formula_structural   Ta6V5GaN2
_chemical_formula_sum   'Ta12 V10 Ga2 N4'
_cell_volume   397.64983488
_cell_formula_units_Z   2
loop_
 _symmetry_equiv_pos_site_id
 _symmetry_equiv_pos_as_xyz
  1  'x, y, z'
loop_
 _atom_site_type_symbol
 _atom_site_label
 _atom_site_symmetry_multiplicity
 _atom_site_fract_x
 _atom_site_fract_y
 _atom_site_fract_z
 _atom_site_occupancy
  Ta  Ta0  1  0.812672  0.812672  0.187328  1
  Ta  Ta1  1  0.193437  0.193437  0.806563  1
  Ta  Ta2  1  0.809251  0.188739  0.811317  1
  Ta  Ta3  1  0.188739  0.809251  0.190694  1
  Ta  Ta4  1  0.188739  0.809251  0.811317  1
  Ta  Ta5  1  0.809251  0.188739  0.190694  1
  Ta  Ta6  1  0.437853  0.437853  0.062147  1
  Ta  Ta7  1  0.056232  0.056232  0.443768  1
  Ta  Ta8  1  0.441424  0.062601  0.443539  1
  Ta  Ta9  1  0.062601  0.441424  0.052434  1
  Ta  Ta10  1  0.062601  0.441424  0.443539  1
  Ta  Ta11  1  0.441424  0.062601  0.052434  1
  V  V12  1  0.119657  0.626361  0.626992  1
  V  V13  1  0.626361  0.119657  0.626992  1
  V  V14  1  0.626915  0.626915  0.119651  1
  V  V15  1  0.626915  0.626915  0.626518  1
  V  V16  1  0.420770  0.420770  0.736309  1
  V  V17  1  0.420770  0.420770  0.422149  1
  V  V18  1  0.502061  0.826931  0.835504  1
  V  V19  1  0.826931  0.502061  0.835504  1
  V  V20  1  0.828652  0.828652  0.508616  1
  V  V21  1  0.828652  0.828652  0.834082  1
  Ga  Ga22  1  0.762396  0.409705  0.413949  1
  Ga  Ga23  1  0.409705  0.762396  0.413949  1
  N  N24  1  0.626228  0.122341  0.125716  1
  N  N25  1  0.122341  0.626228  0.125716  1
  N  N26  1  0.123711  0.123711  0.626531  1
  N  N27  1  0.123711  0.123711  0.126048  1
