# generated using pymatgen
data_Hf18CuRe2Mo6Se
_symmetry_space_group_name_H-M   'P 1'
_cell_length_a   8.70734637
_cell_length_b   8.70734656
_cell_length_c   8.53837700
_cell_angle_alpha   90.00000000
_cell_angle_beta   90.00000000
_cell_angle_gamma   120.03350623
_symmetry_Int_Tables_number   1
_chemical_formula_structural   Hf18CuRe2Mo6Se
_chemical_formula_sum   'Hf18 Cu1 Re2 Mo6 Se1'
_cell_volume   560.44226425
_cell_formula_units_Z   1
loop_
 _symmetry_equiv_pos_site_id
 _symmetry_equiv_pos_as_xyz
  1  'x, y, z'
loop_
 _atom_site_type_symbol
 _atom_site_label
 _atom_site_symmetry_multiplicity
 _atom_site_fract_x
 _atom_site_fract_y
 _atom_site_fract_z
 _atom_site_occupancy
  Hf  Hf0  1  0.196613  0.803387  0.443685  1
  Hf  Hf1  1  0.197274  0.394022  0.444712  1
  Hf  Hf2  1  0.605978  0.802726  0.444712  1
  Hf  Hf3  1  0.805572  0.194428  0.545447  1
  Hf  Hf4  1  0.805615  0.611698  0.544545  1
  Hf  Hf5  1  0.388302  0.194385  0.544545  1
  Hf  Hf6  1  0.805572  0.194428  0.954553  1
  Hf  Hf7  1  0.805615  0.611698  0.955455  1
  Hf  Hf8  1  0.388302  0.194385  0.955455  1
  Hf  Hf9  1  0.196613  0.803387  0.056315  1
  Hf  Hf10  1  0.197274  0.394022  0.055288  1
  Hf  Hf11  1  0.605978  0.802726  0.055288  1
  Hf  Hf12  1  0.541609  0.458391  0.250000  1
  Hf  Hf13  1  0.541237  0.083453  0.250000  1
  Hf  Hf14  1  0.916547  0.458763  0.250000  1
  Hf  Hf15  1  0.456395  0.543605  0.750000  1
  Hf  Hf16  1  0.456238  0.912859  0.750000  1
  Hf  Hf17  1  0.087141  0.543762  0.750000  1
  Cu  Cu18  1  0.332699  0.667301  0.250000  1
  Re  Re19  1  0.889430  0.777052  0.250000  1
  Re  Re20  1  0.222948  0.110570  0.250000  1
  Mo  Mo21  1  0.890275  0.109725  0.250000  1
  Mo  Mo22  1  0.111299  0.888701  0.750000  1
  Mo  Mo23  1  0.111990  0.223389  0.750000  1
  Mo  Mo24  1  0.776611  0.888010  0.750000  1
  Mo  Mo25  1  0.000278  0.999722  0.501601  1
  Mo  Mo26  1  0.000278  0.999722  0.998399  1
  Se  Se27  1  0.666319  0.333681  0.750000  1
