# generated using pymatgen
data_Lu2Sc18BiSb11
_symmetry_space_group_name_H-M   'P 1'
_cell_length_a   7.66738606
_cell_length_b   8.83929175
_cell_length_c   11.25522701
_cell_angle_alpha   90.03269910
_cell_angle_beta   89.91342322
_cell_angle_gamma   90.03419350
_symmetry_Int_Tables_number   1
_chemical_formula_structural   Lu2Sc18BiSb11
_chemical_formula_sum   'Lu2 Sc18 Bi1 Sb11'
_cell_volume   762.81357833
_cell_formula_units_Z   1
loop_
 _symmetry_equiv_pos_site_id
 _symmetry_equiv_pos_as_xyz
  1  'x, y, z'
loop_
 _atom_site_type_symbol
 _atom_site_label
 _atom_site_symmetry_multiplicity
 _atom_site_fract_x
 _atom_site_fract_y
 _atom_site_fract_z
 _atom_site_occupancy
  Lu  Lu0  1  0.315495  0.750057  0.280601  1
  Lu  Lu1  1  0.686497  0.247234  0.718640  1
  Sc  Sc2  1  0.023234  0.250022  0.511347  1
  Sc  Sc3  1  0.976473  0.750139  0.488366  1
  Sc  Sc4  1  0.476049  0.752330  0.012277  1
  Sc  Sc5  1  0.525514  0.247735  0.990898  1
  Sc  Sc6  1  0.352461  0.250156  0.281711  1
  Sc  Sc7  1  0.650800  0.753207  0.717409  1
  Sc  Sc8  1  0.146299  0.752623  0.783062  1
  Sc  Sc9  1  0.850694  0.249986  0.216556  1
  Sc  Sc10  1  0.182428  0.246085  0.779926  1
  Sc  Sc11  1  0.814374  0.749900  0.219455  1
  Sc  Sc12  1  0.194783  0.062914  0.061094  1
  Sc  Sc13  1  0.805400  0.937037  0.939401  1
  Sc  Sc14  1  0.306719  0.936869  0.561519  1
  Sc  Sc15  1  0.807101  0.563789  0.939941  1
  Sc  Sc16  1  0.693663  0.063305  0.438325  1
  Sc  Sc17  1  0.193650  0.436408  0.062802  1
  Sc  Sc18  1  0.693551  0.436591  0.438333  1
  Sc  Sc19  1  0.304915  0.563787  0.559082  1
  Bi  Bi20  1  0.430581  0.505059  0.826292  1
  Sb  Sb21  1  0.405899  0.250131  0.535504  1
  Sb  Sb22  1  0.594088  0.750003  0.464446  1
  Sb  Sb23  1  0.089052  0.749970  0.037868  1
  Sb  Sb24  1  0.911583  0.250069  0.962537  1
  Sb  Sb25  1  0.062108  0.006581  0.326814  1
  Sb  Sb26  1  0.938030  0.993211  0.672377  1
  Sb  Sb27  1  0.432001  0.994632  0.827765  1
  Sb  Sb28  1  0.937940  0.506647  0.673310  1
  Sb  Sb29  1  0.568478  0.005345  0.173323  1
  Sb  Sb30  1  0.062018  0.493398  0.326998  1
  Sb  Sb31  1  0.568121  0.494780  0.172021  1
