# generated using pymatgen
data_DyYV6O18
_symmetry_space_group_name_H-M   'P 1'
_cell_length_a   7.43990881
_cell_length_b   8.49279455
_cell_length_c   9.57345557
_cell_angle_alpha   105.84519588
_cell_angle_beta   112.82302143
_cell_angle_gamma   64.00095275
_symmetry_Int_Tables_number   1
_chemical_formula_structural   DyYV6O18
_chemical_formula_sum   'Dy1 Y1 V6 O18'
_cell_volume   497.23344325
_cell_formula_units_Z   1
loop_
 _symmetry_equiv_pos_site_id
 _symmetry_equiv_pos_as_xyz
  1  'x, y, z'
loop_
 _atom_site_type_symbol
 _atom_site_label
 _atom_site_symmetry_multiplicity
 _atom_site_fract_x
 _atom_site_fract_y
 _atom_site_fract_z
 _atom_site_occupancy
  Dy  Dy0  1  0.202984  0.857500  0.742187  1
  Y  Y1  1  0.681918  0.357490  0.242239  1
  V  V2  1  0.749771  0.608449  0.007958  1
  V  V3  1  0.994615  0.905899  0.074156  1
  V  V4  1  0.417695  0.809026  0.416625  1
  V  V5  1  0.650178  0.107930  0.508336  1
  V  V6  1  0.174076  0.406145  0.574397  1
  V  V7  1  0.189534  0.308759  0.916392  1
  O  O8  1  0.366204  0.384893  0.057411  1
  O  O9  1  0.834820  0.121001  0.089536  1
  O  O10  1  0.868675  0.770910  0.082043  1
  O  O11  1  0.684080  0.570401  0.141988  1
  O  O12  1  0.225798  0.874738  0.237439  1
  O  O13  1  0.644875  0.177477  0.356779  1
  O  O14  1  0.003056  0.348214  0.412675  1
  O  O15  1  0.530953  0.586710  0.401448  1
  O  O16  1  0.609131  0.903245  0.454526  1
  O  O17  1  0.305497  0.885132  0.557625  1
  O  O18  1  0.134338  0.621234  0.590289  1
  O  O19  1  0.443175  0.271011  0.582666  1
  O  O20  1  0.888027  0.069574  0.642089  1
  O  O21  1  0.136641  0.374820  0.737318  1
  O  O22  1  0.533780  0.678315  0.856646  1
  O  O23  1  0.062469  0.848018  0.912666  1
  O  O24  1  0.283190  0.086381  0.900764  1
  O  O25  1  0.941315  0.403332  0.954003  1
