# generated using pymatgen
data_Li4Eu4SiBi3
_symmetry_space_group_name_H-M   'P 1'
_cell_length_a   4.75648000
_cell_length_b   7.90315993
_cell_length_c   8.41242525
_cell_angle_alpha   88.95598378
_cell_angle_beta   90.00000000
_cell_angle_gamma   90.00000000
_symmetry_Int_Tables_number   1
_chemical_formula_structural   Li4Eu4SiBi3
_chemical_formula_sum   'Li4 Eu4 Si1 Bi3'
_cell_volume   316.18084945
_cell_formula_units_Z   1
loop_
 _symmetry_equiv_pos_site_id
 _symmetry_equiv_pos_as_xyz
  1  'x, y, z'
loop_
 _atom_site_type_symbol
 _atom_site_label
 _atom_site_symmetry_multiplicity
 _atom_site_fract_x
 _atom_site_fract_y
 _atom_site_fract_z
 _atom_site_occupancy
  Li  Li0  1  0.250000  0.171336  0.909930  1
  Li  Li1  1  0.250000  0.652295  0.581099  1
  Li  Li2  1  0.750000  0.833925  0.074718  1
  Li  Li3  1  0.750000  0.328205  0.433551  1
  Eu  Eu4  1  0.250000  0.015837  0.307100  1
  Eu  Eu5  1  0.250000  0.501612  0.217029  1
  Eu  Eu6  1  0.750000  0.009678  0.701658  1
  Eu  Eu7  1  0.750000  0.487281  0.777685  1
  Si  Si8  1  0.250000  0.276587  0.592416  1
  Bi  Bi9  1  0.250000  0.772766  0.903055  1
  Bi  Bi10  1  0.750000  0.725200  0.408205  1
  Bi  Bi11  1  0.750000  0.225278  0.093554  1
