# generated using pymatgen
data_K7U2BiS10
_symmetry_space_group_name_H-M   'P 1'
_cell_length_a   7.62141164
_cell_length_b   11.41833493
_cell_length_c   7.22136700
_cell_angle_alpha   102.18052145
_cell_angle_beta   99.51299817
_cell_angle_gamma   110.38744254
_symmetry_Int_Tables_number   1
_chemical_formula_structural   K7U2BiS10
_chemical_formula_sum   'K7 U2 Bi1 S10'
_cell_volume   555.90840755
_cell_formula_units_Z   1
loop_
 _symmetry_equiv_pos_site_id
 _symmetry_equiv_pos_as_xyz
  1  'x, y, z'
loop_
 _atom_site_type_symbol
 _atom_site_label
 _atom_site_symmetry_multiplicity
 _atom_site_fract_x
 _atom_site_fract_y
 _atom_site_fract_z
 _atom_site_occupancy
  K  K0  1  0.000296  0.500242  0.999990  1
  K  K1  1  0.417806  0.905693  0.205751  1
  K  K2  1  0.595855  0.594308  0.294579  1
  K  K3  1  0.791073  0.300014  0.421108  1
  K  K4  1  0.208952  0.700181  0.579085  1
  K  K5  1  0.404362  0.405901  0.705546  1
  K  K6  1  0.582232  0.094261  0.794190  1
  U  U7  1  0.192342  0.198025  0.101136  1
  U  U8  1  0.807653  0.801950  0.898904  1
  Bi  Bi9  1  0.000021  0.000071  0.500130  1
  S  S10  1  0.527471  0.314187  0.061074  1
  S  S11  1  0.841119  0.037978  0.141969  1
  S  S12  1  0.987959  0.775351  0.224610  1
  S  S13  1  0.178046  0.403132  0.307794  1
  S  S14  1  0.346454  0.143714  0.412737  1
  S  S15  1  0.653514  0.856201  0.587311  1
  S  S16  1  0.821842  0.596880  0.692119  1
  S  S17  1  0.011924  0.224554  0.775132  1
  S  S18  1  0.158615  0.961553  0.857972  1
  S  S19  1  0.472471  0.685803  0.938865  1
