# generated using pymatgen
data_Tm6Al24Ru5Au3
_symmetry_space_group_name_H-M   'P 1'
_cell_length_a   8.86623113
_cell_length_b   8.82211527
_cell_length_c   9.50717716
_cell_angle_alpha   90.00373857
_cell_angle_beta   90.01594928
_cell_angle_gamma   119.28251051
_symmetry_Int_Tables_number   1
_chemical_formula_structural   Tm6Al24Ru5Au3
_chemical_formula_sum   'Tm6 Al24 Ru5 Au3'
_cell_volume   648.61753680
_cell_formula_units_Z   1
loop_
 _symmetry_equiv_pos_site_id
 _symmetry_equiv_pos_as_xyz
  1  'x, y, z'
loop_
 _atom_site_type_symbol
 _atom_site_label
 _atom_site_symmetry_multiplicity
 _atom_site_fract_x
 _atom_site_fract_y
 _atom_site_fract_z
 _atom_site_occupancy
  Tm  Tm0  1  0.807137  0.195784  0.750010  1
  Tm  Tm1  1  0.192863  0.804216  0.249990  1
  Tm  Tm2  1  0.385344  0.192439  0.751012  1
  Tm  Tm3  1  0.614656  0.807561  0.248988  1
  Tm  Tm4  1  0.808600  0.613541  0.745175  1
  Tm  Tm5  1  0.191400  0.386459  0.254825  1
  Al  Al6  1  0.678954  0.339799  0.967522  1
  Al  Al7  1  0.321046  0.660201  0.032478  1
  Al  Al8  1  0.327928  0.672670  0.470249  1
  Al  Al9  1  0.672072  0.327330  0.529751  1
  Al  Al10  1  0.836345  0.163456  0.421007  1
  Al  Al11  1  0.163655  0.836544  0.578993  1
  Al  Al12  1  0.320302  0.150224  0.422598  1
  Al  Al13  1  0.152011  0.828848  0.916105  1
  Al  Al14  1  0.679698  0.849776  0.577402  1
  Al  Al15  1  0.847989  0.171152  0.083895  1
  Al  Al16  1  0.848152  0.678356  0.420315  1
  Al  Al17  1  0.684246  0.841283  0.915353  1
  Al  Al18  1  0.151848  0.321644  0.579685  1
  Al  Al19  1  0.315754  0.158717  0.084647  1
  Al  Al20  1  0.150828  0.321148  0.918874  1
  Al  Al21  1  0.849172  0.678852  0.081126  1
  Al  Al22  1  0.433106  0.565025  0.749762  1
  Al  Al23  1  0.566894  0.434975  0.250238  1
  Al  Al24  1  0.119590  0.560712  0.749826  1
  Al  Al25  1  0.880410  0.439288  0.250174  1
  Al  Al26  1  0.435128  0.873769  0.742348  1
  Al  Al27  1  0.564872  0.126231  0.257652  1
  Al  Al28  1  0.003033  0.000401  0.749377  1
  Al  Al29  1  0.996967  0.999599  0.250623  1
  Ru  Ru30  1  0.000000  0.500000  0.000000  1
  Ru  Ru31  1  0.000000  0.500000  0.500000  1
  Ru  Ru32  1  0.500000  0.000000  0.500000  1
  Ru  Ru33  1  0.000000  0.000000  0.000000  1
  Ru  Ru34  1  0.000000  0.000000  0.500000  1
  Au  Au35  1  0.500000  0.500000  0.000000  1
  Au  Au36  1  0.500000  0.500000  0.500000  1
  Au  Au37  1  0.500000  0.000000  0.000000  1
