# generated using pymatgen
data_TaTiAlCo5B2
_symmetry_space_group_name_H-M   'P 1'
_cell_length_a   8.54274100
_cell_length_b   8.53459700
_cell_length_c   2.97094300
_cell_angle_alpha   90.00000000
_cell_angle_beta   90.00000000
_cell_angle_gamma   90.00000000
_symmetry_Int_Tables_number   1
_chemical_formula_structural   TaTiAlCo5B2
_chemical_formula_sum   'Ta2 Ti2 Al2 Co10 B4'
_cell_volume   216.60804263
_cell_formula_units_Z   2
loop_
 _symmetry_equiv_pos_site_id
 _symmetry_equiv_pos_as_xyz
  1  'x, y, z'
loop_
 _atom_site_type_symbol
 _atom_site_label
 _atom_site_symmetry_multiplicity
 _atom_site_fract_x
 _atom_site_fract_y
 _atom_site_fract_z
 _atom_site_occupancy
  Ta  Ta0  1  0.823743  0.325294  0.000000  1
  Ta  Ta1  1  0.323743  0.174706  0.000000  1
  Ti  Ti2  1  0.676137  0.823018  0.000000  1
  Ti  Ti3  1  0.176137  0.676982  0.000000  1
  Al  Al4  1  0.999766  0.998929  0.000000  1
  Al  Al5  1  0.499766  0.501071  0.000000  1
  Co  Co6  1  0.502794  0.995868  0.500000  1
  Co  Co7  1  0.002794  0.504132  0.500000  1
  Co  Co8  1  0.067566  0.221319  0.500000  1
  Co  Co9  1  0.220919  0.929451  0.500000  1
  Co  Co10  1  0.779350  0.068177  0.500000  1
  Co  Co11  1  0.928976  0.780297  0.500000  1
  Co  Co12  1  0.428976  0.719703  0.500000  1
  Co  Co13  1  0.567566  0.278681  0.500000  1
  Co  Co14  1  0.720919  0.570549  0.500000  1
  Co  Co15  1  0.279350  0.431823  0.500000  1
  B  B16  1  0.621186  0.118816  0.000000  1
  B  B17  1  0.121186  0.381184  0.000000  1
  B  B18  1  0.879563  0.622870  0.000000  1
  B  B19  1  0.379563  0.877130  0.000000  1
