# generated using pymatgen
data_Yb2Pt3O8
_symmetry_space_group_name_H-M   'P 1'
_cell_length_a   6.22595926
_cell_length_b   6.22595809
_cell_length_c   6.22595900
_cell_angle_alpha   60.73448904
_cell_angle_beta   60.73449521
_cell_angle_gamma   60.73448810
_symmetry_Int_Tables_number   1
_chemical_formula_structural   Yb2Pt3O8
_chemical_formula_sum   'Yb2 Pt3 O8'
_cell_volume   173.47729243
_cell_formula_units_Z   1
loop_
 _symmetry_equiv_pos_site_id
 _symmetry_equiv_pos_as_xyz
  1  'x, y, z'
loop_
 _atom_site_type_symbol
 _atom_site_label
 _atom_site_symmetry_multiplicity
 _atom_site_fract_x
 _atom_site_fract_y
 _atom_site_fract_z
 _atom_site_occupancy
  Yb  Yb0  1  0.854053  0.854053  0.854053  1
  Yb  Yb1  1  0.145947  0.145947  0.145947  1
  Pt  Pt2  1  0.000000  0.500000  0.500000  1
  Pt  Pt3  1  0.500000  0.000000  0.500000  1
  Pt  Pt4  1  0.500000  0.500000  0.000000  1
  O  O5  1  0.603251  0.603251  0.603251  1
  O  O6  1  0.396749  0.396749  0.396749  1
  O  O7  1  0.111014  0.111014  0.558843  1
  O  O8  1  0.558843  0.111014  0.111014  1
  O  O9  1  0.111014  0.558843  0.111014  1
  O  O10  1  0.441157  0.888986  0.888986  1
  O  O11  1  0.888986  0.888986  0.441157  1
  O  O12  1  0.888986  0.441157  0.888986  1
