# generated using pymatgen
data_Y9Ho11(Bi2As)4
_symmetry_space_group_name_H-M   'P 1'
_cell_length_a   8.04334631
_cell_length_b   9.10774700
_cell_length_c   12.14260540
_cell_angle_alpha   90.00000000
_cell_angle_beta   89.96943584
_cell_angle_gamma   90.00000000
_symmetry_Int_Tables_number   1
_chemical_formula_structural   Y9Ho11(Bi2As)4
_chemical_formula_sum   'Y9 Ho11 Bi8 As4'
_cell_volume   889.52784193
_cell_formula_units_Z   1
loop_
 _symmetry_equiv_pos_site_id
 _symmetry_equiv_pos_as_xyz
  1  'x, y, z'
loop_
 _atom_site_type_symbol
 _atom_site_label
 _atom_site_symmetry_multiplicity
 _atom_site_fract_x
 _atom_site_fract_y
 _atom_site_fract_z
 _atom_site_occupancy
  Y  Y0  1  0.346572  0.750000  0.711512  1
  Y  Y1  1  0.653297  0.250000  0.288552  1
  Y  Y2  1  0.846507  0.250000  0.789125  1
  Y  Y3  1  0.153248  0.750000  0.210735  1
  Y  Y4  1  0.868539  0.750000  0.793524  1
  Y  Y5  1  0.131584  0.250000  0.206669  1
  Y  Y6  1  0.368758  0.250000  0.706680  1
  Y  Y7  1  0.631403  0.750000  0.293275  1
  Y  Y8  1  0.038715  0.750000  0.498941  1
  Ho  Ho9  1  0.683485  0.556026  0.564028  1
  Ho  Ho10  1  0.316571  0.443483  0.436162  1
  Ho  Ho11  1  0.183687  0.443651  0.936450  1
  Ho  Ho12  1  0.316571  0.056517  0.436162  1
  Ho  Ho13  1  0.816144  0.556318  0.063530  1
  Ho  Ho14  1  0.683485  0.943974  0.564028  1
  Ho  Ho15  1  0.816144  0.943682  0.063530  1
  Ho  Ho16  1  0.183687  0.056349  0.936450  1
  Ho  Ho17  1  0.961811  0.250000  0.500824  1
  Ho  Ho18  1  0.538188  0.250000  0.001147  1
  Ho  Ho19  1  0.461580  0.750000  0.998741  1
  Bi  Bi20  1  0.575568  0.509621  0.828055  1
  Bi  Bi21  1  0.424412  0.490370  0.171872  1
  Bi  Bi22  1  0.075560  0.489795  0.672400  1
  Bi  Bi23  1  0.424412  0.009630  0.171872  1
  Bi  Bi24  1  0.924059  0.509595  0.327521  1
  Bi  Bi25  1  0.575568  0.990379  0.828055  1
  Bi  Bi26  1  0.924059  0.990405  0.327521  1
  Bi  Bi27  1  0.075560  0.010205  0.672400  1
  As  As28  1  0.084468  0.750000  0.980721  1
  As  As29  1  0.915354  0.250000  0.019262  1
  As  As30  1  0.584782  0.250000  0.519010  1
  As  As31  1  0.416222  0.750000  0.481248  1
