# generated using pymatgen
data_Li2Nd8ZnSi12Pd
_symmetry_space_group_name_H-M   'P 1'
_cell_length_a   8.25127900
_cell_length_b   8.25128028
_cell_length_c   8.46252700
_cell_angle_alpha   90.00000000
_cell_angle_beta   90.00000000
_cell_angle_gamma   119.99999084
_symmetry_Int_Tables_number   1
_chemical_formula_structural   Li2Nd8ZnSi12Pd
_chemical_formula_sum   'Li2 Nd8 Zn1 Si12 Pd1'
_cell_volume   498.96875464
_cell_formula_units_Z   1
loop_
 _symmetry_equiv_pos_site_id
 _symmetry_equiv_pos_as_xyz
  1  'x, y, z'
loop_
 _atom_site_type_symbol
 _atom_site_label
 _atom_site_symmetry_multiplicity
 _atom_site_fract_x
 _atom_site_fract_y
 _atom_site_fract_z
 _atom_site_occupancy
  Li  Li0  1  0.666667  0.333333  0.000275  1
  Li  Li1  1  0.333333  0.666667  0.999770  1
  Nd  Nd2  1  0.499064  0.500936  0.750849  1
  Nd  Nd3  1  0.498962  0.501038  0.249161  1
  Nd  Nd4  1  0.001870  0.500936  0.750849  1
  Nd  Nd5  1  0.002077  0.501038  0.249161  1
  Nd  Nd6  1  0.499064  0.998130  0.750849  1
  Nd  Nd7  1  0.498962  0.997923  0.249161  1
  Nd  Nd8  1  0.000000  0.000000  0.752049  1
  Nd  Nd9  1  0.000000  0.000000  0.247876  1
  Zn  Zn10  1  0.333333  0.666667  0.500604  1
  Si  Si11  1  0.833327  0.166673  0.999841  1
  Si  Si12  1  0.166078  0.833922  0.000105  1
  Si  Si13  1  0.333344  0.166673  0.999841  1
  Si  Si14  1  0.163948  0.836052  0.499847  1
  Si  Si15  1  0.667843  0.833922  0.000105  1
  Si  Si16  1  0.832376  0.167624  0.500087  1
  Si  Si17  1  0.833327  0.666656  0.999841  1
  Si  Si18  1  0.672105  0.836052  0.499847  1
  Si  Si19  1  0.166078  0.332157  0.000105  1
  Si  Si20  1  0.335246  0.167624  0.500087  1
  Si  Si21  1  0.163948  0.327895  0.499847  1
  Si  Si22  1  0.832376  0.664754  0.500087  1
  Pd  Pd23  1  0.666667  0.333333  0.499748  1
