# generated using pymatgen
data_Tb10HgBi5Se2
_symmetry_space_group_name_H-M   'P 1'
_cell_length_a   9.26692011
_cell_length_b   9.26692127
_cell_length_c   6.70104500
_cell_angle_alpha   90.00000000
_cell_angle_beta   90.00000000
_cell_angle_gamma   119.98217038
_symmetry_Int_Tables_number   1
_chemical_formula_structural   Tb10HgBi5Se2
_chemical_formula_sum   'Tb10 Hg1 Bi5 Se2'
_cell_volume   498.45052412
_cell_formula_units_Z   1
loop_
 _symmetry_equiv_pos_site_id
 _symmetry_equiv_pos_as_xyz
  1  'x, y, z'
loop_
 _atom_site_type_symbol
 _atom_site_label
 _atom_site_symmetry_multiplicity
 _atom_site_fract_x
 _atom_site_fract_y
 _atom_site_fract_z
 _atom_site_occupancy
  Tb  Tb0  1  0.661330  0.334954  0.498484  1
  Tb  Tb1  1  0.334954  0.661330  0.498484  1
  Tb  Tb2  1  0.334954  0.661330  0.001516  1
  Tb  Tb3  1  0.661330  0.334954  0.001516  1
  Tb  Tb4  1  0.742935  0.742935  0.250000  1
  Tb  Tb5  1  0.256059  0.008960  0.250000  1
  Tb  Tb6  1  0.008960  0.256059  0.250000  1
  Tb  Tb7  1  0.252795  0.252795  0.750000  1
  Tb  Tb8  1  0.748271  0.000564  0.750000  1
  Tb  Tb9  1  0.000564  0.748271  0.750000  1
  Hg  Hg10  1  0.395644  0.395644  0.250000  1
  Bi  Bi11  1  0.607480  0.000507  0.250000  1
  Bi  Bi12  1  0.000507  0.607480  0.250000  1
  Bi  Bi13  1  0.604421  0.604421  0.750000  1
  Bi  Bi14  1  0.393112  0.999475  0.750000  1
  Bi  Bi15  1  0.999475  0.393112  0.750000  1
  Se  Se16  1  0.998605  0.998605  0.500050  1
  Se  Se17  1  0.998605  0.998605  0.999950  1
