# generated using pymatgen
data_Er8Ta4Ti7NbSi16
_symmetry_space_group_name_H-M   'P 1'
_cell_length_a   7.02478265
_cell_length_b   7.01679348
_cell_length_c   12.91422827
_cell_angle_alpha   90.01365679
_cell_angle_beta   90.04624560
_cell_angle_gamma   89.95401906
_symmetry_Int_Tables_number   1
_chemical_formula_structural   Er8Ta4Ti7NbSi16
_chemical_formula_sum   'Er8 Ta4 Ti7 Nb1 Si16'
_cell_volume   636.56059550
_cell_formula_units_Z   1
loop_
 _symmetry_equiv_pos_site_id
 _symmetry_equiv_pos_as_xyz
  1  'x, y, z'
loop_
 _atom_site_type_symbol
 _atom_site_label
 _atom_site_symmetry_multiplicity
 _atom_site_fract_x
 _atom_site_fract_y
 _atom_site_fract_z
 _atom_site_occupancy
  Er  Er0  1  0.341147  0.001703  0.466813  1
  Er  Er1  1  0.498084  0.840595  0.717037  1
  Er  Er2  1  0.501638  0.159291  0.217030  1
  Er  Er3  1  0.840738  0.498306  0.283190  1
  Er  Er4  1  0.159604  0.502343  0.782795  1
  Er  Er5  1  0.657908  0.998258  0.966943  1
  Er  Er6  1  0.001537  0.340975  0.532911  1
  Er  Er7  1  0.998975  0.659693  0.033023  1
  Ta  Ta8  1  0.172334  0.827437  0.250345  1
  Ta  Ta9  1  0.827874  0.172316  0.750184  1
  Ta  Ta10  1  0.673040  0.673004  0.499829  1
  Ta  Ta11  1  0.152136  0.008639  0.874971  1
  Ti  Ti12  1  0.491839  0.652024  0.124549  1
  Ti  Ti13  1  0.508350  0.347497  0.625068  1
  Ti  Ti14  1  0.652409  0.491483  0.874808  1
  Ti  Ti15  1  0.347758  0.508370  0.375372  1
  Ti  Ti16  1  0.847663  0.991616  0.375066  1
  Ti  Ti17  1  0.008416  0.151607  0.124809  1
  Ti  Ti18  1  0.991872  0.847172  0.625291  1
  Nb  Nb19  1  0.326114  0.326078  0.999820  1
  Si  Si20  1  0.203984  0.131812  0.682398  1
  Si  Si21  1  0.369694  0.703675  0.932950  1
  Si  Si22  1  0.631298  0.296886  0.433475  1
  Si  Si23  1  0.703963  0.368954  0.067133  1
  Si  Si24  1  0.297018  0.631121  0.566506  1
  Si  Si25  1  0.797303  0.869110  0.183712  1
  Si  Si26  1  0.131255  0.203015  0.316466  1
  Si  Si27  1  0.866092  0.795733  0.816771  1
  Si  Si28  1  0.293678  0.952157  0.065271  1
  Si  Si29  1  0.546152  0.792521  0.313902  1
  Si  Si30  1  0.454852  0.208261  0.812937  1
  Si  Si31  1  0.793506  0.545620  0.685613  1
  Si  Si32  1  0.207073  0.453744  0.186606  1
  Si  Si33  1  0.707358  0.046111  0.564058  1
  Si  Si34  1  0.951171  0.295250  0.936191  1
  Si  Si35  1  0.046168  0.707623  0.436157  1
