# generated using pymatgen
data_La4Sm2Sn9Hg
_symmetry_space_group_name_H-M   'P 1'
_cell_length_a   6.64550841
_cell_length_b   6.64550923
_cell_length_c   10.54188718
_cell_angle_alpha   90.17505674
_cell_angle_beta   90.17505832
_cell_angle_gamma   102.29277236
_symmetry_Int_Tables_number   1
_chemical_formula_structural   La4Sm2Sn9Hg
_chemical_formula_sum   'La4 Sm2 Sn9 Hg1'
_cell_volume   454.87959314
_cell_formula_units_Z   1
loop_
 _symmetry_equiv_pos_site_id
 _symmetry_equiv_pos_as_xyz
  1  'x, y, z'
loop_
 _atom_site_type_symbol
 _atom_site_label
 _atom_site_symmetry_multiplicity
 _atom_site_fract_x
 _atom_site_fract_y
 _atom_site_fract_z
 _atom_site_occupancy
  La  La0  1  0.202777  0.795071  0.501037  1
  La  La1  1  0.206282  0.797587  0.999657  1
  La  La2  1  0.795071  0.202777  0.501037  1
  La  La3  1  0.797587  0.206282  0.999657  1
  Sm  Sm4  1  0.630520  0.630520  0.250736  1
  Sm  Sm5  1  0.371731  0.371731  0.750368  1
  Sn  Sn6  1  0.020960  0.020960  0.250813  1
  Sn  Sn7  1  0.981596  0.981596  0.751859  1
  Sn  Sn8  1  0.687120  0.687120  0.957087  1
  Sn  Sn9  1  0.311856  0.311856  0.455144  1
  Sn  Sn10  1  0.686197  0.686197  0.546646  1
  Sn  Sn11  1  0.493380  0.075457  0.248363  1
  Sn  Sn12  1  0.925513  0.505709  0.751169  1
  Sn  Sn13  1  0.505709  0.925513  0.751169  1
  Sn  Sn14  1  0.075457  0.493380  0.248363  1
  Hg  Hg15  1  0.308245  0.308245  0.036896  1
