# generated using pymatgen
data_UHSeBr
_symmetry_space_group_name_H-M   'P 1'
_cell_length_a   3.88190600
_cell_length_b   3.88190495
_cell_length_c   14.61383800
_cell_angle_alpha   90.00000000
_cell_angle_beta   90.00000000
_cell_angle_gamma   120.00000894
_symmetry_Int_Tables_number   1
_chemical_formula_structural   UHSeBr
_chemical_formula_sum   'U2 H2 Se2 Br2'
_cell_volume   190.71497420
_cell_formula_units_Z   2
loop_
 _symmetry_equiv_pos_site_id
 _symmetry_equiv_pos_as_xyz
  1  'x, y, z'
loop_
 _atom_site_type_symbol
 _atom_site_label
 _atom_site_symmetry_multiplicity
 _atom_site_fract_x
 _atom_site_fract_y
 _atom_site_fract_z
 _atom_site_occupancy
  U  U0  1  0.000000  0.000000  0.241099  1
  U  U1  1  0.000000  0.000000  0.758901  1
  H  H2  1  0.333333  0.666667  0.749132  1
  H  H3  1  0.666667  0.333333  0.250868  1
  Se  Se4  1  0.333333  0.666667  0.122729  1
  Se  Se5  1  0.666667  0.333333  0.877271  1
  Br  Br6  1  0.666667  0.333333  0.622027  1
  Br  Br7  1  0.333333  0.666667  0.377973  1
