# generated using pymatgen
data_TbEr14Lu(Tl3Rh)2
_symmetry_space_group_name_H-M   'P 1'
_cell_length_a   10.33412417
_cell_length_b   10.32396693
_cell_length_c   7.08095909
_cell_angle_alpha   89.97295030
_cell_angle_beta   89.99284088
_cell_angle_gamma   120.00119660
_symmetry_Int_Tables_number   1
_chemical_formula_structural   TbEr14Lu(Tl3Rh)2
_chemical_formula_sum   'Tb1 Er14 Lu1 Tl6 Rh2'
_cell_volume   654.24087510
_cell_formula_units_Z   1
loop_
 _symmetry_equiv_pos_site_id
 _symmetry_equiv_pos_as_xyz
  1  'x, y, z'
loop_
 _atom_site_type_symbol
 _atom_site_label
 _atom_site_symmetry_multiplicity
 _atom_site_fract_x
 _atom_site_fract_y
 _atom_site_fract_z
 _atom_site_occupancy
  Tb  Tb0  1  0.930608  0.465382  0.795167  1
  Er  Er1  1  0.534962  0.464698  0.795547  1
  Er  Er2  1  0.465058  0.930045  0.295897  1
  Er  Er3  1  0.071067  0.535457  0.295551  1
  Er  Er4  1  0.464812  0.535318  0.295910  1
  Er  Er5  1  0.823187  0.647213  0.494183  1
  Er  Er6  1  0.352744  0.175897  0.495513  1
  Er  Er7  1  0.823048  0.175783  0.495154  1
  Er  Er8  1  0.176710  0.352127  0.996020  1
  Er  Er9  1  0.646658  0.824000  0.994612  1
  Er  Er10  1  0.177563  0.824765  0.995232  1
  Er  Er11  1  0.665807  0.332537  0.176404  1
  Er  Er12  1  0.334126  0.667457  0.676783  1
  Er  Er13  1  0.000105  0.999847  0.776651  1
  Er  Er14  1  0.999777  0.999784  0.276679  1
  Lu  Lu15  1  0.535797  0.071658  0.795690  1
  Tl  Tl16  1  0.837121  0.674925  0.042956  1
  Tl  Tl17  1  0.326726  0.163095  0.041829  1
  Tl  Tl18  1  0.836622  0.162588  0.042734  1
  Tl  Tl19  1  0.162999  0.325901  0.542510  1
  Tl  Tl20  1  0.674223  0.837045  0.543090  1
  Tl  Tl21  1  0.162601  0.836659  0.542398  1
  Rh  Rh22  1  0.664404  0.331242  0.564459  1
  Rh  Rh23  1  0.333280  0.666576  0.064936  1
