# generated using pymatgen
data_Dy3Ho5Cd2NiOs
_symmetry_space_group_name_H-M   'P 1'
_cell_length_a   9.56190777
_cell_length_b   9.56190738
_cell_length_c   9.65174200
_cell_angle_alpha   59.68872446
_cell_angle_beta   59.68872582
_cell_angle_gamma   59.52288621
_symmetry_Int_Tables_number   1
_chemical_formula_structural   Dy3Ho5Cd2NiOs
_chemical_formula_sum   'Dy6 Ho10 Cd4 Ni2 Os2'
_cell_volume   618.79196618
_cell_formula_units_Z   2
loop_
 _symmetry_equiv_pos_site_id
 _symmetry_equiv_pos_as_xyz
  1  'x, y, z'
loop_
 _atom_site_type_symbol
 _atom_site_label
 _atom_site_symmetry_multiplicity
 _atom_site_fract_x
 _atom_site_fract_y
 _atom_site_fract_z
 _atom_site_occupancy
  Dy  Dy0  1  0.189551  0.805621  0.816230  1
  Dy  Dy1  1  0.805621  0.189551  0.188598  1
  Dy  Dy2  1  0.805621  0.189551  0.816230  1
  Dy  Dy3  1  0.189551  0.805621  0.188598  1
  Dy  Dy4  1  0.815849  0.815849  0.184151  1
  Dy  Dy5  1  0.192177  0.192177  0.807823  1
  Ho  Ho6  1  0.600462  0.600462  0.591796  1
  Ho  Ho7  1  0.600462  0.600462  0.207281  1
  Ho  Ho8  1  0.602133  0.205689  0.596089  1
  Ho  Ho9  1  0.205689  0.602133  0.596089  1
  Ho  Ho10  1  0.061063  0.435764  0.440232  1
  Ho  Ho11  1  0.435764  0.061063  0.062942  1
  Ho  Ho12  1  0.435764  0.061063  0.440232  1
  Ho  Ho13  1  0.061063  0.435764  0.062942  1
  Ho  Ho14  1  0.438208  0.438208  0.061792  1
  Ho  Ho15  1  0.060027  0.060027  0.439973  1
  Cd  Cd16  1  0.829034  0.829034  0.833141  1
  Cd  Cd17  1  0.829034  0.829034  0.508789  1
  Cd  Cd18  1  0.830104  0.506259  0.831819  1
  Cd  Cd19  1  0.506259  0.830104  0.831819  1
  Ni  Ni20  1  0.391740  0.827124  0.390569  1
  Ni  Ni21  1  0.827124  0.391740  0.390569  1
  Os  Os22  1  0.393849  0.393849  0.388385  1
  Os  Os23  1  0.393849  0.393849  0.823917  1
