# generated using pymatgen
data_Ba16Sr4Si11Bi
_symmetry_space_group_name_H-M   'P 1'
_cell_length_a   8.42360600
_cell_length_b   8.42360600
_cell_length_c   16.90394600
_cell_angle_alpha   90.00000000
_cell_angle_beta   90.00000000
_cell_angle_gamma   90.00000000
_symmetry_Int_Tables_number   1
_chemical_formula_structural   Ba16Sr4Si11Bi
_chemical_formula_sum   'Ba16 Sr4 Si11 Bi1'
_cell_volume   1199.45562980
_cell_formula_units_Z   1
loop_
 _symmetry_equiv_pos_site_id
 _symmetry_equiv_pos_as_xyz
  1  'x, y, z'
loop_
 _atom_site_type_symbol
 _atom_site_label
 _atom_site_symmetry_multiplicity
 _atom_site_fract_x
 _atom_site_fract_y
 _atom_site_fract_z
 _atom_site_occupancy
  Ba  Ba0  1  0.316459  0.678276  0.113010  1
  Ba  Ba1  1  0.178276  0.183541  0.113010  1
  Ba  Ba2  1  0.326002  0.691938  0.391689  1
  Ba  Ba3  1  0.665456  0.698784  0.886974  1
  Ba  Ba4  1  0.191938  0.173998  0.391689  1
  Ba  Ba5  1  0.673998  0.308062  0.391689  1
  Ba  Ba6  1  0.171182  0.806715  0.608187  1
  Ba  Ba7  1  0.334544  0.301216  0.886974  1
  Ba  Ba8  1  0.198784  0.834544  0.886974  1
  Ba  Ba9  1  0.828818  0.193285  0.608187  1
  Ba  Ba10  1  0.306715  0.328818  0.608187  1
  Ba  Ba11  1  0.808062  0.826002  0.391689  1
  Ba  Ba12  1  0.801216  0.165456  0.886974  1
  Ba  Ba13  1  0.821724  0.816459  0.113010  1
  Ba  Ba14  1  0.683541  0.321724  0.113010  1
  Ba  Ba15  1  0.693285  0.671182  0.608187  1
  Sr  Sr16  1  0.500000  0.000000  0.719843  1
  Sr  Sr17  1  0.500000  0.000000  0.236899  1
  Sr  Sr18  1  0.000000  0.500000  0.271513  1
  Sr  Sr19  1  0.000000  0.500000  0.765674  1
  Si  Si20  1  0.103290  0.104531  0.748960  1
  Si  Si21  1  0.395469  0.603290  0.748960  1
  Si  Si22  1  0.603838  0.603899  0.251665  1
  Si  Si23  1  0.500000  0.000000  0.016036  1
  Si  Si24  1  0.103899  0.896162  0.251665  1
  Si  Si25  1  0.604531  0.396710  0.748960  1
  Si  Si26  1  0.896710  0.895469  0.748960  1
  Si  Si27  1  0.396162  0.396101  0.251665  1
  Si  Si28  1  0.896101  0.103838  0.251665  1
  Si  Si29  1  0.500000  0.000000  0.514041  1
  Si  Si30  1  0.000000  0.500000  0.486626  1
  Bi  Bi31  1  0.000000  0.500000  0.987427  1
