# generated using pymatgen
data_Y3Zn2Cd3Ir
_symmetry_space_group_name_H-M   'P 1'
_cell_length_a   7.84457100
_cell_length_b   7.84457095
_cell_length_c   3.77291300
_cell_angle_alpha   90.00000000
_cell_angle_beta   90.00000000
_cell_angle_gamma   119.99999599
_symmetry_Int_Tables_number   1
_chemical_formula_structural   Y3Zn2Cd3Ir
_chemical_formula_sum   'Y3 Zn2 Cd3 Ir1'
_cell_volume   201.06933131
_cell_formula_units_Z   1
loop_
 _symmetry_equiv_pos_site_id
 _symmetry_equiv_pos_as_xyz
  1  'x, y, z'
loop_
 _atom_site_type_symbol
 _atom_site_label
 _atom_site_symmetry_multiplicity
 _atom_site_fract_x
 _atom_site_fract_y
 _atom_site_fract_z
 _atom_site_occupancy
  Y  Y0  1  0.577032  0.969484  0.000000  1
  Y  Y1  1  0.030516  0.607548  0.000000  1
  Y  Y2  1  0.392452  0.422968  0.000000  1
  Zn  Zn3  1  0.666667  0.333333  0.500000  1
  Zn  Zn4  1  0.000000  0.000000  0.000000  1
  Cd  Cd5  1  0.269509  0.010184  0.500000  1
  Cd  Cd6  1  0.989816  0.259326  0.500000  1
  Cd  Cd7  1  0.740674  0.730491  0.500000  1
  Ir  Ir8  1  0.333333  0.666667  0.500000  1
