# generated using pymatgen
data_In7PRhO8
_symmetry_space_group_name_H-M   'P 1'
_cell_length_a   7.30730200
_cell_length_b   7.30730214
_cell_length_c   7.30730200
_cell_angle_alpha   119.99999935
_cell_angle_beta   90.00000000
_cell_angle_gamma   119.99999935
_symmetry_Int_Tables_number   1
_chemical_formula_structural   In7PRhO8
_chemical_formula_sum   'In7 P1 Rh1 O8'
_cell_volume   275.90285129
_cell_formula_units_Z   1
loop_
 _symmetry_equiv_pos_site_id
 _symmetry_equiv_pos_as_xyz
  1  'x, y, z'
loop_
 _atom_site_type_symbol
 _atom_site_label
 _atom_site_symmetry_multiplicity
 _atom_site_fract_x
 _atom_site_fract_y
 _atom_site_fract_z
 _atom_site_occupancy
  In  In0  1  0.249414  0.498827  0.249414  1
  In  In1  1  0.249414  0.000000  0.249414  1
  In  In2  1  0.750586  0.000000  0.249414  1
  In  In3  1  0.750586  0.501172  0.750586  1
  In  In4  1  0.249414  0.000000  0.750586  1
  In  In5  1  0.750586  0.000000  0.750586  1
  In  In6  1  0.250000  0.500000  0.750000  1
  P  P7  1  0.750000  0.500000  0.250000  1
  Rh  Rh8  1  0.000000  0.000000  0.000000  1
  O  O9  1  0.382383  0.764768  0.147151  1
  O  O10  1  0.012144  0.674763  0.337381  1
  O  O11  1  0.662619  0.674763  0.337381  1
  O  O12  1  0.662619  0.325237  0.337381  1
  O  O13  1  0.382383  0.764768  0.617617  1
  O  O14  1  0.382383  0.235232  0.617617  1
  O  O15  1  0.852849  0.235232  0.617617  1
  O  O16  1  0.662619  0.325237  0.987856  1
