# generated using pymatgen
data_LaZn2(Ga2Pd)3
_symmetry_space_group_name_H-M   'P 1'
_cell_length_a   8.55271205
_cell_length_b   8.55271226
_cell_length_c   8.55271185
_cell_angle_alpha   90.08431389
_cell_angle_beta   90.08431630
_cell_angle_gamma   90.08432028
_symmetry_Int_Tables_number   1
_chemical_formula_structural   LaZn2(Ga2Pd)3
_chemical_formula_sum   'La3 Zn6 Ga18 Pd9'
_cell_volume   625.61930362
_cell_formula_units_Z   3
loop_
 _symmetry_equiv_pos_site_id
 _symmetry_equiv_pos_as_xyz
  1  'x, y, z'
loop_
 _atom_site_type_symbol
 _atom_site_label
 _atom_site_symmetry_multiplicity
 _atom_site_fract_x
 _atom_site_fract_y
 _atom_site_fract_z
 _atom_site_occupancy
  La  La0  1  0.000000  0.500000  0.000000  1
  La  La1  1  0.500000  0.000000  0.000000  1
  La  La2  1  0.000000  0.000000  0.500000  1
  Zn  Zn3  1  0.735040  0.500000  0.264960  1
  Zn  Zn4  1  0.264960  0.500000  0.735040  1
  Zn  Zn5  1  0.500000  0.264960  0.735040  1
  Zn  Zn6  1  0.500000  0.735040  0.264960  1
  Zn  Zn7  1  0.264960  0.735040  0.500000  1
  Zn  Zn8  1  0.735040  0.264960  0.500000  1
  Ga  Ga9  1  0.991250  0.640869  0.640869  1
  Ga  Ga10  1  0.640869  0.640869  0.991250  1
  Ga  Ga11  1  0.640869  0.991250  0.640869  1
  Ga  Ga12  1  0.008750  0.359131  0.359131  1
  Ga  Ga13  1  0.359131  0.359131  0.008750  1
  Ga  Ga14  1  0.359131  0.008750  0.359131  1
  Ga  Ga15  1  0.838278  0.142457  0.838278  1
  Ga  Ga16  1  0.142457  0.838278  0.838278  1
  Ga  Ga17  1  0.838278  0.838278  0.142457  1
  Ga  Ga18  1  0.161722  0.857543  0.161722  1
  Ga  Ga19  1  0.857543  0.161722  0.161722  1
  Ga  Ga20  1  0.161722  0.161722  0.857543  1
  Ga  Ga21  1  0.727315  0.481901  0.727315  1
  Ga  Ga22  1  0.481901  0.727315  0.727315  1
  Ga  Ga23  1  0.727315  0.727315  0.481901  1
  Ga  Ga24  1  0.272685  0.518099  0.272685  1
  Ga  Ga25  1  0.518099  0.272685  0.272685  1
  Ga  Ga26  1  0.272685  0.272685  0.518099  1
  Pd  Pd27  1  0.834316  0.834316  0.834316  1
  Pd  Pd28  1  0.165684  0.165684  0.165684  1
  Pd  Pd29  1  0.663533  0.336467  0.000000  1
  Pd  Pd30  1  0.000000  0.336467  0.663533  1
  Pd  Pd31  1  0.336467  0.000000  0.663533  1
  Pd  Pd32  1  0.336467  0.663533  0.000000  1
  Pd  Pd33  1  0.000000  0.663533  0.336467  1
  Pd  Pd34  1  0.663533  0.000000  0.336467  1
  Pd  Pd35  1  0.500000  0.500000  0.500000  1
