# generated using pymatgen
data_TbPr4HoGa4
_symmetry_space_group_name_H-M   'P 1'
_cell_length_a   7.74892700
_cell_length_b   7.74892700
_cell_length_c   4.61284000
_cell_angle_alpha   90.00000000
_cell_angle_beta   90.00000000
_cell_angle_gamma   90.00000000
_symmetry_Int_Tables_number   1
_chemical_formula_structural   TbPr4HoGa4
_chemical_formula_sum   'Tb1 Pr4 Ho1 Ga4'
_cell_volume   276.98198936
_cell_formula_units_Z   1
loop_
 _symmetry_equiv_pos_site_id
 _symmetry_equiv_pos_as_xyz
  1  'x, y, z'
loop_
 _atom_site_type_symbol
 _atom_site_label
 _atom_site_symmetry_multiplicity
 _atom_site_fract_x
 _atom_site_fract_y
 _atom_site_fract_z
 _atom_site_occupancy
  Tb  Tb0  1  0.000000  0.000000  0.000000  1
  Pr  Pr1  1  0.326172  0.174192  0.500001  1
  Pr  Pr2  1  0.825808  0.326172  0.500001  1
  Pr  Pr3  1  0.174192  0.673828  0.500001  1
  Pr  Pr4  1  0.673828  0.825808  0.500001  1
  Ho  Ho5  1  0.499999  0.499999  0.000000  1
  Ga  Ga6  1  0.619667  0.120145  0.000000  1
  Ga  Ga7  1  0.120145  0.380333  0.000000  1
  Ga  Ga8  1  0.879856  0.619667  0.000000  1
  Ga  Ga9  1  0.380333  0.879856  0.000000  1
