# generated using pymatgen
data_Li4Tb(SmPb2)2
_symmetry_space_group_name_H-M   'P 1'
_cell_length_a   4.74089251
_cell_length_b   7.18756132
_cell_length_c   8.88302847
_cell_angle_alpha   113.86400356
_cell_angle_beta   105.47697757
_cell_angle_gamma   89.99999778
_symmetry_Int_Tables_number   1
_chemical_formula_structural   Li4Tb(SmPb2)2
_chemical_formula_sum   'Li4 Tb1 Sm2 Pb4'
_cell_volume   264.76851747
_cell_formula_units_Z   1
loop_
 _symmetry_equiv_pos_site_id
 _symmetry_equiv_pos_as_xyz
  1  'x, y, z'
loop_
 _atom_site_type_symbol
 _atom_site_label
 _atom_site_symmetry_multiplicity
 _atom_site_fract_x
 _atom_site_fract_y
 _atom_site_fract_z
 _atom_site_occupancy
  Li  Li0  1  0.672566  0.981888  0.345132  1
  Li  Li1  1  0.327434  0.018112  0.654868  1
  Li  Li2  1  0.327434  0.636756  0.654868  1
  Li  Li3  1  0.672566  0.363244  0.345132  1
  Tb  Tb4  1  0.000000  0.000000  0.000000  1
  Sm  Sm5  1  0.128499  0.628499  0.256996  1
  Sm  Sm6  1  0.871501  0.371501  0.743004  1
  Pb  Pb7  1  0.500000  0.709237  0.000000  1
  Pb  Pb8  1  0.500000  0.290763  0.000000  1
  Pb  Pb9  1  0.787259  0.787259  0.574518  1
  Pb  Pb10  1  0.212741  0.212741  0.425482  1
