# generated using pymatgen
data_GdSc5H18
_symmetry_space_group_name_H-M   'P 1'
_cell_length_a   5.94764260
_cell_length_b   5.94764291
_cell_length_c   6.20802704
_cell_angle_alpha   90.01215345
_cell_angle_beta   89.98784888
_cell_angle_gamma   120.21592603
_symmetry_Int_Tables_number   1
_chemical_formula_structural   GdSc5H18
_chemical_formula_sum   'Gd1 Sc5 H18'
_cell_volume   189.76884132
_cell_formula_units_Z   1
loop_
 _symmetry_equiv_pos_site_id
 _symmetry_equiv_pos_as_xyz
  1  'x, y, z'
loop_
 _atom_site_type_symbol
 _atom_site_label
 _atom_site_symmetry_multiplicity
 _atom_site_fract_x
 _atom_site_fract_y
 _atom_site_fract_z
 _atom_site_occupancy
  Gd  Gd0  1  0.334988  0.334988  0.750000  1
  Sc  Sc1  1  0.340432  0.995043  0.249461  1
  Sc  Sc2  1  0.995043  0.340432  0.250539  1
  Sc  Sc3  1  0.660631  0.660631  0.250000  1
  Sc  Sc4  1  0.670610  0.001693  0.750403  1
  Sc  Sc5  1  0.001693  0.670610  0.749597  1
  H  H6  1  0.002776  0.002776  0.250000  1
  H  H7  1  0.985261  0.985261  0.750000  1
  H  H8  1  0.332833  0.663319  0.176388  1
  H  H9  1  0.663319  0.332833  0.323612  1
  H  H10  1  0.684763  0.333514  0.792752  1
  H  H11  1  0.333514  0.684763  0.707248  1
  H  H12  1  0.381355  0.329105  0.101650  1
  H  H13  1  0.666845  0.039965  0.090381  1
  H  H14  1  0.959753  0.629866  0.090987  1
  H  H15  1  0.039965  0.666845  0.409619  1
  H  H16  1  0.629866  0.959753  0.409013  1
  H  H17  1  0.329105  0.381355  0.398350  1
  H  H18  1  0.673198  0.698190  0.914337  1
  H  H19  1  0.307008  0.971916  0.912846  1
  H  H20  1  0.007933  0.329001  0.917420  1
  H  H21  1  0.971916  0.307008  0.587154  1
  H  H22  1  0.329001  0.007933  0.582580  1
  H  H23  1  0.698190  0.673198  0.585663  1
