# generated using pymatgen
data_TbEr3TcOsC4
_symmetry_space_group_name_H-M   'P 1'
_cell_length_a   5.07923500
_cell_length_b   6.50987078
_cell_length_c   9.76279409
_cell_angle_alpha   89.42499726
_cell_angle_beta   90.00000000
_cell_angle_gamma   90.00000000
_symmetry_Int_Tables_number   1
_chemical_formula_structural   TbEr3TcOsC4
_chemical_formula_sum   'Tb2 Er6 Tc2 Os2 C8'
_cell_volume   322.79212696
_cell_formula_units_Z   2
loop_
 _symmetry_equiv_pos_site_id
 _symmetry_equiv_pos_as_xyz
  1  'x, y, z'
loop_
 _atom_site_type_symbol
 _atom_site_label
 _atom_site_symmetry_multiplicity
 _atom_site_fract_x
 _atom_site_fract_y
 _atom_site_fract_z
 _atom_site_occupancy
  Tb  Tb0  1  0.750000  0.970144  0.713267  1
  Tb  Tb1  1  0.250000  0.029856  0.286733  1
  Er  Er2  1  0.250000  0.677594  0.556075  1
  Er  Er3  1  0.750000  0.322406  0.443925  1
  Er  Er4  1  0.750000  0.823448  0.056226  1
  Er  Er5  1  0.250000  0.176552  0.943774  1
  Er  Er6  1  0.250000  0.531761  0.216384  1
  Er  Er7  1  0.750000  0.468239  0.783616  1
  Tc  Tc8  1  0.250000  0.720219  0.866309  1
  Tc  Tc9  1  0.750000  0.279781  0.133691  1
  Os  Os10  1  0.750000  0.776754  0.366037  1
  Os  Os11  1  0.250000  0.223246  0.633963  1
  C  C12  1  0.250000  0.454561  0.758882  1
  C  C13  1  0.750000  0.545439  0.241118  1
  C  C14  1  0.750000  0.044367  0.259200  1
  C  C15  1  0.250000  0.955633  0.740800  1
  C  C16  1  0.250000  0.823115  0.051921  1
  C  C17  1  0.750000  0.176885  0.948079  1
  C  C18  1  0.750000  0.671010  0.552168  1
  C  C19  1  0.250000  0.328990  0.447832  1
