# generated using pymatgen
data_Zr10GaCu2Bi5
_symmetry_space_group_name_H-M   'P 1'
_cell_length_a   8.77289920
_cell_length_b   8.74154191
_cell_length_c   5.90938600
_cell_angle_alpha   90.00000000
_cell_angle_beta   90.00000000
_cell_angle_gamma   119.88184020
_symmetry_Int_Tables_number   1
_chemical_formula_structural   Zr10GaCu2Bi5
_chemical_formula_sum   'Zr10 Ga1 Cu2 Bi5'
_cell_volume   392.93438923
_cell_formula_units_Z   1
loop_
 _symmetry_equiv_pos_site_id
 _symmetry_equiv_pos_as_xyz
  1  'x, y, z'
loop_
 _atom_site_type_symbol
 _atom_site_label
 _atom_site_symmetry_multiplicity
 _atom_site_fract_x
 _atom_site_fract_y
 _atom_site_fract_z
 _atom_site_occupancy
  Zr  Zr0  1  0.673942  0.334712  0.503732  1
  Zr  Zr1  1  0.326058  0.660771  0.503732  1
  Zr  Zr2  1  0.326058  0.660771  0.996268  1
  Zr  Zr3  1  0.673942  0.334712  0.996268  1
  Zr  Zr4  1  0.741072  0.739373  0.250000  1
  Zr  Zr5  1  0.258928  0.998301  0.250000  1
  Zr  Zr6  1  0.000000  0.259140  0.250000  1
  Zr  Zr7  1  0.248926  0.267507  0.750000  1
  Zr  Zr8  1  0.751074  0.018582  0.750000  1
  Zr  Zr9  1  0.000000  0.729613  0.750000  1
  Ga  Ga10  1  0.000000  0.387823  0.750000  1
  Cu  Cu11  1  0.000000  0.997714  0.503467  1
  Cu  Cu12  1  0.000000  0.997714  0.996533  1
  Bi  Bi13  1  0.386968  0.384633  0.250000  1
  Bi  Bi14  1  0.613032  0.997665  0.250000  1
  Bi  Bi15  1  0.000000  0.609450  0.250000  1
  Bi  Bi16  1  0.616340  0.618930  0.750000  1
  Bi  Bi17  1  0.383660  0.002590  0.750000  1
