# generated using pymatgen
data_Ce2Zn2Si2Pt3Rh
_symmetry_space_group_name_H-M   'P 1'
_cell_length_a   4.07533600
_cell_length_b   4.07533600
_cell_length_c   10.97204400
_cell_angle_alpha   90.00000000
_cell_angle_beta   90.00000000
_cell_angle_gamma   90.00000000
_symmetry_Int_Tables_number   1
_chemical_formula_structural   Ce2Zn2Si2Pt3Rh
_chemical_formula_sum   'Ce2 Zn2 Si2 Pt3 Rh1'
_cell_volume   182.22769523
_cell_formula_units_Z   1
loop_
 _symmetry_equiv_pos_site_id
 _symmetry_equiv_pos_as_xyz
  1  'x, y, z'
loop_
 _atom_site_type_symbol
 _atom_site_label
 _atom_site_symmetry_multiplicity
 _atom_site_fract_x
 _atom_site_fract_y
 _atom_site_fract_z
 _atom_site_occupancy
  Ce  Ce0  1  0.000000  0.500000  0.248644  1
  Ce  Ce1  1  0.500000  0.000000  0.751356  1
  Zn  Zn2  1  0.500000  0.500000  0.500000  1
  Zn  Zn3  1  0.000000  0.000000  0.500000  1
  Si  Si4  1  0.500000  0.000000  0.122359  1
  Si  Si5  1  0.000000  0.500000  0.877641  1
  Pt  Pt6  1  0.000000  0.500000  0.657719  1
  Pt  Pt7  1  0.500000  0.000000  0.342281  1
  Pt  Pt8  1  0.500000  0.500000  0.000000  1
  Rh  Rh9  1  0.000000  0.000000  0.000000  1
