# generated using pymatgen
data_Hf3ScCo6Si6Ir
_symmetry_space_group_name_H-M   'P 1'
_cell_length_a   6.69351507
_cell_length_b   6.70105817
_cell_length_c   6.69351522
_cell_angle_alpha   109.49405573
_cell_angle_beta   109.44837429
_cell_angle_gamma   109.49405541
_symmetry_Int_Tables_number   1
_chemical_formula_structural   Hf3ScCo6Si6Ir
_chemical_formula_sum   'Hf3 Sc1 Co6 Si6 Ir1'
_cell_volume   231.05083362
_cell_formula_units_Z   1
loop_
 _symmetry_equiv_pos_site_id
 _symmetry_equiv_pos_as_xyz
  1  'x, y, z'
loop_
 _atom_site_type_symbol
 _atom_site_label
 _atom_site_symmetry_multiplicity
 _atom_site_fract_x
 _atom_site_fract_y
 _atom_site_fract_z
 _atom_site_occupancy
  Hf  Hf0  1  0.000000  0.000000  0.500000  1
  Hf  Hf1  1  0.500000  0.000000  0.000000  1
  Hf  Hf2  1  0.500000  0.500000  0.500000  1
  Sc  Sc3  1  0.000000  0.500000  0.000000  1
  Co  Co4  1  0.749008  0.249008  0.498016  1
  Co  Co5  1  0.749008  0.500000  0.250992  1
  Co  Co6  1  0.498016  0.249008  0.749008  1
  Co  Co7  1  0.250992  0.500000  0.749008  1
  Co  Co8  1  0.250992  0.750992  0.501984  1
  Co  Co9  1  0.501984  0.750992  0.250992  1
  Si  Si10  1  0.671676  0.669490  0.000000  1
  Si  Si11  1  0.328324  0.997815  0.328324  1
  Si  Si12  1  0.000000  0.330510  0.328324  1
  Si  Si13  1  0.328324  0.330510  0.000000  1
  Si  Si14  1  0.671676  0.002185  0.671676  1
  Si  Si15  1  0.000000  0.669490  0.671676  1
  Ir  Ir16  1  0.000000  0.000000  0.000000  1
