# generated using pymatgen
data_Dy2HoCu4Si3Ge
_symmetry_space_group_name_H-M   'P 1'
_cell_length_a   7.88113940
_cell_length_b   7.88098748
_cell_length_c   7.88098803
_cell_angle_alpha   149.45997405
_cell_angle_beta   130.77208926
_cell_angle_gamma   59.04739758
_symmetry_Int_Tables_number   1
_chemical_formula_structural   Dy2HoCu4Si3Ge
_chemical_formula_sum   'Dy2 Ho1 Cu4 Si3 Ge1'
_cell_volume   186.89000000
_cell_formula_units_Z   1
loop_
 _symmetry_equiv_pos_site_id
 _symmetry_equiv_pos_as_xyz
  1  'x, y, z'
loop_
 _atom_site_type_symbol
 _atom_site_label
 _atom_site_symmetry_multiplicity
 _atom_site_fract_x
 _atom_site_fract_y
 _atom_site_fract_z
 _atom_site_occupancy
  Dy  Dy0  1  0.130337  0.629522  0.500815  1
  Dy  Dy1  1  0.497860  0.499982  0.997879  1
  Ho  Ho2  1  0.871284  0.370462  0.500822  1
  Cu  Cu3  1  0.517072  0.826155  0.690918  1
  Cu  Cu4  1  0.864717  0.173878  0.690839  1
  Cu  Cu5  1  0.140883  0.831201  0.309681  1
  Cu  Cu6  1  0.478590  0.168828  0.309761  1
  Si  Si7  1  0.188246  0.999970  0.188276  1
  Si  Si8  1  0.283924  0.283985  0.999939  1
  Si  Si9  1  0.715996  0.716053  0.999942  1
  Ge  Ge10  1  0.811091  0.999964  0.811127  1
