# generated using pymatgen
data_Sb2IrRhSe2
_symmetry_space_group_name_H-M   'P 1'
_cell_length_a   6.26493500
_cell_length_b   6.26611585
_cell_length_c   6.26512985
_cell_angle_alpha   89.89071446
_cell_angle_beta   90.00000000
_cell_angle_gamma   90.00000000
_symmetry_Int_Tables_number   1
_chemical_formula_structural   Sb2IrRhSe2
_chemical_formula_sum   'Sb4 Ir2 Rh2 Se4'
_cell_volume   245.94855532
_cell_formula_units_Z   2
loop_
 _symmetry_equiv_pos_site_id
 _symmetry_equiv_pos_as_xyz
  1  'x, y, z'
loop_
 _atom_site_type_symbol
 _atom_site_label
 _atom_site_symmetry_multiplicity
 _atom_site_fract_x
 _atom_site_fract_y
 _atom_site_fract_z
 _atom_site_occupancy
  Sb  Sb0  1  0.875449  0.375444  0.125539  1
  Sb  Sb1  1  0.375449  0.124556  0.874461  1
  Sb  Sb2  1  0.124885  0.875131  0.376178  1
  Sb  Sb3  1  0.624885  0.624869  0.623822  1
  Ir  Ir4  1  0.495093  0.505281  0.004475  1
  Ir  Ir5  1  0.995093  0.994719  0.995525  1
  Rh  Rh6  1  0.505374  0.005139  0.494312  1
  Rh  Rh7  1  0.005374  0.494861  0.505688  1
  Se  Se8  1  0.120397  0.621992  0.880353  1
  Se  Se9  1  0.620397  0.878008  0.119647  1
  Se  Se10  1  0.878802  0.119354  0.622058  1
  Se  Se11  1  0.378802  0.380646  0.377942  1
