# generated using pymatgen
data_Sc5Mn2Cr(P3Ir4)4
_symmetry_space_group_name_H-M   'P 1'
_cell_length_a   12.56403957
_cell_length_b   12.56403855
_cell_length_c   3.89952100
_cell_angle_alpha   90.00000000
_cell_angle_beta   90.00000000
_cell_angle_gamma   119.80260931
_symmetry_Int_Tables_number   1
_chemical_formula_structural   Sc5Mn2Cr(P3Ir4)4
_chemical_formula_sum   'Sc5 Mn2 Cr1 P12 Ir16'
_cell_volume   534.14706683
_cell_formula_units_Z   1
loop_
 _symmetry_equiv_pos_site_id
 _symmetry_equiv_pos_as_xyz
  1  'x, y, z'
loop_
 _atom_site_type_symbol
 _atom_site_label
 _atom_site_symmetry_multiplicity
 _atom_site_fract_x
 _atom_site_fract_y
 _atom_site_fract_z
 _atom_site_occupancy
  Sc  Sc0  1  0.333436  0.665842  0.000000  1
  Sc  Sc1  1  0.665842  0.333436  0.000000  1
  Sc  Sc2  1  0.809661  0.998167  0.500000  1
  Sc  Sc3  1  0.998167  0.809661  0.500000  1
  Sc  Sc4  1  0.189575  0.189575  0.500000  1
  Mn  Mn5  1  0.458412  0.000388  0.000000  1
  Mn  Mn6  1  0.000388  0.458412  0.000000  1
  Cr  Cr7  1  0.545459  0.545459  0.000000  1
  P  P8  1  0.176677  0.000656  0.000000  1
  P  P9  1  0.000656  0.176677  0.000000  1
  P  P10  1  0.823880  0.823880  0.000000  1
  P  P11  1  0.170107  0.483718  0.500000  1
  P  P12  1  0.515402  0.684431  0.500000  1
  P  P13  1  0.313656  0.830097  0.500000  1
  P  P14  1  0.684431  0.515402  0.500000  1
  P  P15  1  0.830097  0.313656  0.500000  1
  P  P16  1  0.483718  0.170107  0.500000  1
  P  P17  1  0.638005  0.000525  0.000000  1
  P  P18  1  0.000525  0.638005  0.000000  1
  P  P19  1  0.364659  0.364659  0.000000  1
  Ir  Ir20  1  0.359968  0.492299  0.500000  1
  Ir  Ir21  1  0.505960  0.864788  0.500000  1
  Ir  Ir22  1  0.133671  0.640523  0.500000  1
  Ir  Ir23  1  0.864788  0.505960  0.500000  1
  Ir  Ir24  1  0.640523  0.133671  0.500000  1
  Ir  Ir25  1  0.492299  0.359968  0.500000  1
  Ir  Ir26  1  0.180451  0.373558  0.000000  1
  Ir  Ir27  1  0.628106  0.807648  0.000000  1
  Ir  Ir28  1  0.193336  0.820382  0.000000  1
  Ir  Ir29  1  0.807648  0.628106  0.000000  1
  Ir  Ir30  1  0.820382  0.193336  0.000000  1
  Ir  Ir31  1  0.373558  0.180451  0.000000  1
  Ir  Ir32  1  0.281060  0.000538  0.500000  1
  Ir  Ir33  1  0.000538  0.281060  0.500000  1
  Ir  Ir34  1  0.714893  0.714893  0.500000  1
  Ir  Ir35  1  0.000063  0.000063  0.000000  1
