# generated using pymatgen
data_Rb2V(WO4)3
_symmetry_space_group_name_H-M   'P 1'
_cell_length_a   7.28468837
_cell_length_b   7.28468877
_cell_length_c   7.28468877
_cell_angle_alpha   60.84600999
_cell_angle_beta   60.84601270
_cell_angle_gamma   60.84601166
_symmetry_Int_Tables_number   1
_chemical_formula_structural   Rb2V(WO4)3
_chemical_formula_sum   'Rb2 V1 W3 O12'
_cell_volume   278.56374057
_cell_formula_units_Z   1
loop_
 _symmetry_equiv_pos_site_id
 _symmetry_equiv_pos_as_xyz
  1  'x, y, z'
loop_
 _atom_site_type_symbol
 _atom_site_label
 _atom_site_symmetry_multiplicity
 _atom_site_fract_x
 _atom_site_fract_y
 _atom_site_fract_z
 _atom_site_occupancy
  Rb  Rb0  1  0.633382  0.633382  0.633382  1
  Rb  Rb1  1  0.366618  0.366618  0.366618  1
  V  V2  1  0.000000  0.000000  0.000000  1
  W  W3  1  0.500000  0.000000  0.000000  1
  W  W4  1  0.000000  0.000000  0.500000  1
  W  W5  1  0.000000  0.500000  0.000000  1
  O  O6  1  0.939161  0.314286  0.314286  1
  O  O7  1  0.312149  0.939297  0.939297  1
  O  O8  1  0.314286  0.314286  0.939161  1
  O  O9  1  0.939297  0.939297  0.312149  1
  O  O10  1  0.939297  0.312149  0.939297  1
  O  O11  1  0.314286  0.939161  0.314286  1
  O  O12  1  0.060839  0.685714  0.685714  1
  O  O13  1  0.687851  0.060703  0.060703  1
  O  O14  1  0.685714  0.685714  0.060839  1
  O  O15  1  0.060703  0.060703  0.687851  1
  O  O16  1  0.060703  0.687851  0.060703  1
  O  O17  1  0.685714  0.060839  0.685714  1
