# generated using pymatgen
data_Gd7Dy9(ErPb4)4
_symmetry_space_group_name_H-M   'P 1'
_cell_length_a   8.20226602
_cell_length_b   8.28024111
_cell_length_c   15.65610800
_cell_angle_alpha   89.99846385
_cell_angle_beta   90.00426107
_cell_angle_gamma   89.99093547
_symmetry_Int_Tables_number   1
_chemical_formula_structural   Gd7Dy9(ErPb4)4
_chemical_formula_sum   'Gd7 Dy9 Er4 Pb16'
_cell_volume   1063.31180433
_cell_formula_units_Z   1
loop_
 _symmetry_equiv_pos_site_id
 _symmetry_equiv_pos_as_xyz
  1  'x, y, z'
loop_
 _atom_site_type_symbol
 _atom_site_label
 _atom_site_symmetry_multiplicity
 _atom_site_fract_x
 _atom_site_fract_y
 _atom_site_fract_z
 _atom_site_occupancy
  Gd  Gd0  1  0.030881  0.178011  0.598100  1
  Gd  Gd1  1  0.469182  0.678341  0.402375  1
  Gd  Gd2  1  0.968602  0.822134  0.097778  1
  Gd  Gd3  1  0.468808  0.677557  0.097939  1
  Gd  Gd4  1  0.970223  0.821907  0.402829  1
  Gd  Gd5  1  0.530446  0.322315  0.597825  1
  Gd  Gd6  1  0.031072  0.178089  0.901832  1
  Dy  Dy7  1  0.373199  0.842712  0.878754  1
  Dy  Dy8  1  0.872403  0.657048  0.621166  1
  Dy  Dy9  1  0.627282  0.157395  0.379126  1
  Dy  Dy10  1  0.126453  0.342783  0.120626  1
  Dy  Dy11  1  0.625546  0.157761  0.120935  1
  Dy  Dy12  1  0.126118  0.342443  0.379253  1
  Dy  Dy13  1  0.373363  0.842690  0.621647  1
  Dy  Dy14  1  0.873874  0.657396  0.878864  1
  Dy  Dy15  1  0.533217  0.322677  0.900705  1
  Er  Er16  1  0.206390  0.503753  0.750017  1
  Er  Er17  1  0.706584  0.996043  0.750363  1
  Er  Er18  1  0.793199  0.496118  0.249726  1
  Er  Er19  1  0.293413  0.004082  0.250128  1
  Pb  Pb20  1  0.285317  0.035745  0.043592  1
  Pb  Pb21  1  0.785267  0.464300  0.456254  1
  Pb  Pb22  1  0.714076  0.964014  0.544000  1
  Pb  Pb23  1  0.216576  0.533759  0.955605  1
  Pb  Pb24  1  0.713890  0.964931  0.956192  1
  Pb  Pb25  1  0.213802  0.536650  0.543713  1
  Pb  Pb26  1  0.286362  0.036444  0.456655  1
  Pb  Pb27  1  0.784147  0.463035  0.042804  1
  Pb  Pb28  1  0.568445  0.625456  0.750357  1
  Pb  Pb29  1  0.068185  0.873428  0.749784  1
  Pb  Pb30  1  0.430902  0.373961  0.250368  1
  Pb  Pb31  1  0.931330  0.126359  0.249723  1
  Pb  Pb32  1  0.344697  0.153690  0.750735  1
  Pb  Pb33  1  0.843105  0.346917  0.750043  1
  Pb  Pb34  1  0.657075  0.847142  0.250130  1
  Pb  Pb35  1  0.156565  0.652914  0.250056  1
