# generated using pymatgen
data_NdThSi2(Os2C)2
_symmetry_space_group_name_H-M   'P 1'
_cell_length_a   3.98170100
_cell_length_b   5.94162919
_cell_length_c   7.19259000
_cell_angle_alpha   90.00000000
_cell_angle_beta   90.00000000
_cell_angle_gamma   70.42332502
_symmetry_Int_Tables_number   1
_chemical_formula_structural   NdThSi2(Os2C)2
_chemical_formula_sum   'Nd1 Th1 Si2 Os4 C2'
_cell_volume   160.32446484
_cell_formula_units_Z   1
loop_
 _symmetry_equiv_pos_site_id
 _symmetry_equiv_pos_as_xyz
  1  'x, y, z'
loop_
 _atom_site_type_symbol
 _atom_site_label
 _atom_site_symmetry_multiplicity
 _atom_site_fract_x
 _atom_site_fract_y
 _atom_site_fract_z
 _atom_site_occupancy
  Nd  Nd0  1  0.948975  0.102049  0.250001  1
  Th  Th1  1  0.052693  0.894618  0.750000  1
  Si  Si2  1  0.229469  0.541065  0.250001  1
  Si  Si3  1  0.772551  0.454898  0.750000  1
  Os  Os4  1  0.665049  0.669901  0.057376  1
  Os  Os5  1  0.665049  0.669901  0.442624  1
  Os  Os6  1  0.333961  0.332082  0.557914  1
  Os  Os7  1  0.333961  0.332082  0.942087  1
  C  C8  1  0.499150  0.001703  0.000472  1
  C  C9  1  0.499150  0.001703  0.499528  1
