# generated using pymatgen
data_Tb15Dy(ErSn4)4
_symmetry_space_group_name_H-M   'P 1'
_cell_length_a   8.04070189
_cell_length_b   8.19779428
_cell_length_c   15.51555457
_cell_angle_alpha   90.01311292
_cell_angle_beta   89.94158683
_cell_angle_gamma   89.94897382
_symmetry_Int_Tables_number   1
_chemical_formula_structural   Tb15Dy(ErSn4)4
_chemical_formula_sum   'Tb15 Dy1 Er4 Sn16'
_cell_volume   1022.72264076
_cell_formula_units_Z   1
loop_
 _symmetry_equiv_pos_site_id
 _symmetry_equiv_pos_as_xyz
  1  'x, y, z'
loop_
 _atom_site_type_symbol
 _atom_site_label
 _atom_site_symmetry_multiplicity
 _atom_site_fract_x
 _atom_site_fract_y
 _atom_site_fract_z
 _atom_site_occupancy
  Tb  Tb0  1  0.866356  0.663018  0.622327  1
  Tb  Tb1  1  0.633618  0.162826  0.377896  1
  Tb  Tb2  1  0.133024  0.337054  0.121902  1
  Tb  Tb3  1  0.633014  0.162645  0.121986  1
  Tb  Tb4  1  0.133621  0.337123  0.377740  1
  Tb  Tb5  1  0.366187  0.837365  0.622145  1
  Tb  Tb6  1  0.867142  0.662575  0.878016  1
  Tb  Tb7  1  0.519746  0.320376  0.902680  1
  Tb  Tb8  1  0.019501  0.179292  0.597355  1
  Tb  Tb9  1  0.480876  0.679625  0.402895  1
  Tb  Tb10  1  0.980072  0.820652  0.097546  1
  Tb  Tb11  1  0.480417  0.679722  0.097071  1
  Tb  Tb12  1  0.980674  0.820761  0.402709  1
  Tb  Tb13  1  0.519302  0.320634  0.597252  1
  Tb  Tb14  1  0.019765  0.178970  0.902424  1
  Dy  Dy15  1  0.366741  0.837421  0.877743  1
  Er  Er16  1  0.198447  0.502726  0.750183  1
  Er  Er17  1  0.698153  0.997264  0.750166  1
  Er  Er18  1  0.801764  0.497393  0.249980  1
  Er  Er19  1  0.301724  0.002694  0.249738  1
  Sn  Sn20  1  0.292835  0.036165  0.041821  1
  Sn  Sn21  1  0.794223  0.463989  0.457618  1
  Sn  Sn22  1  0.706315  0.963624  0.542456  1
  Sn  Sn23  1  0.207173  0.536377  0.957530  1
  Sn  Sn24  1  0.706344  0.963084  0.957710  1
  Sn  Sn25  1  0.206015  0.536200  0.542512  1
  Sn  Sn26  1  0.293488  0.036564  0.457625  1
  Sn  Sn27  1  0.793197  0.463981  0.042595  1
  Sn  Sn28  1  0.563615  0.618445  0.750193  1
  Sn  Sn29  1  0.064078  0.882003  0.750285  1
  Sn  Sn30  1  0.436209  0.381708  0.249876  1
  Sn  Sn31  1  0.935990  0.118087  0.249934  1
  Sn  Sn32  1  0.328913  0.148244  0.750040  1
  Sn  Sn33  1  0.828909  0.351737  0.749890  1
  Sn  Sn34  1  0.671204  0.851641  0.250116  1
  Sn  Sn35  1  0.171347  0.648014  0.250047  1
