# generated using pymatgen
data_Na8Hf3ThI24
_symmetry_space_group_name_H-M   'P 1'
_cell_length_a   7.90999000
_cell_length_b   7.90999062
_cell_length_c   29.40299800
_cell_angle_alpha   90.00000000
_cell_angle_beta   90.00000000
_cell_angle_gamma   119.99999741
_symmetry_Int_Tables_number   1
_chemical_formula_structural   Na8Hf3ThI24
_chemical_formula_sum   'Na8 Hf3 Th1 I24'
_cell_volume   1593.21417011
_cell_formula_units_Z   1
loop_
 _symmetry_equiv_pos_site_id
 _symmetry_equiv_pos_as_xyz
  1  'x, y, z'
loop_
 _atom_site_type_symbol
 _atom_site_label
 _atom_site_symmetry_multiplicity
 _atom_site_fract_x
 _atom_site_fract_y
 _atom_site_fract_z
 _atom_site_occupancy
  Na  Na0  1  0.000000  0.000000  0.250225  1
  Na  Na1  1  0.000000  0.000000  0.749775  1
  Na  Na2  1  0.333333  0.666667  0.000394  1
  Na  Na3  1  0.333333  0.666667  0.499558  1
  Na  Na4  1  0.333333  0.666667  0.250085  1
  Na  Na5  1  0.666667  0.333333  0.749915  1
  Na  Na6  1  0.666667  0.333333  0.999606  1
  Na  Na7  1  0.666667  0.333333  0.500442  1
  Hf  Hf8  1  0.000000  0.000000  0.500000  1
  Hf  Hf9  1  0.333333  0.666667  0.749788  1
  Hf  Hf10  1  0.666667  0.333333  0.250212  1
  Th  Th11  1  0.000000  0.000000  0.000000  1
  I  I12  1  0.371438  0.037629  0.307054  1
  I  I13  1  0.333314  0.962155  0.806623  1
  I  I14  1  0.999383  0.318810  0.060484  1
  I  I15  1  0.000892  0.295861  0.556880  1
  I  I16  1  0.962371  0.333811  0.307054  1
  I  I17  1  0.037845  0.371158  0.806623  1
  I  I18  1  0.371158  0.333314  0.193377  1
  I  I19  1  0.333811  0.371438  0.692946  1
  I  I20  1  0.295861  0.294969  0.443120  1
  I  I21  1  0.318810  0.319427  0.939516  1
  I  I22  1  0.705031  0.000892  0.443120  1
  I  I23  1  0.319427  0.000617  0.060484  1
  I  I24  1  0.294969  0.999108  0.556880  1
  I  I25  1  0.681190  0.680573  0.060484  1
  I  I26  1  0.704139  0.705031  0.556880  1
  I  I27  1  0.666189  0.628562  0.307054  1
  I  I28  1  0.628842  0.666686  0.806623  1
  I  I29  1  0.962155  0.628842  0.193377  1
  I  I30  1  0.037629  0.666189  0.692946  1
  I  I31  1  0.999108  0.704139  0.443120  1
  I  I32  1  0.000617  0.681190  0.939516  1
  I  I33  1  0.680573  0.999383  0.939516  1
  I  I34  1  0.666686  0.037845  0.193377  1
  I  I35  1  0.628562  0.962371  0.692946  1
