# generated using pymatgen
data_Ho2Ga10Os2Ru
_symmetry_space_group_name_H-M   'P 1'
_cell_length_a   8.90610800
_cell_length_b   8.90610800
_cell_length_c   6.40720400
_cell_angle_alpha   90.00000000
_cell_angle_beta   90.00000000
_cell_angle_gamma   89.99682194
_symmetry_Int_Tables_number   1
_chemical_formula_structural   Ho2Ga10Os2Ru
_chemical_formula_sum   'Ho4 Ga20 Os4 Ru2'
_cell_volume   508.21147408
_cell_formula_units_Z   2
loop_
 _symmetry_equiv_pos_site_id
 _symmetry_equiv_pos_as_xyz
  1  'x, y, z'
loop_
 _atom_site_type_symbol
 _atom_site_label
 _atom_site_symmetry_multiplicity
 _atom_site_fract_x
 _atom_site_fract_y
 _atom_site_fract_z
 _atom_site_occupancy
  Ho  Ho0  1  0.183340  0.683340  0.000000  1
  Ho  Ho1  1  0.816660  0.316660  0.000000  1
  Ho  Ho2  1  0.683284  0.816716  0.000000  1
  Ho  Ho3  1  0.316716  0.183284  0.000000  1
  Ga  Ga4  1  0.061270  0.206610  0.706683  1
  Ga  Ga5  1  0.938730  0.793390  0.706683  1
  Ga  Ga6  1  0.560660  0.293032  0.706730  1
  Ga  Ga7  1  0.439340  0.706968  0.706730  1
  Ga  Ga8  1  0.793032  0.060660  0.706730  1
  Ga  Ga9  1  0.206968  0.939340  0.706730  1
  Ga  Ga10  1  0.706610  0.561270  0.706683  1
  Ga  Ga11  1  0.293390  0.438730  0.706683  1
  Ga  Ga12  1  0.938730  0.793390  0.293317  1
  Ga  Ga13  1  0.061270  0.206610  0.293317  1
  Ga  Ga14  1  0.439340  0.706968  0.293270  1
  Ga  Ga15  1  0.560660  0.293032  0.293270  1
  Ga  Ga16  1  0.206968  0.939340  0.293270  1
  Ga  Ga17  1  0.793032  0.060660  0.293270  1
  Ga  Ga18  1  0.293390  0.438730  0.293317  1
  Ga  Ga19  1  0.706610  0.561270  0.293317  1
  Ga  Ga20  1  0.000000  0.500000  0.713652  1
  Ga  Ga21  1  0.500000  0.000000  0.713623  1
  Ga  Ga22  1  0.000000  0.500000  0.286348  1
  Ga  Ga23  1  0.500000  0.000000  0.286377  1
  Os  Os24  1  0.178413  0.678413  0.500000  1
  Os  Os25  1  0.821587  0.321587  0.500000  1
  Os  Os26  1  0.000000  0.000000  0.000000  1
  Os  Os27  1  0.500000  0.500000  0.000000  1
  Ru  Ru28  1  0.678498  0.821502  0.500000  1
  Ru  Ru29  1  0.321502  0.178498  0.500000  1
