# generated using pymatgen
data_AlZn2GeRh4
_symmetry_space_group_name_H-M   'P 1'
_cell_length_a   7.41037838
_cell_length_b   7.41037886
_cell_length_c   7.41038003
_cell_angle_alpha   33.47980967
_cell_angle_beta   33.47980244
_cell_angle_gamma   33.47981659
_symmetry_Int_Tables_number   1
_chemical_formula_structural   AlZn2GeRh4
_chemical_formula_sum   'Al1 Zn2 Ge1 Rh4'
_cell_volume   110.28724675
_cell_formula_units_Z   1
loop_
 _symmetry_equiv_pos_site_id
 _symmetry_equiv_pos_as_xyz
  1  'x, y, z'
loop_
 _atom_site_type_symbol
 _atom_site_label
 _atom_site_symmetry_multiplicity
 _atom_site_fract_x
 _atom_site_fract_y
 _atom_site_fract_z
 _atom_site_occupancy
  Al  Al0  1  0.000000  0.000000  0.000000  1
  Zn  Zn1  1  0.253171  0.253171  0.253171  1
  Zn  Zn2  1  0.746829  0.746829  0.746829  1
  Ge  Ge3  1  0.500000  0.500000  0.500000  1
  Rh  Rh4  1  0.376638  0.376638  0.376638  1
  Rh  Rh5  1  0.873549  0.873549  0.873549  1
  Rh  Rh6  1  0.623362  0.623362  0.623362  1
  Rh  Rh7  1  0.126451  0.126451  0.126451  1
