# generated using pymatgen
data_TbY3Sb5Rh7Au
_symmetry_space_group_name_H-M   'P 1'
_cell_length_a   7.58954828
_cell_length_b   7.59133704
_cell_length_c   7.59133490
_cell_angle_alpha   107.94964961
_cell_angle_beta   110.22294696
_cell_angle_gamma   110.22294168
_symmetry_Int_Tables_number   1
_chemical_formula_structural   TbY3Sb5Rh7Au
_chemical_formula_sum   'Tb1 Y3 Sb5 Rh7 Au1'
_cell_volume   336.63375395
_cell_formula_units_Z   1
loop_
 _symmetry_equiv_pos_site_id
 _symmetry_equiv_pos_as_xyz
  1  'x, y, z'
loop_
 _atom_site_type_symbol
 _atom_site_label
 _atom_site_symmetry_multiplicity
 _atom_site_fract_x
 _atom_site_fract_y
 _atom_site_fract_z
 _atom_site_occupancy
  Tb  Tb0  1  0.481861  0.499092  0.499092  1
  Y  Y1  1  0.517875  0.016929  0.016929  1
  Y  Y2  1  0.999967  0.499020  0.016870  1
  Y  Y3  1  0.999967  0.016870  0.499020  1
  Sb  Sb4  1  0.685412  0.002011  0.687148  1
  Sb  Sb5  1  0.685412  0.687148  0.002011  1
  Sb  Sb6  1  0.000118  0.671623  0.671623  1
  Sb  Sb7  1  0.314649  0.001472  0.316340  1
  Sb  Sb8  1  0.314649  0.316340  0.001472  1
  Rh  Rh9  1  0.000085  0.970996  0.970996  1
  Rh  Rh10  1  0.499927  0.752735  0.252623  1
  Rh  Rh11  1  0.748901  0.504237  0.252952  1
  Rh  Rh12  1  0.251155  0.755324  0.504158  1
  Rh  Rh13  1  0.251155  0.504158  0.755324  1
  Rh  Rh14  1  0.499927  0.252623  0.752735  1
  Rh  Rh15  1  0.748901  0.252952  0.504237  1
  Au  Au16  1  0.000038  0.296472  0.296472  1
