# generated using pymatgen
data_Er5ZrCo5
_symmetry_space_group_name_H-M   'P 1'
_cell_length_a   5.65019747
_cell_length_b   5.65019735
_cell_length_c   20.89817400
_cell_angle_alpha   90.00000000
_cell_angle_beta   90.00000000
_cell_angle_gamma   139.42442580
_symmetry_Int_Tables_number   1
_chemical_formula_structural   Er5ZrCo5
_chemical_formula_sum   'Er10 Zr2 Co10'
_cell_volume   433.96011742
_cell_formula_units_Z   2
loop_
 _symmetry_equiv_pos_site_id
 _symmetry_equiv_pos_as_xyz
  1  'x, y, z'
loop_
 _atom_site_type_symbol
 _atom_site_label
 _atom_site_symmetry_multiplicity
 _atom_site_fract_x
 _atom_site_fract_y
 _atom_site_fract_z
 _atom_site_occupancy
  Er  Er0  1  0.288180  0.711820  0.250000  1
  Er  Er1  1  0.289805  0.710195  0.070866  1
  Er  Er2  1  0.993641  0.006359  0.837900  1
  Er  Er3  1  0.711820  0.288180  0.750000  1
  Er  Er4  1  0.710195  0.289805  0.570866  1
  Er  Er5  1  0.006359  0.993641  0.337900  1
  Er  Er6  1  0.993641  0.006359  0.662100  1
  Er  Er7  1  0.710195  0.289805  0.929134  1
  Er  Er8  1  0.006359  0.993641  0.162100  1
  Er  Er9  1  0.289805  0.710195  0.429134  1
  Zr  Zr10  1  0.000000  0.000000  0.500000  1
  Zr  Zr11  1  0.000000  0.000000  0.000000  1
  Co  Co12  1  0.292155  0.707845  0.656391  1
  Co  Co13  1  0.586443  0.413557  0.436029  1
  Co  Co14  1  0.410599  0.589401  0.750000  1
  Co  Co15  1  0.413557  0.586443  0.936029  1
  Co  Co16  1  0.589401  0.410599  0.250000  1
  Co  Co17  1  0.413557  0.586443  0.563971  1
  Co  Co18  1  0.707845  0.292155  0.343609  1
  Co  Co19  1  0.707845  0.292155  0.156391  1
  Co  Co20  1  0.586443  0.413557  0.063971  1
  Co  Co21  1  0.292155  0.707845  0.843609  1
