# generated using pymatgen
data_Dy3B6(IrRu)4
_symmetry_space_group_name_H-M   'P 1'
_cell_length_a   9.99219243
_cell_length_b   9.18635350
_cell_length_c   5.55848125
_cell_angle_alpha   81.30312521
_cell_angle_beta   65.33763927
_cell_angle_gamma   33.14482283
_symmetry_Int_Tables_number   1
_chemical_formula_structural   Dy3B6(IrRu)4
_chemical_formula_sum   'Dy3 B6 Ir4 Ru4'
_cell_volume   232.48586272
_cell_formula_units_Z   1
loop_
 _symmetry_equiv_pos_site_id
 _symmetry_equiv_pos_as_xyz
  1  'x, y, z'
loop_
 _atom_site_type_symbol
 _atom_site_label
 _atom_site_symmetry_multiplicity
 _atom_site_fract_x
 _atom_site_fract_y
 _atom_site_fract_z
 _atom_site_occupancy
  Dy  Dy0  1  0.999993  0.999993  0.000007  1
  Dy  Dy1  1  0.821268  0.821268  0.178732  1
  Dy  Dy2  1  0.179111  0.179111  0.820889  1
  B  B3  1  0.670056  0.330278  0.676385  1
  B  B4  1  0.330278  0.670056  0.323280  1
  B  B5  1  0.169604  0.484131  0.515521  1
  B  B6  1  0.484131  0.169604  0.830744  1
  B  B7  1  0.826300  0.519116  0.489807  1
  B  B8  1  0.519116  0.826300  0.164777  1
  Ir  Ir9  1  0.914265  0.914265  0.585735  1
  Ir  Ir10  1  0.413790  0.413790  0.586210  1
  Ir  Ir11  1  0.585925  0.585925  0.414075  1
  Ir  Ir12  1  0.249694  0.249694  0.250306  1
  Ru  Ru13  1  0.750482  0.750482  0.749518  1
  Ru  Ru14  1  0.086394  0.086394  0.413606  1
  Ru  Ru15  1  0.585905  0.585905  0.914095  1
  Ru  Ru16  1  0.413687  0.413687  0.086313  1
