# generated using pymatgen
data_Mg(Sn2Rh)3
_symmetry_space_group_name_H-M   'P 1'
_cell_length_a   8.16893424
_cell_length_b   8.18385906
_cell_length_c   8.18385808
_cell_angle_alpha   109.50813169
_cell_angle_beta   109.43427912
_cell_angle_gamma   109.43428140
_symmetry_Int_Tables_number   1
_chemical_formula_structural   Mg(Sn2Rh)3
_chemical_formula_sum   'Mg2 Sn12 Rh6'
_cell_volume   421.36411904
_cell_formula_units_Z   2
loop_
 _symmetry_equiv_pos_site_id
 _symmetry_equiv_pos_as_xyz
  1  'x, y, z'
loop_
 _atom_site_type_symbol
 _atom_site_label
 _atom_site_symmetry_multiplicity
 _atom_site_fract_x
 _atom_site_fract_y
 _atom_site_fract_z
 _atom_site_occupancy
  Mg  Mg0  1  0.684218  0.000000  0.000000  1
  Mg  Mg1  1  0.315782  0.000000  0.000000  1
  Sn  Sn2  1  0.500000  0.757257  0.242743  1
  Sn  Sn3  1  0.500000  0.242743  0.757257  1
  Sn  Sn4  1  0.257257  0.514514  0.757257  1
  Sn  Sn5  1  0.742743  0.485486  0.242743  1
  Sn  Sn6  1  0.742743  0.242743  0.485486  1
  Sn  Sn7  1  0.257257  0.757257  0.514514  1
  Sn  Sn8  1  0.330201  0.323549  0.323549  1
  Sn  Sn9  1  0.669799  0.676451  0.676451  1
  Sn  Sn10  1  0.006652  0.000000  0.676451  1
  Sn  Sn11  1  0.006652  0.676451  0.000000  1
  Sn  Sn12  1  0.993348  0.000000  0.323549  1
  Sn  Sn13  1  0.993348  0.323549  0.000000  1
  Rh  Rh14  1  0.009845  0.350477  0.350477  1
  Rh  Rh15  1  0.990155  0.649523  0.649523  1
  Rh  Rh16  1  0.340632  0.000000  0.350477  1
  Rh  Rh17  1  0.659368  0.000000  0.649523  1
  Rh  Rh18  1  0.340632  0.350477  0.000000  1
  Rh  Rh19  1  0.659368  0.649523  0.000000  1
