# generated using pymatgen
data_Tb3ThZnRu
_symmetry_space_group_name_H-M   'P 1'
_cell_length_a   9.60817643
_cell_length_b   9.60817708
_cell_length_c   9.60817700
_cell_angle_alpha   60.00000372
_cell_angle_beta   60.00000149
_cell_angle_gamma   60.00000124
_symmetry_Int_Tables_number   1
_chemical_formula_structural   Tb3ThZnRu
_chemical_formula_sum   'Tb12 Th4 Zn4 Ru4'
_cell_volume   627.20279675
_cell_formula_units_Z   4
loop_
 _symmetry_equiv_pos_site_id
 _symmetry_equiv_pos_as_xyz
  1  'x, y, z'
loop_
 _atom_site_type_symbol
 _atom_site_label
 _atom_site_symmetry_multiplicity
 _atom_site_fract_x
 _atom_site_fract_y
 _atom_site_fract_z
 _atom_site_occupancy
  Tb  Tb0  1  0.059414  0.440586  0.440586  1
  Tb  Tb1  1  0.440586  0.059414  0.059414  1
  Tb  Tb2  1  0.440586  0.059414  0.440586  1
  Tb  Tb3  1  0.059414  0.440586  0.059414  1
  Tb  Tb4  1  0.440586  0.440586  0.059414  1
  Tb  Tb5  1  0.059414  0.059414  0.440586  1
  Tb  Tb6  1  0.186257  0.813743  0.813743  1
  Tb  Tb7  1  0.813743  0.186257  0.186257  1
  Tb  Tb8  1  0.813743  0.186257  0.813743  1
  Tb  Tb9  1  0.186257  0.813743  0.186257  1
  Tb  Tb10  1  0.813743  0.813743  0.186257  1
  Tb  Tb11  1  0.186257  0.186257  0.813743  1
  Th  Th12  1  0.600479  0.600479  0.600479  1
  Th  Th13  1  0.600479  0.600479  0.198564  1
  Th  Th14  1  0.600479  0.198564  0.600479  1
  Th  Th15  1  0.198564  0.600479  0.600479  1
  Zn  Zn16  1  0.828409  0.828409  0.828409  1
  Zn  Zn17  1  0.828409  0.828409  0.514772  1
  Zn  Zn18  1  0.828409  0.514772  0.828409  1
  Zn  Zn19  1  0.514772  0.828409  0.828409  1
  Ru  Ru20  1  0.393537  0.393537  0.393537  1
  Ru  Ru21  1  0.393537  0.393537  0.819390  1
  Ru  Ru22  1  0.393537  0.819390  0.393537  1
  Ru  Ru23  1  0.819390  0.393537  0.393537  1
