# generated using pymatgen
data_Y5Al2Te
_symmetry_space_group_name_H-M   'P 1'
_cell_length_a   8.83030811
_cell_length_b   8.89689358
_cell_length_c   6.46023500
_cell_angle_alpha   89.99868344
_cell_angle_beta   90.00134358
_cell_angle_gamma   120.19721805
_symmetry_Int_Tables_number   1
_chemical_formula_structural   Y5Al2Te
_chemical_formula_sum   'Y10 Al4 Te2'
_cell_volume   438.65864532
_cell_formula_units_Z   2
loop_
 _symmetry_equiv_pos_site_id
 _symmetry_equiv_pos_as_xyz
  1  'x, y, z'
loop_
 _atom_site_type_symbol
 _atom_site_label
 _atom_site_symmetry_multiplicity
 _atom_site_fract_x
 _atom_site_fract_y
 _atom_site_fract_z
 _atom_site_occupancy
  Y  Y0  1  0.672925  0.339531  0.506251  1
  Y  Y1  1  0.327071  0.666614  0.506241  1
  Y  Y2  1  0.327064  0.666602  0.993757  1
  Y  Y3  1  0.672924  0.339526  0.993753  1
  Y  Y4  1  0.768974  0.757171  0.249997  1
  Y  Y5  1  0.231093  0.988230  0.250001  1
  Y  Y6  1  0.000022  0.244806  0.250001  1
  Y  Y7  1  0.238145  0.239770  0.749994  1
  Y  Y8  1  0.761832  0.001601  0.750002  1
  Y  Y9  1  0.000001  0.759031  0.750004  1
  Al  Al10  1  0.999991  0.597280  0.249997  1
  Al  Al11  1  0.603189  0.607079  0.749999  1
  Al  Al12  1  0.396764  0.003876  0.749998  1
  Al  Al13  1  0.999981  0.396655  0.750004  1
  Te  Te14  1  0.393405  0.392822  0.250001  1
  Te  Te15  1  0.606622  0.999407  0.250000  1
