# generated using pymatgen
data_YTmRh2F14
_symmetry_space_group_name_H-M   'P 1'
_cell_length_a   5.49990955
_cell_length_b   8.84408754
_cell_length_c   11.88058531
_cell_angle_alpha   62.60182254
_cell_angle_beta   90.06495612
_cell_angle_gamma   89.98577259
_symmetry_Int_Tables_number   1
_chemical_formula_structural   YTmRh2F14
_chemical_formula_sum   'Y2 Tm2 Rh4 F28'
_cell_volume   513.06903214
_cell_formula_units_Z   2
loop_
 _symmetry_equiv_pos_site_id
 _symmetry_equiv_pos_as_xyz
  1  'x, y, z'
loop_
 _atom_site_type_symbol
 _atom_site_label
 _atom_site_symmetry_multiplicity
 _atom_site_fract_x
 _atom_site_fract_y
 _atom_site_fract_z
 _atom_site_occupancy
  Y  Y0  1  0.760657  0.184672  0.235168  1
  Y  Y1  1  0.239343  0.815328  0.764832  1
  Tm  Tm2  1  0.261621  0.812443  0.264969  1
  Tm  Tm3  1  0.738379  0.187557  0.735031  1
  Rh  Rh4  1  0.758592  0.727743  0.044615  1
  Rh  Rh5  1  0.241408  0.272257  0.955385  1
  Rh  Rh6  1  0.258464  0.275600  0.457239  1
  Rh  Rh7  1  0.741536  0.724400  0.542761  1
  F  F8  1  0.939092  0.705411  0.414140  1
  F  F9  1  0.060908  0.294589  0.585860  1
  F  F10  1  0.437117  0.293600  0.083905  1
  F  F11  1  0.562883  0.706400  0.916095  1
  F  F12  1  0.465243  0.729809  0.137062  1
  F  F13  1  0.534757  0.270191  0.862938  1
  F  F14  1  0.965469  0.273304  0.364935  1
  F  F15  1  0.034531  0.726696  0.635065  1
  F  F16  1  0.953483  0.746626  0.175550  1
  F  F17  1  0.046517  0.253374  0.824450  1
  F  F18  1  0.450096  0.257502  0.325371  1
  F  F19  1  0.549904  0.742498  0.674629  1
  F  F20  1  0.771333  0.482118  0.140951  1
  F  F21  1  0.228667  0.517882  0.859049  1
  F  F22  1  0.271262  0.521740  0.360253  1
  F  F23  1  0.728738  0.478260  0.639747  1
  F  F24  1  0.941890  0.279419  0.042339  1
  F  F25  1  0.058110  0.720581  0.957661  1
  F  F26  1  0.440646  0.720513  0.454791  1
  F  F27  1  0.559354  0.279487  0.545209  1
  F  F28  1  0.741911  0.970125  0.450657  1
  F  F29  1  0.258089  0.029875  0.549343  1
  F  F30  1  0.241345  0.026977  0.050145  1
  F  F31  1  0.758655  0.973023  0.949855  1
  F  F32  1  0.583332  0.966319  0.231151  1
  F  F33  1  0.416668  0.033681  0.768849  1
  F  F34  1  0.089885  0.026173  0.269177  1
  F  F35  1  0.910115  0.973827  0.730823  1
