# generated using pymatgen
data_KPrCr2O8
_symmetry_space_group_name_H-M   'P 1'
_cell_length_a   5.52395757
_cell_length_b   5.52395736
_cell_length_c   8.36146815
_cell_angle_alpha   93.75421110
_cell_angle_beta   93.75421165
_cell_angle_gamma   65.38718212
_symmetry_Int_Tables_number   1
_chemical_formula_structural   KPrCr2O8
_chemical_formula_sum   'K1 Pr1 Cr2 O8'
_cell_volume   231.25808695
_cell_formula_units_Z   1
loop_
 _symmetry_equiv_pos_site_id
 _symmetry_equiv_pos_as_xyz
  1  'x, y, z'
loop_
 _atom_site_type_symbol
 _atom_site_label
 _atom_site_symmetry_multiplicity
 _atom_site_fract_x
 _atom_site_fract_y
 _atom_site_fract_z
 _atom_site_occupancy
  K  K0  1  0.000000  0.000000  0.000000  1
  Pr  Pr1  1  0.000000  0.000000  0.500000  1
  Cr  Cr2  1  0.619878  0.619878  0.275754  1
  Cr  Cr3  1  0.380122  0.380122  0.724247  1
  O  O4  1  0.694623  0.694623  0.106955  1
  O  O5  1  0.751418  0.285187  0.287837  1
  O  O6  1  0.285187  0.751418  0.287837  1
  O  O7  1  0.745196  0.745196  0.430198  1
  O  O8  1  0.254804  0.254804  0.569801  1
  O  O9  1  0.714813  0.248582  0.712164  1
  O  O10  1  0.248582  0.714813  0.712164  1
  O  O11  1  0.305377  0.305377  0.893045  1
