# generated using pymatgen
data_Sm3Zn2Co8NiB4
_symmetry_space_group_name_H-M   'P 1'
_cell_length_a   5.15550241
_cell_length_b   5.15550131
_cell_length_c   9.74274700
_cell_angle_alpha   90.00000000
_cell_angle_beta   90.00000000
_cell_angle_gamma   119.85002928
_symmetry_Int_Tables_number   1
_chemical_formula_structural   Sm3Zn2Co8NiB4
_chemical_formula_sum   'Sm3 Zn2 Co8 Ni1 B4'
_cell_volume   224.59923837
_cell_formula_units_Z   1
loop_
 _symmetry_equiv_pos_site_id
 _symmetry_equiv_pos_as_xyz
  1  'x, y, z'
loop_
 _atom_site_type_symbol
 _atom_site_label
 _atom_site_symmetry_multiplicity
 _atom_site_fract_x
 _atom_site_fract_y
 _atom_site_fract_z
 _atom_site_occupancy
  Sm  Sm0  1  0.000000  0.000000  0.003283  1
  Sm  Sm1  1  0.000000  0.000000  0.657602  1
  Sm  Sm2  1  0.000000  0.000000  0.342574  1
  Zn  Zn3  1  0.668186  0.331814  0.000220  1
  Zn  Zn4  1  0.331814  0.668186  0.000220  1
  Co  Co5  1  0.500000  0.500000  0.500186  1
  Co  Co6  1  0.500000  0.000000  0.500377  1
  Co  Co7  1  0.000000  0.500000  0.500377  1
  Co  Co8  1  0.500000  0.000000  0.787614  1
  Co  Co9  1  0.000000  0.500000  0.787614  1
  Co  Co10  1  0.500000  0.500000  0.210375  1
  Co  Co11  1  0.500000  0.000000  0.211219  1
  Co  Co12  1  0.000000  0.500000  0.211219  1
  Ni  Ni13  1  0.500000  0.500000  0.790533  1
  B  B14  1  0.668825  0.331175  0.647829  1
  B  B15  1  0.331175  0.668825  0.647829  1
  B  B16  1  0.333646  0.666354  0.350464  1
  B  B17  1  0.666354  0.333646  0.350464  1
