# generated using pymatgen
data_EuFeCo2Sb12Ru
_symmetry_space_group_name_H-M   'P 1'
_cell_length_a   8.03776125
_cell_length_b   8.02282966
_cell_length_c   7.98208270
_cell_angle_alpha   109.30691388
_cell_angle_beta   109.37596038
_cell_angle_gamma   109.58668940
_symmetry_Int_Tables_number   1
_chemical_formula_structural   EuFeCo2Sb12Ru
_chemical_formula_sum   'Eu1 Fe1 Co2 Sb12 Ru1'
_cell_volume   396.93997070
_cell_formula_units_Z   1
loop_
 _symmetry_equiv_pos_site_id
 _symmetry_equiv_pos_as_xyz
  1  'x, y, z'
loop_
 _atom_site_type_symbol
 _atom_site_label
 _atom_site_symmetry_multiplicity
 _atom_site_fract_x
 _atom_site_fract_y
 _atom_site_fract_z
 _atom_site_occupancy
  Eu  Eu0  1  0.000000  0.000000  0.000000  1
  Fe  Fe1  1  0.000000  0.500000  0.000000  1
  Co  Co2  1  0.500000  0.500000  0.500000  1
  Co  Co3  1  0.500000  0.000000  0.000000  1
  Sb  Sb4  1  0.657335  0.836054  0.502395  1
  Sb  Sb5  1  0.342665  0.163946  0.497605  1
  Sb  Sb6  1  0.835298  0.178824  0.333290  1
  Sb  Sb7  1  0.823488  0.656929  0.155049  1
  Sb  Sb8  1  0.839261  0.503230  0.665921  1
  Sb  Sb9  1  0.176512  0.343071  0.844951  1
  Sb  Sb10  1  0.164702  0.821176  0.666710  1
  Sb  Sb11  1  0.503629  0.664193  0.839339  1
  Sb  Sb12  1  0.496371  0.335807  0.160661  1
  Sb  Sb13  1  0.160739  0.496770  0.334079  1
  Sb  Sb14  1  0.333521  0.836749  0.173266  1
  Sb  Sb15  1  0.666479  0.163251  0.826734  1
  Ru  Ru16  1  0.000000  0.000000  0.500000  1
