# generated using pymatgen
data_Sc5U(GaRu2)6
_symmetry_space_group_name_H-M   'P 1'
_cell_length_a   4.42729100
_cell_length_b   6.28543700
_cell_length_c   13.29793700
_cell_angle_alpha   90.00000000
_cell_angle_beta   89.99953870
_cell_angle_gamma   90.00000000
_symmetry_Int_Tables_number   1
_chemical_formula_structural   Sc5U(GaRu2)6
_chemical_formula_sum   'Sc5 U1 Ga6 Ru12'
_cell_volume   370.04779214
_cell_formula_units_Z   1
loop_
 _symmetry_equiv_pos_site_id
 _symmetry_equiv_pos_as_xyz
  1  'x, y, z'
loop_
 _atom_site_type_symbol
 _atom_site_label
 _atom_site_symmetry_multiplicity
 _atom_site_fract_x
 _atom_site_fract_y
 _atom_site_fract_z
 _atom_site_occupancy
  Sc  Sc0  1  0.499981  0.000000  0.171183  1
  Sc  Sc1  1  0.999976  0.500001  0.336242  1
  Sc  Sc2  1  0.500001  0.000000  0.500000  1
  Sc  Sc3  1  0.000024  0.500001  0.663758  1
  Sc  Sc4  1  0.500019  0.000000  0.828817  1
  U  U5  1  0.000000  0.500001  0.000000  1
  Ga  Ga6  1  0.000000  0.000000  0.000000  1
  Ga  Ga7  1  0.499990  0.500001  0.176809  1
  Ga  Ga8  1  0.999985  0.000000  0.335253  1
  Ga  Ga9  1  0.500001  0.500001  0.500000  1
  Ga  Ga10  1  0.000015  0.000000  0.664747  1
  Ga  Ga11  1  0.500012  0.500001  0.823191  1
  Ru  Ru12  1  0.500001  0.254032  0.000000  1
  Ru  Ru13  1  0.500001  0.745968  0.000000  1
  Ru  Ru14  1  0.000000  0.259961  0.158734  1
  Ru  Ru15  1  0.000000  0.740039  0.158734  1
  Ru  Ru16  1  0.499982  0.247779  0.333328  1
  Ru  Ru17  1  0.499982  0.752220  0.333328  1
  Ru  Ru18  1  0.000000  0.250961  0.500000  1
  Ru  Ru19  1  0.000000  0.749039  0.500000  1
  Ru  Ru20  1  0.500019  0.247779  0.666672  1
  Ru  Ru21  1  0.500019  0.752220  0.666672  1
  Ru  Ru22  1  0.000000  0.259961  0.841266  1
  Ru  Ru23  1  0.000000  0.740039  0.841266  1
