# generated using pymatgen
data_Zr3Co4Ni2(B2Ru)3
_symmetry_space_group_name_H-M   'P 1'
_cell_length_a   5.85204319
_cell_length_b   5.87594912
_cell_length_c   5.87594936
_cell_angle_alpha   95.26713075
_cell_angle_beta   95.21974170
_cell_angle_gamma   95.21975006
_symmetry_Int_Tables_number   1
_chemical_formula_structural   Zr3Co4Ni2(B2Ru)3
_chemical_formula_sum   'Zr3 Co4 Ni2 B6 Ru3'
_cell_volume   199.35704992
_cell_formula_units_Z   1
loop_
 _symmetry_equiv_pos_site_id
 _symmetry_equiv_pos_as_xyz
  1  'x, y, z'
loop_
 _atom_site_type_symbol
 _atom_site_label
 _atom_site_symmetry_multiplicity
 _atom_site_fract_x
 _atom_site_fract_y
 _atom_site_fract_z
 _atom_site_occupancy
  Zr  Zr0  1  0.004513  0.999577  0.999577  1
  Zr  Zr1  1  0.667921  0.671797  0.671797  1
  Zr  Zr2  1  0.330661  0.332743  0.332743  1
  Co  Co3  1  0.206001  0.689653  0.689653  1
  Co  Co4  1  0.311642  0.793630  0.310614  1
  Co  Co5  1  0.311642  0.310614  0.793630  1
  Co  Co6  1  0.792154  0.309887  0.309887  1
  Ni  Ni7  1  0.691266  0.208525  0.689887  1
  Ni  Ni8  1  0.691266  0.689887  0.208525  1
  B  B9  1  0.617643  0.379005  0.000920  1
  B  B10  1  0.002164  0.614946  0.384297  1
  B  B11  1  0.377577  0.998337  0.619260  1
  B  B12  1  0.002164  0.384297  0.614946  1
  B  B13  1  0.617643  0.000920  0.379005  1
  B  B14  1  0.377577  0.619260  0.998337  1
  Ru  Ru15  1  0.999251  0.999636  0.497668  1
  Ru  Ru16  1  0.499663  0.999619  0.999619  1
  Ru  Ru17  1  0.999251  0.497668  0.999636  1
