# generated using pymatgen
data_Dy4Os5Ru3
_symmetry_space_group_name_H-M   'P 1'
_cell_length_a   5.33963164
_cell_length_b   5.18204352
_cell_length_c   9.00031800
_cell_angle_alpha   90.00000000
_cell_angle_beta   90.00000000
_cell_angle_gamma   119.45629001
_symmetry_Int_Tables_number   1
_chemical_formula_structural   Dy4Os5Ru3
_chemical_formula_sum   'Dy4 Os5 Ru3'
_cell_volume   216.84742384
_cell_formula_units_Z   1
loop_
 _symmetry_equiv_pos_site_id
 _symmetry_equiv_pos_as_xyz
  1  'x, y, z'
loop_
 _atom_site_type_symbol
 _atom_site_label
 _atom_site_symmetry_multiplicity
 _atom_site_fract_x
 _atom_site_fract_y
 _atom_site_fract_z
 _atom_site_occupancy
  Dy  Dy0  1  0.668445  0.334934  0.566216  1
  Dy  Dy1  1  0.331139  0.664969  0.433451  1
  Dy  Dy2  1  0.331139  0.664969  0.066549  1
  Dy  Dy3  1  0.668445  0.334934  0.933784  1
  Os  Os4  1  0.169722  0.337875  0.750000  1
  Os  Os5  1  0.172688  0.830628  0.750000  1
  Os  Os6  1  0.656657  0.828587  0.750000  1
  Os  Os7  1  0.835339  0.663766  0.250000  1
  Os  Os8  1  0.832586  0.171756  0.250000  1
  Ru  Ru9  1  0.993235  0.996991  0.499601  1
  Ru  Ru10  1  0.993235  0.996991  0.000399  1
  Ru  Ru11  1  0.347368  0.173599  0.250000  1
