# generated using pymatgen
data_Er7Th(ReB6)4
_symmetry_space_group_name_H-M   'P 1'
_cell_length_a   3.68747300
_cell_length_b   9.15903530
_cell_length_c   11.54861038
_cell_angle_alpha   90.02920043
_cell_angle_beta   90.00000000
_cell_angle_gamma   90.00000000
_symmetry_Int_Tables_number   1
_chemical_formula_structural   Er7Th(ReB6)4
_chemical_formula_sum   'Er7 Th1 Re4 B24'
_cell_volume   390.03919804
_cell_formula_units_Z   1
loop_
 _symmetry_equiv_pos_site_id
 _symmetry_equiv_pos_as_xyz
  1  'x, y, z'
loop_
 _atom_site_type_symbol
 _atom_site_label
 _atom_site_symmetry_multiplicity
 _atom_site_fract_x
 _atom_site_fract_y
 _atom_site_fract_z
 _atom_site_occupancy
  Er  Er0  1  0.000000  0.677925  0.587414  1
  Er  Er1  1  0.000000  0.823208  0.085144  1
  Er  Er2  1  0.000000  0.175949  0.913919  1
  Er  Er3  1  0.000000  0.942133  0.369611  1
  Er  Er4  1  0.000000  0.055681  0.631347  1
  Er  Er5  1  0.000000  0.443722  0.128044  1
  Er  Er6  1  0.000000  0.557281  0.870861  1
  Th  Th7  1  0.000000  0.322356  0.414003  1
  Re  Re8  1  0.000000  0.639727  0.320125  1
  Re  Re9  1  0.000000  0.361508  0.680758  1
  Re  Re10  1  0.000000  0.138249  0.178026  1
  Re  Re11  1  0.000000  0.861302  0.821093  1
  B  B12  1  0.500000  0.556070  0.432541  1
  B  B13  1  0.500000  0.447309  0.569640  1
  B  B14  1  0.500000  0.052839  0.066075  1
  B  B15  1  0.500000  0.946682  0.933076  1
  B  B16  1  0.500000  0.750575  0.418652  1
  B  B17  1  0.500000  0.250278  0.584930  1
  B  B18  1  0.500000  0.249098  0.079726  1
  B  B19  1  0.500000  0.750542  0.918725  1
  B  B20  1  0.500000  0.792666  0.264949  1
  B  B21  1  0.500000  0.207535  0.736326  1
  B  B22  1  0.500000  0.290849  0.231934  1
  B  B23  1  0.500000  0.707656  0.765534  1
  B  B24  1  0.500000  0.632133  0.184032  1
  B  B25  1  0.500000  0.369651  0.815619  1
  B  B26  1  0.500000  0.128967  0.312387  1
  B  B27  1  0.500000  0.868892  0.685760  1
  B  B28  1  0.500000  0.981620  0.210883  1
  B  B29  1  0.500000  0.017301  0.788534  1
  B  B30  1  0.500000  0.485512  0.286031  1
  B  B31  1  0.500000  0.518454  0.713599  1
  B  B32  1  0.500000  0.601132  0.027600  1
  B  B33  1  0.500000  0.399632  0.971560  1
  B  B34  1  0.500000  0.096615  0.473082  1
  B  B35  1  0.500000  0.898950  0.528460  1
