# generated using pymatgen
data_NdHoCo2Br
_symmetry_space_group_name_H-M   'P 1'
_cell_length_a   3.92197000
_cell_length_b   3.92197067
_cell_length_c   16.63384800
_cell_angle_alpha   90.00000000
_cell_angle_beta   90.00000000
_cell_angle_gamma   119.99997751
_symmetry_Int_Tables_number   1
_chemical_formula_structural   NdHoCo2Br
_chemical_formula_sum   'Nd2 Ho2 Co4 Br2'
_cell_volume   221.58076998
_cell_formula_units_Z   2
loop_
 _symmetry_equiv_pos_site_id
 _symmetry_equiv_pos_as_xyz
  1  'x, y, z'
loop_
 _atom_site_type_symbol
 _atom_site_label
 _atom_site_symmetry_multiplicity
 _atom_site_fract_x
 _atom_site_fract_y
 _atom_site_fract_z
 _atom_site_occupancy
  Nd  Nd0  1  0.000000  0.000000  0.612702  1
  Nd  Nd1  1  0.000000  0.000000  0.387298  1
  Ho  Ho2  1  0.000000  0.000000  0.104626  1
  Ho  Ho3  1  0.000000  0.000000  0.895374  1
  Co  Co4  1  0.333333  0.666667  0.500583  1
  Co  Co5  1  0.666667  0.333333  0.499417  1
  Co  Co6  1  0.666667  0.333333  0.002486  1
  Co  Co7  1  0.333333  0.666667  0.997514  1
  Br  Br8  1  0.333333  0.666667  0.241193  1
  Br  Br9  1  0.666667  0.333333  0.758807  1
