# generated using pymatgen
data_Er4Tm6RuRh3
_symmetry_space_group_name_H-M   'P 1'
_cell_length_a   6.37180690
_cell_length_b   7.15229446
_cell_length_c   8.43242734
_cell_angle_alpha   96.65309451
_cell_angle_beta   111.97283612
_cell_angle_gamma   90.01966020
_symmetry_Int_Tables_number   1
_chemical_formula_structural   Er4Tm6RuRh3
_chemical_formula_sum   'Er4 Tm6 Ru1 Rh3'
_cell_volume   353.57857103
_cell_formula_units_Z   1
loop_
 _symmetry_equiv_pos_site_id
 _symmetry_equiv_pos_as_xyz
  1  'x, y, z'
loop_
 _atom_site_type_symbol
 _atom_site_label
 _atom_site_symmetry_multiplicity
 _atom_site_fract_x
 _atom_site_fract_y
 _atom_site_fract_z
 _atom_site_occupancy
  Er  Er0  1  0.791247  0.082531  0.811937  1
  Er  Er1  1  0.977922  0.417664  0.187119  1
  Er  Er2  1  0.208490  0.917356  0.182575  1
  Er  Er3  1  0.023377  0.583194  0.811593  1
  Tm  Tm4  1  0.210531  0.183269  0.562918  1
  Tm  Tm5  1  0.648195  0.314491  0.437415  1
  Tm  Tm6  1  0.791553  0.814566  0.440823  1
  Tm  Tm7  1  0.348618  0.687717  0.563456  1
  Tm  Tm8  1  0.423827  0.248474  0.998843  1
  Tm  Tm9  1  0.575243  0.750556  0.999715  1
  Ru  Ru10  1  0.176097  0.926229  0.782252  1
  Rh  Rh11  1  0.603006  0.427026  0.778801  1
  Rh  Rh12  1  0.823073  0.074102  0.220905  1
  Rh  Rh13  1  0.398820  0.572824  0.221647  1
