# generated using pymatgen
data_TmCl13
_symmetry_space_group_name_H-M   'P 1'
_cell_length_a   11.81223269
_cell_length_b   16.63435976
_cell_length_c   9.31944800
_cell_angle_alpha   96.44450458
_cell_angle_beta   109.45680614
_cell_angle_gamma   132.61902094
_symmetry_Int_Tables_number   1
_chemical_formula_structural   TmCl13
_chemical_formula_sum   'Tm2 Cl26'
_cell_volume   1109.82414265
_cell_formula_units_Z   2
loop_
 _symmetry_equiv_pos_site_id
 _symmetry_equiv_pos_as_xyz
  1  'x, y, z'
loop_
 _atom_site_type_symbol
 _atom_site_label
 _atom_site_symmetry_multiplicity
 _atom_site_fract_x
 _atom_site_fract_y
 _atom_site_fract_z
 _atom_site_occupancy
  Tm  Tm0  1  0.867449  0.039662  0.951940  1
  Tm  Tm1  1  0.382551  0.710338  0.548060  1
  Cl  Cl2  1  0.251731  0.421907  0.622542  1
  Cl  Cl3  1  0.732491  0.368866  0.030380  1
  Cl  Cl4  1  0.955902  0.093253  0.549294  1
  Cl  Cl5  1  0.998269  0.328093  0.877458  1
  Cl  Cl6  1  0.572505  0.152215  0.238466  1
  Cl  Cl7  1  0.677495  0.597785  0.261534  1
  Cl  Cl8  1  0.294098  0.656747  0.950706  1
  Cl  Cl9  1  0.517509  0.381134  0.469620  1
  Cl  Cl10  1  0.021491  0.786753  0.727606  1
  Cl  Cl11  1  0.414628  0.655880  0.317315  1
  Cl  Cl12  1  0.069132  0.121040  0.799235  1
  Cl  Cl13  1  0.727156  0.198564  0.481997  1
  Cl  Cl14  1  0.184973  0.144025  0.124310  1
  Cl  Cl15  1  0.732447  0.529243  0.710238  1
  Cl  Cl16  1  0.224278  0.941064  0.233825  1
  Cl  Cl17  1  0.317706  0.511691  0.476728  1
  Cl  Cl18  1  0.228509  0.963247  0.772394  1
  Cl  Cl19  1  0.835372  0.094120  0.182685  1
  Cl  Cl20  1  0.659224  0.808677  0.855620  1
  Cl  Cl21  1  0.590776  0.941323  0.644380  1
  Cl  Cl22  1  0.025722  0.808936  0.266175  1
  Cl  Cl23  1  0.932294  0.238309  0.023272  1
  Cl  Cl24  1  0.180868  0.628960  0.700765  1
  Cl  Cl25  1  0.517553  0.220757  0.789762  1
  Cl  Cl26  1  0.065027  0.605975  0.375690  1
  Cl  Cl27  1  0.522844  0.551436  0.018003  1
