# generated using pymatgen
data_Nd5SmZr2(Co4P3)4
_symmetry_space_group_name_H-M   'P 1'
_cell_length_a   3.77928000
_cell_length_b   10.82485301
_cell_length_c   12.63263501
_cell_angle_alpha   90.00396691
_cell_angle_beta   90.00000000
_cell_angle_gamma   90.00000000
_symmetry_Int_Tables_number   1
_chemical_formula_structural   Nd5SmZr2(Co4P3)4
_chemical_formula_sum   'Nd5 Sm1 Zr2 Co16 P12'
_cell_volume   516.80299776
_cell_formula_units_Z   1
loop_
 _symmetry_equiv_pos_site_id
 _symmetry_equiv_pos_as_xyz
  1  'x, y, z'
loop_
 _atom_site_type_symbol
 _atom_site_label
 _atom_site_symmetry_multiplicity
 _atom_site_fract_x
 _atom_site_fract_y
 _atom_site_fract_z
 _atom_site_occupancy
  Nd  Nd0  1  0.000000  0.500057  0.529026  1
  Nd  Nd1  1  0.500000  0.999837  0.470883  1
  Nd  Nd2  1  0.500000  0.178740  0.205298  1
  Nd  Nd3  1  0.000000  0.678979  0.794609  1
  Nd  Nd4  1  0.000000  0.321054  0.794505  1
  Sm  Sm5  1  0.500000  0.820675  0.205173  1
  Zr  Zr6  1  0.500000  0.500510  0.156491  1
  Zr  Zr7  1  0.000000  0.000076  0.843798  1
  Co  Co8  1  0.500000  0.499909  0.704583  1
  Co  Co9  1  0.000000  0.998352  0.294766  1
  Co  Co10  1  0.000000  0.500471  0.986721  1
  Co  Co11  1  0.500000  0.999599  0.013887  1
  Co  Co12  1  0.500000  0.332303  0.993726  1
  Co  Co13  1  0.500000  0.668323  0.993890  1
  Co  Co14  1  0.000000  0.167597  0.006571  1
  Co  Co15  1  0.000000  0.832192  0.006770  1
  Co  Co16  1  0.500000  0.295212  0.433079  1
  Co  Co17  1  0.500000  0.704984  0.432776  1
  Co  Co18  1  0.000000  0.204449  0.566641  1
  Co  Co19  1  0.000000  0.795412  0.566638  1
  Co  Co20  1  0.500000  0.880148  0.701184  1
  Co  Co21  1  0.500000  0.119733  0.700920  1
  Co  Co22  1  0.000000  0.620591  0.298605  1
  Co  Co23  1  0.000000  0.380376  0.299100  1
  P  P24  1  0.500000  0.500108  0.886642  1
  P  P25  1  0.000000  0.998858  0.114144  1
  P  P26  1  0.500000  0.499953  0.359044  1
  P  P27  1  0.000000  0.999912  0.641077  1
  P  P28  1  0.500000  0.304593  0.613079  1
  P  P29  1  0.500000  0.695432  0.613136  1
  P  P30  1  0.000000  0.195123  0.386635  1
  P  P31  1  0.000000  0.805182  0.385713  1
  P  P32  1  0.500000  0.840414  0.897712  1
  P  P33  1  0.500000  0.159708  0.898157  1
  P  P34  1  0.000000  0.660660  0.102972  1
  P  P35  1  0.000000  0.340479  0.102051  1
