# generated using pymatgen
data_Nd3Th(Nb3Si4)2
_symmetry_space_group_name_H-M   'P 1'
_cell_length_a   7.19421901
_cell_length_b   7.19043201
_cell_length_c   13.33917400
_cell_angle_alpha   90.00000000
_cell_angle_beta   90.00000000
_cell_angle_gamma   90.00548874
_symmetry_Int_Tables_number   1
_chemical_formula_structural   Nd3Th(Nb3Si4)2
_chemical_formula_sum   'Nd6 Th2 Nb12 Si16'
_cell_volume   690.02936693
_cell_formula_units_Z   2
loop_
 _symmetry_equiv_pos_site_id
 _symmetry_equiv_pos_as_xyz
  1  'x, y, z'
loop_
 _atom_site_type_symbol
 _atom_site_label
 _atom_site_symmetry_multiplicity
 _atom_site_fract_x
 _atom_site_fract_y
 _atom_site_fract_z
 _atom_site_occupancy
  Nd  Nd0  1  0.160768  0.496999  0.468179  1
  Nd  Nd1  1  0.503359  0.839358  0.032076  1
  Nd  Nd2  1  0.839232  0.503001  0.968179  1
  Nd  Nd3  1  0.496641  0.160642  0.532076  1
  Nd  Nd4  1  0.339286  0.996476  0.782457  1
  Nd  Nd5  1  0.660714  0.003524  0.282457  1
  Th  Th6  1  0.995738  0.338882  0.217909  1
  Th  Th7  1  0.004262  0.661118  0.717909  1
  Nb  Nb8  1  0.170128  0.170920  0.000668  1
  Nb  Nb9  1  0.829872  0.829080  0.500668  1
  Nb  Nb10  1  0.327569  0.668891  0.249364  1
  Nb  Nb11  1  0.672431  0.331109  0.749364  1
  Nb  Nb12  1  0.155151  0.992350  0.374461  1
  Nb  Nb13  1  0.844849  0.007650  0.874461  1
  Nb  Nb14  1  0.508374  0.655289  0.625274  1
  Nb  Nb15  1  0.343538  0.491628  0.874441  1
  Nb  Nb16  1  0.491626  0.344711  0.125274  1
  Nb  Nb17  1  0.656462  0.508372  0.374441  1
  Nb  Nb18  1  0.990716  0.155178  0.625337  1
  Nb  Nb19  1  0.009284  0.844822  0.125337  1
  Si  Si20  1  0.292210  0.043123  0.186282  1
  Si  Si21  1  0.707790  0.956877  0.686282  1
  Si  Si22  1  0.455719  0.790040  0.436287  1
  Si  Si23  1  0.210480  0.545054  0.062577  1
  Si  Si24  1  0.544281  0.209960  0.936287  1
  Si  Si25  1  0.789520  0.454946  0.562577  1
  Si  Si26  1  0.044418  0.288315  0.814724  1
  Si  Si27  1  0.955582  0.711685  0.314724  1
  Si  Si28  1  0.372570  0.298147  0.314877  1
  Si  Si29  1  0.627430  0.701853  0.814877  1
  Si  Si30  1  0.202921  0.872379  0.563144  1
  Si  Si31  1  0.128980  0.798591  0.936178  1
  Si  Si32  1  0.797079  0.127621  0.063144  1
  Si  Si33  1  0.871020  0.201409  0.436178  1
  Si  Si34  1  0.298945  0.369639  0.685764  1
  Si  Si35  1  0.701055  0.630361  0.185764  1
