# generated using pymatgen
data_LaIn2I5
_symmetry_space_group_name_H-M   'P 1'
_cell_length_a   9.22158600
_cell_length_b   9.84335500
_cell_length_c   14.43805000
_cell_angle_alpha   90.00000000
_cell_angle_beta   90.00000000
_cell_angle_gamma   90.00000000
_symmetry_Int_Tables_number   1
_chemical_formula_structural   LaIn2I5
_chemical_formula_sum   'La4 In8 I20'
_cell_volume   1310.56121278
_cell_formula_units_Z   4
loop_
 _symmetry_equiv_pos_site_id
 _symmetry_equiv_pos_as_xyz
  1  'x, y, z'
loop_
 _atom_site_type_symbol
 _atom_site_label
 _atom_site_symmetry_multiplicity
 _atom_site_fract_x
 _atom_site_fract_y
 _atom_site_fract_z
 _atom_site_occupancy
  La  La0  1  0.921700  0.750000  0.505773  1
  La  La1  1  0.078300  0.250000  0.494227  1
  La  La2  1  0.421700  0.250000  0.994227  1
  La  La3  1  0.578300  0.750000  0.005773  1
  In  In4  1  0.949973  0.004431  0.827935  1
  In  In5  1  0.050027  0.995569  0.172065  1
  In  In6  1  0.449973  0.995569  0.672065  1
  In  In7  1  0.050027  0.504431  0.172065  1
  In  In8  1  0.550027  0.004431  0.327935  1
  In  In9  1  0.949973  0.495569  0.827935  1
  In  In10  1  0.550027  0.495569  0.327935  1
  In  In11  1  0.449973  0.504431  0.672065  1
  I  I12  1  0.130746  0.750000  0.685971  1
  I  I13  1  0.869254  0.250000  0.314029  1
  I  I14  1  0.630746  0.250000  0.814029  1
  I  I15  1  0.369254  0.750000  0.185971  1
  I  I16  1  0.828877  0.046440  0.581904  1
  I  I17  1  0.171123  0.953560  0.418096  1
  I  I18  1  0.328877  0.953560  0.918096  1
  I  I19  1  0.171123  0.546440  0.418096  1
  I  I20  1  0.671123  0.046440  0.081904  1
  I  I21  1  0.828877  0.453560  0.581904  1
  I  I22  1  0.671123  0.453560  0.081904  1
  I  I23  1  0.328877  0.546440  0.918096  1
  I  I24  1  0.563752  0.750000  0.505410  1
  I  I25  1  0.436248  0.250000  0.494590  1
  I  I26  1  0.063752  0.250000  0.994590  1
  I  I27  1  0.936248  0.750000  0.005410  1
  I  I28  1  0.666637  0.750000  0.789276  1
  I  I29  1  0.333363  0.250000  0.210724  1
  I  I30  1  0.166637  0.250000  0.710724  1
  I  I31  1  0.833363  0.750000  0.289276  1
