# generated using pymatgen
data_Y6Al24Ir4Os3Pt
_symmetry_space_group_name_H-M   'P 1'
_cell_length_a   8.82657322
_cell_length_b   8.81482156
_cell_length_c   9.57256477
_cell_angle_alpha   90.00316983
_cell_angle_beta   89.86690794
_cell_angle_gamma   119.71429397
_symmetry_Int_Tables_number   1
_chemical_formula_structural   Y6Al24Ir4Os3Pt
_chemical_formula_sum   'Y6 Al24 Ir4 Os3 Pt1'
_cell_volume   646.85391874
_cell_formula_units_Z   1
loop_
 _symmetry_equiv_pos_site_id
 _symmetry_equiv_pos_as_xyz
  1  'x, y, z'
loop_
 _atom_site_type_symbol
 _atom_site_label
 _atom_site_symmetry_multiplicity
 _atom_site_fract_x
 _atom_site_fract_y
 _atom_site_fract_z
 _atom_site_occupancy
  Y  Y0  1  0.189865  0.386166  0.249482  1
  Y  Y1  1  0.810135  0.613834  0.750518  1
  Y  Y2  1  0.616801  0.808831  0.250339  1
  Y  Y3  1  0.383199  0.191169  0.749661  1
  Y  Y4  1  0.189940  0.806358  0.250653  1
  Y  Y5  1  0.810060  0.193642  0.749347  1
  Al  Al6  1  0.333860  0.667592  0.032238  1
  Al  Al7  1  0.666140  0.332408  0.967762  1
  Al  Al8  1  0.669553  0.336745  0.531969  1
  Al  Al9  1  0.330447  0.663255  0.468031  1
  Al  Al10  1  0.163058  0.328459  0.575045  1
  Al  Al11  1  0.836942  0.671541  0.424955  1
  Al  Al12  1  0.673670  0.832591  0.576216  1
  Al  Al13  1  0.835118  0.671899  0.075370  1
  Al  Al14  1  0.326330  0.167409  0.423784  1
  Al  Al15  1  0.164882  0.328101  0.924630  1
  Al  Al16  1  0.159137  0.831645  0.577009  1
  Al  Al17  1  0.327465  0.164339  0.074692  1
  Al  Al18  1  0.840863  0.168355  0.422991  1
  Al  Al19  1  0.672535  0.835661  0.925308  1
  Al  Al20  1  0.834958  0.163352  0.075532  1
  Al  Al21  1  0.165042  0.836648  0.924468  1
  Al  Al22  1  0.562047  0.126557  0.247788  1
  Al  Al23  1  0.437953  0.873443  0.752212  1
  Al  Al24  1  0.874219  0.438883  0.250746  1
  Al  Al25  1  0.125781  0.561117  0.749254  1
  Al  Al26  1  0.562287  0.437924  0.249766  1
  Al  Al27  1  0.437713  0.562076  0.750234  1
  Al  Al28  1  0.998240  0.999766  0.249911  1
  Al  Al29  1  0.001760  0.000234  0.750089  1
  Ir  Ir30  1  0.500000  0.000000  0.000000  1
  Ir  Ir31  1  0.000000  0.500000  0.000000  1
  Ir  Ir32  1  0.500000  0.500000  0.000000  1
  Ir  Ir33  1  0.500000  0.500000  0.500000  1
  Os  Os34  1  0.000000  0.500000  0.500000  1
  Os  Os35  1  0.000000  0.000000  0.000000  1
  Os  Os36  1  0.000000  0.000000  0.500000  1
  Pt  Pt37  1  0.500000  0.000000  0.500000  1
