# generated using pymatgen
data_Ba2In5PbAu6
_symmetry_space_group_name_H-M   'P 1'
_cell_length_a   4.73089500
_cell_length_b   8.17793700
_cell_length_c   9.32056900
_cell_angle_alpha   90.00000000
_cell_angle_beta   90.00000000
_cell_angle_gamma   90.00000000
_symmetry_Int_Tables_number   1
_chemical_formula_structural   Ba2In5PbAu6
_chemical_formula_sum   'Ba2 In5 Pb1 Au6'
_cell_volume   360.60313300
_cell_formula_units_Z   1
loop_
 _symmetry_equiv_pos_site_id
 _symmetry_equiv_pos_as_xyz
  1  'x, y, z'
loop_
 _atom_site_type_symbol
 _atom_site_label
 _atom_site_symmetry_multiplicity
 _atom_site_fract_x
 _atom_site_fract_y
 _atom_site_fract_z
 _atom_site_occupancy
  Ba  Ba0  1  0.500000  0.000000  0.729363  1
  Ba  Ba1  1  0.000000  0.500000  0.264656  1
  In  In2  1  0.000000  0.308918  0.889385  1
  In  In3  1  0.500000  0.191504  0.113168  1
  In  In4  1  0.000000  0.691082  0.889385  1
  In  In5  1  0.500000  0.808496  0.113168  1
  In  In6  1  0.500000  0.500000  0.636389  1
  Pb  Pb7  1  0.000000  0.000000  0.364184  1
  Au  Au8  1  0.000000  0.721352  0.593297  1
  Au  Au9  1  0.500000  0.756730  0.411965  1
  Au  Au10  1  0.500000  0.500000  0.954676  1
  Au  Au11  1  0.000000  0.000000  0.035105  1
  Au  Au12  1  0.500000  0.243270  0.411965  1
  Au  Au13  1  0.000000  0.278648  0.593297  1
