# generated using pymatgen
data_PrSc2Cr(Co4P3)2
_symmetry_space_group_name_H-M   'P 1'
_cell_length_a   3.66042900
_cell_length_b   10.47158500
_cell_length_c   12.11986200
_cell_angle_alpha   90.00000000
_cell_angle_beta   90.00000000
_cell_angle_gamma   90.00000000
_symmetry_Int_Tables_number   1
_chemical_formula_structural   PrSc2Cr(Co4P3)2
_chemical_formula_sum   'Pr2 Sc4 Cr2 Co16 P12'
_cell_volume   464.56029052
_cell_formula_units_Z   2
loop_
 _symmetry_equiv_pos_site_id
 _symmetry_equiv_pos_as_xyz
  1  'x, y, z'
loop_
 _atom_site_type_symbol
 _atom_site_label
 _atom_site_symmetry_multiplicity
 _atom_site_fract_x
 _atom_site_fract_y
 _atom_site_fract_z
 _atom_site_occupancy
  Pr  Pr0  1  0.000000  0.500000  0.524821  1
  Pr  Pr1  1  0.500000  0.000000  0.475179  1
  Sc  Sc2  1  0.500000  0.818003  0.202237  1
  Sc  Sc3  1  0.500000  0.181997  0.202237  1
  Sc  Sc4  1  0.000000  0.681997  0.797763  1
  Sc  Sc5  1  0.000000  0.318003  0.797763  1
  Cr  Cr6  1  0.500000  0.500000  0.152958  1
  Cr  Cr7  1  0.000000  0.000000  0.847042  1
  Co  Co8  1  0.500000  0.500000  0.708042  1
  Co  Co9  1  0.000000  0.000000  0.291958  1
  Co  Co10  1  0.000000  0.500000  0.986612  1
  Co  Co11  1  0.500000  0.000000  0.013388  1
  Co  Co12  1  0.500000  0.332266  0.991926  1
  Co  Co13  1  0.500000  0.667734  0.991926  1
  Co  Co14  1  0.000000  0.167734  0.008074  1
  Co  Co15  1  0.000000  0.832266  0.008074  1
  Co  Co16  1  0.500000  0.295112  0.427982  1
  Co  Co17  1  0.500000  0.704888  0.427982  1
  Co  Co18  1  0.000000  0.204888  0.572018  1
  Co  Co19  1  0.000000  0.795112  0.572018  1
  Co  Co20  1  0.500000  0.878032  0.713165  1
  Co  Co21  1  0.500000  0.121968  0.713165  1
  Co  Co22  1  0.000000  0.621968  0.286835  1
  Co  Co23  1  0.000000  0.378032  0.286835  1
  P  P24  1  0.500000  0.500000  0.881649  1
  P  P25  1  0.000000  0.000000  0.118351  1
  P  P26  1  0.500000  0.500000  0.338957  1
  P  P27  1  0.000000  0.000000  0.661043  1
  P  P28  1  0.500000  0.308885  0.622156  1
  P  P29  1  0.500000  0.691115  0.622156  1
  P  P30  1  0.000000  0.191115  0.377844  1
  P  P31  1  0.000000  0.808885  0.377844  1
  P  P32  1  0.500000  0.844888  0.891814  1
  P  P33  1  0.500000  0.155112  0.891814  1
  P  P34  1  0.000000  0.655112  0.108186  1
  P  P35  1  0.000000  0.344888  0.108186  1
