# generated using pymatgen
data_NpU2Co3Sb4
_symmetry_space_group_name_H-M   'P 1'
_cell_length_a   8.07747224
_cell_length_b   8.07747280
_cell_length_c   8.07747301
_cell_angle_alpha   109.33170213
_cell_angle_beta   109.75062999
_cell_angle_gamma   109.33169679
_symmetry_Int_Tables_number   1
_chemical_formula_structural   NpU2Co3Sb4
_chemical_formula_sum   'Np2 U4 Co6 Sb8'
_cell_volume   405.69235592
_cell_formula_units_Z   2
loop_
 _symmetry_equiv_pos_site_id
 _symmetry_equiv_pos_as_xyz
  1  'x, y, z'
loop_
 _atom_site_type_symbol
 _atom_site_label
 _atom_site_symmetry_multiplicity
 _atom_site_fract_x
 _atom_site_fract_y
 _atom_site_fract_z
 _atom_site_occupancy
  Np  Np0  1  0.875000  0.250000  0.125000  1
  Np  Np1  1  0.625000  0.750000  0.375000  1
  U  U2  1  0.250000  0.125516  0.875516  1
  U  U3  1  0.750000  0.374484  0.624484  1
  U  U4  1  0.124484  0.874484  0.250000  1
  U  U5  1  0.375516  0.625516  0.750000  1
  Co  Co6  1  0.375000  0.250000  0.625000  1
  Co  Co7  1  0.125000  0.750000  0.875000  1
  Co  Co8  1  0.250000  0.628708  0.378708  1
  Co  Co9  1  0.750000  0.871292  0.121292  1
  Co  Co10  1  0.621292  0.371292  0.250000  1
  Co  Co11  1  0.878708  0.128708  0.750000  1
  Sb  Sb12  1  0.664848  0.499241  0.000490  1
  Sb  Sb13  1  0.501250  0.000759  0.665607  1
  Sb  Sb14  1  0.998750  0.664358  0.499510  1
  Sb  Sb15  1  0.835152  0.835642  0.834393  1
  Sb  Sb16  1  0.500490  0.999241  0.164848  1
  Sb  Sb17  1  0.165607  0.500759  0.001250  1
  Sb  Sb18  1  0.999510  0.164358  0.498750  1
  Sb  Sb19  1  0.334393  0.335642  0.335152  1
