# generated using pymatgen
data_Zn6ReSbN8
_symmetry_space_group_name_H-M   'P 1'
_cell_length_a   6.64682700
_cell_length_b   5.73832574
_cell_length_c   5.41631867
_cell_angle_alpha   89.91045182
_cell_angle_beta   90.00000000
_cell_angle_gamma   90.00000000
_symmetry_Int_Tables_number   1
_chemical_formula_structural   Zn6ReSbN8
_chemical_formula_sum   'Zn6 Re1 Sb1 N8'
_cell_volume   206.58712435
_cell_formula_units_Z   1
loop_
 _symmetry_equiv_pos_site_id
 _symmetry_equiv_pos_as_xyz
  1  'x, y, z'
loop_
 _atom_site_type_symbol
 _atom_site_label
 _atom_site_symmetry_multiplicity
 _atom_site_fract_x
 _atom_site_fract_y
 _atom_site_fract_z
 _atom_site_occupancy
  Zn  Zn0  1  0.246707  0.831264  0.736214  1
  Zn  Zn1  1  0.245043  0.164351  0.225941  1
  Zn  Zn2  1  0.753293  0.831264  0.736214  1
  Zn  Zn3  1  0.754957  0.164351  0.225941  1
  Zn  Zn4  1  0.000000  0.343002  0.735540  1
  Zn  Zn5  1  0.500000  0.674538  0.227312  1
  Re  Re6  1  0.500000  0.328752  0.726421  1
  Sb  Sb7  1  0.000000  0.668727  0.230597  1
  N  N8  1  0.750070  0.833239  0.109657  1
  N  N9  1  0.728744  0.177767  0.612592  1
  N  N10  1  0.249930  0.833239  0.109657  1
  N  N11  1  0.271256  0.177767  0.612592  1
  N  N12  1  0.000000  0.336773  0.109598  1
  N  N13  1  0.500000  0.632316  0.613858  1
  N  N14  1  0.000000  0.673460  0.601665  1
  N  N15  1  0.500000  0.329188  0.064716  1
