# generated using pymatgen
data_PrNd4(TcB3)2
_symmetry_space_group_name_H-M   'P 1'
_cell_length_a   8.81491720
_cell_length_b   8.81491723
_cell_length_c   8.81491913
_cell_angle_alpha   37.19476603
_cell_angle_beta   37.19476434
_cell_angle_gamma   37.19475637
_symmetry_Int_Tables_number   1
_chemical_formula_structural   PrNd4(TcB3)2
_chemical_formula_sum   'Pr1 Nd4 Tc2 B6'
_cell_volume   224.36386543
_cell_formula_units_Z   1
loop_
 _symmetry_equiv_pos_site_id
 _symmetry_equiv_pos_as_xyz
  1  'x, y, z'
loop_
 _atom_site_type_symbol
 _atom_site_label
 _atom_site_symmetry_multiplicity
 _atom_site_fract_x
 _atom_site_fract_y
 _atom_site_fract_z
 _atom_site_occupancy
  Pr  Pr0  1  0.000000  0.000000  0.000000  1
  Nd  Nd1  1  0.581587  0.581587  0.581587  1
  Nd  Nd2  1  0.418413  0.418413  0.418413  1
  Nd  Nd3  1  0.751180  0.751180  0.751180  1
  Nd  Nd4  1  0.248820  0.248820  0.248820  1
  Tc  Tc5  1  0.885523  0.885523  0.885523  1
  Tc  Tc6  1  0.114477  0.114477  0.114477  1
  B  B7  1  0.500000  0.831382  0.168618  1
  B  B8  1  0.168618  0.500000  0.831382  1
  B  B9  1  0.831382  0.168618  0.500000  1
  B  B10  1  0.500000  0.168618  0.831382  1
  B  B11  1  0.831382  0.500000  0.168618  1
  B  B12  1  0.168618  0.831382  0.500000  1
