# generated using pymatgen
data_Yb2PPd6
_symmetry_space_group_name_H-M   'P 1'
_cell_length_a   6.05390020
_cell_length_b   6.05390078
_cell_length_c   6.05390100
_cell_angle_alpha   60.00001516
_cell_angle_beta   60.00001202
_cell_angle_gamma   60.00000800
_symmetry_Int_Tables_number   1
_chemical_formula_structural   Yb2PPd6
_chemical_formula_sum   'Yb2 P1 Pd6'
_cell_volume   156.88845565
_cell_formula_units_Z   1
loop_
 _symmetry_equiv_pos_site_id
 _symmetry_equiv_pos_as_xyz
  1  'x, y, z'
loop_
 _atom_site_type_symbol
 _atom_site_label
 _atom_site_symmetry_multiplicity
 _atom_site_fract_x
 _atom_site_fract_y
 _atom_site_fract_z
 _atom_site_occupancy
  Yb  Yb0  1  0.250001  0.250001  0.250001  1
  Yb  Yb1  1  0.750000  0.750000  0.750000  1
  P  P2  1  0.500000  0.500000  0.500000  1
  Pd  Pd3  1  0.233020  0.766980  0.233020  1
  Pd  Pd4  1  0.766980  0.233020  0.233020  1
  Pd  Pd5  1  0.766980  0.766980  0.233020  1
  Pd  Pd6  1  0.233020  0.233020  0.766980  1
  Pd  Pd7  1  0.766980  0.233020  0.766980  1
  Pd  Pd8  1  0.233020  0.766980  0.766980  1
