# generated using pymatgen
data_SmDy7TiPd24
_symmetry_space_group_name_H-M   'P 1'
_cell_length_a   8.37090146
_cell_length_b   8.37090092
_cell_length_c   8.37090100
_cell_angle_alpha   90.01898702
_cell_angle_beta   89.98101298
_cell_angle_gamma   89.98101242
_symmetry_Int_Tables_number   1
_chemical_formula_structural   SmDy7TiPd24
_chemical_formula_sum   'Sm1 Dy7 Ti1 Pd24'
_cell_volume   586.56556711
_cell_formula_units_Z   1
loop_
 _symmetry_equiv_pos_site_id
 _symmetry_equiv_pos_as_xyz
  1  'x, y, z'
loop_
 _atom_site_type_symbol
 _atom_site_label
 _atom_site_symmetry_multiplicity
 _atom_site_fract_x
 _atom_site_fract_y
 _atom_site_fract_z
 _atom_site_occupancy
  Sm  Sm0  1  0.747081  0.252919  0.252919  1
  Dy  Dy1  1  0.252960  0.252970  0.252970  1
  Dy  Dy2  1  0.746994  0.747013  0.747013  1
  Dy  Dy3  1  0.747030  0.747040  0.252970  1
  Dy  Dy4  1  0.747030  0.252970  0.747040  1
  Dy  Dy5  1  0.252987  0.253006  0.747013  1
  Dy  Dy6  1  0.252987  0.747013  0.253006  1
  Dy  Dy7  1  0.253023  0.746977  0.746977  1
  Ti  Ti8  1  0.000385  0.999615  0.999615  1
  Pd  Pd9  1  0.261901  0.500243  0.999895  1
  Pd  Pd10  1  0.738078  0.501065  0.998543  1
  Pd  Pd11  1  0.001457  0.261922  0.501065  1
  Pd  Pd12  1  0.498935  0.261922  0.998543  1
  Pd  Pd13  1  0.000105  0.738099  0.500243  1
  Pd  Pd14  1  0.499757  0.738099  0.999895  1
  Pd  Pd15  1  0.498935  0.998543  0.261922  1
  Pd  Pd16  1  0.261901  0.999895  0.500243  1
  Pd  Pd17  1  0.499757  0.999895  0.738099  1
  Pd  Pd18  1  0.738078  0.998543  0.501065  1
  Pd  Pd19  1  0.001457  0.501065  0.261922  1
  Pd  Pd20  1  0.000105  0.500243  0.738099  1
  Pd  Pd21  1  0.253542  0.500151  0.500151  1
  Pd  Pd22  1  0.746462  0.501384  0.501384  1
  Pd  Pd23  1  0.498616  0.253538  0.501384  1
  Pd  Pd24  1  0.499849  0.746458  0.500151  1
  Pd  Pd25  1  0.498616  0.501384  0.253538  1
  Pd  Pd26  1  0.499849  0.500151  0.746458  1
  Pd  Pd27  1  0.295471  0.999977  0.999977  1
  Pd  Pd28  1  0.704281  0.998835  0.998835  1
  Pd  Pd29  1  0.001165  0.295719  0.998835  1
  Pd  Pd30  1  0.000023  0.704529  0.999977  1
  Pd  Pd31  1  0.001165  0.998835  0.295719  1
  Pd  Pd32  1  0.000023  0.999977  0.704529  1
