# generated using pymatgen
data_Hf4Be4AlIn
_symmetry_space_group_name_H-M   'P 1'
_cell_length_a   6.38409400
_cell_length_b   6.38409400
_cell_length_c   7.91212700
_cell_angle_alpha   90.00000000
_cell_angle_beta   90.00000000
_cell_angle_gamma   90.00000000
_symmetry_Int_Tables_number   1
_chemical_formula_structural   Hf4Be4AlIn
_chemical_formula_sum   'Hf8 Be8 Al2 In2'
_cell_volume   322.47183996
_cell_formula_units_Z   2
loop_
 _symmetry_equiv_pos_site_id
 _symmetry_equiv_pos_as_xyz
  1  'x, y, z'
loop_
 _atom_site_type_symbol
 _atom_site_label
 _atom_site_symmetry_multiplicity
 _atom_site_fract_x
 _atom_site_fract_y
 _atom_site_fract_z
 _atom_site_occupancy
  Hf  Hf0  1  0.174481  0.162914  0.000000  1
  Hf  Hf1  1  0.825519  0.837086  0.000000  1
  Hf  Hf2  1  0.662914  0.325519  0.500000  1
  Hf  Hf3  1  0.337086  0.674481  0.500000  1
  Hf  Hf4  1  0.662761  0.325593  0.000000  1
  Hf  Hf5  1  0.337239  0.674407  0.000000  1
  Hf  Hf6  1  0.825593  0.837239  0.500000  1
  Hf  Hf7  1  0.174407  0.162761  0.500000  1
  Be  Be8  1  0.383214  0.375787  0.250061  1
  Be  Be9  1  0.616786  0.624213  0.749939  1
  Be  Be10  1  0.616786  0.624213  0.250061  1
  Be  Be11  1  0.875787  0.116786  0.750061  1
  Be  Be12  1  0.875787  0.116786  0.249939  1
  Be  Be13  1  0.383214  0.375787  0.749939  1
  Be  Be14  1  0.124213  0.883214  0.249939  1
  Be  Be15  1  0.124213  0.883214  0.750061  1
  Al  Al16  1  0.500000  0.000000  0.250000  1
  Al  Al17  1  0.500000  0.000000  0.750000  1
  In  In18  1  0.000000  0.500000  0.250000  1
  In  In19  1  0.000000  0.500000  0.750000  1
