# generated using pymatgen
data_NaLa(TbB12)2
_symmetry_space_group_name_H-M   'P 1'
_cell_length_a   7.13190737
_cell_length_b   7.13190752
_cell_length_c   5.85899100
_cell_angle_alpha   90.00000000
_cell_angle_beta   90.00000000
_cell_angle_gamma   109.27135803
_symmetry_Int_Tables_number   1
_chemical_formula_structural   NaLa(TbB12)2
_chemical_formula_sum   'Na1 La1 Tb2 B24'
_cell_volume   281.31352033
_cell_formula_units_Z   1
loop_
 _symmetry_equiv_pos_site_id
 _symmetry_equiv_pos_as_xyz
  1  'x, y, z'
loop_
 _atom_site_type_symbol
 _atom_site_label
 _atom_site_symmetry_multiplicity
 _atom_site_fract_x
 _atom_site_fract_y
 _atom_site_fract_z
 _atom_site_occupancy
  Na  Na0  1  0.748763  0.251237  0.500000  1
  La  La1  1  0.998304  0.001696  0.000000  1
  Tb  Tb2  1  0.500753  0.499247  0.000000  1
  Tb  Tb3  1  0.252337  0.747663  0.500000  1
  B  B4  1  0.175915  0.326789  0.648834  1
  B  B5  1  0.925226  0.575218  0.149861  1
  B  B6  1  0.673211  0.824085  0.648834  1
  B  B7  1  0.424782  0.074774  0.149861  1
  B  B8  1  0.175915  0.326789  0.351166  1
  B  B9  1  0.925226  0.575218  0.850139  1
  B  B10  1  0.673211  0.824085  0.351166  1
  B  B11  1  0.424782  0.074774  0.850139  1
  B  B12  1  0.401719  0.399252  0.500000  1
  B  B13  1  0.150238  0.650663  0.000000  1
  B  B14  1  0.898256  0.900344  0.500000  1
  B  B15  1  0.649239  0.149177  0.000000  1
  B  B16  1  0.326119  0.175214  0.648852  1
  B  B17  1  0.076330  0.426456  0.149947  1
  B  B18  1  0.824786  0.673881  0.648852  1
  B  B19  1  0.573544  0.923670  0.149947  1
  B  B20  1  0.099656  0.101744  0.500000  1
  B  B21  1  0.850823  0.350761  0.000000  1
  B  B22  1  0.600748  0.598281  0.500000  1
  B  B23  1  0.349337  0.849762  0.000000  1
  B  B24  1  0.326119  0.175214  0.351148  1
  B  B25  1  0.076330  0.426456  0.850053  1
  B  B26  1  0.824786  0.673881  0.351148  1
  B  B27  1  0.573544  0.923670  0.850053  1
