# generated using pymatgen
data_Ho9Mg(Co2Ag)2
_symmetry_space_group_name_H-M   'P 1'
_cell_length_a   8.45726777
_cell_length_b   8.45726855
_cell_length_c   8.45726771
_cell_angle_alpha   127.80541076
_cell_angle_beta   127.80542687
_cell_angle_gamma   76.94045477
_symmetry_Int_Tables_number   1
_chemical_formula_structural   Ho9Mg(Co2Ag)2
_chemical_formula_sum   'Ho9 Mg1 Co4 Ag2'
_cell_volume   366.58565745
_cell_formula_units_Z   1
loop_
 _symmetry_equiv_pos_site_id
 _symmetry_equiv_pos_as_xyz
  1  'x, y, z'
loop_
 _atom_site_type_symbol
 _atom_site_label
 _atom_site_symmetry_multiplicity
 _atom_site_fract_x
 _atom_site_fract_y
 _atom_site_fract_z
 _atom_site_occupancy
  Ho  Ho0  1  0.714981  0.542564  0.518238  1
  Ho  Ho1  1  0.457436  0.975674  0.172417  1
  Ho  Ho2  1  0.803257  0.285019  0.827583  1
  Ho  Ho3  1  0.542564  0.024326  0.827583  1
  Ho  Ho4  1  0.024326  0.196743  0.481762  1
  Ho  Ho5  1  0.285019  0.457436  0.481762  1
  Ho  Ho6  1  0.196743  0.714981  0.172417  1
  Ho  Ho7  1  0.975674  0.803257  0.518238  1
  Ho  Ho8  1  0.500000  0.500000  0.000000  1
  Mg  Mg9  1  0.000000  0.000000  0.000000  1
  Co  Co10  1  0.136443  0.628365  0.764807  1
  Co  Co11  1  0.863557  0.371635  0.235193  1
  Co  Co12  1  0.628365  0.863557  0.491922  1
  Co  Co13  1  0.371635  0.136443  0.508078  1
  Ag  Ag14  1  0.254721  0.254721  0.000000  1
  Ag  Ag15  1  0.745279  0.745279  0.000000  1
