# generated using pymatgen
data_LaSm4(PtO6)2
_symmetry_space_group_name_H-M   'P 1'
_cell_length_a   7.08631012
_cell_length_b   7.08630968
_cell_length_c   7.47034400
_cell_angle_alpha   74.64967495
_cell_angle_beta   74.64967592
_cell_angle_gamma   50.91539024
_symmetry_Int_Tables_number   1
_chemical_formula_structural   LaSm4(PtO6)2
_chemical_formula_sum   'La1 Sm4 Pt2 O12'
_cell_volume   278.38521547
_cell_formula_units_Z   1
loop_
 _symmetry_equiv_pos_site_id
 _symmetry_equiv_pos_as_xyz
  1  'x, y, z'
loop_
 _atom_site_type_symbol
 _atom_site_label
 _atom_site_symmetry_multiplicity
 _atom_site_fract_x
 _atom_site_fract_y
 _atom_site_fract_z
 _atom_site_occupancy
  La  La0  1  0.000000  0.000000  0.500000  1
  Sm  Sm1  1  0.301318  0.301318  0.359088  1
  Sm  Sm2  1  0.698682  0.698682  0.640912  1
  Sm  Sm3  1  0.696887  0.696887  0.163237  1
  Sm  Sm4  1  0.303113  0.303113  0.836763  1
  Pt  Pt5  1  0.751696  0.248304  0.000000  1
  Pt  Pt6  1  0.248304  0.751696  0.000000  1
  O  O7  1  0.095696  0.592951  0.577256  1
  O  O8  1  0.999451  0.999451  0.174429  1
  O  O9  1  0.407049  0.904304  0.422744  1
  O  O10  1  0.500319  0.500319  0.181026  1
  O  O11  1  0.099865  0.570894  0.081871  1
  O  O12  1  0.904304  0.407049  0.422744  1
  O  O13  1  0.000549  0.000549  0.825571  1
  O  O14  1  0.592951  0.095695  0.577256  1
  O  O15  1  0.499681  0.499681  0.818974  1
  O  O16  1  0.570894  0.099865  0.081871  1
  O  O17  1  0.429106  0.900135  0.918129  1
  O  O18  1  0.900135  0.429106  0.918129  1
