# generated using pymatgen
data_Nb13Co8Mo(OsC2)2
_symmetry_space_group_name_H-M   'P 1'
_cell_length_a   8.19284499
_cell_length_b   8.13471784
_cell_length_c   8.19284529
_cell_angle_alpha   60.07739842
_cell_angle_beta   60.27011839
_cell_angle_gamma   60.07740061
_symmetry_Int_Tables_number   1
_chemical_formula_structural   Nb13Co8Mo(OsC2)2
_chemical_formula_sum   'Nb13 Co8 Mo1 Os2 C4'
_cell_volume   387.33335386
_cell_formula_units_Z   1
loop_
 _symmetry_equiv_pos_site_id
 _symmetry_equiv_pos_as_xyz
  1  'x, y, z'
loop_
 _atom_site_type_symbol
 _atom_site_label
 _atom_site_symmetry_multiplicity
 _atom_site_fract_x
 _atom_site_fract_y
 _atom_site_fract_z
 _atom_site_occupancy
  Nb  Nb0  1  0.625000  0.125000  0.625000  1
  Nb  Nb1  1  0.807297  0.806165  0.190859  1
  Nb  Nb2  1  0.187089  0.194828  0.809402  1
  Nb  Nb3  1  0.812306  0.189311  0.812306  1
  Nb  Nb4  1  0.196430  0.803308  0.196430  1
  Nb  Nb5  1  0.190859  0.806165  0.807297  1
  Nb  Nb6  1  0.809402  0.194828  0.187089  1
  Nb  Nb7  1  0.442703  0.443835  0.059141  1
  Nb  Nb8  1  0.062911  0.055172  0.440598  1
  Nb  Nb9  1  0.437694  0.060689  0.437694  1
  Nb  Nb10  1  0.053570  0.446692  0.053570  1
  Nb  Nb11  1  0.059141  0.443835  0.442703  1
  Nb  Nb12  1  0.440598  0.055172  0.062911  1
  Co  Co13  1  0.732880  0.425899  0.419880  1
  Co  Co14  1  0.424196  0.726995  0.424196  1
  Co  Co15  1  0.419880  0.425899  0.732880  1
  Co  Co16  1  0.421948  0.426564  0.421948  1
  Co  Co17  1  0.517120  0.824101  0.830120  1
  Co  Co18  1  0.825804  0.523005  0.825804  1
  Co  Co19  1  0.830120  0.824101  0.517120  1
  Co  Co20  1  0.828052  0.823436  0.828052  1
  Mo  Mo21  1  0.625000  0.625000  0.625000  1
  Os  Os22  1  0.125000  0.625000  0.625000  1
  Os  Os23  1  0.625000  0.625000  0.125000  1
  C  C24  1  0.625000  0.125000  0.125000  1
  C  C25  1  0.125000  0.625000  0.125000  1
  C  C26  1  0.125000  0.125000  0.625000  1
  C  C27  1  0.125000  0.125000  0.125000  1
