# generated using pymatgen
data_Li3Dy3ZnSi4
_symmetry_space_group_name_H-M   'P 1'
_cell_length_a   8.06643801
_cell_length_b   8.09038453
_cell_length_c   8.09038455
_cell_angle_alpha   149.52863413
_cell_angle_beta   131.48912657
_cell_angle_gamma   58.40238381
_symmetry_Int_Tables_number   1
_chemical_formula_structural   Li3Dy3ZnSi4
_chemical_formula_sum   'Li3 Dy3 Zn1 Si4'
_cell_volume   199.01941358
_cell_formula_units_Z   1
loop_
 _symmetry_equiv_pos_site_id
 _symmetry_equiv_pos_as_xyz
  1  'x, y, z'
loop_
 _atom_site_type_symbol
 _atom_site_label
 _atom_site_symmetry_multiplicity
 _atom_site_fract_x
 _atom_site_fract_y
 _atom_site_fract_z
 _atom_site_occupancy
  Li  Li0  1  0.518885  0.829509  0.689377  1
  Li  Li1  1  0.861318  0.170476  0.690842  1
  Li  Li2  1  0.139089  0.827744  0.311345  1
  Dy  Dy3  1  0.869379  0.373292  0.496085  1
  Dy  Dy4  1  0.125359  0.628526  0.496833  1
  Dy  Dy5  1  0.501723  0.500240  0.001483  1
  Zn  Zn6  1  0.478945  0.171705  0.307240  1
  Si  Si7  1  0.820391  0.000263  0.820128  1
  Si  Si8  1  0.181891  0.000189  0.181703  1
  Si  Si9  1  0.288426  0.285165  0.003260  1
  Si  Si10  1  0.714594  0.712889  0.001705  1
