# generated using pymatgen
data_Ce2SmMg3Ir2Pd
_symmetry_space_group_name_H-M   'P 1'
_cell_length_a   7.55634972
_cell_length_b   7.35506193
_cell_length_c   4.00464600
_cell_angle_alpha   90.00000000
_cell_angle_beta   90.00000000
_cell_angle_gamma   119.12265037
_symmetry_Int_Tables_number   1
_chemical_formula_structural   Ce2SmMg3Ir2Pd
_chemical_formula_sum   'Ce2 Sm1 Mg3 Ir2 Pd1'
_cell_volume   194.43083669
_cell_formula_units_Z   1
loop_
 _symmetry_equiv_pos_site_id
 _symmetry_equiv_pos_as_xyz
  1  'x, y, z'
loop_
 _atom_site_type_symbol
 _atom_site_label
 _atom_site_symmetry_multiplicity
 _atom_site_fract_x
 _atom_site_fract_y
 _atom_site_fract_z
 _atom_site_occupancy
  Ce  Ce0  1  0.575097  0.002082  0.500000  1
  Ce  Ce1  1  0.424903  0.426985  0.500000  1
  Sm  Sm2  1  0.000000  0.582971  0.500000  1
  Mg  Mg3  1  0.760667  0.758657  0.000000  1
  Mg  Mg4  1  0.239333  0.997990  0.000000  1
  Mg  Mg5  1  0.000000  0.248663  0.000000  1
  Ir  Ir6  1  0.648421  0.315948  0.000000  1
  Ir  Ir7  1  0.351579  0.667527  0.000000  1
  Pd  Pd8  1  0.000000  0.999179  0.500000  1
