# generated using pymatgen
data_Y2Hf(NbFe6)3
_symmetry_space_group_name_H-M   'P 1'
_cell_length_a   4.93026800
_cell_length_b   4.93026821
_cell_length_c   15.74869200
_cell_angle_alpha   90.00000000
_cell_angle_beta   90.00000000
_cell_angle_gamma   120.00001201
_symmetry_Int_Tables_number   1
_chemical_formula_structural   Y2Hf(NbFe6)3
_chemical_formula_sum   'Y2 Hf1 Nb3 Fe18'
_cell_volume   331.52489163
_cell_formula_units_Z   1
loop_
 _symmetry_equiv_pos_site_id
 _symmetry_equiv_pos_as_xyz
  1  'x, y, z'
loop_
 _atom_site_type_symbol
 _atom_site_label
 _atom_site_symmetry_multiplicity
 _atom_site_fract_x
 _atom_site_fract_y
 _atom_site_fract_z
 _atom_site_occupancy
  Y  Y0  1  0.333333  0.666667  0.750970  1
  Y  Y1  1  0.666667  0.333333  0.248905  1
  Hf  Hf2  1  0.333333  0.666667  0.534797  1
  Nb  Nb3  1  0.333333  0.666667  0.966220  1
  Nb  Nb4  1  0.666667  0.333333  0.033957  1
  Nb  Nb5  1  0.666667  0.333333  0.464064  1
  Fe  Fe6  1  0.168046  0.831954  0.377803  1
  Fe  Fe7  1  0.168046  0.336092  0.377803  1
  Fe  Fe8  1  0.663908  0.831954  0.377803  1
  Fe  Fe9  1  0.831831  0.168169  0.622204  1
  Fe  Fe10  1  0.831831  0.663661  0.622204  1
  Fe  Fe11  1  0.336339  0.168169  0.622204  1
  Fe  Fe12  1  0.831963  0.168037  0.879762  1
  Fe  Fe13  1  0.831963  0.663926  0.879762  1
  Fe  Fe14  1  0.336074  0.168037  0.879762  1
  Fe  Fe15  1  0.168061  0.831939  0.120507  1
  Fe  Fe16  1  0.168061  0.336123  0.120507  1
  Fe  Fe17  1  0.663877  0.831939  0.120507  1
  Fe  Fe18  1  0.333333  0.666667  0.249059  1
  Fe  Fe19  1  0.666667  0.333333  0.751110  1
  Fe  Fe20  1  0.000000  0.000000  0.248930  1
  Fe  Fe21  1  0.000000  0.000000  0.751407  1
  Fe  Fe22  1  0.000000  0.000000  0.499747  1
  Fe  Fe23  1  0.000000  0.000000  0.000008  1
