# generated using pymatgen
data_Tm8Zr12Si15Rh
_symmetry_space_group_name_H-M   'P 1'
_cell_length_a   7.11363778
_cell_length_b   7.27661789
_cell_length_c   13.88614211
_cell_angle_alpha   89.82919137
_cell_angle_beta   89.82472168
_cell_angle_gamma   90.14356113
_symmetry_Int_Tables_number   1
_chemical_formula_structural   Tm8Zr12Si15Rh
_chemical_formula_sum   'Tm8 Zr12 Si15 Rh1'
_cell_volume   718.78265378
_cell_formula_units_Z   1
loop_
 _symmetry_equiv_pos_site_id
 _symmetry_equiv_pos_as_xyz
  1  'x, y, z'
loop_
 _atom_site_type_symbol
 _atom_site_label
 _atom_site_symmetry_multiplicity
 _atom_site_fract_x
 _atom_site_fract_y
 _atom_site_fract_z
 _atom_site_occupancy
  Tm  Tm0  1  0.014644  0.175759  0.096802  1
  Tm  Tm1  1  0.987118  0.824785  0.903279  1
  Tm  Tm2  1  0.487417  0.677495  0.902981  1
  Tm  Tm3  1  0.985268  0.824526  0.596946  1
  Tm  Tm4  1  0.513094  0.323012  0.096205  1
  Tm  Tm5  1  0.010849  0.178400  0.402101  1
  Tm  Tm6  1  0.512161  0.323435  0.401621  1
  Tm  Tm7  1  0.486485  0.673430  0.597413  1
  Zr  Zr8  1  0.161635  0.503654  0.748567  1
  Zr  Zr9  1  0.842158  0.500108  0.249474  1
  Zr  Zr10  1  0.342928  0.999187  0.250141  1
  Zr  Zr11  1  0.656478  0.001609  0.748826  1
  Zr  Zr12  1  0.332701  0.182581  0.622647  1
  Zr  Zr13  1  0.668381  0.823591  0.374856  1
  Zr  Zr14  1  0.171636  0.667579  0.379400  1
  Zr  Zr15  1  0.671728  0.822040  0.124773  1
  Zr  Zr16  1  0.833308  0.323600  0.623871  1
  Zr  Zr17  1  0.328764  0.175472  0.875215  1
  Zr  Zr18  1  0.831478  0.321313  0.875966  1
  Zr  Zr19  1  0.169571  0.677858  0.124444  1
  Si  Si20  1  0.034390  0.115760  0.750695  1
  Si  Si21  1  0.967569  0.883931  0.250857  1
  Si  Si22  1  0.465791  0.614237  0.249629  1
  Si  Si23  1  0.537082  0.384477  0.752350  1
  Si  Si24  1  0.283774  0.873540  0.751143  1
  Si  Si25  1  0.716024  0.129013  0.248945  1
  Si  Si26  1  0.216814  0.369009  0.247828  1
  Si  Si27  1  0.784631  0.629342  0.753037  1
  Si  Si28  1  0.834563  0.534615  0.459119  1
  Si  Si29  1  0.343058  0.969105  0.458509  1
  Si  Si30  1  0.841503  0.531125  0.039946  1
  Si  Si31  1  0.656151  0.032033  0.539335  1
  Si  Si32  1  0.157636  0.467492  0.960371  1
  Si  Si33  1  0.657175  0.030670  0.960466  1
  Si  Si34  1  0.345353  0.968226  0.040676  1
  Rh  Rh35  1  0.150683  0.467990  0.541568  1
