# generated using pymatgen
data_KTm9Sc(C2I9)2
_symmetry_space_group_name_H-M   'P 1'
_cell_length_a   11.41842783
_cell_length_b   11.35836934
_cell_length_c   11.39319962
_cell_angle_alpha   113.52861659
_cell_angle_beta   86.12643951
_cell_angle_gamma   120.40008361
_symmetry_Int_Tables_number   1
_chemical_formula_structural   KTm9Sc(C2I9)2
_chemical_formula_sum   'K1 Tm9 Sc1 C4 I18'
_cell_volume   1151.50803311
_cell_formula_units_Z   1
loop_
 _symmetry_equiv_pos_site_id
 _symmetry_equiv_pos_as_xyz
  1  'x, y, z'
loop_
 _atom_site_type_symbol
 _atom_site_label
 _atom_site_symmetry_multiplicity
 _atom_site_fract_x
 _atom_site_fract_y
 _atom_site_fract_z
 _atom_site_occupancy
  K  K0  1  0.500504  0.999315  0.500075  1
  Tm  Tm1  1  0.277169  0.352826  0.014605  1
  Tm  Tm2  1  0.092096  0.385119  0.288084  1
  Tm  Tm3  1  0.962546  0.034435  0.322090  1
  Tm  Tm4  1  0.905351  0.613277  0.709945  1
  Tm  Tm5  1  0.101501  0.944438  0.999617  1
  Tm  Tm6  1  0.035595  0.964765  0.677132  1
  Tm  Tm7  1  0.314074  0.271584  0.283057  1
  Tm  Tm8  1  0.721483  0.646583  0.984357  1
  Tm  Tm9  1  0.897192  0.054281  0.999211  1
  Sc  Sc10  1  0.698170  0.734565  0.726029  1
  C  C11  1  0.150708  0.218157  0.117360  1
  C  C12  1  0.850519  0.782542  0.883232  1
  C  C13  1  0.928158  0.860920  0.806181  1
  C  C14  1  0.072612  0.139342  0.194657  1
  I  I15  1  0.454998  0.532939  0.831311  1
  I  I16  1  0.380769  0.040869  0.155856  1
  I  I17  1  0.779782  0.857433  0.506243  1
  I  I18  1  0.840111  0.309463  0.153540  1
  I  I19  1  0.547791  0.469407  0.166745  1
  I  I20  1  0.219433  0.141642  0.495190  1
  I  I21  1  0.315828  0.096913  0.826292  1
  I  I22  1  0.682674  0.902076  0.173088  1
  I  I23  1  0.969240  0.751473  0.166696  1
  I  I24  1  0.931377  0.294918  0.499181  1
  I  I25  1  0.030101  0.248332  0.832108  1
  I  I26  1  0.066855  0.704785  0.500269  1
  I  I27  1  0.264384  0.624479  0.185864  1
  I  I28  1  0.734813  0.374736  0.813329  1
  I  I29  1  0.645702  0.451323  0.512038  1
  I  I30  1  0.157337  0.689333  0.844757  1
  I  I31  1  0.622473  0.949662  0.839118  1
  I  I32  1  0.348656  0.558070  0.492745  1
