# generated using pymatgen
data_Ti3Zn3IrRh5
_symmetry_space_group_name_H-M   'P 1'
_cell_length_a   4.34360500
_cell_length_b   6.07716000
_cell_length_c   13.00402800
_cell_angle_alpha   89.99998617
_cell_angle_beta   90.00070423
_cell_angle_gamma   89.99997738
_symmetry_Int_Tables_number   1
_chemical_formula_structural   Ti3Zn3IrRh5
_chemical_formula_sum   'Ti6 Zn6 Ir2 Rh10'
_cell_volume   343.26449953
_cell_formula_units_Z   2
loop_
 _symmetry_equiv_pos_site_id
 _symmetry_equiv_pos_as_xyz
  1  'x, y, z'
loop_
 _atom_site_type_symbol
 _atom_site_label
 _atom_site_symmetry_multiplicity
 _atom_site_fract_x
 _atom_site_fract_y
 _atom_site_fract_z
 _atom_site_occupancy
  Ti  Ti0  1  0.000000  0.000000  0.000000  1
  Ti  Ti1  1  0.499836  0.500000  0.166998  1
  Ti  Ti2  1  0.999839  0.000000  0.333321  1
  Ti  Ti3  1  0.500000  0.500000  0.500000  1
  Ti  Ti4  1  0.000161  0.000000  0.666680  1
  Ti  Ti5  1  0.500164  0.500000  0.833002  1
  Zn  Zn6  1  0.000000  0.500000  0.000000  1
  Zn  Zn7  1  0.499842  0.000000  0.167541  1
  Zn  Zn8  1  0.999845  0.500000  0.333563  1
  Zn  Zn9  1  0.500000  0.000000  0.500000  1
  Zn  Zn10  1  0.000155  0.500000  0.666438  1
  Zn  Zn11  1  0.500158  0.000000  0.832458  1
  Ir  Ir12  1  0.500001  0.250641  0.000000  1
  Ir  Ir13  1  0.499999  0.749359  0.000000  1
  Rh  Rh14  1  0.999846  0.249983  0.166974  1
  Rh  Rh15  1  0.999846  0.750016  0.166974  1
  Rh  Rh16  1  0.499853  0.249979  0.333760  1
  Rh  Rh17  1  0.499854  0.750018  0.333760  1
  Rh  Rh18  1  0.999998  0.249681  0.500001  1
  Rh  Rh19  1  0.000002  0.750320  0.499999  1
  Rh  Rh20  1  0.500146  0.249981  0.666241  1
  Rh  Rh21  1  0.500147  0.750020  0.666241  1
  Rh  Rh22  1  0.000154  0.249985  0.833025  1
  Rh  Rh23  1  0.000154  0.750018  0.833025  1
