# generated using pymatgen
data_YbPr3(Ga8Pt3)3
_symmetry_space_group_name_H-M   'P 1'
_cell_length_a   7.59944144
_cell_length_b   7.63107979
_cell_length_c   13.45420162
_cell_angle_alpha   84.68197829
_cell_angle_beta   79.41830479
_cell_angle_gamma   60.09958377
_symmetry_Int_Tables_number   1
_chemical_formula_structural   YbPr3(Ga8Pt3)3
_chemical_formula_sum   'Yb1 Pr3 Ga24 Pt9'
_cell_volume   664.87754493
_cell_formula_units_Z   1
loop_
 _symmetry_equiv_pos_site_id
 _symmetry_equiv_pos_as_xyz
  1  'x, y, z'
loop_
 _atom_site_type_symbol
 _atom_site_label
 _atom_site_symmetry_multiplicity
 _atom_site_fract_x
 _atom_site_fract_y
 _atom_site_fract_z
 _atom_site_occupancy
  Yb  Yb0  1  0.267375  0.500811  0.191657  1
  Pr  Pr1  1  0.394151  0.167668  0.811163  1
  Pr  Pr2  1  0.605657  0.832440  0.188956  1
  Pr  Pr3  1  0.731241  0.497469  0.811572  1
  Ga  Ga4  1  0.688350  0.833844  0.941029  1
  Ga  Ga5  1  0.310823  0.170559  0.061032  1
  Ga  Ga6  1  0.146518  0.832227  0.558524  1
  Ga  Ga7  1  0.853879  0.168183  0.440045  1
  Ga  Ga8  1  0.479043  0.166359  0.556040  1
  Ga  Ga9  1  0.521586  0.833377  0.443030  1
  Ga  Ga10  1  0.218929  0.167188  0.325785  1
  Ga  Ga11  1  0.781105  0.834683  0.672478  1
  Ga  Ga12  1  0.437809  0.504420  0.670974  1
  Ga  Ga13  1  0.561604  0.494919  0.327512  1
  Ga  Ga14  1  0.107628  0.162822  0.670665  1
  Ga  Ga15  1  0.894216  0.836317  0.328218  1
  Ga  Ga16  1  0.352357  0.500976  0.945432  1
  Ga  Ga17  1  0.641361  0.499719  0.059909  1
  Ga  Ga18  1  0.018375  0.167066  0.948255  1
  Ga  Ga19  1  0.985051  0.829771  0.053433  1
  Ga  Ga20  1  0.187275  0.497503  0.442276  1
  Ga  Ga21  1  0.813505  0.501029  0.556879  1
  Ga  Ga22  1  0.734467  0.166843  0.182345  1
  Ga  Ga23  1  0.264677  0.833709  0.817348  1
  Ga  Ga24  1  0.061969  0.632452  0.816728  1
  Ga  Ga25  1  0.939886  0.367793  0.182895  1
  Ga  Ga26  1  0.859964  0.037574  0.816235  1
  Ga  Ga27  1  0.140780  0.960272  0.183299  1
  Pt  Pt28  1  0.118307  0.497843  0.636942  1
  Pt  Pt29  1  0.883082  0.502839  0.361625  1
  Pt  Pt30  1  0.660396  0.169070  0.999611  1
  Pt  Pt31  1  0.340029  0.831780  0.000814  1
  Pt  Pt32  1  0.541031  0.167765  0.360846  1
  Pt  Pt33  1  0.458126  0.833488  0.637796  1
  Pt  Pt34  1  0.781668  0.170436  0.635403  1
  Pt  Pt35  1  0.219068  0.828138  0.363142  1
  Pt  Pt36  1  0.998712  0.500648  0.000112  1
