# generated using pymatgen
data_CaSmEr2(B6Ru)2
_symmetry_space_group_name_H-M   'P 1'
_cell_length_a   3.66137500
_cell_length_b   9.15798817
_cell_length_c   11.57575407
_cell_angle_alpha   89.82036986
_cell_angle_beta   90.00000000
_cell_angle_gamma   90.00000000
_symmetry_Int_Tables_number   1
_chemical_formula_structural   CaSmEr2(B6Ru)2
_chemical_formula_sum   'Ca2 Sm2 Er4 B24 Ru4'
_cell_volume   388.14272174
_cell_formula_units_Z   2
loop_
 _symmetry_equiv_pos_site_id
 _symmetry_equiv_pos_as_xyz
  1  'x, y, z'
loop_
 _atom_site_type_symbol
 _atom_site_label
 _atom_site_symmetry_multiplicity
 _atom_site_fract_x
 _atom_site_fract_y
 _atom_site_fract_z
 _atom_site_occupancy
  Ca  Ca0  1  0.000000  0.324039  0.415483  1
  Ca  Ca1  1  0.000000  0.675961  0.584517  1
  Sm  Sm2  1  0.000000  0.822299  0.086162  1
  Sm  Sm3  1  0.000000  0.177701  0.913838  1
  Er  Er4  1  0.000000  0.941872  0.370141  1
  Er  Er5  1  0.000000  0.058128  0.629859  1
  Er  Er6  1  0.000000  0.442649  0.131713  1
  Er  Er7  1  0.000000  0.557351  0.868287  1
  B  B8  1  0.500000  0.554428  0.432109  1
  B  B9  1  0.500000  0.445572  0.567891  1
  B  B10  1  0.500000  0.055105  0.068510  1
  B  B11  1  0.500000  0.944895  0.931490  1
  B  B12  1  0.500000  0.748302  0.417367  1
  B  B13  1  0.500000  0.251698  0.582633  1
  B  B14  1  0.500000  0.249355  0.083048  1
  B  B15  1  0.500000  0.750645  0.916952  1
  B  B16  1  0.500000  0.790527  0.265702  1
  B  B17  1  0.500000  0.209473  0.734298  1
  B  B18  1  0.500000  0.290352  0.234920  1
  B  B19  1  0.500000  0.709648  0.765080  1
  B  B20  1  0.500000  0.630206  0.185898  1
  B  B21  1  0.500000  0.369794  0.814102  1
  B  B22  1  0.500000  0.130458  0.314549  1
  B  B23  1  0.500000  0.869542  0.685451  1
  B  B24  1  0.500000  0.984488  0.212810  1
  B  B25  1  0.500000  0.015512  0.787190  1
  B  B26  1  0.500000  0.483995  0.288281  1
  B  B27  1  0.500000  0.516005  0.711719  1
  B  B28  1  0.500000  0.600024  0.027394  1
  B  B29  1  0.500000  0.399976  0.972606  1
  B  B30  1  0.500000  0.098641  0.472894  1
  B  B31  1  0.500000  0.901359  0.527106  1
  Ru  Ru32  1  0.000000  0.640082  0.318424  1
  Ru  Ru33  1  0.000000  0.359918  0.681576  1
  Ru  Ru34  1  0.000000  0.138233  0.179636  1
  Ru  Ru35  1  0.000000  0.861767  0.820364  1
