# generated using pymatgen
data_Sc10Zn3Ru
_symmetry_space_group_name_H-M   'P 1'
_cell_length_a   8.76211600
_cell_length_b   8.76211805
_cell_length_c   8.95169500
_cell_angle_alpha   90.00007761
_cell_angle_beta   89.99974899
_cell_angle_gamma   119.99967724
_symmetry_Int_Tables_number   1
_chemical_formula_structural   Sc10Zn3Ru
_chemical_formula_sum   'Sc20 Zn6 Ru2'
_cell_volume   595.18971666
_cell_formula_units_Z   2
loop_
 _symmetry_equiv_pos_site_id
 _symmetry_equiv_pos_as_xyz
  1  'x, y, z'
loop_
 _atom_site_type_symbol
 _atom_site_label
 _atom_site_symmetry_multiplicity
 _atom_site_fract_x
 _atom_site_fract_y
 _atom_site_fract_z
 _atom_site_occupancy
  Sc  Sc0  1  0.000001  0.999999  0.500024  1
  Sc  Sc1  1  0.000000  0.000000  0.999981  1
  Sc  Sc2  1  0.206927  0.793075  0.443753  1
  Sc  Sc3  1  0.206929  0.413854  0.443752  1
  Sc  Sc4  1  0.586144  0.793073  0.443753  1
  Sc  Sc5  1  0.793042  0.206958  0.556361  1
  Sc  Sc6  1  0.793042  0.586083  0.556362  1
  Sc  Sc7  1  0.413917  0.206960  0.556360  1
  Sc  Sc8  1  0.793045  0.206953  0.943647  1
  Sc  Sc9  1  0.793044  0.586088  0.943650  1
  Sc  Sc10  1  0.413914  0.206956  0.943648  1
  Sc  Sc11  1  0.206930  0.793076  0.056248  1
  Sc  Sc12  1  0.206928  0.413855  0.056248  1
  Sc  Sc13  1  0.586149  0.793076  0.056246  1
  Sc  Sc14  1  0.541425  0.458570  0.249999  1
  Sc  Sc15  1  0.541428  0.082854  0.249999  1
  Sc  Sc16  1  0.917144  0.458573  0.249996  1
  Sc  Sc17  1  0.458573  0.541425  0.749997  1
  Sc  Sc18  1  0.458571  0.917147  0.749997  1
  Sc  Sc19  1  0.082849  0.541426  0.749997  1
  Zn  Zn20  1  0.886206  0.113794  0.249989  1
  Zn  Zn21  1  0.886205  0.772412  0.249988  1
  Zn  Zn22  1  0.227588  0.113795  0.249989  1
  Zn  Zn23  1  0.113796  0.886204  0.750010  1
  Zn  Zn24  1  0.113796  0.227593  0.750010  1
  Zn  Zn25  1  0.772407  0.886203  0.750009  1
  Ru  Ru26  1  0.333335  0.666669  0.249992  1
  Ru  Ru27  1  0.666662  0.333330  0.749998  1
