# generated using pymatgen
data_Y7Ho3In8(PtRh)2
_symmetry_space_group_name_H-M   'P 1'
_cell_length_a   3.62359300
_cell_length_b   8.12835529
_cell_length_c   18.28255434
_cell_angle_alpha   90.16221663
_cell_angle_beta   90.00000000
_cell_angle_gamma   90.00000000
_symmetry_Int_Tables_number   1
_chemical_formula_structural   Y7Ho3In8(PtRh)2
_chemical_formula_sum   'Y7 Ho3 In8 Pt2 Rh2'
_cell_volume   538.48947921
_cell_formula_units_Z   1
loop_
 _symmetry_equiv_pos_site_id
 _symmetry_equiv_pos_as_xyz
  1  'x, y, z'
loop_
 _atom_site_type_symbol
 _atom_site_label
 _atom_site_symmetry_multiplicity
 _atom_site_fract_x
 _atom_site_fract_y
 _atom_site_fract_z
 _atom_site_occupancy
  Y  Y0  1  0.000000  0.115430  0.412874  1
  Y  Y1  1  0.000000  0.884244  0.587487  1
  Y  Y2  1  0.000000  0.382978  0.913999  1
  Y  Y3  1  0.000000  0.617568  0.085613  1
  Y  Y4  1  0.000000  0.237686  0.221056  1
  Y  Y5  1  0.000000  0.000011  0.999914  1
  Y  Y6  1  0.000000  0.500003  0.500080  1
  Ho  Ho7  1  0.000000  0.762006  0.778291  1
  Ho  Ho8  1  0.000000  0.249995  0.721010  1
  Ho  Ho9  1  0.000000  0.749809  0.279174  1
  In  In10  1  0.500000  0.423937  0.350948  1
  In  In11  1  0.500000  0.576065  0.648998  1
  In  In12  1  0.500000  0.072123  0.850032  1
  In  In13  1  0.500000  0.927112  0.149911  1
  In  In14  1  0.500000  0.292524  0.066741  1
  In  In15  1  0.500000  0.708001  0.932826  1
  In  In16  1  0.500000  0.206248  0.568855  1
  In  In17  1  0.500000  0.793272  0.431241  1
  Pt  Pt18  1  0.500000  0.479221  0.802050  1
  Pt  Pt19  1  0.500000  0.524851  0.197742  1
  Rh  Rh20  1  0.500000  0.017126  0.304525  1
  Rh  Rh21  1  0.500000  0.979788  0.696635  1
