# generated using pymatgen
data_HoMnGa6Fe5
_symmetry_space_group_name_H-M   'P 1'
_cell_length_a   5.02884550
_cell_length_b   6.58627328
_cell_length_c   6.58627245
_cell_angle_alpha   80.33196958
_cell_angle_beta   67.55681985
_cell_angle_gamma   67.55681202
_symmetry_Int_Tables_number   1
_chemical_formula_structural   HoMnGa6Fe5
_chemical_formula_sum   'Ho1 Mn1 Ga6 Fe5'
_cell_volume   186.28937257
_cell_formula_units_Z   1
loop_
 _symmetry_equiv_pos_site_id
 _symmetry_equiv_pos_as_xyz
  1  'x, y, z'
loop_
 _atom_site_type_symbol
 _atom_site_label
 _atom_site_symmetry_multiplicity
 _atom_site_fract_x
 _atom_site_fract_y
 _atom_site_fract_z
 _atom_site_occupancy
  Ho  Ho0  1  0.000000  0.999767  0.000233  1
  Mn  Mn1  1  0.500000  0.242213  0.757787  1
  Ga  Ga2  1  0.682516  0.817839  0.817129  1
  Ga  Ga3  1  0.317484  0.182871  0.182161  1
  Ga  Ga4  1  0.344060  0.655730  0.656150  1
  Ga  Ga5  1  0.655940  0.343850  0.344270  1
  Ga  Ga6  1  0.000000  0.668329  0.331671  1
  Ga  Ga7  1  0.000000  0.331251  0.668749  1
  Fe  Fe8  1  0.998718  0.501404  0.000873  1
  Fe  Fe9  1  0.499005  0.501404  0.000873  1
  Fe  Fe10  1  0.001282  0.999127  0.498596  1
  Fe  Fe11  1  0.500995  0.999127  0.498596  1
  Fe  Fe12  1  0.500000  0.757087  0.242913  1
