# generated using pymatgen
data_EuCr2(Sb6Ru)2
_symmetry_space_group_name_H-M   'P 1'
_cell_length_a   8.25956240
_cell_length_b   8.25956236
_cell_length_c   8.22929786
_cell_angle_alpha   109.31099967
_cell_angle_beta   109.40473965
_cell_angle_gamma   109.84606677
_symmetry_Int_Tables_number   1
_chemical_formula_structural   EuCr2(Sb6Ru)2
_chemical_formula_sum   'Eu1 Cr2 Sb12 Ru2'
_cell_volume   431.37035238
_cell_formula_units_Z   1
loop_
 _symmetry_equiv_pos_site_id
 _symmetry_equiv_pos_as_xyz
  1  'x, y, z'
loop_
 _atom_site_type_symbol
 _atom_site_label
 _atom_site_symmetry_multiplicity
 _atom_site_fract_x
 _atom_site_fract_y
 _atom_site_fract_z
 _atom_site_occupancy
  Eu  Eu0  1  0.000000  0.000000  0.000000  1
  Cr  Cr1  1  0.500000  0.500000  0.500000  1
  Cr  Cr2  1  0.000000  0.000000  0.500000  1
  Sb  Sb3  1  0.654982  0.846625  0.501607  1
  Sb  Sb4  1  0.345018  0.153375  0.498393  1
  Sb  Sb5  1  0.839720  0.185464  0.336895  1
  Sb  Sb6  1  0.814802  0.654225  0.150995  1
  Sb  Sb7  1  0.848569  0.502825  0.663105  1
  Sb  Sb8  1  0.185198  0.345775  0.849005  1
  Sb  Sb9  1  0.160280  0.814536  0.663105  1
  Sb  Sb10  1  0.503231  0.663807  0.849005  1
  Sb  Sb11  1  0.496769  0.336193  0.150995  1
  Sb  Sb12  1  0.151431  0.497175  0.336895  1
  Sb  Sb13  1  0.336491  0.842161  0.178652  1
  Sb  Sb14  1  0.663509  0.157839  0.821348  1
  Ru  Ru15  1  0.500000  0.000000  0.000000  1
  Ru  Ru16  1  0.000000  0.500000  0.000000  1
