# generated using pymatgen
data_Nd16MgHg3Os4
_symmetry_space_group_name_H-M   'P 1'
_cell_length_a   9.94908738
_cell_length_b   9.94918440
_cell_length_c   9.94916224
_cell_angle_alpha   60.01566961
_cell_angle_beta   60.01606409
_cell_angle_gamma   60.01563676
_symmetry_Int_Tables_number   1
_chemical_formula_structural   Nd16MgHg3Os4
_chemical_formula_sum   'Nd16 Mg1 Hg3 Os4'
_cell_volume   696.62278566
_cell_formula_units_Z   1
loop_
 _symmetry_equiv_pos_site_id
 _symmetry_equiv_pos_as_xyz
  1  'x, y, z'
loop_
 _atom_site_type_symbol
 _atom_site_label
 _atom_site_symmetry_multiplicity
 _atom_site_fract_x
 _atom_site_fract_y
 _atom_site_fract_z
 _atom_site_occupancy
  Nd  Nd0  1  0.654879  0.035849  0.654882  1
  Nd  Nd1  1  0.807091  0.192644  0.807087  1
  Nd  Nd2  1  0.192652  0.807088  0.807084  1
  Nd  Nd3  1  0.061061  0.439174  0.439182  1
  Nd  Nd4  1  0.058599  0.058595  0.440267  1
  Nd  Nd5  1  0.439177  0.061066  0.439162  1
  Nd  Nd6  1  0.808966  0.189016  0.189008  1
  Nd  Nd7  1  0.440273  0.058601  0.058596  1
  Nd  Nd8  1  0.189009  0.808953  0.189033  1
  Nd  Nd9  1  0.439175  0.439168  0.061067  1
  Nd  Nd10  1  0.807093  0.807086  0.192652  1
  Nd  Nd11  1  0.188983  0.189053  0.808959  1
  Nd  Nd12  1  0.035864  0.654873  0.654882  1
  Nd  Nd13  1  0.652282  0.652257  0.652274  1
  Nd  Nd14  1  0.058588  0.440276  0.058588  1
  Nd  Nd15  1  0.654879  0.654876  0.035857  1
  Mg  Mg16  1  0.431553  0.431549  0.431546  1
  Hg  Hg17  1  0.414395  0.414396  0.752007  1
  Hg  Hg18  1  0.752013  0.414392  0.414392  1
  Hg  Hg19  1  0.414394  0.752011  0.414393  1
  Os  Os20  1  0.861758  0.861755  0.861761  1
  Os  Os21  1  0.861644  0.414020  0.861649  1
  Os  Os22  1  0.861648  0.861649  0.414023  1
  Os  Os23  1  0.414025  0.861655  0.861652  1
