# generated using pymatgen
data_Pr10Al(GaRu2)3
_symmetry_space_group_name_H-M   'P 1'
_cell_length_a   8.60020104
_cell_length_b   8.63120456
_cell_length_c   8.60020099
_cell_angle_alpha   109.54426250
_cell_angle_beta   109.39807911
_cell_angle_gamma   109.54426480
_symmetry_Int_Tables_number   1
_chemical_formula_structural   Pr10Al(GaRu2)3
_chemical_formula_sum   'Pr10 Al1 Ga3 Ru6'
_cell_volume   490.99202019
_cell_formula_units_Z   1
loop_
 _symmetry_equiv_pos_site_id
 _symmetry_equiv_pos_as_xyz
  1  'x, y, z'
loop_
 _atom_site_type_symbol
 _atom_site_label
 _atom_site_symmetry_multiplicity
 _atom_site_fract_x
 _atom_site_fract_y
 _atom_site_fract_z
 _atom_site_occupancy
  Pr  Pr0  1  0.250162  0.684633  0.435064  1
  Pr  Pr1  1  0.749121  0.814460  0.063551  1
  Pr  Pr2  1  0.436450  0.250909  0.685571  1
  Pr  Pr3  1  0.684901  0.434472  0.249838  1
  Pr  Pr4  1  0.064937  0.749570  0.815099  1
  Pr  Pr5  1  0.814429  0.065339  0.750879  1
  Pr  Pr6  1  0.215690  0.216142  0.216349  1
  Pr  Pr7  1  0.500659  0.000451  0.284310  1
  Pr  Pr8  1  0.283651  0.499793  0.999341  1
  Pr  Pr9  1  0.000000  0.285589  0.500000  1
  Al  Al10  1  0.000000  0.909667  0.500000  1
  Ga  Ga11  1  0.589752  0.589485  0.589360  1
  Ga  Ga12  1  0.499607  0.999733  0.910248  1
  Ga  Ga13  1  0.910640  0.500126  0.000393  1
  Ru  Ru14  1  0.247993  0.118079  0.867269  1
  Ru  Ru15  1  0.749732  0.380231  0.630307  1
  Ru  Ru16  1  0.869693  0.249925  0.119424  1
  Ru  Ru17  1  0.119276  0.870088  0.252009  1
  Ru  Ru18  1  0.632731  0.750811  0.380722  1
  Ru  Ru19  1  0.380574  0.630500  0.750268  1
