# generated using pymatgen
data_Na3Ca(CdAu)4
_symmetry_space_group_name_H-M   'P 1'
_cell_length_a   4.49658600
_cell_length_b   7.39378817
_cell_length_c   8.69778920
_cell_angle_alpha   89.97556768
_cell_angle_beta   90.00000000
_cell_angle_gamma   90.00000000
_symmetry_Int_Tables_number   1
_chemical_formula_structural   Na3Ca(CdAu)4
_chemical_formula_sum   'Na3 Ca1 Cd4 Au4'
_cell_volume   289.17366956
_cell_formula_units_Z   1
loop_
 _symmetry_equiv_pos_site_id
 _symmetry_equiv_pos_as_xyz
  1  'x, y, z'
loop_
 _atom_site_type_symbol
 _atom_site_label
 _atom_site_symmetry_multiplicity
 _atom_site_fract_x
 _atom_site_fract_y
 _atom_site_fract_z
 _atom_site_occupancy
  Na  Na0  1  0.250000  0.035425  0.324204  1
  Na  Na1  1  0.750000  0.461862  0.819066  1
  Na  Na2  1  0.750000  0.965050  0.676880  1
  Ca  Ca3  1  0.250000  0.537237  0.178351  1
  Cd  Cd4  1  0.750000  0.861435  0.058311  1
  Cd  Cd5  1  0.250000  0.147019  0.937634  1
  Cd  Cd6  1  0.250000  0.650472  0.564310  1
  Cd  Cd7  1  0.750000  0.344468  0.443545  1
  Au  Au8  1  0.250000  0.257146  0.629076  1
  Au  Au9  1  0.250000  0.754139  0.875604  1
  Au  Au10  1  0.750000  0.734384  0.366066  1
  Au  Au11  1  0.750000  0.251362  0.126953  1
