# generated using pymatgen
data_Mn3Nb4FeOs4
_symmetry_space_group_name_H-M   'P 1'
_cell_length_a   4.95104115
_cell_length_b   4.96161679
_cell_length_c   8.26621700
_cell_angle_alpha   90.00000000
_cell_angle_beta   90.00000000
_cell_angle_gamma   119.40899196
_symmetry_Int_Tables_number   1
_chemical_formula_structural   Mn3Nb4FeOs4
_chemical_formula_sum   'Mn3 Nb4 Fe1 Os4'
_cell_volume   176.89391575
_cell_formula_units_Z   1
loop_
 _symmetry_equiv_pos_site_id
 _symmetry_equiv_pos_as_xyz
  1  'x, y, z'
loop_
 _atom_site_type_symbol
 _atom_site_label
 _atom_site_symmetry_multiplicity
 _atom_site_fract_x
 _atom_site_fract_y
 _atom_site_fract_z
 _atom_site_occupancy
  Mn  Mn0  1  0.648912  0.832742  0.750000  1
  Mn  Mn1  1  0.830376  0.653056  0.250000  1
  Mn  Mn2  1  0.179846  0.834001  0.750000  1
  Nb  Nb3  1  0.335131  0.668046  0.433233  1
  Nb  Nb4  1  0.669726  0.335462  0.934901  1
  Nb  Nb5  1  0.669726  0.335462  0.565099  1
  Nb  Nb6  1  0.335131  0.668046  0.066767  1
  Fe  Fe7  1  0.835014  0.177410  0.250000  1
  Os  Os8  1  0.176437  0.349657  0.750000  1
  Os  Os9  1  0.351058  0.177897  0.250000  1
  Os  Os10  1  0.984321  0.984110  0.000568  1
  Os  Os11  1  0.984321  0.984110  0.499432  1
