# generated using pymatgen
data_La3NdZn2As5
_symmetry_space_group_name_H-M   'P 1'
_cell_length_a   4.31807400
_cell_length_b   4.31807419
_cell_length_c   17.65303400
_cell_angle_alpha   90.00000000
_cell_angle_beta   90.00000000
_cell_angle_gamma   119.99999854
_symmetry_Int_Tables_number   1
_chemical_formula_structural   La3NdZn2As5
_chemical_formula_sum   'La3 Nd1 Zn2 As5'
_cell_volume   285.05599322
_cell_formula_units_Z   1
loop_
 _symmetry_equiv_pos_site_id
 _symmetry_equiv_pos_as_xyz
  1  'x, y, z'
loop_
 _atom_site_type_symbol
 _atom_site_label
 _atom_site_symmetry_multiplicity
 _atom_site_fract_x
 _atom_site_fract_y
 _atom_site_fract_z
 _atom_site_occupancy
  La  La0  1  0.333333  0.666667  0.098643  1
  La  La1  1  0.000000  0.000000  0.701848  1
  La  La2  1  0.000000  0.000000  0.299973  1
  Nd  Nd3  1  0.666667  0.333333  0.899195  1
  Zn  Zn4  1  0.666667  0.333333  0.444930  1
  Zn  Zn5  1  0.333333  0.666667  0.554959  1
  As  As6  1  0.666667  0.333333  0.591822  1
  As  As7  1  0.333333  0.666667  0.409211  1
  As  As8  1  0.666667  0.333333  0.202847  1
  As  As9  1  0.333333  0.666667  0.799038  1
  As  As10  1  0.000000  0.000000  0.997535  1
