# generated using pymatgen
data_Mg5Ta3(FeB6)4
_symmetry_space_group_name_H-M   'P 1'
_cell_length_a   8.76888050
_cell_length_b   10.99848263
_cell_length_c   3.25673400
_cell_angle_alpha   90.00000000
_cell_angle_beta   90.00000000
_cell_angle_gamma   89.96122549
_symmetry_Int_Tables_number   1
_chemical_formula_structural   Mg5Ta3(FeB6)4
_chemical_formula_sum   'Mg5 Ta3 Fe4 B24'
_cell_volume   314.09361915
_cell_formula_units_Z   1
loop_
 _symmetry_equiv_pos_site_id
 _symmetry_equiv_pos_as_xyz
  1  'x, y, z'
loop_
 _atom_site_type_symbol
 _atom_site_label
 _atom_site_symmetry_multiplicity
 _atom_site_fract_x
 _atom_site_fract_y
 _atom_site_fract_z
 _atom_site_occupancy
  Mg  Mg0  1  0.322276  0.420819  0.000000  1
  Mg  Mg1  1  0.674471  0.588906  0.000000  1
  Mg  Mg2  1  0.056655  0.630398  0.000000  1
  Mg  Mg3  1  0.554036  0.867321  0.000000  1
  Mg  Mg4  1  0.178484  0.908740  0.000000  1
  Ta  Ta5  1  0.818060  0.086421  0.000000  1
  Ta  Ta6  1  0.444780  0.126922  0.000000  1
  Ta  Ta7  1  0.943427  0.370936  0.000000  1
  Fe  Fe8  1  0.142095  0.178785  0.000000  1
  Fe  Fe9  1  0.642783  0.313905  0.000000  1
  Fe  Fe10  1  0.359129  0.679502  0.000000  1
  Fe  Fe11  1  0.858592  0.823967  0.000000  1
  B  B12  1  0.602794  0.026316  0.500001  1
  B  B13  1  0.053967  0.063199  0.500001  1
  B  B14  1  0.252122  0.078858  0.500001  1
  B  B15  1  0.632367  0.181062  0.500001  1
  B  B16  1  0.982477  0.209448  0.500001  1
  B  B17  1  0.295320  0.238028  0.500001  1
  B  B18  1  0.796567  0.262327  0.500001  1
  B  B19  1  0.482269  0.289153  0.500001  1
  B  B20  1  0.131866  0.318657  0.500001  1
  B  B21  1  0.750955  0.420839  0.500001  1
  B  B22  1  0.554675  0.435331  0.500001  1
  B  B23  1  0.098953  0.472898  0.500001  1
  B  B24  1  0.898601  0.527770  0.500001  1
  B  B25  1  0.445070  0.565876  0.500001  1
  B  B26  1  0.247680  0.581966  0.500001  1
  B  B27  1  0.868733  0.686141  0.500001  1
  B  B28  1  0.518056  0.711395  0.500001  1
  B  B29  1  0.205639  0.737148  0.500001  1
  B  B30  1  0.704657  0.763968  0.500001  1
  B  B31  1  0.018585  0.789228  0.500001  1
  B  B32  1  0.369150  0.815309  0.500001  1
  B  B33  1  0.748304  0.920355  0.500001  1
  B  B34  1  0.945186  0.935791  0.500001  1
  B  B35  1  0.401212  0.972308  0.500001  1
