# generated using pymatgen
data_Li3CaAc3MgPb4
_symmetry_space_group_name_H-M   'P 1'
_cell_length_a   5.00114400
_cell_length_b   8.20105824
_cell_length_c   8.71341201
_cell_angle_alpha   90.20701130
_cell_angle_beta   90.00000000
_cell_angle_gamma   90.00000000
_symmetry_Int_Tables_number   1
_chemical_formula_structural   Li3CaAc3MgPb4
_chemical_formula_sum   'Li3 Ca1 Ac3 Mg1 Pb4'
_cell_volume   357.37541349
_cell_formula_units_Z   1
loop_
 _symmetry_equiv_pos_site_id
 _symmetry_equiv_pos_as_xyz
  1  'x, y, z'
loop_
 _atom_site_type_symbol
 _atom_site_label
 _atom_site_symmetry_multiplicity
 _atom_site_fract_x
 _atom_site_fract_y
 _atom_site_fract_z
 _atom_site_occupancy
  Li  Li0  1  0.250000  0.677927  0.070321  1
  Li  Li1  1  0.250000  0.148429  0.441009  1
  Li  Li2  1  0.750000  0.847192  0.579477  1
  Ca  Ca3  1  0.250000  0.000934  0.792414  1
  Ac  Ac4  1  0.750000  0.994148  0.205413  1
  Ac  Ac5  1  0.750000  0.502011  0.290711  1
  Ac  Ac6  1  0.250000  0.509566  0.702897  1
  Mg  Mg7  1  0.750000  0.325469  0.918426  1
  Pb  Pb8  1  0.250000  0.272863  0.100262  1
  Pb  Pb9  1  0.250000  0.780324  0.404306  1
  Pb  Pb10  1  0.750000  0.219116  0.591736  1
  Pb  Pb11  1  0.750000  0.722022  0.903029  1
