# generated using pymatgen
data_TbNb6VS12
_symmetry_space_group_name_H-M   'P 1'
_cell_length_a   5.82455300
_cell_length_b   5.82455510
_cell_length_c   13.03248600
_cell_angle_alpha   90.00000000
_cell_angle_beta   90.00000000
_cell_angle_gamma   119.99999375
_symmetry_Int_Tables_number   1
_chemical_formula_structural   TbNb6VS12
_chemical_formula_sum   'Tb1 Nb6 V1 S12'
_cell_volume   382.89816547
_cell_formula_units_Z   1
loop_
 _symmetry_equiv_pos_site_id
 _symmetry_equiv_pos_as_xyz
  1  'x, y, z'
loop_
 _atom_site_type_symbol
 _atom_site_label
 _atom_site_symmetry_multiplicity
 _atom_site_fract_x
 _atom_site_fract_y
 _atom_site_fract_z
 _atom_site_occupancy
  Tb  Tb0  1  0.333333  0.666667  0.250000  1
  Nb  Nb1  1  0.000000  0.000000  0.517203  1
  Nb  Nb2  1  0.000000  0.000000  0.982797  1
  Nb  Nb3  1  0.333333  0.666667  0.983151  1
  Nb  Nb4  1  0.666667  0.333333  0.985542  1
  Nb  Nb5  1  0.666667  0.333333  0.514458  1
  Nb  Nb6  1  0.333333  0.666667  0.516849  1
  V  V7  1  0.666667  0.333333  0.750000  1
  S  S8  1  0.330520  0.328285  0.394451  1
  S  S9  1  0.671715  0.002235  0.394451  1
  S  S10  1  0.997765  0.669480  0.394451  1
  S  S11  1  0.335225  0.332812  0.636389  1
  S  S12  1  0.997587  0.664775  0.636389  1
  S  S13  1  0.667188  0.002413  0.636389  1
  S  S14  1  0.667188  0.664775  0.863611  1
  S  S15  1  0.335225  0.002413  0.863611  1
  S  S16  1  0.997587  0.332812  0.863611  1
  S  S17  1  0.671715  0.669480  0.105549  1
  S  S18  1  0.997765  0.328285  0.105549  1
  S  S19  1  0.330520  0.002235  0.105549  1
