# generated using pymatgen
data_K3MoClF6
_symmetry_space_group_name_H-M   'P 1'
_cell_length_a   8.45720400
_cell_length_b   8.45720400
_cell_length_c   6.07951000
_cell_angle_alpha   90.00000000
_cell_angle_beta   90.00000000
_cell_angle_gamma   90.00000000
_symmetry_Int_Tables_number   1
_chemical_formula_structural   K3MoClF6
_chemical_formula_sum   'K6 Mo2 Cl2 F12'
_cell_volume   434.83269404
_cell_formula_units_Z   2
loop_
 _symmetry_equiv_pos_site_id
 _symmetry_equiv_pos_as_xyz
  1  'x, y, z'
loop_
 _atom_site_type_symbol
 _atom_site_label
 _atom_site_symmetry_multiplicity
 _atom_site_fract_x
 _atom_site_fract_y
 _atom_site_fract_z
 _atom_site_occupancy
  K  K0  1  0.685030  0.185030  0.500000  1
  K  K1  1  0.814970  0.685030  0.500000  1
  K  K2  1  0.500000  0.500000  0.000000  1
  K  K3  1  0.185030  0.314970  0.500000  1
  K  K4  1  0.314970  0.814970  0.500000  1
  K  K5  1  0.000000  0.000000  0.000000  1
  Mo  Mo6  1  0.500000  0.000000  0.000000  1
  Mo  Mo7  1  0.000000  0.500000  0.000000  1
  Cl  Cl8  1  0.500000  0.500000  0.500000  1
  Cl  Cl9  1  0.000000  0.000000  0.500000  1
  F  F10  1  0.883600  0.383600  0.239922  1
  F  F11  1  0.616400  0.883600  0.760078  1
  F  F12  1  0.165935  0.334065  0.000000  1
  F  F13  1  0.883600  0.383600  0.760078  1
  F  F14  1  0.383600  0.116400  0.760078  1
  F  F15  1  0.834065  0.665935  0.000000  1
  F  F16  1  0.116400  0.616400  0.239922  1
  F  F17  1  0.665935  0.165935  0.000000  1
  F  F18  1  0.616400  0.883600  0.239922  1
  F  F19  1  0.383600  0.116400  0.239922  1
  F  F20  1  0.116400  0.616400  0.760078  1
  F  F21  1  0.334065  0.834065  0.000000  1
