# generated using pymatgen
data_TbTm5(B7W)2
_symmetry_space_group_name_H-M   'P 1'
_cell_length_a   8.07178658
_cell_length_b   8.07178663
_cell_length_c   9.44218800
_cell_angle_alpha   90.00000000
_cell_angle_beta   90.00000000
_cell_angle_gamma   155.49672573
_symmetry_Int_Tables_number   1
_chemical_formula_structural   TbTm5(B7W)2
_chemical_formula_sum   'Tb1 Tm5 B14 W2'
_cell_volume   255.14872414
_cell_formula_units_Z   1
loop_
 _symmetry_equiv_pos_site_id
 _symmetry_equiv_pos_as_xyz
  1  'x, y, z'
loop_
 _atom_site_type_symbol
 _atom_site_label
 _atom_site_symmetry_multiplicity
 _atom_site_fract_x
 _atom_site_fract_y
 _atom_site_fract_z
 _atom_site_occupancy
  Tb  Tb0  1  0.753003  0.246997  0.750000  1
  Tm  Tm1  1  0.892652  0.107348  0.439796  1
  Tm  Tm2  1  0.107081  0.892919  0.558486  1
  Tm  Tm3  1  0.892652  0.107348  0.060204  1
  Tm  Tm4  1  0.107081  0.892919  0.941514  1
  Tm  Tm5  1  0.245216  0.754784  0.250000  1
  B  B6  1  0.728082  0.271918  0.464974  1
  B  B7  1  0.272616  0.727384  0.530135  1
  B  B8  1  0.728082  0.271918  0.035026  1
  B  B9  1  0.272616  0.727384  0.969865  1
  B  B10  1  0.635396  0.364604  0.147306  1
  B  B11  1  0.364849  0.635151  0.854229  1
  B  B12  1  0.635396  0.364604  0.352694  1
  B  B13  1  0.364849  0.635151  0.645771  1
  B  B14  1  0.518986  0.481014  0.091158  1
  B  B15  1  0.481068  0.518932  0.908877  1
  B  B16  1  0.518986  0.481014  0.408842  1
  B  B17  1  0.481068  0.518932  0.591123  1
  B  B18  1  0.452808  0.547192  0.250000  1
  B  B19  1  0.547437  0.452563  0.750000  1
  W  W20  1  0.052758  0.947242  0.250000  1
  W  W21  1  0.947320  0.052680  0.750000  1
