# generated using pymatgen
data_Sr8Cu4Si11P
_symmetry_space_group_name_H-M   'P 1'
_cell_length_a   11.70219907
_cell_length_b   10.17498216
_cell_length_c   8.19644503
_cell_angle_alpha   78.32795945
_cell_angle_beta   58.35974272
_cell_angle_gamma   43.15538371
_symmetry_Int_Tables_number   1
_chemical_formula_structural   Sr8Cu4Si11P
_chemical_formula_sum   'Sr8 Cu4 Si11 P1'
_cell_volume   540.35398635
_cell_formula_units_Z   1
loop_
 _symmetry_equiv_pos_site_id
 _symmetry_equiv_pos_as_xyz
  1  'x, y, z'
loop_
 _atom_site_type_symbol
 _atom_site_label
 _atom_site_symmetry_multiplicity
 _atom_site_fract_x
 _atom_site_fract_y
 _atom_site_fract_z
 _atom_site_occupancy
  Sr  Sr0  1  0.122990  0.122660  0.877428  1
  Sr  Sr1  1  0.876159  0.877026  0.124435  1
  Sr  Sr2  1  0.123965  0.125955  0.375792  1
  Sr  Sr3  1  0.373859  0.375965  0.126566  1
  Sr  Sr4  1  0.621945  0.622797  0.378724  1
  Sr  Sr5  1  0.378375  0.378098  0.621505  1
  Sr  Sr6  1  0.627312  0.625120  0.871958  1
  Sr  Sr7  1  0.874418  0.872918  0.624520  1
  Cu  Cu8  1  0.083250  0.417436  0.083074  1
  Cu  Cu9  1  0.833590  0.167409  0.832508  1
  Cu  Cu10  1  0.167231  0.832893  0.166738  1
  Cu  Cu11  1  0.418489  0.081577  0.413671  1
  Si  Si12  1  0.086583  0.410488  0.584630  1
  Si  Si13  1  0.415756  0.082847  0.918223  1
  Si  Si14  1  0.583476  0.917306  0.084163  1
  Si  Si15  1  0.331020  0.666842  0.837138  1
  Si  Si16  1  0.667035  0.331610  0.164510  1
  Si  Si17  1  0.836144  0.165991  0.331853  1
  Si  Si18  1  0.165088  0.835507  0.666554  1
  Si  Si19  1  0.916762  0.583479  0.918979  1
  Si  Si20  1  0.579185  0.921536  0.581044  1
  Si  Si21  1  0.331291  0.668838  0.331473  1
  Si  Si22  1  0.668343  0.331030  0.668867  1
  P  P23  1  0.917739  0.584680  0.415641  1
