# generated using pymatgen
data_LuTh2(AlCo)3
_symmetry_space_group_name_H-M   'P 1'
_cell_length_a   6.94464200
_cell_length_b   7.09895957
_cell_length_c   3.85152700
_cell_angle_alpha   90.00000000
_cell_angle_beta   90.00000000
_cell_angle_gamma   119.28347892
_symmetry_Int_Tables_number   1
_chemical_formula_structural   LuTh2(AlCo)3
_chemical_formula_sum   'Lu1 Th2 Al3 Co3'
_cell_volume   165.61464847
_cell_formula_units_Z   1
loop_
 _symmetry_equiv_pos_site_id
 _symmetry_equiv_pos_as_xyz
  1  'x, y, z'
loop_
 _atom_site_type_symbol
 _atom_site_label
 _atom_site_symmetry_multiplicity
 _atom_site_fract_x
 _atom_site_fract_y
 _atom_site_fract_z
 _atom_site_occupancy
  Lu  Lu0  1  0.586553  0.000000  0.000000  1
  Th  Th1  1  0.999532  0.576116  0.000000  1
  Th  Th2  1  0.423416  0.423884  0.000000  1
  Al  Al3  1  0.243738  0.000000  0.500000  1
  Al  Al4  1  0.989224  0.220862  0.500000  1
  Al  Al5  1  0.768362  0.779138  0.500000  1
  Co  Co6  1  0.317502  0.648885  0.500000  1
  Co  Co7  1  0.668618  0.351115  0.500000  1
  Co  Co8  1  0.003055  0.000000  0.000000  1
