# generated using pymatgen
data_Hf4Tc(AsRu)6
_symmetry_space_group_name_H-M   'P 1'
_cell_length_a   7.06846150
_cell_length_b   7.06846103
_cell_length_c   7.06846200
_cell_angle_alpha   109.47123202
_cell_angle_beta   109.47123066
_cell_angle_gamma   109.47120791
_symmetry_Int_Tables_number   1
_chemical_formula_structural   Hf4Tc(AsRu)6
_chemical_formula_sum   'Hf4 Tc1 As6 Ru6'
_cell_volume   271.86465884
_cell_formula_units_Z   1
loop_
 _symmetry_equiv_pos_site_id
 _symmetry_equiv_pos_as_xyz
  1  'x, y, z'
loop_
 _atom_site_type_symbol
 _atom_site_label
 _atom_site_symmetry_multiplicity
 _atom_site_fract_x
 _atom_site_fract_y
 _atom_site_fract_z
 _atom_site_occupancy
  Hf  Hf0  1  0.000000  0.000000  0.500000  1
  Hf  Hf1  1  0.500000  0.000000  0.000000  1
  Hf  Hf2  1  0.000000  0.500000  0.000000  1
  Hf  Hf3  1  0.500000  0.500000  0.500000  1
  Tc  Tc4  1  0.000000  0.000000  0.000000  1
  As  As5  1  0.312086  0.000000  0.312086  1
  As  As6  1  0.000000  0.312086  0.312086  1
  As  As7  1  0.000000  0.687914  0.687914  1
  As  As8  1  0.312086  0.312086  0.000000  1
  As  As9  1  0.687914  0.687914  0.000000  1
  As  As10  1  0.687914  0.000000  0.687914  1
  Ru  Ru11  1  0.750000  0.500000  0.250000  1
  Ru  Ru12  1  0.500000  0.750000  0.250000  1
  Ru  Ru13  1  0.500000  0.250000  0.750000  1
  Ru  Ru14  1  0.750000  0.250000  0.500000  1
  Ru  Ru15  1  0.250000  0.750000  0.500000  1
  Ru  Ru16  1  0.250000  0.500000  0.750000  1
