# generated using pymatgen
data_Dy20CoRh11
_symmetry_space_group_name_H-M   'P 1'
_cell_length_a   10.89004931
_cell_length_b   10.89004808
_cell_length_c   6.35371907
_cell_angle_alpha   89.87424632
_cell_angle_beta   89.87425279
_cell_angle_gamma   89.91390346
_symmetry_Int_Tables_number   1
_chemical_formula_structural   Dy20CoRh11
_chemical_formula_sum   'Dy20 Co1 Rh11'
_cell_volume   753.50315036
_cell_formula_units_Z   1
loop_
 _symmetry_equiv_pos_site_id
 _symmetry_equiv_pos_as_xyz
  1  'x, y, z'
loop_
 _atom_site_type_symbol
 _atom_site_label
 _atom_site_symmetry_multiplicity
 _atom_site_fract_x
 _atom_site_fract_y
 _atom_site_fract_z
 _atom_site_occupancy
  Dy  Dy0  1  0.290945  0.088801  0.380045  1
  Dy  Dy1  1  0.292059  0.906207  0.880772  1
  Dy  Dy2  1  0.708688  0.088730  0.880189  1
  Dy  Dy3  1  0.707678  0.910309  0.380029  1
  Dy  Dy4  1  0.587668  0.789959  0.880898  1
  Dy  Dy5  1  0.588563  0.210477  0.380436  1
  Dy  Dy6  1  0.408804  0.788644  0.387336  1
  Dy  Dy7  1  0.410259  0.208549  0.880243  1
  Dy  Dy8  1  0.210041  0.412332  0.619102  1
  Dy  Dy9  1  0.211356  0.591196  0.112664  1
  Dy  Dy10  1  0.789523  0.411437  0.119564  1
  Dy  Dy11  1  0.791451  0.589741  0.619757  1
  Dy  Dy12  1  0.911199  0.709055  0.119955  1
  Dy  Dy13  1  0.911270  0.291312  0.619811  1
  Dy  Dy14  1  0.093793  0.707941  0.619228  1
  Dy  Dy15  1  0.089691  0.292322  0.119971  1
  Dy  Dy16  1  0.999360  0.999143  0.500139  1
  Dy  Dy17  1  0.000857  0.000640  0.999861  1
  Dy  Dy18  1  0.497473  0.501662  0.998418  1
  Dy  Dy19  1  0.498338  0.502527  0.501582  1
  Co  Co20  1  0.348242  0.651758  0.750000  1
  Rh  Rh21  1  0.845850  0.154150  0.250000  1
  Rh  Rh22  1  0.844991  0.846309  0.751086  1
  Rh  Rh23  1  0.153691  0.155009  0.748914  1
  Rh  Rh24  1  0.154658  0.845342  0.250000  1
  Rh  Rh25  1  0.653695  0.346305  0.750000  1
  Rh  Rh26  1  0.654458  0.654166  0.250133  1
  Rh  Rh27  1  0.345834  0.345542  0.249867  1
  Rh  Rh28  1  0.499261  0.999552  0.129972  1
  Rh  Rh29  1  0.499683  0.999825  0.628712  1
  Rh  Rh30  1  0.000175  0.500317  0.871288  1
  Rh  Rh31  1  0.000448  0.500739  0.370028  1
