# generated using pymatgen
data_TbSc7(Ta3Si4)4
_symmetry_space_group_name_H-M   'P 1'
_cell_length_a   6.92266618
_cell_length_b   6.92568246
_cell_length_c   12.72704243
_cell_angle_alpha   89.87578093
_cell_angle_beta   90.02109756
_cell_angle_gamma   89.97205168
_symmetry_Int_Tables_number   1
_chemical_formula_structural   TbSc7(Ta3Si4)4
_chemical_formula_sum   'Tb1 Sc7 Ta12 Si16'
_cell_volume   610.18616424
_cell_formula_units_Z   1
loop_
 _symmetry_equiv_pos_site_id
 _symmetry_equiv_pos_as_xyz
  1  'x, y, z'
loop_
 _atom_site_type_symbol
 _atom_site_label
 _atom_site_symmetry_multiplicity
 _atom_site_fract_x
 _atom_site_fract_y
 _atom_site_fract_z
 _atom_site_occupancy
  Tb  Tb0  1  0.994336  0.659788  0.031493  1
  Sc  Sc1  1  0.342286  0.001169  0.469091  1
  Sc  Sc2  1  0.498753  0.842452  0.717852  1
  Sc  Sc3  1  0.499990  0.158429  0.220236  1
  Sc  Sc4  1  0.842626  0.499180  0.282286  1
  Sc  Sc5  1  0.158352  0.500129  0.780636  1
  Sc  Sc6  1  0.655844  0.000297  0.967585  1
  Sc  Sc7  1  0.001122  0.342780  0.531157  1
  Ta  Ta8  1  0.328770  0.326703  0.999643  1
  Ta  Ta9  1  0.172514  0.829386  0.251295  1
  Ta  Ta10  1  0.828108  0.171651  0.748757  1
  Ta  Ta11  1  0.672248  0.671996  0.500210  1
  Ta  Ta12  1  0.151985  0.004542  0.872019  1
  Ta  Ta13  1  0.495071  0.650015  0.124507  1
  Ta  Ta14  1  0.506081  0.350347  0.623193  1
  Ta  Ta15  1  0.649741  0.491283  0.874549  1
  Ta  Ta16  1  0.350706  0.505990  0.377349  1
  Ta  Ta17  1  0.850430  0.995084  0.375225  1
  Ta  Ta18  1  0.007102  0.150842  0.126867  1
  Ta  Ta19  1  0.994282  0.850741  0.625387  1
  Si  Si20  1  0.204912  0.140232  0.677289  1
  Si  Si21  1  0.365061  0.705303  0.926934  1
  Si  Si22  1  0.640387  0.295286  0.428278  1
  Si  Si23  1  0.701131  0.356107  0.071241  1
  Si  Si24  1  0.295031  0.640179  0.572072  1
  Si  Si25  1  0.790743  0.866102  0.182158  1
  Si  Si26  1  0.140084  0.204774  0.322850  1
  Si  Si27  1  0.858808  0.796280  0.819247  1
  Si  Si28  1  0.303357  0.956390  0.064336  1
  Si  Si29  1  0.544132  0.801763  0.315192  1
  Si  Si30  1  0.454191  0.198741  0.812899  1
  Si  Si31  1  0.801622  0.545036  0.685298  1
  Si  Si32  1  0.202579  0.452435  0.188318  1
  Si  Si33  1  0.698188  0.045359  0.563988  1
  Si  Si34  1  0.953983  0.294222  0.934482  1
  Si  Si35  1  0.045444  0.698990  0.436080  1
