# generated using pymatgen
data_U2Ge2(I3Br)3
_symmetry_space_group_name_H-M   'P 1'
_cell_length_a   7.50213811
_cell_length_b   7.41178116
_cell_length_c   13.68872440
_cell_angle_alpha   91.58364809
_cell_angle_beta   88.56878494
_cell_angle_gamma   120.15952971
_symmetry_Int_Tables_number   1
_chemical_formula_structural   U2Ge2(I3Br)3
_chemical_formula_sum   'U2 Ge2 I9 Br3'
_cell_volume   657.80805355
_cell_formula_units_Z   1
loop_
 _symmetry_equiv_pos_site_id
 _symmetry_equiv_pos_as_xyz
  1  'x, y, z'
loop_
 _atom_site_type_symbol
 _atom_site_label
 _atom_site_symmetry_multiplicity
 _atom_site_fract_x
 _atom_site_fract_y
 _atom_site_fract_z
 _atom_site_occupancy
  U  U0  1  0.999492  0.990189  0.503754  1
  U  U1  1  0.001753  0.002801  0.999959  1
  Ge  Ge2  1  0.647416  0.333132  0.747974  1
  Ge  Ge3  1  0.337805  0.653229  0.258822  1
  I  I4  1  0.665806  0.665051  0.868118  1
  I  I5  1  0.002920  0.331050  0.381184  1
  I  I6  1  0.338566  0.337583  0.130044  1
  I  I7  1  0.345601  0.344721  0.627215  1
  I  I8  1  0.003035  0.323680  0.875878  1
  I  I9  1  0.656278  0.654077  0.372330  1
  I  I10  1  0.002912  0.679747  0.121330  1
  I  I11  1  0.341395  0.003956  0.869236  1
  I  I12  1  0.669320  0.000489  0.125351  1
  Br  Br13  1  0.704243  0.010465  0.616578  1
  Br  Br14  1  0.295209  0.983392  0.384950  1
  Br  Br15  1  0.988249  0.686436  0.617278  1
