# generated using pymatgen
data_Pu2NCl3
_symmetry_space_group_name_H-M   'P 1'
_cell_length_a   8.51788987
_cell_length_b   8.51788987
_cell_length_c   10.74797502
_cell_angle_alpha   59.53749533
_cell_angle_beta   59.53749503
_cell_angle_gamma   26.34149213
_symmetry_Int_Tables_number   1
_chemical_formula_structural   Pu2NCl3
_chemical_formula_sum   'Pu4 N2 Cl6'
_cell_volume   295.41642237
_cell_formula_units_Z   2
loop_
 _symmetry_equiv_pos_site_id
 _symmetry_equiv_pos_as_xyz
  1  'x, y, z'
loop_
 _atom_site_type_symbol
 _atom_site_label
 _atom_site_symmetry_multiplicity
 _atom_site_fract_x
 _atom_site_fract_y
 _atom_site_fract_z
 _atom_site_occupancy
  Pu  Pu0  1  0.865079  0.865079  0.287099  1
  Pu  Pu1  1  0.134921  0.134921  0.712901  1
  Pu  Pu2  1  0.585715  0.585715  0.046100  1
  Pu  Pu3  1  0.414285  0.414285  0.953900  1
  N  N4  1  0.427420  0.427420  0.150366  1
  N  N5  1  0.572580  0.572580  0.849634  1
  Cl  Cl6  1  0.043902  0.043902  0.260247  1
  Cl  Cl7  1  0.956098  0.956098  0.739753  1
  Cl  Cl8  1  0.664995  0.664995  0.492505  1
  Cl  Cl9  1  0.335005  0.335005  0.507495  1
  Cl  Cl10  1  0.774671  0.774671  0.120995  1
  Cl  Cl11  1  0.225329  0.225329  0.879005  1
