# generated using pymatgen
data_Nd4Re11Si8Tc5
_symmetry_space_group_name_H-M   'P 1'
_cell_length_a   4.17361300
_cell_length_b   7.31836245
_cell_length_c   15.51674094
_cell_angle_alpha   89.95990433
_cell_angle_beta   90.00000000
_cell_angle_gamma   90.00000000
_symmetry_Int_Tables_number   1
_chemical_formula_structural   Nd4Re11Si8Tc5
_chemical_formula_sum   'Nd4 Re11 Si8 Tc5'
_cell_volume   473.94341584
_cell_formula_units_Z   1
loop_
 _symmetry_equiv_pos_site_id
 _symmetry_equiv_pos_as_xyz
  1  'x, y, z'
loop_
 _atom_site_type_symbol
 _atom_site_label
 _atom_site_symmetry_multiplicity
 _atom_site_fract_x
 _atom_site_fract_y
 _atom_site_fract_z
 _atom_site_occupancy
  Nd  Nd0  1  0.000000  0.579950  0.118501  1
  Nd  Nd1  1  0.000000  0.420352  0.881894  1
  Nd  Nd2  1  0.500000  0.079883  0.382180  1
  Nd  Nd3  1  0.500000  0.920224  0.617992  1
  Re  Re4  1  0.000000  0.266829  0.679616  1
  Re  Re5  1  0.500000  0.233061  0.179427  1
  Re  Re6  1  0.500000  0.766842  0.820407  1
  Re  Re7  1  0.000000  0.436608  0.418201  1
  Re  Re8  1  0.000000  0.563901  0.581008  1
  Re  Re9  1  0.500000  0.935346  0.081893  1
  Re  Re10  1  0.500000  0.063985  0.918732  1
  Re  Re11  1  0.000000  0.992228  0.204801  1
  Re  Re12  1  0.000000  0.007905  0.794341  1
  Re  Re13  1  0.500000  0.489607  0.294928  1
  Re  Re14  1  0.500000  0.507853  0.705497  1
  Si  Si15  1  0.000000  0.825774  0.475139  1
  Si  Si16  1  0.000000  0.174451  0.524317  1
  Si  Si17  1  0.500000  0.326662  0.024440  1
  Si  Si18  1  0.500000  0.673967  0.975669  1
  Si  Si19  1  0.000000  0.293010  0.273657  1
  Si  Si20  1  0.000000  0.706125  0.726137  1
  Si  Si21  1  0.500000  0.792258  0.227320  1
  Si  Si22  1  0.500000  0.206227  0.773855  1
  Tc  Tc23  1  0.000000  0.140970  0.051545  1
  Tc  Tc24  1  0.000000  0.860011  0.948819  1
  Tc  Tc25  1  0.500000  0.639613  0.447993  1
  Tc  Tc26  1  0.500000  0.360458  0.551333  1
  Tc  Tc27  1  0.000000  0.735902  0.320357  1
