# generated using pymatgen
data_Ho5Co19(SiP5)2
_symmetry_space_group_name_H-M   'P 1'
_cell_length_a   11.98626500
_cell_length_b   11.98006054
_cell_length_c   3.66626500
_cell_angle_alpha   90.00000000
_cell_angle_beta   90.00000000
_cell_angle_gamma   119.98286839
_symmetry_Int_Tables_number   1
_chemical_formula_structural   Ho5Co19(SiP5)2
_chemical_formula_sum   'Ho5 Co19 Si2 P10'
_cell_volume   456.00784968
_cell_formula_units_Z   1
loop_
 _symmetry_equiv_pos_site_id
 _symmetry_equiv_pos_as_xyz
  1  'x, y, z'
loop_
 _atom_site_type_symbol
 _atom_site_label
 _atom_site_symmetry_multiplicity
 _atom_site_fract_x
 _atom_site_fract_y
 _atom_site_fract_z
 _atom_site_occupancy
  Ho  Ho0  1  0.665635  0.332924  0.000000  1
  Ho  Ho1  1  0.334365  0.667289  0.000000  1
  Ho  Ho2  1  0.184931  0.185218  0.500000  1
  Ho  Ho3  1  0.815069  0.000287  0.500000  1
  Ho  Ho4  1  0.000000  0.811781  0.500000  1
  Co  Co5  1  0.559188  0.556242  0.000000  1
  Co  Co6  1  0.440812  0.997054  0.000000  1
  Co  Co7  1  0.000000  0.447866  0.000000  1
  Co  Co8  1  0.824698  0.203597  0.000000  1
  Co  Co9  1  0.801881  0.622422  0.000000  1
  Co  Co10  1  0.377208  0.174682  0.000000  1
  Co  Co11  1  0.198119  0.820541  0.000000  1
  Co  Co12  1  0.622792  0.797473  0.000000  1
  Co  Co13  1  0.175302  0.378899  0.000000  1
  Co  Co14  1  0.640888  0.126915  0.500000  1
  Co  Co15  1  0.874873  0.516444  0.500000  1
  Co  Co16  1  0.485695  0.358149  0.500000  1
  Co  Co17  1  0.125127  0.641572  0.500000  1
  Co  Co18  1  0.514305  0.872455  0.500000  1
  Co  Co19  1  0.359112  0.486027  0.500000  1
  Co  Co20  1  0.717126  0.715652  0.500000  1
  Co  Co21  1  0.282874  0.998526  0.500000  1
  Co  Co22  1  0.000000  0.285937  0.500000  1
  Co  Co23  1  0.000000  0.000475  0.000000  1
  Si  Si24  1  0.369292  0.369358  0.000000  1
  Si  Si25  1  0.630708  0.000066  0.000000  1
  P  P26  1  0.000000  0.631591  0.000000  1
  P  P27  1  0.832679  0.313765  0.500000  1
  P  P28  1  0.686019  0.519806  0.500000  1
  P  P29  1  0.479029  0.165435  0.500000  1
  P  P30  1  0.313981  0.833786  0.500000  1
  P  P31  1  0.520971  0.686405  0.500000  1
  P  P32  1  0.167321  0.481087  0.500000  1
  P  P33  1  0.819476  0.818744  0.000000  1
  P  P34  1  0.180524  0.999269  0.000000  1
  P  P35  1  0.000000  0.182259  0.000000  1
