# generated using pymatgen
data_Tb3Sm2Ho5(In2Pd)4
_symmetry_space_group_name_H-M   'P 1'
_cell_length_a   3.63413600
_cell_length_b   8.19241369
_cell_length_c   18.37538854
_cell_angle_alpha   89.95308407
_cell_angle_beta   90.00000000
_cell_angle_gamma   90.00000000
_symmetry_Int_Tables_number   1
_chemical_formula_structural   Tb3Sm2Ho5(In2Pd)4
_chemical_formula_sum   'Tb3 Sm2 Ho5 In8 Pd4'
_cell_volume   547.07823301
_cell_formula_units_Z   1
loop_
 _symmetry_equiv_pos_site_id
 _symmetry_equiv_pos_as_xyz
  1  'x, y, z'
loop_
 _atom_site_type_symbol
 _atom_site_label
 _atom_site_symmetry_multiplicity
 _atom_site_fract_x
 _atom_site_fract_y
 _atom_site_fract_z
 _atom_site_occupancy
  Tb  Tb0  1  0.000000  0.739153  0.281358  1
  Tb  Tb1  1  0.000000  0.260897  0.718555  1
  Tb  Tb2  1  0.000000  0.760952  0.781374  1
  Sm  Sm3  1  0.000000  0.500030  0.499790  1
  Sm  Sm4  1  0.000000  0.000031  0.000048  1
  Ho  Ho5  1  0.000000  0.239259  0.218894  1
  Ho  Ho6  1  0.000000  0.618795  0.083994  1
  Ho  Ho7  1  0.000000  0.380990  0.916387  1
  Ho  Ho8  1  0.000000  0.881015  0.583629  1
  Ho  Ho9  1  0.000000  0.119025  0.416080  1
  In  In10  1  0.500000  0.703632  0.932391  1
  In  In11  1  0.500000  0.296166  0.068333  1
  In  In12  1  0.500000  0.796683  0.432205  1
  In  In13  1  0.500000  0.203591  0.567634  1
  In  In14  1  0.500000  0.582145  0.651636  1
  In  In15  1  0.500000  0.417133  0.347979  1
  In  In16  1  0.500000  0.918821  0.151840  1
  In  In17  1  0.500000  0.082064  0.848274  1
  Pd  Pd18  1  0.500000  0.522068  0.195212  1
  Pd  Pd19  1  0.500000  0.475738  0.804983  1
  Pd  Pd20  1  0.500000  0.975857  0.694990  1
  Pd  Pd21  1  0.500000  0.025952  0.304412  1
