# generated using pymatgen
data_NaNb6BiSe12
_symmetry_space_group_name_H-M   'P 1'
_cell_length_a   6.10697900
_cell_length_b   6.10697879
_cell_length_c   15.26782800
_cell_angle_alpha   90.00000000
_cell_angle_beta   90.00000000
_cell_angle_gamma   119.99999572
_symmetry_Int_Tables_number   1
_chemical_formula_structural   NaNb6BiSe12
_chemical_formula_sum   'Na1 Nb6 Bi1 Se12'
_cell_volume   493.12923169
_cell_formula_units_Z   1
loop_
 _symmetry_equiv_pos_site_id
 _symmetry_equiv_pos_as_xyz
  1  'x, y, z'
loop_
 _atom_site_type_symbol
 _atom_site_label
 _atom_site_symmetry_multiplicity
 _atom_site_fract_x
 _atom_site_fract_y
 _atom_site_fract_z
 _atom_site_occupancy
  Na  Na0  1  0.000000  0.000000  0.500000  1
  Nb  Nb1  1  0.000000  0.000000  0.755296  1
  Nb  Nb2  1  0.000000  0.000000  0.244704  1
  Nb  Nb3  1  0.333333  0.666667  0.245934  1
  Nb  Nb4  1  0.666667  0.333333  0.754066  1
  Nb  Nb5  1  0.666667  0.333333  0.245934  1
  Nb  Nb6  1  0.333333  0.666667  0.754066  1
  Bi  Bi7  1  0.000000  0.000000  0.000000  1
  Se  Se8  1  0.339952  0.000000  0.136894  1
  Se  Se9  1  0.000000  0.339952  0.136894  1
  Se  Se10  1  0.660048  0.660048  0.136894  1
  Se  Se11  1  0.334254  0.334254  0.645797  1
  Se  Se12  1  0.665746  0.665746  0.354203  1
  Se  Se13  1  0.665746  0.000000  0.645797  1
  Se  Se14  1  0.000000  0.665746  0.645797  1
  Se  Se15  1  0.000000  0.660048  0.863106  1
  Se  Se16  1  0.339952  0.339952  0.863106  1
  Se  Se17  1  0.000000  0.334254  0.354203  1
  Se  Se18  1  0.334254  0.000000  0.354203  1
  Se  Se19  1  0.660048  0.000000  0.863106  1
