# generated using pymatgen
data_NaSi4P2(Pd10Pb)2
_symmetry_space_group_name_H-M   'P 1'
_cell_length_a   8.69189644
_cell_length_b   8.69189629
_cell_length_c   8.69394100
_cell_angle_alpha   59.99220648
_cell_angle_beta   59.99220706
_cell_angle_gamma   60.01555438
_symmetry_Int_Tables_number   1
_chemical_formula_structural   NaSi4P2(Pd10Pb)2
_chemical_formula_sum   'Na1 Si4 P2 Pd20 Pb2'
_cell_volume   464.44106923
_cell_formula_units_Z   1
loop_
 _symmetry_equiv_pos_site_id
 _symmetry_equiv_pos_as_xyz
  1  'x, y, z'
loop_
 _atom_site_type_symbol
 _atom_site_label
 _atom_site_symmetry_multiplicity
 _atom_site_fract_x
 _atom_site_fract_y
 _atom_site_fract_z
 _atom_site_occupancy
  Na  Na0  1  0.000000  0.000000  0.000000  1
  Si  Si1  1  0.733032  0.266968  0.266968  1
  Si  Si2  1  0.266968  0.733032  0.733032  1
  Si  Si3  1  0.266968  0.733032  0.266968  1
  Si  Si4  1  0.733032  0.266968  0.733032  1
  P  P5  1  0.265022  0.265022  0.734977  1
  P  P6  1  0.734978  0.734978  0.265023  1
  Pd  Pd7  1  0.383091  0.383091  0.385365  1
  Pd  Pd8  1  0.616909  0.616909  0.614635  1
  Pd  Pd9  1  0.383091  0.383091  0.848453  1
  Pd  Pd10  1  0.385365  0.848452  0.383091  1
  Pd  Pd11  1  0.616909  0.616909  0.151547  1
  Pd  Pd12  1  0.614635  0.151548  0.616909  1
  Pd  Pd13  1  0.848452  0.385365  0.383091  1
  Pd  Pd14  1  0.151548  0.614635  0.616909  1
  Pd  Pd15  1  0.343587  0.000469  0.999530  1
  Pd  Pd16  1  0.656413  0.999531  0.000470  1
  Pd  Pd17  1  0.000470  0.343587  0.656413  1
  Pd  Pd18  1  0.999530  0.656413  0.343587  1
  Pd  Pd19  1  0.000470  0.343587  0.999529  1
  Pd  Pd20  1  0.656413  0.999530  0.343587  1
  Pd  Pd21  1  0.999530  0.656413  0.000471  1
  Pd  Pd22  1  0.343587  0.000470  0.656413  1
  Pd  Pd23  1  0.000000  0.000000  0.344660  1
  Pd  Pd24  1  0.000000  0.000000  0.655340  1
  Pd  Pd25  1  0.655341  0.344659  0.999999  1
  Pd  Pd26  1  0.344659  0.655341  0.000001  1
  Pb  Pb27  1  0.249999  0.250000  0.250001  1
  Pb  Pb28  1  0.750001  0.750000  0.749999  1
