# generated using pymatgen
data_YB3W
_symmetry_space_group_name_H-M   'P 1'
_cell_length_a   5.46385929
_cell_length_b   3.17080100
_cell_length_c   6.84025482
_cell_angle_alpha   90.00000000
_cell_angle_beta   102.18546904
_cell_angle_gamma   90.00000000
_symmetry_Int_Tables_number   1
_chemical_formula_structural   YB3W
_chemical_formula_sum   'Y2 B6 W2'
_cell_volume   115.83611143
_cell_formula_units_Z   2
loop_
 _symmetry_equiv_pos_site_id
 _symmetry_equiv_pos_as_xyz
  1  'x, y, z'
loop_
 _atom_site_type_symbol
 _atom_site_label
 _atom_site_symmetry_multiplicity
 _atom_site_fract_x
 _atom_site_fract_y
 _atom_site_fract_z
 _atom_site_occupancy
  Y  Y0  1  0.324896  0.750001  0.292000  1
  Y  Y1  1  0.675104  0.250000  0.708000  1
  B  B2  1  0.087347  0.250000  0.004943  1
  B  B3  1  0.417000  0.250000  0.007101  1
  B  B4  1  0.917067  0.750001  0.474940  1
  B  B5  1  0.082932  0.250000  0.525060  1
  B  B6  1  0.582999  0.750001  0.992899  1
  B  B7  1  0.912654  0.750001  0.995057  1
  W  W8  1  0.812176  0.250000  0.219791  1
  W  W9  1  0.187823  0.750001  0.780209  1
