# generated using pymatgen
data_Lu5IrAu2
_symmetry_space_group_name_H-M   'P 1'
_cell_length_a   11.10950000
_cell_length_b   11.10950000
_cell_length_c   6.18220300
_cell_angle_alpha   90.00000000
_cell_angle_beta   90.00000000
_cell_angle_gamma   90.00000000
_symmetry_Int_Tables_number   1
_chemical_formula_structural   Lu5IrAu2
_chemical_formula_sum   'Lu20 Ir4 Au8'
_cell_volume   763.01361619
_cell_formula_units_Z   4
loop_
 _symmetry_equiv_pos_site_id
 _symmetry_equiv_pos_as_xyz
  1  'x, y, z'
loop_
 _atom_site_type_symbol
 _atom_site_label
 _atom_site_symmetry_multiplicity
 _atom_site_fract_x
 _atom_site_fract_y
 _atom_site_fract_z
 _atom_site_occupancy
  Lu  Lu0  1  0.298299  0.082434  0.348782  1
  Lu  Lu1  1  0.298299  0.917566  0.848782  1
  Lu  Lu2  1  0.701701  0.082434  0.848782  1
  Lu  Lu3  1  0.701701  0.917566  0.348782  1
  Lu  Lu4  1  0.582434  0.798299  0.848782  1
  Lu  Lu5  1  0.582434  0.201701  0.348782  1
  Lu  Lu6  1  0.417566  0.798299  0.348782  1
  Lu  Lu7  1  0.417566  0.201701  0.848782  1
  Lu  Lu8  1  0.201701  0.417566  0.651218  1
  Lu  Lu9  1  0.201701  0.582434  0.151218  1
  Lu  Lu10  1  0.798299  0.417566  0.151218  1
  Lu  Lu11  1  0.798299  0.582434  0.651218  1
  Lu  Lu12  1  0.917566  0.701701  0.151218  1
  Lu  Lu13  1  0.917566  0.298299  0.651218  1
  Lu  Lu14  1  0.082434  0.701701  0.651218  1
  Lu  Lu15  1  0.082434  0.298299  0.151218  1
  Lu  Lu16  1  0.000000  0.000000  0.500000  1
  Lu  Lu17  1  0.000000  0.000000  0.000000  1
  Lu  Lu18  1  0.500000  0.500000  0.000000  1
  Lu  Lu19  1  0.500000  0.500000  0.500000  1
  Ir  Ir20  1  0.500000  0.000000  0.096795  1
  Ir  Ir21  1  0.500000  0.000000  0.596795  1
  Ir  Ir22  1  0.000000  0.500000  0.903205  1
  Ir  Ir23  1  0.000000  0.500000  0.403205  1
  Au  Au24  1  0.843308  0.156692  0.250000  1
  Au  Au25  1  0.843308  0.843308  0.750000  1
  Au  Au26  1  0.156692  0.156692  0.750000  1
  Au  Au27  1  0.156692  0.843308  0.250000  1
  Au  Au28  1  0.656692  0.343308  0.750000  1
  Au  Au29  1  0.656692  0.656692  0.250000  1
  Au  Au30  1  0.343308  0.343308  0.250000  1
  Au  Au31  1  0.343308  0.656692  0.750000  1
