# generated using pymatgen
data_Y5Er11Cd4TcPd3
_symmetry_space_group_name_H-M   'P 1'
_cell_length_a   9.67660883
_cell_length_b   9.67402792
_cell_length_c   9.67402610
_cell_angle_alpha   59.41010920
_cell_angle_beta   59.40200371
_cell_angle_gamma   59.40200576
_symmetry_Int_Tables_number   1
_chemical_formula_structural   Y5Er11Cd4TcPd3
_chemical_formula_sum   'Y5 Er11 Cd4 Tc1 Pd3'
_cell_volume   631.68337152
_cell_formula_units_Z   1
loop_
 _symmetry_equiv_pos_site_id
 _symmetry_equiv_pos_as_xyz
  1  'x, y, z'
loop_
 _atom_site_type_symbol
 _atom_site_label
 _atom_site_symmetry_multiplicity
 _atom_site_fract_x
 _atom_site_fract_y
 _atom_site_fract_z
 _atom_site_occupancy
  Y  Y0  1  0.556182  0.938211  0.938211  1
  Y  Y1  1  0.565579  0.934992  0.564926  1
  Y  Y2  1  0.938084  0.556229  0.937656  1
  Y  Y3  1  0.565579  0.564926  0.934992  1
  Y  Y4  1  0.938084  0.937656  0.556229  1
  Er  Er5  1  0.352573  0.353207  0.353207  1
  Er  Er6  1  0.351426  0.351563  0.944658  1
  Er  Er7  1  0.351426  0.944658  0.351563  1
  Er  Er8  1  0.944561  0.351683  0.351683  1
  Er  Er9  1  0.817445  0.187147  0.187147  1
  Er  Er10  1  0.188129  0.810862  0.810862  1
  Er  Er11  1  0.186755  0.817338  0.187494  1
  Er  Er12  1  0.810974  0.188527  0.810648  1
  Er  Er13  1  0.186755  0.187494  0.817338  1
  Er  Er14  1  0.810974  0.810648  0.188527  1
  Er  Er15  1  0.935845  0.564725  0.564725  1
  Cd  Cd16  1  0.580159  0.579827  0.579827  1
  Cd  Cd17  1  0.580714  0.580734  0.254673  1
  Cd  Cd18  1  0.580714  0.254673  0.580734  1
  Cd  Cd19  1  0.254122  0.580801  0.580801  1
  Tc  Tc20  1  0.145122  0.145143  0.145143  1
  Pd  Pd21  1  0.144785  0.145085  0.569032  1
  Pd  Pd22  1  0.144785  0.569032  0.145085  1
  Pd  Pd23  1  0.569229  0.144840  0.144840  1
