# generated using pymatgen
data_Tb17Dy3(Ir3Pt)3
_symmetry_space_group_name_H-M   'P 1'
_cell_length_a   11.00970291
_cell_length_b   11.00946989
_cell_length_c   6.36151703
_cell_angle_alpha   89.98429786
_cell_angle_beta   89.98192459
_cell_angle_gamma   90.19834120
_symmetry_Int_Tables_number   1
_chemical_formula_structural   Tb17Dy3(Ir3Pt)3
_chemical_formula_sum   'Tb17 Dy3 Ir9 Pt3'
_cell_volume   771.08110701
_cell_formula_units_Z   1
loop_
 _symmetry_equiv_pos_site_id
 _symmetry_equiv_pos_as_xyz
  1  'x, y, z'
loop_
 _atom_site_type_symbol
 _atom_site_label
 _atom_site_symmetry_multiplicity
 _atom_site_fract_x
 _atom_site_fract_y
 _atom_site_fract_z
 _atom_site_occupancy
  Tb  Tb0  1  0.293722  0.087294  0.372792  1
  Tb  Tb1  1  0.292945  0.908289  0.877885  1
  Tb  Tb2  1  0.705337  0.090275  0.874651  1
  Tb  Tb3  1  0.704453  0.909501  0.374168  1
  Tb  Tb4  1  0.585536  0.790951  0.879147  1
  Tb  Tb5  1  0.585879  0.209023  0.379213  1
  Tb  Tb6  1  0.410503  0.791199  0.378988  1
  Tb  Tb7  1  0.413854  0.209119  0.879055  1
  Tb  Tb8  1  0.209043  0.414473  0.620787  1
  Tb  Tb9  1  0.208801  0.589511  0.121054  1
  Tb  Tb10  1  0.790965  0.414115  0.120830  1
  Tb  Tb11  1  0.790888  0.586143  0.620878  1
  Tb  Tb12  1  0.912742  0.706340  0.127163  1
  Tb  Tb13  1  0.909697  0.294699  0.625412  1
  Tb  Tb14  1  0.091740  0.706998  0.622169  1
  Tb  Tb15  1  0.090460  0.295494  0.125784  1
  Tb  Tb16  1  0.001183  0.998099  0.499577  1
  Dy  Dy17  1  0.001912  0.998807  0.000428  1
  Dy  Dy18  1  0.499743  0.499915  0.000409  1
  Dy  Dy19  1  0.500082  0.500260  0.499591  1
  Ir  Ir20  1  0.152184  0.847852  0.249746  1
  Ir  Ir21  1  0.654175  0.345830  0.750010  1
  Ir  Ir22  1  0.654598  0.654143  0.249572  1
  Ir  Ir23  1  0.345859  0.345395  0.250405  1
  Ir  Ir24  1  0.346704  0.653293  0.750002  1
  Ir  Ir25  1  0.500507  0.000069  0.123631  1
  Ir  Ir26  1  0.500264  0.000309  0.624807  1
  Ir  Ir27  1  0.999693  0.499731  0.875192  1
  Ir  Ir28  1  0.999935  0.499492  0.376369  1
  Pt  Pt29  1  0.847033  0.152945  0.249720  1
  Pt  Pt30  1  0.845795  0.846206  0.750221  1
  Pt  Pt31  1  0.153765  0.154232  0.750346  1
