# generated using pymatgen
data_Hf16Pd7PtN4
_symmetry_space_group_name_H-M   'P 1'
_cell_length_a   8.77025888
_cell_length_b   8.76540537
_cell_length_c   8.76543100
_cell_angle_alpha   59.99990993
_cell_angle_beta   60.01807867
_cell_angle_gamma   60.01809942
_symmetry_Int_Tables_number   1
_chemical_formula_structural   Hf16Pd7PtN4
_chemical_formula_sum   'Hf16 Pd7 Pt1 N4'
_cell_volume   476.60773811
_cell_formula_units_Z   1
loop_
 _symmetry_equiv_pos_site_id
 _symmetry_equiv_pos_as_xyz
  1  'x, y, z'
loop_
 _atom_site_type_symbol
 _atom_site_label
 _atom_site_symmetry_multiplicity
 _atom_site_fract_x
 _atom_site_fract_y
 _atom_site_fract_z
 _atom_site_occupancy
  Hf  Hf0  1  0.124967  0.625011  0.625011  1
  Hf  Hf1  1  0.624489  0.125564  0.624973  1
  Hf  Hf2  1  0.624488  0.624973  0.125565  1
  Hf  Hf3  1  0.624489  0.624974  0.624973  1
  Hf  Hf4  1  0.817697  0.818052  0.182126  1
  Hf  Hf5  1  0.180882  0.181616  0.818751  1
  Hf  Hf6  1  0.817697  0.182126  0.818052  1
  Hf  Hf7  1  0.180882  0.818751  0.181616  1
  Hf  Hf8  1  0.180882  0.818751  0.818751  1
  Hf  Hf9  1  0.817697  0.182125  0.182127  1
  Hf  Hf10  1  0.431690  0.431610  0.068350  1
  Hf  Hf11  1  0.067834  0.068430  0.431868  1
  Hf  Hf12  1  0.431690  0.068350  0.431610  1
  Hf  Hf13  1  0.067834  0.431868  0.068430  1
  Hf  Hf14  1  0.067834  0.431867  0.431868  1
  Hf  Hf15  1  0.431690  0.068350  0.068349  1
  Pd  Pd16  1  0.408337  0.774606  0.408528  1
  Pd  Pd17  1  0.408337  0.408528  0.774606  1
  Pd  Pd18  1  0.408337  0.408528  0.408529  1
  Pd  Pd19  1  0.474886  0.841706  0.841704  1
  Pd  Pd20  1  0.841574  0.475785  0.841320  1
  Pd  Pd21  1  0.841572  0.841321  0.475786  1
  Pd  Pd22  1  0.841574  0.841322  0.841319  1
  Pt  Pt23  1  0.781285  0.406238  0.406239  1
  N  N24  1  0.625973  0.124676  0.124676  1
  N  N25  1  0.125128  0.624933  0.124970  1
  N  N26  1  0.125128  0.124970  0.624932  1
  N  N27  1  0.125128  0.124970  0.124970  1
