# generated using pymatgen
data_Sc12Co4HgRu
_symmetry_space_group_name_H-M   'P 1'
_cell_length_a   7.71048111
_cell_length_b   7.71048108
_cell_length_c   7.71048141
_cell_angle_alpha   111.22526226
_cell_angle_beta   111.17737862
_cell_angle_gamma   106.06381906
_symmetry_Int_Tables_number   1
_chemical_formula_structural   Sc12Co4HgRu
_chemical_formula_sum   'Sc12 Co4 Hg1 Ru1'
_cell_volume   351.94742873
_cell_formula_units_Z   1
loop_
 _symmetry_equiv_pos_site_id
 _symmetry_equiv_pos_as_xyz
  1  'x, y, z'
loop_
 _atom_site_type_symbol
 _atom_site_label
 _atom_site_symmetry_multiplicity
 _atom_site_fract_x
 _atom_site_fract_y
 _atom_site_fract_z
 _atom_site_occupancy
  Sc  Sc0  1  0.424213  0.226493  0.197721  1
  Sc  Sc1  1  0.575787  0.773507  0.802279  1
  Sc  Sc2  1  0.028772  0.226493  0.802279  1
  Sc  Sc3  1  0.971228  0.773507  0.197721  1
  Sc  Sc4  1  0.313244  0.613407  0.300163  1
  Sc  Sc5  1  0.686756  0.386593  0.699837  1
  Sc  Sc6  1  0.313244  0.013080  0.699837  1
  Sc  Sc7  1  0.686756  0.986920  0.300163  1
  Sc  Sc8  1  0.183889  0.275653  0.459542  1
  Sc  Sc9  1  0.816111  0.724346  0.540458  1
  Sc  Sc10  1  0.183889  0.724346  0.908236  1
  Sc  Sc11  1  0.816111  0.275653  0.091764  1
  Co  Co12  1  0.367589  0.000000  0.367589  1
  Co  Co13  1  0.632411  0.000000  0.632411  1
  Co  Co14  1  0.118447  0.618447  0.500000  1
  Co  Co15  1  0.881553  0.381553  0.500000  1
  Hg  Hg16  1  0.500000  0.500000  0.000000  1
  Ru  Ru17  1  0.000000  0.000000  0.000000  1
