# generated using pymatgen
data_Mn3V13(Si3Tc)4
_symmetry_space_group_name_H-M   'P 1'
_cell_length_a   6.98887245
_cell_length_b   6.98887286
_cell_length_c   13.24332309
_cell_angle_alpha   90.04397887
_cell_angle_beta   89.95602179
_cell_angle_gamma   140.31443420
_symmetry_Int_Tables_number   1
_chemical_formula_structural   Mn3V13(Si3Tc)4
_chemical_formula_sum   'Mn3 V13 Si12 Tc4'
_cell_volume   413.06870504
_cell_formula_units_Z   1
loop_
 _symmetry_equiv_pos_site_id
 _symmetry_equiv_pos_as_xyz
  1  'x, y, z'
loop_
 _atom_site_type_symbol
 _atom_site_label
 _atom_site_symmetry_multiplicity
 _atom_site_fract_x
 _atom_site_fract_y
 _atom_site_fract_z
 _atom_site_occupancy
  Mn  Mn0  1  0.501986  0.501986  0.000000  1
  Mn  Mn1  1  0.500710  0.500710  0.500000  1
  Mn  Mn2  1  0.000093  0.000093  0.000000  1
  V  V3  1  0.844078  0.653203  0.679696  1
  V  V4  1  0.348124  0.154292  0.177953  1
  V  V5  1  0.653203  0.844078  0.320304  1
  V  V6  1  0.154292  0.348124  0.822047  1
  V  V7  1  0.658377  0.849664  0.674558  1
  V  V8  1  0.153798  0.347669  0.174416  1
  V  V9  1  0.849664  0.658377  0.325442  1
  V  V10  1  0.347669  0.153798  0.825584  1
  V  V11  1  0.422288  0.071449  0.400398  1
  V  V12  1  0.927438  0.573853  0.901588  1
  V  V13  1  0.071449  0.422288  0.599602  1
  V  V14  1  0.573853  0.927438  0.098412  1
  V  V15  1  0.999301  0.999301  0.500000  1
  Si  Si16  1  0.247893  0.748183  0.749784  1
  Si  Si17  1  0.748183  0.247893  0.250216  1
  Si  Si18  1  0.751714  0.252277  0.750106  1
  Si  Si19  1  0.252277  0.751714  0.249894  1
  Si  Si20  1  0.255006  0.256679  0.662250  1
  Si  Si21  1  0.751837  0.752951  0.158651  1
  Si  Si22  1  0.256679  0.255006  0.337750  1
  Si  Si23  1  0.752951  0.751837  0.841349  1
  Si  Si24  1  0.574490  0.902082  0.498867  1
  Si  Si25  1  0.090498  0.411639  0.999188  1
  Si  Si26  1  0.902082  0.574490  0.501133  1
  Si  Si27  1  0.411639  0.090498  0.000812  1
  Tc  Tc28  1  0.071277  0.425181  0.399715  1
  Tc  Tc29  1  0.572810  0.929157  0.899601  1
  Tc  Tc30  1  0.425181  0.071277  0.600285  1
  Tc  Tc31  1  0.929157  0.572810  0.100399  1
