# generated using pymatgen
data_RbSb(PS3)2
_symmetry_space_group_name_H-M   'P 1'
_cell_length_a   8.06668400
_cell_length_b   6.89615804
_cell_length_c   10.07993268
_cell_angle_alpha   87.69695194
_cell_angle_beta   90.00000000
_cell_angle_gamma   90.00000000
_symmetry_Int_Tables_number   1
_chemical_formula_structural   RbSb(PS3)2
_chemical_formula_sum   'Rb2 Sb2 P4 S12'
_cell_volume   560.28493150
_cell_formula_units_Z   2
loop_
 _symmetry_equiv_pos_site_id
 _symmetry_equiv_pos_as_xyz
  1  'x, y, z'
loop_
 _atom_site_type_symbol
 _atom_site_label
 _atom_site_symmetry_multiplicity
 _atom_site_fract_x
 _atom_site_fract_y
 _atom_site_fract_z
 _atom_site_occupancy
  Rb  Rb0  1  0.446317  0.698121  0.490655  1
  Rb  Rb1  1  0.946317  0.301879  0.509345  1
  Sb  Sb2  1  0.742719  0.817084  0.017896  1
  Sb  Sb3  1  0.242719  0.182916  0.982104  1
  P  P4  1  0.934403  0.792635  0.294909  1
  P  P5  1  0.646270  0.302721  0.835426  1
  P  P6  1  0.146270  0.697279  0.164574  1
  P  P7  1  0.434403  0.207365  0.705091  1
  S  S8  1  0.363566  0.955291  0.809562  1
  S  S9  1  0.034022  0.682895  0.977850  1
  S  S10  1  0.255814  0.406708  0.740025  1
  S  S11  1  0.534022  0.317105  0.022150  1
  S  S12  1  0.830566  0.095227  0.834317  1
  S  S13  1  0.330566  0.904773  0.165683  1
  S  S14  1  0.755814  0.593292  0.259975  1
  S  S15  1  0.863566  0.044709  0.190438  1
  S  S16  1  0.510188  0.182230  0.520255  1
  S  S17  1  0.729286  0.559559  0.763441  1
  S  S18  1  0.010188  0.817770  0.479745  1
  S  S19  1  0.229286  0.440441  0.236559  1
