# generated using pymatgen
data_Ti2BeCuSi4
_symmetry_space_group_name_H-M   'P 1'
_cell_length_a   3.55775200
_cell_length_b   3.55775200
_cell_length_c   8.46162700
_cell_angle_alpha   90.00000000
_cell_angle_beta   90.00000000
_cell_angle_gamma   90.00000000
_symmetry_Int_Tables_number   1
_chemical_formula_structural   Ti2BeCuSi4
_chemical_formula_sum   'Ti2 Be1 Cu1 Si4'
_cell_volume   107.10388394
_cell_formula_units_Z   1
loop_
 _symmetry_equiv_pos_site_id
 _symmetry_equiv_pos_as_xyz
  1  'x, y, z'
loop_
 _atom_site_type_symbol
 _atom_site_label
 _atom_site_symmetry_multiplicity
 _atom_site_fract_x
 _atom_site_fract_y
 _atom_site_fract_z
 _atom_site_occupancy
  Ti  Ti0  1  0.000000  0.500000  0.264434  1
  Ti  Ti1  1  0.500000  0.000000  0.735566  1
  Be  Be2  1  0.000000  0.000000  0.000000  1
  Cu  Cu3  1  0.500000  0.500000  0.000000  1
  Si  Si4  1  0.500000  0.000000  0.186854  1
  Si  Si5  1  0.000000  0.000000  0.500000  1
  Si  Si6  1  0.500000  0.500000  0.500000  1
  Si  Si7  1  0.000000  0.500000  0.813146  1
