# generated using pymatgen
data_ThSi2TcOs
_symmetry_space_group_name_H-M   'P 1'
_cell_length_a   5.73948288
_cell_length_b   5.73948263
_cell_length_c   5.73948221
_cell_angle_alpha   136.38779877
_cell_angle_beta   136.38779585
_cell_angle_gamma   63.38137161
_symmetry_Int_Tables_number   1
_chemical_formula_structural   ThSi2TcOs
_chemical_formula_sum   'Th1 Si2 Tc1 Os1'
_cell_volume   88.79627651
_cell_formula_units_Z   1
loop_
 _symmetry_equiv_pos_site_id
 _symmetry_equiv_pos_as_xyz
  1  'x, y, z'
loop_
 _atom_site_type_symbol
 _atom_site_label
 _atom_site_symmetry_multiplicity
 _atom_site_fract_x
 _atom_site_fract_y
 _atom_site_fract_z
 _atom_site_occupancy
  Th  Th0  1  0.000000  0.000000  0.000000  1
  Si  Si1  1  0.632171  0.632171  0.000000  1
  Si  Si2  1  0.367829  0.367829  0.000000  1
  Tc  Tc3  1  0.250000  0.750000  0.500000  1
  Os  Os4  1  0.750000  0.250000  0.500000  1
