# generated using pymatgen
data_Y4Er8InCo5
_symmetry_space_group_name_H-M   'P 1'
_cell_length_a   8.25399365
_cell_length_b   8.25399268
_cell_length_c   8.25399400
_cell_angle_alpha   110.89255911
_cell_angle_beta   110.56887330
_cell_angle_gamma   106.98074317
_symmetry_Int_Tables_number   1
_chemical_formula_structural   Y4Er8InCo5
_chemical_formula_sum   'Y4 Er8 In1 Co5'
_cell_volume   432.26925119
_cell_formula_units_Z   1
loop_
 _symmetry_equiv_pos_site_id
 _symmetry_equiv_pos_as_xyz
  1  'x, y, z'
loop_
 _atom_site_type_symbol
 _atom_site_label
 _atom_site_symmetry_multiplicity
 _atom_site_fract_x
 _atom_site_fract_y
 _atom_site_fract_z
 _atom_site_occupancy
  Y  Y0  1  0.290623  0.187868  0.478492  1
  Y  Y1  1  0.709377  0.812132  0.521508  1
  Y  Y2  1  0.290623  0.812132  0.102755  1
  Y  Y3  1  0.709377  0.187868  0.897245  1
  Er  Er4  1  0.620338  0.314030  0.306308  1
  Er  Er5  1  0.379662  0.685970  0.693692  1
  Er  Er6  1  0.007721  0.314030  0.693692  1
  Er  Er7  1  0.992279  0.685970  0.306308  1
  Er  Er8  1  0.210106  0.401460  0.191353  1
  Er  Er9  1  0.789894  0.598540  0.808647  1
  Er  Er10  1  0.210106  0.018753  0.808647  1
  Er  Er11  1  0.789894  0.981247  0.191353  1
  In  In12  1  0.500000  0.500000  0.000000  1
  Co  Co13  1  0.000000  0.378644  0.378644  1
  Co  Co14  1  0.000000  0.621356  0.621356  1
  Co  Co15  1  0.387196  0.887196  0.500000  1
  Co  Co16  1  0.612804  0.112804  0.500000  1
  Co  Co17  1  0.000000  0.000000  0.000000  1
