# generated using pymatgen
data_Nd4(Pd3Au)3
_symmetry_space_group_name_H-M   'P 1'
_cell_length_a   7.35629721
_cell_length_b   7.35629803
_cell_length_c   7.35629857
_cell_angle_alpha   108.26242556
_cell_angle_beta   108.26243031
_cell_angle_gamma   111.91683235
_symmetry_Int_Tables_number   1
_chemical_formula_structural   Nd4(Pd3Au)3
_chemical_formula_sum   'Nd4 Pd9 Au3'
_cell_volume   306.02676944
_cell_formula_units_Z   1
loop_
 _symmetry_equiv_pos_site_id
 _symmetry_equiv_pos_as_xyz
  1  'x, y, z'
loop_
 _atom_site_type_symbol
 _atom_site_label
 _atom_site_symmetry_multiplicity
 _atom_site_fract_x
 _atom_site_fract_y
 _atom_site_fract_z
 _atom_site_occupancy
  Nd  Nd0  1  0.244653  0.244653  0.489306  1
  Nd  Nd1  1  0.755347  0.755347  0.510694  1
  Nd  Nd2  1  0.244653  0.755347  0.000000  1
  Nd  Nd3  1  0.755347  0.244653  0.000000  1
  Pd  Pd4  1  0.502049  0.253452  0.248596  1
  Pd  Pd5  1  0.497951  0.746548  0.751404  1
  Pd  Pd6  1  0.004856  0.253452  0.751404  1
  Pd  Pd7  1  0.253452  0.004856  0.751404  1
  Pd  Pd8  1  0.995144  0.746548  0.248596  1
  Pd  Pd9  1  0.746548  0.995144  0.248596  1
  Pd  Pd10  1  0.253452  0.502049  0.248596  1
  Pd  Pd11  1  0.746548  0.497951  0.751404  1
  Pd  Pd12  1  0.000000  0.000000  0.000000  1
  Au  Au13  1  0.500000  0.000000  0.500000  1
  Au  Au14  1  0.000000  0.500000  0.500000  1
  Au  Au15  1  0.500000  0.500000  0.000000  1
