# generated using pymatgen
data_Nd2Y3Hf3(Ni4P3)4
_symmetry_space_group_name_H-M   'P 1'
_cell_length_a   12.39049000
_cell_length_b   12.39048904
_cell_length_c   3.82402200
_cell_angle_alpha   90.00000000
_cell_angle_beta   90.00000000
_cell_angle_gamma   120.00000256
_symmetry_Int_Tables_number   1
_chemical_formula_structural   Nd2Y3Hf3(Ni4P3)4
_chemical_formula_sum   'Nd2 Y3 Hf3 Ni16 P12'
_cell_volume   508.42621150
_cell_formula_units_Z   1
loop_
 _symmetry_equiv_pos_site_id
 _symmetry_equiv_pos_as_xyz
  1  'x, y, z'
loop_
 _atom_site_type_symbol
 _atom_site_label
 _atom_site_symmetry_multiplicity
 _atom_site_fract_x
 _atom_site_fract_y
 _atom_site_fract_z
 _atom_site_occupancy
  Nd  Nd0  1  0.333333  0.666667  0.000000  1
  Nd  Nd1  1  0.666667  0.333333  0.000000  1
  Y  Y2  1  0.185126  0.185126  0.500000  1
  Y  Y3  1  0.814874  0.000000  0.500000  1
  Y  Y4  1  0.000000  0.814874  0.500000  1
  Hf  Hf5  1  0.562693  0.562693  0.000000  1
  Hf  Hf6  1  0.437307  0.000000  0.000000  1
  Hf  Hf7  1  0.000000  0.437307  0.000000  1
  Ni  Ni8  1  0.726607  0.726607  0.500000  1
  Ni  Ni9  1  0.273393  0.000000  0.500000  1
  Ni  Ni10  1  0.000000  0.273393  0.500000  1
  Ni  Ni11  1  0.183672  0.374889  0.000000  1
  Ni  Ni12  1  0.625111  0.808783  0.000000  1
  Ni  Ni13  1  0.191217  0.816328  0.000000  1
  Ni  Ni14  1  0.808783  0.625111  0.000000  1
  Ni  Ni15  1  0.816328  0.191217  0.000000  1
  Ni  Ni16  1  0.374889  0.183672  0.000000  1
  Ni  Ni17  1  0.361913  0.483232  0.500000  1
  Ni  Ni18  1  0.516768  0.878682  0.500000  1
  Ni  Ni19  1  0.121318  0.638087  0.500000  1
  Ni  Ni20  1  0.878682  0.516768  0.500000  1
  Ni  Ni21  1  0.638087  0.121318  0.500000  1
  Ni  Ni22  1  0.483232  0.361913  0.500000  1
  Ni  Ni23  1  0.000000  0.000000  0.000000  1
  P  P24  1  0.822853  0.822853  0.000000  1
  P  P25  1  0.177147  0.000000  0.000000  1
  P  P26  1  0.000000  0.177147  0.000000  1
  P  P27  1  0.168020  0.472352  0.500000  1
  P  P28  1  0.527648  0.695668  0.500000  1
  P  P29  1  0.304332  0.831980  0.500000  1
  P  P30  1  0.695668  0.527648  0.500000  1
  P  P31  1  0.831980  0.304332  0.500000  1
  P  P32  1  0.472352  0.168020  0.500000  1
  P  P33  1  0.357621  0.357621  0.000000  1
  P  P34  1  0.642379  0.000000  0.000000  1
  P  P35  1  0.000000  0.642379  0.000000  1
