# generated using pymatgen
data_YbSc2Ga5Cu6
_symmetry_space_group_name_H-M   'P 1'
_cell_length_a   7.76421436
_cell_length_b   7.76421495
_cell_length_c   7.76421500
_cell_angle_alpha   148.60345807
_cell_angle_beta   113.53593223
_cell_angle_gamma   75.35044094
_symmetry_Int_Tables_number   1
_chemical_formula_structural   YbSc2Ga5Cu6
_chemical_formula_sum   'Yb1 Sc2 Ga5 Cu6'
_cell_volume   219.72723588
_cell_formula_units_Z   1
loop_
 _symmetry_equiv_pos_site_id
 _symmetry_equiv_pos_as_xyz
  1  'x, y, z'
loop_
 _atom_site_type_symbol
 _atom_site_label
 _atom_site_symmetry_multiplicity
 _atom_site_fract_x
 _atom_site_fract_y
 _atom_site_fract_z
 _atom_site_occupancy
  Yb  Yb0  1  0.000000  0.000000  0.000000  1
  Sc  Sc1  1  0.692449  0.692449  0.000000  1
  Sc  Sc2  1  0.307551  0.307551  0.000000  1
  Ga  Ga3  1  0.323225  0.673905  0.649319  1
  Ga  Ga4  1  0.500000  0.000000  0.500000  1
  Ga  Ga5  1  0.676775  0.326095  0.350681  1
  Ga  Ga6  1  0.975415  0.326095  0.649319  1
  Ga  Ga7  1  0.024585  0.673905  0.350681  1
  Cu  Cu8  1  0.308009  0.500000  0.808009  1
  Cu  Cu9  1  0.691991  0.500000  0.191991  1
  Cu  Cu10  1  0.406022  0.127067  0.278951  1
  Cu  Cu11  1  0.848116  0.127067  0.721049  1
  Cu  Cu12  1  0.151884  0.872933  0.278951  1
  Cu  Cu13  1  0.593978  0.872933  0.721049  1
