# generated using pymatgen
data_Ca5Zr3Co13(NiAs4)3
_symmetry_space_group_name_H-M   'P 1'
_cell_length_a   12.80910506
_cell_length_b   12.80402068
_cell_length_c   3.85816100
_cell_angle_alpha   90.00000000
_cell_angle_beta   90.00000000
_cell_angle_gamma   120.02386753
_symmetry_Int_Tables_number   1
_chemical_formula_structural   Ca5Zr3Co13(NiAs4)3
_chemical_formula_sum   'Ca5 Zr3 Co13 Ni3 As12'
_cell_volume   547.86257292
_cell_formula_units_Z   1
loop_
 _symmetry_equiv_pos_site_id
 _symmetry_equiv_pos_as_xyz
  1  'x, y, z'
loop_
 _atom_site_type_symbol
 _atom_site_label
 _atom_site_symmetry_multiplicity
 _atom_site_fract_x
 _atom_site_fract_y
 _atom_site_fract_z
 _atom_site_occupancy
  Ca  Ca0  1  0.180382  0.180991  0.500000  1
  Ca  Ca1  1  0.818191  0.999638  0.500000  1
  Ca  Ca2  1  0.000339  0.818374  0.500000  1
  Ca  Ca3  1  0.333430  0.666640  0.000000  1
  Ca  Ca4  1  0.667075  0.333532  0.000000  1
  Zr  Zr5  1  0.559361  0.558819  0.000000  1
  Zr  Zr6  1  0.440639  0.999487  0.000000  1
  Zr  Zr7  1  0.999724  0.440878  0.000000  1
  Co  Co8  1  0.717495  0.717242  0.500000  1
  Co  Co9  1  0.282668  0.000621  0.500000  1
  Co  Co10  1  0.999387  0.282149  0.500000  1
  Co  Co11  1  0.176223  0.375161  0.000000  1
  Co  Co12  1  0.624336  0.800402  0.000000  1
  Co  Co13  1  0.198133  0.823171  0.000000  1
  Co  Co14  1  0.804165  0.626127  0.000000  1
  Co  Co15  1  0.820194  0.196040  0.000000  1
  Co  Co16  1  0.374995  0.179358  0.000000  1
  Co  Co17  1  0.356285  0.476042  0.500000  1
  Co  Co18  1  0.523021  0.879066  0.500000  1
  Co  Co19  1  0.121451  0.643271  0.500000  1
  Co  Co20  1  0.880763  0.522141  0.500000  1
  Ni  Ni21  1  0.642823  0.122197  0.500000  1
  Ni  Ni22  1  0.479875  0.358385  0.500000  1
  Ni  Ni23  1  0.999972  0.000167  0.000000  1
  As  As24  1  0.820262  0.820243  0.000000  1
  As  As25  1  0.179910  0.000214  0.000000  1
  As  As26  1  0.999233  0.179867  0.000000  1
  As  As27  1  0.173105  0.481825  0.500000  1
  As  As28  1  0.517774  0.690399  0.500000  1
  As  As29  1  0.308606  0.826804  0.500000  1
  As  As30  1  0.696461  0.521736  0.500000  1
  As  As31  1  0.828753  0.309583  0.500000  1
  As  As32  1  0.478266  0.172263  0.500000  1
  As  As33  1  0.346680  0.350900  0.000000  1
  As  As34  1  0.648603  0.995811  0.000000  1
  As  As35  1  0.001417  0.650457  0.000000  1
