# generated using pymatgen
data_Dy6Lu10In5GaCo2
_symmetry_space_group_name_H-M   'P 1'
_cell_length_a   10.11887200
_cell_length_b   10.10983288
_cell_length_c   7.00134502
_cell_angle_alpha   90.01356236
_cell_angle_beta   90.00000000
_cell_angle_gamma   120.02958073
_symmetry_Int_Tables_number   1
_chemical_formula_structural   Dy6Lu10In5GaCo2
_chemical_formula_sum   'Dy6 Lu10 In5 Ga1 Co2'
_cell_volume   620.09559259
_cell_formula_units_Z   1
loop_
 _symmetry_equiv_pos_site_id
 _symmetry_equiv_pos_as_xyz
  1  'x, y, z'
loop_
 _atom_site_type_symbol
 _atom_site_label
 _atom_site_symmetry_multiplicity
 _atom_site_fract_x
 _atom_site_fract_y
 _atom_site_fract_z
 _atom_site_occupancy
  Dy  Dy0  1  0.464987  0.929976  0.216591  1
  Dy  Dy1  1  0.542868  0.471295  0.712755  1
  Dy  Dy2  1  0.928429  0.471295  0.712755  1
  Dy  Dy3  1  0.533913  0.067826  0.712761  1
  Dy  Dy4  1  0.999662  0.999324  0.226707  1
  Dy  Dy5  1  0.996152  0.992305  0.724671  1
  Lu  Lu6  1  0.170523  0.816075  0.501774  1
  Lu  Lu7  1  0.645552  0.816075  0.501774  1
  Lu  Lu8  1  0.179700  0.359400  0.509533  1
  Lu  Lu9  1  0.820747  0.180898  0.009188  1
  Lu  Lu10  1  0.360151  0.180898  0.009188  1
  Lu  Lu11  1  0.821122  0.642246  0.027556  1
  Lu  Lu12  1  0.332986  0.665971  0.816968  1
  Lu  Lu13  1  0.670126  0.340251  0.324594  1
  Lu  Lu14  1  0.460697  0.533274  0.210751  1
  Lu  Lu15  1  0.072575  0.533274  0.210751  1
  In  In16  1  0.162839  0.835101  0.959819  1
  In  In17  1  0.672262  0.835101  0.959819  1
  In  In18  1  0.162907  0.325815  0.959300  1
  In  In19  1  0.835764  0.163106  0.462539  1
  In  In20  1  0.327343  0.163106  0.462539  1
  Ga  Ga21  1  0.837990  0.675980  0.459946  1
  Co  Co22  1  0.332725  0.665452  0.438464  1
  Co  Co23  1  0.667980  0.335958  0.944093  1
