# generated using pymatgen
data_LiHf7Co16SiP11
_symmetry_space_group_name_H-M   'P 1'
_cell_length_a   12.03230122
_cell_length_b   12.05994910
_cell_length_c   3.63097900
_cell_angle_alpha   90.00000000
_cell_angle_beta   90.00000000
_cell_angle_gamma   120.47790347
_symmetry_Int_Tables_number   1
_chemical_formula_structural   LiHf7Co16SiP11
_chemical_formula_sum   'Li1 Hf7 Co16 Si1 P11'
_cell_volume   454.08474415
_cell_formula_units_Z   1
loop_
 _symmetry_equiv_pos_site_id
 _symmetry_equiv_pos_as_xyz
  1  'x, y, z'
loop_
 _atom_site_type_symbol
 _atom_site_label
 _atom_site_symmetry_multiplicity
 _atom_site_fract_x
 _atom_site_fract_y
 _atom_site_fract_z
 _atom_site_occupancy
  Li  Li0  1  0.444707  0.444144  0.000000  1
  Hf  Hf1  1  0.815749  0.816227  0.500000  1
  Hf  Hf2  1  0.997725  0.174559  0.500000  1
  Hf  Hf3  1  0.553815  0.997224  0.000000  1
  Hf  Hf4  1  0.331662  0.664260  0.000000  1
  Hf  Hf5  1  0.665518  0.331569  0.000000  1
  Hf  Hf6  1  0.998003  0.556828  0.000000  1
  Hf  Hf7  1  0.176882  0.998563  0.500000  1
  Co  Co8  1  0.628972  0.820060  0.000000  1
  Co  Co9  1  0.375632  0.200222  0.000000  1
  Co  Co10  1  0.000712  0.722851  0.500000  1
  Co  Co11  1  0.286357  0.285176  0.500000  1
  Co  Co12  1  0.872037  0.355476  0.500000  1
  Co  Co13  1  0.720973  0.998818  0.500000  1
  Co  Co14  1  0.819557  0.629560  0.000000  1
  Co  Co15  1  0.178324  0.808574  0.000000  1
  Co  Co16  1  0.354719  0.872506  0.500000  1
  Co  Co17  1  0.129728  0.481968  0.500000  1
  Co  Co18  1  0.643284  0.516107  0.500000  1
  Co  Co19  1  0.003371  0.002490  0.000000  1
  Co  Co20  1  0.517502  0.644662  0.500000  1
  Co  Co21  1  0.477870  0.126816  0.500000  1
  Co  Co22  1  0.204801  0.376194  0.000000  1
  Co  Co23  1  0.803640  0.174575  0.000000  1
  Si  Si24  1  0.005146  0.347631  0.000000  1
  P  P25  1  0.824299  0.517165  0.500000  1
  P  P26  1  0.689179  0.173168  0.500000  1
  P  P27  1  0.179615  0.179900  0.000000  1
  P  P28  1  0.638783  0.639242  0.000000  1
  P  P29  1  0.825741  0.998157  0.000000  1
  P  P30  1  0.516364  0.824300  0.500000  1
  P  P31  1  0.173689  0.689743  0.500000  1
  P  P32  1  0.346966  0.005361  0.000000  1
  P  P33  1  0.484570  0.315975  0.500000  1
  P  P34  1  0.997802  0.825612  0.000000  1
  P  P35  1  0.316307  0.484313  0.500000  1
