# generated using pymatgen
data_Nd10ZnGeBi6
_symmetry_space_group_name_H-M   'P 1'
_cell_length_a   9.69618600
_cell_length_b   9.69618652
_cell_length_c   6.62300800
_cell_angle_alpha   90.00000000
_cell_angle_beta   90.00000000
_cell_angle_gamma   119.99999821
_symmetry_Int_Tables_number   1
_chemical_formula_structural   Nd10ZnGeBi6
_chemical_formula_sum   'Nd10 Zn1 Ge1 Bi6'
_cell_volume   539.24710019
_cell_formula_units_Z   1
loop_
 _symmetry_equiv_pos_site_id
 _symmetry_equiv_pos_as_xyz
  1  'x, y, z'
loop_
 _atom_site_type_symbol
 _atom_site_label
 _atom_site_symmetry_multiplicity
 _atom_site_fract_x
 _atom_site_fract_y
 _atom_site_fract_z
 _atom_site_occupancy
  Nd  Nd0  1  0.666667  0.333333  0.000000  1
  Nd  Nd1  1  0.333333  0.666667  0.000000  1
  Nd  Nd2  1  0.333333  0.666667  0.500000  1
  Nd  Nd3  1  0.666667  0.333333  0.500000  1
  Nd  Nd4  1  0.743149  0.743149  0.755362  1
  Nd  Nd5  1  0.256851  0.000000  0.755362  1
  Nd  Nd6  1  0.000000  0.256851  0.755362  1
  Nd  Nd7  1  0.256851  0.256851  0.244638  1
  Nd  Nd8  1  0.743149  0.000000  0.244638  1
  Nd  Nd9  1  0.000000  0.743149  0.244638  1
  Zn  Zn10  1  0.000000  0.000000  0.500000  1
  Ge  Ge11  1  0.000000  0.000000  0.000000  1
  Bi  Bi12  1  0.386665  0.386665  0.748947  1
  Bi  Bi13  1  0.613335  0.000000  0.748947  1
  Bi  Bi14  1  0.000000  0.613335  0.748947  1
  Bi  Bi15  1  0.613335  0.613335  0.251053  1
  Bi  Bi16  1  0.386665  0.000000  0.251053  1
  Bi  Bi17  1  0.000000  0.386665  0.251053  1
