# generated using pymatgen
data_TbHo2AlIn2Au3
_symmetry_space_group_name_H-M   'P 1'
_cell_length_a   7.69630464
_cell_length_b   7.69630521
_cell_length_c   3.98297700
_cell_angle_alpha   90.00000000
_cell_angle_beta   90.00000000
_cell_angle_gamma   120.78119221
_symmetry_Int_Tables_number   1
_chemical_formula_structural   TbHo2AlIn2Au3
_chemical_formula_sum   'Tb1 Ho2 Al1 In2 Au3'
_cell_volume   202.68899524
_cell_formula_units_Z   1
loop_
 _symmetry_equiv_pos_site_id
 _symmetry_equiv_pos_as_xyz
  1  'x, y, z'
loop_
 _atom_site_type_symbol
 _atom_site_label
 _atom_site_symmetry_multiplicity
 _atom_site_fract_x
 _atom_site_fract_y
 _atom_site_fract_z
 _atom_site_occupancy
  Tb  Tb0  1  0.409728  0.409728  0.500000  1
  Ho  Ho1  1  0.594948  0.999380  0.500000  1
  Ho  Ho2  1  0.999380  0.594948  0.500000  1
  Al  Al3  1  0.745028  0.745028  0.000000  1
  In  In4  1  0.257020  0.999140  0.000000  1
  In  In5  1  0.999140  0.257020  0.000000  1
  Au  Au6  1  0.671322  0.348435  0.000000  1
  Au  Au7  1  0.348435  0.671322  0.000000  1
  Au  Au8  1  0.974999  0.974999  0.500000  1
