# generated using pymatgen
data_Ac(PaN2)2
_symmetry_space_group_name_H-M   'P 1'
_cell_length_a   7.15119067
_cell_length_b   7.15119139
_cell_length_c   7.15119001
_cell_angle_alpha   119.98387415
_cell_angle_beta   90.02793806
_cell_angle_gamma   119.98386332
_symmetry_Int_Tables_number   1
_chemical_formula_structural   Ac(PaN2)2
_chemical_formula_sum   'Ac2 Pa4 N8'
_cell_volume   258.65800148
_cell_formula_units_Z   2
loop_
 _symmetry_equiv_pos_site_id
 _symmetry_equiv_pos_as_xyz
  1  'x, y, z'
loop_
 _atom_site_type_symbol
 _atom_site_label
 _atom_site_symmetry_multiplicity
 _atom_site_fract_x
 _atom_site_fract_y
 _atom_site_fract_z
 _atom_site_occupancy
  Ac  Ac0  1  0.000000  0.000000  0.000000  1
  Ac  Ac1  1  0.750001  0.500000  0.250000  1
  Pa  Pa2  1  0.375000  0.750000  0.125000  1
  Pa  Pa3  1  0.375000  0.750000  0.624999  1
  Pa  Pa4  1  0.375000  0.249999  0.624999  1
  Pa  Pa5  1  0.874999  0.249999  0.625000  1
  N  N6  1  0.604036  0.208122  0.395915  1
  N  N7  1  0.187794  0.791879  0.395915  1
  N  N8  1  0.604086  0.791879  0.395964  1
  N  N9  1  0.145914  0.291879  0.437793  1
  N  N10  1  0.604085  0.208122  0.812207  1
  N  N11  1  0.145914  0.708120  0.854034  1
  N  N12  1  0.145965  0.291879  0.854085  1
  N  N13  1  0.562206  0.708120  0.854085  1
