# generated using pymatgen
data_Dy4OsWC4
_symmetry_space_group_name_H-M   'P 1'
_cell_length_a   5.11748200
_cell_length_b   6.59656069
_cell_length_c   9.90119259
_cell_angle_alpha   89.25568557
_cell_angle_beta   90.00000000
_cell_angle_gamma   90.00000000
_symmetry_Int_Tables_number   1
_chemical_formula_structural   Dy4OsWC4
_chemical_formula_sum   'Dy8 Os2 W2 C8'
_cell_volume   334.21408437
_cell_formula_units_Z   2
loop_
 _symmetry_equiv_pos_site_id
 _symmetry_equiv_pos_as_xyz
  1  'x, y, z'
loop_
 _atom_site_type_symbol
 _atom_site_label
 _atom_site_symmetry_multiplicity
 _atom_site_fract_x
 _atom_site_fract_y
 _atom_site_fract_z
 _atom_site_occupancy
  Dy  Dy0  1  0.250000  0.679883  0.555759  1
  Dy  Dy1  1  0.750000  0.320117  0.444241  1
  Dy  Dy2  1  0.750000  0.821248  0.056922  1
  Dy  Dy3  1  0.250000  0.178752  0.943078  1
  Dy  Dy4  1  0.250000  0.537016  0.218223  1
  Dy  Dy5  1  0.750000  0.462984  0.781777  1
  Dy  Dy6  1  0.750000  0.970550  0.717048  1
  Dy  Dy7  1  0.250000  0.029450  0.282952  1
  Os  Os8  1  0.750000  0.777012  0.365635  1
  Os  Os9  1  0.250000  0.222988  0.634365  1
  W  W10  1  0.250000  0.718745  0.866538  1
  W  W11  1  0.750000  0.281255  0.133462  1
  C  C12  1  0.250000  0.452943  0.758129  1
  C  C13  1  0.750000  0.547057  0.241871  1
  C  C14  1  0.750000  0.043256  0.260134  1
  C  C15  1  0.250000  0.956744  0.739866  1
  C  C16  1  0.250000  0.824080  0.052526  1
  C  C17  1  0.750000  0.175920  0.947474  1
  C  C18  1  0.750000  0.677384  0.548296  1
  C  C19  1  0.250000  0.322616  0.451704  1
