# generated using pymatgen
data_Tm10IrPt5
_symmetry_space_group_name_H-M   'P 1'
_cell_length_a   10.90314300
_cell_length_b   10.90314300
_cell_length_c   6.32981300
_cell_angle_alpha   90.00000000
_cell_angle_beta   90.00000000
_cell_angle_gamma   90.00000000
_symmetry_Int_Tables_number   1
_chemical_formula_structural   Tm10IrPt5
_chemical_formula_sum   'Tm20 Ir2 Pt10'
_cell_volume   752.47884739
_cell_formula_units_Z   2
loop_
 _symmetry_equiv_pos_site_id
 _symmetry_equiv_pos_as_xyz
  1  'x, y, z'
loop_
 _atom_site_type_symbol
 _atom_site_label
 _atom_site_symmetry_multiplicity
 _atom_site_fract_x
 _atom_site_fract_y
 _atom_site_fract_z
 _atom_site_occupancy
  Tm  Tm0  1  0.292368  0.088384  0.377123  1
  Tm  Tm1  1  0.292368  0.911616  0.877123  1
  Tm  Tm2  1  0.707632  0.088384  0.877123  1
  Tm  Tm3  1  0.707632  0.911616  0.377123  1
  Tm  Tm4  1  0.588384  0.792368  0.877123  1
  Tm  Tm5  1  0.588384  0.207632  0.377123  1
  Tm  Tm6  1  0.411616  0.792368  0.377123  1
  Tm  Tm7  1  0.411616  0.207632  0.877123  1
  Tm  Tm8  1  0.205171  0.412304  0.623514  1
  Tm  Tm9  1  0.205171  0.587696  0.123514  1
  Tm  Tm10  1  0.794829  0.412304  0.123514  1
  Tm  Tm11  1  0.794829  0.587696  0.623514  1
  Tm  Tm12  1  0.912304  0.705171  0.123514  1
  Tm  Tm13  1  0.912304  0.294829  0.623514  1
  Tm  Tm14  1  0.087696  0.705171  0.623514  1
  Tm  Tm15  1  0.087696  0.294829  0.123514  1
  Tm  Tm16  1  0.000000  0.000000  0.500615  1
  Tm  Tm17  1  0.000000  0.000000  0.000615  1
  Tm  Tm18  1  0.500000  0.500000  0.000615  1
  Tm  Tm19  1  0.500000  0.500000  0.500615  1
  Ir  Ir20  1  0.000000  0.500000  0.877778  1
  Ir  Ir21  1  0.000000  0.500000  0.377778  1
  Pt  Pt22  1  0.845796  0.153077  0.249818  1
  Pt  Pt23  1  0.845796  0.846923  0.749818  1
  Pt  Pt24  1  0.154204  0.153077  0.749818  1
  Pt  Pt25  1  0.154204  0.846923  0.249818  1
  Pt  Pt26  1  0.653077  0.345796  0.749818  1
  Pt  Pt27  1  0.653077  0.654204  0.249818  1
  Pt  Pt28  1  0.346923  0.345796  0.249818  1
  Pt  Pt29  1  0.346923  0.654204  0.749818  1
  Pt  Pt30  1  0.500000  0.000000  0.119174  1
  Pt  Pt31  1  0.500000  0.000000  0.619174  1
