# generated using pymatgen
data_LaHoSn5Ir3
_symmetry_space_group_name_H-M   'P 1'
_cell_length_a   13.61690774
_cell_length_b   13.61690861
_cell_length_c   7.30265900
_cell_angle_alpha   90.00000000
_cell_angle_beta   90.00000000
_cell_angle_gamma   161.05284306
_symmetry_Int_Tables_number   1
_chemical_formula_structural   LaHoSn5Ir3
_chemical_formula_sum   'La2 Ho2 Sn10 Ir6'
_cell_volume   439.65796820
_cell_formula_units_Z   2
loop_
 _symmetry_equiv_pos_site_id
 _symmetry_equiv_pos_as_xyz
  1  'x, y, z'
loop_
 _atom_site_type_symbol
 _atom_site_label
 _atom_site_symmetry_multiplicity
 _atom_site_fract_x
 _atom_site_fract_y
 _atom_site_fract_z
 _atom_site_occupancy
  La  La0  1  0.171474  0.828526  0.745512  1
  La  La1  1  0.828526  0.171474  0.245512  1
  Ho  Ho2  1  0.475918  0.524082  0.762585  1
  Ho  Ho3  1  0.524082  0.475918  0.262585  1
  Sn  Sn4  1  0.881112  0.118888  0.767198  1
  Sn  Sn5  1  0.118888  0.881112  0.267198  1
  Sn  Sn6  1  0.704548  0.295452  0.448818  1
  Sn  Sn7  1  0.295452  0.704548  0.948818  1
  Sn  Sn8  1  0.594021  0.405979  0.886431  1
  Sn  Sn9  1  0.405979  0.594021  0.386431  1
  Sn  Sn10  1  0.953242  0.046758  0.103403  1
  Sn  Sn11  1  0.046758  0.953242  0.603403  1
  Sn  Sn12  1  0.290154  0.709846  0.524596  1
  Sn  Sn13  1  0.709846  0.290154  0.024596  1
  Ir  Ir14  1  0.048898  0.951102  0.983258  1
  Ir  Ir15  1  0.951102  0.048898  0.483258  1
  Ir  Ir16  1  0.777883  0.222117  0.736736  1
  Ir  Ir17  1  0.222117  0.777883  0.236736  1
  Ir  Ir18  1  0.395938  0.604062  0.013463  1
  Ir  Ir19  1  0.604062  0.395938  0.513463  1
