# generated using pymatgen
data_Tb2Er3Bi2Rh
_symmetry_space_group_name_H-M   'P 1'
_cell_length_a   7.99209100
_cell_length_b   8.99117000
_cell_length_c   12.42807800
_cell_angle_alpha   90.00000000
_cell_angle_beta   90.00000000
_cell_angle_gamma   90.00000000
_symmetry_Int_Tables_number   1
_chemical_formula_structural   Tb2Er3Bi2Rh
_chemical_formula_sum   'Tb8 Er12 Bi8 Rh4'
_cell_volume   893.05992148
_cell_formula_units_Z   4
loop_
 _symmetry_equiv_pos_site_id
 _symmetry_equiv_pos_as_xyz
  1  'x, y, z'
loop_
 _atom_site_type_symbol
 _atom_site_label
 _atom_site_symmetry_multiplicity
 _atom_site_fract_x
 _atom_site_fract_y
 _atom_site_fract_z
 _atom_site_occupancy
  Tb  Tb0  1  0.662348  0.750000  0.707638  1
  Tb  Tb1  1  0.337652  0.250000  0.292362  1
  Tb  Tb2  1  0.162348  0.250000  0.792362  1
  Tb  Tb3  1  0.837652  0.750000  0.207638  1
  Tb  Tb4  1  0.126131  0.750000  0.808614  1
  Tb  Tb5  1  0.873869  0.250000  0.191386  1
  Tb  Tb6  1  0.626131  0.250000  0.691386  1
  Tb  Tb7  1  0.373869  0.750000  0.308614  1
  Er  Er8  1  0.549170  0.750000  0.998355  1
  Er  Er9  1  0.450830  0.250000  0.001645  1
  Er  Er10  1  0.049170  0.250000  0.501645  1
  Er  Er11  1  0.950830  0.750000  0.498355  1
  Er  Er12  1  0.824486  0.456491  0.933813  1
  Er  Er13  1  0.175514  0.543509  0.066187  1
  Er  Er14  1  0.324486  0.543509  0.566187  1
  Er  Er15  1  0.175514  0.956491  0.066187  1
  Er  Er16  1  0.675514  0.456491  0.433813  1
  Er  Er17  1  0.824486  0.043509  0.933813  1
  Er  Er18  1  0.675514  0.043509  0.433813  1
  Er  Er19  1  0.324486  0.956491  0.566187  1
  Bi  Bi20  1  0.934401  0.008746  0.672514  1
  Bi  Bi21  1  0.065599  0.991254  0.327486  1
  Bi  Bi22  1  0.434401  0.991254  0.827486  1
  Bi  Bi23  1  0.065599  0.508746  0.327486  1
  Bi  Bi24  1  0.565599  0.008746  0.172514  1
  Bi  Bi25  1  0.934401  0.491254  0.672514  1
  Bi  Bi26  1  0.565599  0.491254  0.172514  1
  Bi  Bi27  1  0.434401  0.508746  0.827486  1
  Rh  Rh28  1  0.924534  0.750000  0.990355  1
  Rh  Rh29  1  0.075466  0.250000  0.009645  1
  Rh  Rh30  1  0.424534  0.250000  0.509645  1
  Rh  Rh31  1  0.575466  0.750000  0.490355  1
