# generated using pymatgen
data_AcHoZn5Si
_symmetry_space_group_name_H-M   'P 1'
_cell_length_a   8.43550900
_cell_length_b   8.43550756
_cell_length_c   8.97936900
_cell_angle_alpha   90.00000000
_cell_angle_beta   90.00000000
_cell_angle_gamma   149.42544323
_symmetry_Int_Tables_number   1
_chemical_formula_structural   AcHoZn5Si
_chemical_formula_sum   'Ac2 Ho2 Zn10 Si2'
_cell_volume   325.00884593
_cell_formula_units_Z   2
loop_
 _symmetry_equiv_pos_site_id
 _symmetry_equiv_pos_as_xyz
  1  'x, y, z'
loop_
 _atom_site_type_symbol
 _atom_site_label
 _atom_site_symmetry_multiplicity
 _atom_site_fract_x
 _atom_site_fract_y
 _atom_site_fract_z
 _atom_site_occupancy
  Ac  Ac0  1  0.000000  0.000000  0.500000  1
  Ac  Ac1  1  0.000000  0.000000  0.000000  1
  Ho  Ho2  1  0.202207  0.797793  0.250000  1
  Ho  Ho3  1  0.797793  0.202207  0.750000  1
  Zn  Zn4  1  0.810062  0.189938  0.390323  1
  Zn  Zn5  1  0.189938  0.810062  0.609677  1
  Zn  Zn6  1  0.810062  0.189938  0.109677  1
  Zn  Zn7  1  0.189938  0.810062  0.890323  1
  Zn  Zn8  1  0.655401  0.344599  0.475787  1
  Zn  Zn9  1  0.344599  0.655401  0.524213  1
  Zn  Zn10  1  0.655401  0.344599  0.024213  1
  Zn  Zn11  1  0.344599  0.655401  0.975787  1
  Zn  Zn12  1  0.402044  0.597956  0.250000  1
  Zn  Zn13  1  0.597956  0.402044  0.750000  1
  Si  Si14  1  0.563402  0.436598  0.250000  1
  Si  Si15  1  0.436598  0.563402  0.750000  1
