# generated using pymatgen
data_Cs6K4Ba2Ta2As3P5
_symmetry_space_group_name_H-M   'P 1'
_cell_length_a   10.81748017
_cell_length_b   10.81747897
_cell_length_c   7.93156800
_cell_angle_alpha   88.76516273
_cell_angle_beta   88.76516817
_cell_angle_gamma   120.31766106
_symmetry_Int_Tables_number   1
_chemical_formula_structural   Cs6K4Ba2Ta2As3P5
_chemical_formula_sum   'Cs6 K4 Ba2 Ta2 As3 P5'
_cell_volume   800.45164141
_cell_formula_units_Z   1
loop_
 _symmetry_equiv_pos_site_id
 _symmetry_equiv_pos_as_xyz
  1  'x, y, z'
loop_
 _atom_site_type_symbol
 _atom_site_label
 _atom_site_symmetry_multiplicity
 _atom_site_fract_x
 _atom_site_fract_y
 _atom_site_fract_z
 _atom_site_occupancy
  Cs  Cs0  1  0.868695  0.134924  0.689104  1
  Cs  Cs1  1  0.289577  0.151101  0.727006  1
  Cs  Cs2  1  0.857951  0.724580  0.660768  1
  Cs  Cs3  1  0.135907  0.868285  0.183002  1
  Cs  Cs4  1  0.723158  0.854635  0.159154  1
  Cs  Cs5  1  0.154848  0.291399  0.225585  1
  K  K6  1  0.465020  0.527424  0.503496  1
  K  K7  1  0.059603  0.528591  0.502712  1
  K  K8  1  0.526592  0.465948  0.002743  1
  K  K9  1  0.526189  0.057447  0.000740  1
  Ba  Ba10  1  0.463641  0.935793  0.493486  1
  Ba  Ba11  1  0.939403  0.468846  0.990341  1
  Ta  Ta12  1  0.666069  0.332731  0.384890  1
  Ta  Ta13  1  0.330999  0.667937  0.883537  1
  As  As14  1  0.680881  0.337129  0.701917  1
  As  As15  1  0.335973  0.682254  0.201508  1
  As  As16  1  0.788800  0.201638  0.279024  1
  P  P17  1  0.419131  0.202094  0.313349  1
  P  P18  1  0.789191  0.572047  0.266627  1
  P  P19  1  0.205465  0.785437  0.781522  1
  P  P20  1  0.571033  0.789496  0.765889  1
  P  P21  1  0.201873  0.420263  0.812173  1
