# generated using pymatgen
data_NaCaScF6
_symmetry_space_group_name_H-M   'P 1'
_cell_length_a   9.47295700
_cell_length_b   9.47295776
_cell_length_c   5.32441100
_cell_angle_alpha   90.00000000
_cell_angle_beta   90.00000000
_cell_angle_gamma   120.00000084
_symmetry_Int_Tables_number   1
_chemical_formula_structural   NaCaScF6
_chemical_formula_sum   'Na3 Ca3 Sc3 F18'
_cell_volume   413.78368863
_cell_formula_units_Z   3
loop_
 _symmetry_equiv_pos_site_id
 _symmetry_equiv_pos_as_xyz
  1  'x, y, z'
loop_
 _atom_site_type_symbol
 _atom_site_label
 _atom_site_symmetry_multiplicity
 _atom_site_fract_x
 _atom_site_fract_y
 _atom_site_fract_z
 _atom_site_occupancy
  Na  Na0  1  0.000000  0.710636  0.500000  1
  Na  Na1  1  0.710636  0.000000  0.500000  1
  Na  Na2  1  0.289364  0.289364  0.500000  1
  Ca  Ca3  1  0.631552  0.631552  0.000000  1
  Ca  Ca4  1  0.000000  0.368448  0.000000  1
  Ca  Ca5  1  0.368448  0.000000  0.000000  1
  Sc  Sc6  1  0.666667  0.333333  0.502809  1
  Sc  Sc7  1  0.333333  0.666667  0.497191  1
  Sc  Sc8  1  0.000000  0.000000  0.000000  1
  F  F9  1  0.784781  0.248263  0.282506  1
  F  F10  1  0.751737  0.536518  0.282506  1
  F  F11  1  0.463482  0.215219  0.282506  1
  F  F12  1  0.536518  0.751737  0.717494  1
  F  F13  1  0.215219  0.463482  0.717494  1
  F  F14  1  0.248263  0.784781  0.717494  1
  F  F15  1  0.418546  0.548667  0.275679  1
  F  F16  1  0.451333  0.869878  0.275679  1
  F  F17  1  0.130122  0.581454  0.275679  1
  F  F18  1  0.912628  0.120751  0.792097  1
  F  F19  1  0.879249  0.791877  0.792097  1
  F  F20  1  0.208123  0.087372  0.792097  1
  F  F21  1  0.791877  0.879249  0.207903  1
  F  F22  1  0.087372  0.208123  0.207903  1
  F  F23  1  0.120751  0.912628  0.207903  1
  F  F24  1  0.548667  0.418546  0.724321  1
  F  F25  1  0.581454  0.130122  0.724321  1
  F  F26  1  0.869878  0.451333  0.724321  1
