# generated using pymatgen
data_YHo4(FeO6)2
_symmetry_space_group_name_H-M   'P 1'
_cell_length_a   6.75229225
_cell_length_b   6.75229106
_cell_length_c   7.24097904
_cell_angle_alpha   74.40319908
_cell_angle_beta   74.40320074
_cell_angle_gamma   51.14064208
_symmetry_Int_Tables_number   1
_chemical_formula_structural   YHo4(FeO6)2
_chemical_formula_sum   'Y1 Ho4 Fe2 O12'
_cell_volume   245.39227597
_cell_formula_units_Z   1
loop_
 _symmetry_equiv_pos_site_id
 _symmetry_equiv_pos_as_xyz
  1  'x, y, z'
loop_
 _atom_site_type_symbol
 _atom_site_label
 _atom_site_symmetry_multiplicity
 _atom_site_fract_x
 _atom_site_fract_y
 _atom_site_fract_z
 _atom_site_occupancy
  Y  Y0  1  0.000000  0.000000  0.500000  1
  Ho  Ho1  1  0.304361  0.304361  0.359032  1
  Ho  Ho2  1  0.695639  0.695639  0.640968  1
  Ho  Ho3  1  0.307289  0.307289  0.832216  1
  Ho  Ho4  1  0.692711  0.692711  0.167784  1
  Fe  Fe5  1  0.756407  0.243593  0.000000  1
  Fe  Fe6  1  0.243593  0.756407  0.000000  1
  O  O7  1  0.899152  0.422365  0.920053  1
  O  O8  1  0.422365  0.899152  0.920053  1
  O  O9  1  0.100848  0.577635  0.079947  1
  O  O10  1  0.577635  0.100848  0.079947  1
  O  O11  1  0.096841  0.594502  0.577297  1
  O  O12  1  0.594502  0.096841  0.577297  1
  O  O13  1  0.903159  0.405498  0.422703  1
  O  O14  1  0.405498  0.903159  0.422703  1
  O  O15  1  0.000338  0.000338  0.818656  1
  O  O16  1  0.999662  0.999662  0.181344  1
  O  O17  1  0.499917  0.499917  0.815491  1
  O  O18  1  0.500083  0.500083  0.184509  1
