# generated using pymatgen
data_PmCuSbF
_symmetry_space_group_name_H-M   'P 1'
_cell_length_a   4.15202900
_cell_length_b   4.15202900
_cell_length_c   8.84900200
_cell_angle_alpha   89.99994650
_cell_angle_beta   89.99994650
_cell_angle_gamma   90.00023459
_symmetry_Int_Tables_number   1
_chemical_formula_structural   PmCuSbF
_chemical_formula_sum   'Pm2 Cu2 Sb2 F2'
_cell_volume   152.55099676
_cell_formula_units_Z   2
loop_
 _symmetry_equiv_pos_site_id
 _symmetry_equiv_pos_as_xyz
  1  'x, y, z'
loop_
 _atom_site_type_symbol
 _atom_site_label
 _atom_site_symmetry_multiplicity
 _atom_site_fract_x
 _atom_site_fract_y
 _atom_site_fract_z
 _atom_site_occupancy
  Pm  Pm0  1  0.250000  0.250000  0.172716  1
  Pm  Pm1  1  0.749999  0.749999  0.827284  1
  Cu  Cu2  1  0.750000  0.249999  0.500000  1
  Cu  Cu3  1  0.249999  0.750000  0.500000  1
  Sb  Sb4  1  0.750000  0.750000  0.313053  1
  Sb  Sb5  1  0.249999  0.249999  0.686948  1
  F  F6  1  0.749999  0.249999  0.000001  1
  F  F7  1  0.249999  0.749999  0.000001  1
