# generated using pymatgen
data_Hg3(NCl)4
_symmetry_space_group_name_H-M   'P 1'
_cell_length_a   7.28506988
_cell_length_b   9.07738007
_cell_length_c   9.84749085
_cell_angle_alpha   119.98685591
_cell_angle_beta   120.65293490
_cell_angle_gamma   89.76226687
_symmetry_Int_Tables_number   1
_chemical_formula_structural   Hg3(NCl)4
_chemical_formula_sum   'Hg3 N4 Cl4'
_cell_volume   456.94344946
_cell_formula_units_Z   1
loop_
 _symmetry_equiv_pos_site_id
 _symmetry_equiv_pos_as_xyz
  1  'x, y, z'
loop_
 _atom_site_type_symbol
 _atom_site_label
 _atom_site_symmetry_multiplicity
 _atom_site_fract_x
 _atom_site_fract_y
 _atom_site_fract_z
 _atom_site_occupancy
  Hg  Hg0  1  0.732566  0.519662  0.974629  1
  Hg  Hg1  1  0.267434  0.480338  0.025371  1
  Hg  Hg2  1  0.500000  0.000000  0.500000  1
  N  N3  1  0.406672  0.771538  0.736367  1
  N  N4  1  0.593328  0.228462  0.263633  1
  N  N5  1  0.286926  0.752886  0.595890  1
  N  N6  1  0.713074  0.247114  0.404110  1
  Cl  Cl7  1  0.686808  0.650033  0.256613  1
  Cl  Cl8  1  0.313192  0.349967  0.743387  1
  Cl  Cl9  1  0.008622  0.322923  0.037835  1
  Cl  Cl10  1  0.991378  0.677077  0.962165  1
