# generated using pymatgen
data_Dy20(RuRh3)3
_symmetry_space_group_name_H-M   'P 1'
_cell_length_a   10.86598400
_cell_length_b   10.86598400
_cell_length_c   6.41459000
_cell_angle_alpha   90.00000000
_cell_angle_beta   90.00000000
_cell_angle_gamma   90.00000000
_symmetry_Int_Tables_number   1
_chemical_formula_structural   Dy20(RuRh3)3
_chemical_formula_sum   'Dy20 Ru3 Rh9'
_cell_volume   757.36812863
_cell_formula_units_Z   1
loop_
 _symmetry_equiv_pos_site_id
 _symmetry_equiv_pos_as_xyz
  1  'x, y, z'
loop_
 _atom_site_type_symbol
 _atom_site_label
 _atom_site_symmetry_multiplicity
 _atom_site_fract_x
 _atom_site_fract_y
 _atom_site_fract_z
 _atom_site_occupancy
  Dy  Dy0  1  0.294228  0.086814  0.378367  1
  Dy  Dy1  1  0.294263  0.913482  0.878567  1
  Dy  Dy2  1  0.705737  0.086518  0.878567  1
  Dy  Dy3  1  0.705772  0.913186  0.378367  1
  Dy  Dy4  1  0.586518  0.794263  0.878567  1
  Dy  Dy5  1  0.586814  0.205772  0.378367  1
  Dy  Dy6  1  0.413186  0.794228  0.378367  1
  Dy  Dy7  1  0.413482  0.205737  0.878567  1
  Dy  Dy8  1  0.207711  0.412346  0.623598  1
  Dy  Dy9  1  0.207434  0.587671  0.119408  1
  Dy  Dy10  1  0.792566  0.412329  0.119408  1
  Dy  Dy11  1  0.792289  0.587654  0.623598  1
  Dy  Dy12  1  0.912329  0.707434  0.119408  1
  Dy  Dy13  1  0.912346  0.292289  0.623598  1
  Dy  Dy14  1  0.087654  0.707711  0.623598  1
  Dy  Dy15  1  0.087671  0.292566  0.119408  1
  Dy  Dy16  1  0.000000  0.000000  0.499318  1
  Dy  Dy17  1  0.000000  0.000000  0.999492  1
  Dy  Dy18  1  0.500000  0.500000  0.999492  1
  Dy  Dy19  1  0.500000  0.500000  0.499318  1
  Ru  Ru20  1  0.500000  0.000000  0.124024  1
  Ru  Ru21  1  0.500000  0.000000  0.623957  1
  Ru  Ru22  1  0.000000  0.500000  0.876957  1
  Rh  Rh23  1  0.847974  0.153105  0.250237  1
  Rh  Rh24  1  0.847652  0.846978  0.749838  1
  Rh  Rh25  1  0.152348  0.153022  0.749838  1
  Rh  Rh26  1  0.152026  0.846895  0.250237  1
  Rh  Rh27  1  0.653022  0.347652  0.749838  1
  Rh  Rh28  1  0.653105  0.652026  0.250237  1
  Rh  Rh29  1  0.346895  0.347974  0.250237  1
  Rh  Rh30  1  0.346978  0.652348  0.749838  1
  Rh  Rh31  1  0.000000  0.500000  0.377384  1
