# generated using pymatgen
data_Sc6Ti3Al12ReOs7
_symmetry_space_group_name_H-M   'P 1'
_cell_length_a   8.82234460
_cell_length_b   8.82234479
_cell_length_c   8.80477090
_cell_angle_alpha   59.93395020
_cell_angle_beta   59.93394715
_cell_angle_gamma   60.00000684
_symmetry_Int_Tables_number   1
_chemical_formula_structural   Sc6Ti3Al12ReOs7
_chemical_formula_sum   'Sc6 Ti3 Al12 Re1 Os7'
_cell_volume   484.10193818
_cell_formula_units_Z   1
loop_
 _symmetry_equiv_pos_site_id
 _symmetry_equiv_pos_as_xyz
  1  'x, y, z'
loop_
 _atom_site_type_symbol
 _atom_site_label
 _atom_site_symmetry_multiplicity
 _atom_site_fract_x
 _atom_site_fract_y
 _atom_site_fract_z
 _atom_site_occupancy
  Sc  Sc0  1  0.712350  0.712350  0.286022  1
  Sc  Sc1  1  0.289277  0.712350  0.286022  1
  Sc  Sc2  1  0.712350  0.289277  0.286022  1
  Sc  Sc3  1  0.288120  0.288120  0.710838  1
  Sc  Sc4  1  0.712922  0.288120  0.710838  1
  Sc  Sc5  1  0.288120  0.712922  0.710838  1
  Ti  Ti6  1  0.882175  0.358953  0.876695  1
  Ti  Ti7  1  0.358953  0.882175  0.876695  1
  Ti  Ti8  1  0.882175  0.882175  0.876695  1
  Al  Al9  1  0.119753  0.119753  0.640740  1
  Al  Al10  1  0.122035  0.638313  0.117616  1
  Al  Al11  1  0.638313  0.122035  0.117616  1
  Al  Al12  1  0.122035  0.122035  0.117616  1
  Al  Al13  1  0.665407  0.665407  0.003780  1
  Al  Al14  1  0.663416  0.005528  0.667640  1
  Al  Al15  1  0.005528  0.663416  0.667640  1
  Al  Al16  1  0.663416  0.663416  0.667640  1
  Al  Al17  1  0.334744  0.334744  0.995769  1
  Al  Al18  1  0.334383  0.994756  0.336477  1
  Al  Al19  1  0.994756  0.334383  0.336477  1
  Al  Al20  1  0.334383  0.334383  0.336477  1
  Re  Re21  1  0.877903  0.877903  0.366288  1
  Os  Os22  1  0.996391  0.996391  0.010828  1
  Os  Os23  1  0.997165  0.997165  0.499261  1
  Os  Os24  1  0.506407  0.997165  0.499261  1
  Os  Os25  1  0.997165  0.506407  0.499261  1
  Os  Os26  1  0.500950  0.500950  0.999648  1
  Os  Os27  1  0.998453  0.500950  0.999648  1
  Os  Os28  1  0.500950  0.998453  0.999648  1
