# generated using pymatgen
data_Sc2Co3Si7Rh9
_symmetry_space_group_name_H-M   'P 1'
_cell_length_a   9.49842700
_cell_length_b   9.49842582
_cell_length_c   3.76726500
_cell_angle_alpha   90.00000000
_cell_angle_beta   90.00000000
_cell_angle_gamma   120.00000064
_symmetry_Int_Tables_number   1
_chemical_formula_structural   Sc2Co3Si7Rh9
_chemical_formula_sum   'Sc2 Co3 Si7 Rh9'
_cell_volume   294.34734590
_cell_formula_units_Z   1
loop_
 _symmetry_equiv_pos_site_id
 _symmetry_equiv_pos_as_xyz
  1  'x, y, z'
loop_
 _atom_site_type_symbol
 _atom_site_label
 _atom_site_symmetry_multiplicity
 _atom_site_fract_x
 _atom_site_fract_y
 _atom_site_fract_z
 _atom_site_occupancy
  Sc  Sc0  1  0.666667  0.333333  0.000000  1
  Sc  Sc1  1  0.000000  0.000000  0.500000  1
  Co  Co2  1  0.486752  0.542124  0.000000  1
  Co  Co3  1  0.457876  0.944627  0.000000  1
  Co  Co4  1  0.055373  0.513248  0.000000  1
  Si  Si5  1  0.731793  0.775959  0.000000  1
  Si  Si6  1  0.224041  0.955833  0.000000  1
  Si  Si7  1  0.044167  0.268207  0.000000  1
  Si  Si8  1  0.448614  0.380784  0.500000  1
  Si  Si9  1  0.619216  0.067830  0.500000  1
  Si  Si10  1  0.932170  0.551386  0.500000  1
  Si  Si11  1  0.333333  0.666667  0.000000  1
  Rh  Rh12  1  0.770736  0.038733  0.000000  1
  Rh  Rh13  1  0.961267  0.732004  0.000000  1
  Rh  Rh14  1  0.267996  0.229264  0.000000  1
  Rh  Rh15  1  0.714505  0.607922  0.500000  1
  Rh  Rh16  1  0.392078  0.106583  0.500000  1
  Rh  Rh17  1  0.893417  0.285495  0.500000  1
  Rh  Rh18  1  0.550136  0.787013  0.500000  1
  Rh  Rh19  1  0.212987  0.763125  0.500000  1
  Rh  Rh20  1  0.236875  0.449864  0.500000  1
