# generated using pymatgen
data_Ba5Tb8Ni4O21
_symmetry_space_group_name_H-M   'P 1'
_cell_length_a   10.23946726
_cell_length_b   10.23946697
_cell_length_c   10.23946700
_cell_angle_alpha   94.53623454
_cell_angle_beta   94.53623607
_cell_angle_gamma   147.33289083
_symmetry_Int_Tables_number   1
_chemical_formula_structural   Ba5Tb8Ni4O21
_chemical_formula_sum   'Ba5 Tb8 Ni4 O21'
_cell_volume   556.08244689
_cell_formula_units_Z   1
loop_
 _symmetry_equiv_pos_site_id
 _symmetry_equiv_pos_as_xyz
  1  'x, y, z'
loop_
 _atom_site_type_symbol
 _atom_site_label
 _atom_site_symmetry_multiplicity
 _atom_site_fract_x
 _atom_site_fract_y
 _atom_site_fract_z
 _atom_site_occupancy
  Ba  Ba0  1  0.000000  0.000000  0.000000  1
  Ba  Ba1  1  0.138251  0.534854  0.673103  1
  Ba  Ba2  1  0.861749  0.465146  0.326897  1
  Ba  Ba3  1  0.465146  0.138251  0.603397  1
  Ba  Ba4  1  0.534854  0.861749  0.396603  1
  Tb  Tb5  1  0.166770  0.249784  0.416554  1
  Tb  Tb6  1  0.833230  0.750216  0.583446  1
  Tb  Tb7  1  0.750216  0.166770  0.916987  1
  Tb  Tb8  1  0.249784  0.833230  0.083013  1
  Tb  Tb9  1  0.357481  0.410613  0.768094  1
  Tb  Tb10  1  0.642519  0.589387  0.231906  1
  Tb  Tb11  1  0.589387  0.357481  0.946867  1
  Tb  Tb12  1  0.410613  0.642519  0.053133  1
  Ni  Ni13  1  0.246433  0.040929  0.287364  1
  Ni  Ni14  1  0.753567  0.959071  0.712636  1
  Ni  Ni15  1  0.959071  0.246433  0.205504  1
  Ni  Ni16  1  0.040929  0.753567  0.794496  1
  O  O17  1  0.500000  0.500000  0.000000  1
  O  O18  1  0.963065  0.630062  0.593127  1
  O  O19  1  0.036935  0.369938  0.406873  1
  O  O20  1  0.369938  0.963065  0.333004  1
  O  O21  1  0.630062  0.036935  0.666996  1
  O  O22  1  0.295158  0.427455  0.225743  1
  O  O23  1  0.201712  0.069414  0.774257  1
  O  O24  1  0.069414  0.295158  0.867703  1
  O  O25  1  0.427455  0.201712  0.132297  1
  O  O26  1  0.704842  0.572545  0.774257  1
  O  O27  1  0.798288  0.930586  0.225743  1
  O  O28  1  0.930586  0.704842  0.132297  1
  O  O29  1  0.572545  0.798288  0.867703  1
  O  O30  1  0.496858  0.607906  0.595000  1
  O  O31  1  0.012906  0.901859  0.405000  1
  O  O32  1  0.901859  0.496858  0.888953  1
  O  O33  1  0.607906  0.012906  0.111047  1
  O  O34  1  0.503142  0.392094  0.405000  1
  O  O35  1  0.987094  0.098141  0.595000  1
  O  O36  1  0.098141  0.503142  0.111047  1
  O  O37  1  0.392094  0.987094  0.888953  1
