# generated using pymatgen
data_Zr18TaSi16Tc
_symmetry_space_group_name_H-M   'P 1'
_cell_length_a   7.09537218
_cell_length_b   7.09537218
_cell_length_c   12.97266900
_cell_angle_alpha   89.91950101
_cell_angle_beta   90.08049891
_cell_angle_gamma   90.04516608
_symmetry_Int_Tables_number   1
_chemical_formula_structural   Zr18TaSi16Tc
_chemical_formula_sum   'Zr18 Ta1 Si16 Tc1'
_cell_volume   653.09853160
_cell_formula_units_Z   1
loop_
 _symmetry_equiv_pos_site_id
 _symmetry_equiv_pos_as_xyz
  1  'x, y, z'
loop_
 _atom_site_type_symbol
 _atom_site_label
 _atom_site_symmetry_multiplicity
 _atom_site_fract_x
 _atom_site_fract_y
 _atom_site_fract_z
 _atom_site_occupancy
  Zr  Zr0  1  0.356321  0.503348  0.378492  1
  Zr  Zr1  1  0.855133  0.998796  0.373525  1
  Zr  Zr2  1  0.001450  0.146088  0.126740  1
  Zr  Zr3  1  0.998796  0.855133  0.626475  1
  Zr  Zr4  1  0.644176  0.498530  0.875371  1
  Zr  Zr5  1  0.503348  0.356321  0.621508  1
  Zr  Zr6  1  0.498530  0.644176  0.124629  1
  Zr  Zr7  1  0.146088  0.001450  0.873260  1
  Zr  Zr8  1  0.998498  0.649637  0.034980  1
  Zr  Zr9  1  0.001446  0.348015  0.533775  1
  Zr  Zr10  1  0.649637  0.998498  0.965020  1
  Zr  Zr11  1  0.150679  0.502313  0.783350  1
  Zr  Zr12  1  0.850363  0.497869  0.283603  1
  Zr  Zr13  1  0.502313  0.150679  0.216650  1
  Zr  Zr14  1  0.497869  0.850363  0.716397  1
  Zr  Zr15  1  0.348015  0.001446  0.466225  1
  Zr  Zr16  1  0.823658  0.175895  0.748394  1
  Zr  Zr17  1  0.175895  0.823658  0.251606  1
  Ta  Ta18  1  0.324637  0.324637  0.000000  1
  Si  Si19  1  0.042560  0.697116  0.438416  1
  Si  Si20  1  0.952663  0.302483  0.937055  1
  Si  Si21  1  0.697116  0.042560  0.561584  1
  Si  Si22  1  0.201705  0.447053  0.185991  1
  Si  Si23  1  0.796452  0.556473  0.682749  1
  Si  Si24  1  0.447053  0.201705  0.814009  1
  Si  Si25  1  0.556473  0.796452  0.317251  1
  Si  Si26  1  0.302483  0.952663  0.062945  1
  Si  Si27  1  0.852489  0.794745  0.821344  1
  Si  Si28  1  0.148394  0.205765  0.322132  1
  Si  Si29  1  0.794745  0.852489  0.178656  1
  Si  Si30  1  0.296828  0.647314  0.573052  1
  Si  Si31  1  0.701609  0.351910  0.071232  1
  Si  Si32  1  0.647314  0.296828  0.426948  1
  Si  Si33  1  0.351910  0.701609  0.928768  1
  Si  Si34  1  0.205765  0.148394  0.677868  1
  Tc  Tc35  1  0.677593  0.677593  0.500000  1
