# generated using pymatgen
data_Er3In2(SnIr)2
_symmetry_space_group_name_H-M   'P 1'
_cell_length_a   7.72734260
_cell_length_b   7.72124632
_cell_length_c   3.91288600
_cell_angle_alpha   90.00000000
_cell_angle_beta   90.00000000
_cell_angle_gamma   119.93187211
_symmetry_Int_Tables_number   1
_chemical_formula_structural   Er3In2(SnIr)2
_chemical_formula_sum   'Er3 In2 Sn2 Ir2'
_cell_volume   202.32201248
_cell_formula_units_Z   1
loop_
 _symmetry_equiv_pos_site_id
 _symmetry_equiv_pos_as_xyz
  1  'x, y, z'
loop_
 _atom_site_type_symbol
 _atom_site_label
 _atom_site_symmetry_multiplicity
 _atom_site_fract_x
 _atom_site_fract_y
 _atom_site_fract_z
 _atom_site_occupancy
  Er  Er0  1  0.698706  0.950411  0.500000  1
  Er  Er1  1  0.257350  0.304124  0.500000  1
  Er  Er2  1  0.042815  0.744420  0.500000  1
  In  In3  1  0.668658  0.590431  0.000000  1
  In  In4  1  0.333489  0.667149  0.000000  1
  Sn  Sn5  1  0.919561  0.332367  0.000000  1
  Sn  Sn6  1  0.410875  0.081515  0.000000  1
  Ir  Ir7  1  0.666102  0.326366  0.500000  1
  Ir  Ir8  1  0.002445  0.003216  0.000000  1
