# generated using pymatgen
data_Hf4Nb2Co16Si7
_symmetry_space_group_name_H-M   'P 1'
_cell_length_a   7.99352500
_cell_length_b   7.98128436
_cell_length_c   7.98128508
_cell_angle_alpha   60.11858357
_cell_angle_beta   59.94925449
_cell_angle_gamma   59.94925192
_symmetry_Int_Tables_number   1
_chemical_formula_structural   Hf4Nb2Co16Si7
_chemical_formula_sum   'Hf4 Nb2 Co16 Si7'
_cell_volume   360.09948743
_cell_formula_units_Z   1
loop_
 _symmetry_equiv_pos_site_id
 _symmetry_equiv_pos_as_xyz
  1  'x, y, z'
loop_
 _atom_site_type_symbol
 _atom_site_label
 _atom_site_symmetry_multiplicity
 _atom_site_fract_x
 _atom_site_fract_y
 _atom_site_fract_z
 _atom_site_occupancy
  Hf  Hf0  1  0.206212  0.794697  0.205303  1
  Hf  Hf1  1  0.203368  0.797490  0.795774  1
  Hf  Hf2  1  0.796632  0.204226  0.202510  1
  Hf  Hf3  1  0.793788  0.794697  0.205303  1
  Nb  Nb4  1  0.202999  0.203916  0.796084  1
  Nb  Nb5  1  0.797001  0.203916  0.796084  1
  Co  Co6  1  0.169236  0.169711  0.168543  1
  Co  Co7  1  0.507490  0.831457  0.830289  1
  Co  Co8  1  0.831943  0.504947  0.831168  1
  Co  Co9  1  0.830009  0.830432  0.509552  1
  Co  Co10  1  0.169991  0.490448  0.169568  1
  Co  Co11  1  0.168057  0.168832  0.495053  1
  Co  Co12  1  0.492510  0.169711  0.168543  1
  Co  Co13  1  0.830764  0.831457  0.830289  1
  Co  Co14  1  0.379245  0.379035  0.383390  1
  Co  Co15  1  0.141670  0.616610  0.620965  1
  Co  Co16  1  0.617184  0.144411  0.621221  1
  Co  Co17  1  0.620436  0.620208  0.138919  1
  Co  Co18  1  0.379564  0.861081  0.379792  1
  Co  Co19  1  0.382816  0.378779  0.855589  1
  Co  Co20  1  0.858330  0.379035  0.383390  1
  Co  Co21  1  0.620755  0.616610  0.620965  1
  Si  Si22  1  0.500000  0.503203  0.496797  1
  Si  Si23  1  0.001412  0.499635  0.998097  1
  Si  Si24  1  0.500000  0.003046  0.996954  1
  Si  Si25  1  0.000000  0.498968  0.501032  1
  Si  Si26  1  0.499145  0.001903  0.500365  1
  Si  Si27  1  0.998588  0.001903  0.500365  1
  Si  Si28  1  0.500855  0.499635  0.998097  1
