# generated using pymatgen
data_Dy9YPb8
_symmetry_space_group_name_H-M   'P 1'
_cell_length_a   8.24618003
_cell_length_b   8.39464401
_cell_length_c   15.88118700
_cell_angle_alpha   89.99738592
_cell_angle_beta   89.99499038
_cell_angle_gamma   89.99974724
_symmetry_Int_Tables_number   1
_chemical_formula_structural   Dy9YPb8
_chemical_formula_sum   'Dy18 Y2 Pb16'
_cell_volume   1099.35524649
_cell_formula_units_Z   2
loop_
 _symmetry_equiv_pos_site_id
 _symmetry_equiv_pos_as_xyz
  1  'x, y, z'
loop_
 _atom_site_type_symbol
 _atom_site_label
 _atom_site_symmetry_multiplicity
 _atom_site_fract_x
 _atom_site_fract_y
 _atom_site_fract_z
 _atom_site_occupancy
  Dy  Dy0  1  0.366606  0.839409  0.877697  1
  Dy  Dy1  1  0.866606  0.660598  0.622322  1
  Dy  Dy2  1  0.633604  0.160554  0.377555  1
  Dy  Dy3  1  0.133626  0.339442  0.122428  1
  Dy  Dy4  1  0.633544  0.160692  0.122313  1
  Dy  Dy5  1  0.133539  0.339313  0.377666  1
  Dy  Dy6  1  0.366866  0.839243  0.622325  1
  Dy  Dy7  1  0.866860  0.660756  0.877683  1
  Dy  Dy8  1  0.525491  0.321860  0.901530  1
  Dy  Dy9  1  0.025479  0.178150  0.598489  1
  Dy  Dy10  1  0.474635  0.678233  0.401516  1
  Dy  Dy11  1  0.974654  0.821755  0.098463  1
  Dy  Dy12  1  0.474626  0.678227  0.098485  1
  Dy  Dy13  1  0.974628  0.821777  0.401496  1
  Dy  Dy14  1  0.199146  0.502280  0.749961  1
  Dy  Dy15  1  0.699166  0.997709  0.750050  1
  Dy  Dy16  1  0.800965  0.497807  0.249967  1
  Dy  Dy17  1  0.300962  0.002194  0.250010  1
  Y  Y18  1  0.524398  0.321248  0.598292  1
  Y  Y19  1  0.024327  0.178736  0.901754  1
  Pb  Pb20  1  0.289232  0.034823  0.041817  1
  Pb  Pb21  1  0.789152  0.465188  0.458194  1
  Pb  Pb22  1  0.711059  0.964912  0.541549  1
  Pb  Pb23  1  0.211064  0.535092  0.958421  1
  Pb  Pb24  1  0.710375  0.964678  0.958467  1
  Pb  Pb25  1  0.210406  0.535302  0.541513  1
  Pb  Pb26  1  0.289262  0.034737  0.458241  1
  Pb  Pb27  1  0.789251  0.465285  0.041750  1
  Pb  Pb28  1  0.561065  0.624673  0.750114  1
  Pb  Pb29  1  0.061100  0.875300  0.749880  1
  Pb  Pb30  1  0.439161  0.375453  0.250039  1
  Pb  Pb31  1  0.939147  0.124552  0.250013  1
  Pb  Pb32  1  0.339724  0.153631  0.750149  1
  Pb  Pb33  1  0.839689  0.346388  0.749831  1
  Pb  Pb34  1  0.660291  0.846141  0.249980  1
  Pb  Pb35  1  0.160293  0.653863  0.250044  1
