# generated using pymatgen
data_Sm8TmSc11Sn16
_symmetry_space_group_name_H-M   'P 1'
_cell_length_a   7.78759100
_cell_length_b   7.97820988
_cell_length_c   14.94805100
_cell_angle_alpha   90.00000000
_cell_angle_beta   90.00000000
_cell_angle_gamma   90.09017855
_symmetry_Int_Tables_number   1
_chemical_formula_structural   Sm8TmSc11Sn16
_chemical_formula_sum   'Sm8 Tm1 Sc11 Sn16'
_cell_volume   928.73673658
_cell_formula_units_Z   1
loop_
 _symmetry_equiv_pos_site_id
 _symmetry_equiv_pos_as_xyz
  1  'x, y, z'
loop_
 _atom_site_type_symbol
 _atom_site_label
 _atom_site_symmetry_multiplicity
 _atom_site_fract_x
 _atom_site_fract_y
 _atom_site_fract_z
 _atom_site_occupancy
  Sm  Sm0  1  0.508725  0.324660  0.905561  1
  Sm  Sm1  1  0.009378  0.175009  0.594691  1
  Sm  Sm2  1  0.491657  0.674691  0.406010  1
  Sm  Sm3  1  0.990203  0.824541  0.094341  1
  Sm  Sm4  1  0.491657  0.674691  0.093990  1
  Sm  Sm5  1  0.990203  0.824541  0.405659  1
  Sm  Sm6  1  0.508725  0.324660  0.594439  1
  Sm  Sm7  1  0.009378  0.175009  0.905309  1
  Tm  Tm8  1  0.325546  0.004909  0.250000  1
  Sc  Sc9  1  0.343672  0.838916  0.872908  1
  Sc  Sc10  1  0.844273  0.661921  0.627635  1
  Sc  Sc11  1  0.656842  0.161863  0.373313  1
  Sc  Sc12  1  0.155424  0.338429  0.127649  1
  Sc  Sc13  1  0.656842  0.161863  0.126687  1
  Sc  Sc14  1  0.155424  0.338429  0.372351  1
  Sc  Sc15  1  0.343672  0.838916  0.627092  1
  Sc  Sc16  1  0.844273  0.661921  0.872365  1
  Sc  Sc17  1  0.173491  0.505335  0.750000  1
  Sc  Sc18  1  0.673968  0.994814  0.750000  1
  Sc  Sc19  1  0.826736  0.494408  0.250000  1
  Sn  Sn20  1  0.318235  0.044734  0.041301  1
  Sn  Sn21  1  0.819426  0.455733  0.457295  1
  Sn  Sn22  1  0.681762  0.955701  0.543198  1
  Sn  Sn23  1  0.180697  0.544118  0.957244  1
  Sn  Sn24  1  0.681762  0.955701  0.956802  1
  Sn  Sn25  1  0.180697  0.544118  0.542756  1
  Sn  Sn26  1  0.318235  0.044734  0.458699  1
  Sn  Sn27  1  0.819426  0.455733  0.042705  1
  Sn  Sn28  1  0.536484  0.627461  0.750000  1
  Sn  Sn29  1  0.038049  0.872564  0.750000  1
  Sn  Sn30  1  0.465266  0.375825  0.250000  1
  Sn  Sn31  1  0.957742  0.129272  0.250000  1
  Sn  Sn32  1  0.314419  0.147399  0.750000  1
  Sn  Sn33  1  0.814310  0.353084  0.750000  1
  Sn  Sn34  1  0.688822  0.850485  0.250000  1
  Sn  Sn35  1  0.184581  0.643812  0.250000  1
