# generated using pymatgen
data_Li3Y3Si2Ag
_symmetry_space_group_name_H-M   'P 1'
_cell_length_a   7.22164300
_cell_length_b   7.22164336
_cell_length_c   4.16657500
_cell_angle_alpha   90.00000000
_cell_angle_beta   90.00000000
_cell_angle_gamma   119.99999377
_symmetry_Int_Tables_number   1
_chemical_formula_structural   Li3Y3Si2Ag
_chemical_formula_sum   'Li3 Y3 Si2 Ag1'
_cell_volume   188.18366183
_cell_formula_units_Z   1
loop_
 _symmetry_equiv_pos_site_id
 _symmetry_equiv_pos_as_xyz
  1  'x, y, z'
loop_
 _atom_site_type_symbol
 _atom_site_label
 _atom_site_symmetry_multiplicity
 _atom_site_fract_x
 _atom_site_fract_y
 _atom_site_fract_z
 _atom_site_occupancy
  Li  Li0  1  0.246679  0.000000  0.500000  1
  Li  Li1  1  0.753321  0.753321  0.500000  1
  Li  Li2  1  0.000000  0.246679  0.500000  1
  Y  Y3  1  0.000000  0.571251  0.000000  1
  Y  Y4  1  0.571251  0.000000  0.000000  1
  Y  Y5  1  0.428749  0.428749  0.000000  1
  Si  Si6  1  0.333333  0.666667  0.500000  1
  Si  Si7  1  0.666667  0.333333  0.500000  1
  Ag  Ag8  1  0.000000  0.000000  0.000000  1
