# generated using pymatgen
data_Y3Tm(MgIr)4
_symmetry_space_group_name_H-M   'P 1'
_cell_length_a   7.08896827
_cell_length_b   4.11527500
_cell_length_c   8.58972400
_cell_angle_alpha   90.00000000
_cell_angle_beta   90.64793022
_cell_angle_gamma   90.00000000
_symmetry_Int_Tables_number   1
_chemical_formula_structural   Y3Tm(MgIr)4
_chemical_formula_sum   'Y3 Tm1 Mg4 Ir4'
_cell_volume   250.57245854
_cell_formula_units_Z   1
loop_
 _symmetry_equiv_pos_site_id
 _symmetry_equiv_pos_as_xyz
  1  'x, y, z'
loop_
 _atom_site_type_symbol
 _atom_site_label
 _atom_site_symmetry_multiplicity
 _atom_site_fract_x
 _atom_site_fract_y
 _atom_site_fract_z
 _atom_site_occupancy
  Y  Y0  1  0.959368  0.250000  0.174457  1
  Y  Y1  1  0.461629  0.250000  0.326304  1
  Y  Y2  1  0.037139  0.750000  0.824404  1
  Tm  Tm3  1  0.540440  0.750000  0.673745  1
  Mg  Mg4  1  0.867164  0.250000  0.560159  1
  Mg  Mg5  1  0.362891  0.250000  0.940999  1
  Mg  Mg6  1  0.137614  0.750000  0.440769  1
  Mg  Mg7  1  0.634222  0.750000  0.059503  1
  Ir  Ir8  1  0.742483  0.250000  0.867245  1
  Ir  Ir9  1  0.253450  0.250000  0.630398  1
  Ir  Ir10  1  0.250755  0.750000  0.130163  1
  Ir  Ir11  1  0.752843  0.750000  0.371855  1
