# generated using pymatgen
data_Eu2Os2Br
_symmetry_space_group_name_H-M   'P 1'
_cell_length_a   4.22042100
_cell_length_b   4.22042006
_cell_length_c   17.69015600
_cell_angle_alpha   90.00000000
_cell_angle_beta   90.00000000
_cell_angle_gamma   119.99999956
_symmetry_Int_Tables_number   1
_chemical_formula_structural   Eu2Os2Br
_chemical_formula_sum   'Eu4 Os4 Br2'
_cell_volume   272.88128404
_cell_formula_units_Z   2
loop_
 _symmetry_equiv_pos_site_id
 _symmetry_equiv_pos_as_xyz
  1  'x, y, z'
loop_
 _atom_site_type_symbol
 _atom_site_label
 _atom_site_symmetry_multiplicity
 _atom_site_fract_x
 _atom_site_fract_y
 _atom_site_fract_z
 _atom_site_occupancy
  Eu  Eu0  1  0.000000  0.000000  0.120572  1
  Eu  Eu1  1  0.000000  0.000000  0.379428  1
  Eu  Eu2  1  0.000000  0.000000  0.879428  1
  Eu  Eu3  1  0.000000  0.000000  0.620572  1
  Os  Os4  1  0.333333  0.666667  0.007022  1
  Os  Os5  1  0.666667  0.333333  0.992978  1
  Os  Os6  1  0.333333  0.666667  0.492978  1
  Os  Os7  1  0.666667  0.333333  0.507022  1
  Br  Br8  1  0.333333  0.666667  0.750000  1
  Br  Br9  1  0.666667  0.333333  0.250000  1
