# generated using pymatgen
data_Hf3Zr3Si3P
_symmetry_space_group_name_H-M   'P 1'
_cell_length_a   7.02783721
_cell_length_b   7.02783620
_cell_length_c   3.69000000
_cell_angle_alpha   90.00000000
_cell_angle_beta   90.00000000
_cell_angle_gamma   89.34981795
_symmetry_Int_Tables_number   1
_chemical_formula_structural   Hf3Zr3Si3P
_chemical_formula_sum   'Hf3 Zr3 Si3 P1'
_cell_volume   182.23916904
_cell_formula_units_Z   1
loop_
 _symmetry_equiv_pos_site_id
 _symmetry_equiv_pos_as_xyz
  1  'x, y, z'
loop_
 _atom_site_type_symbol
 _atom_site_label
 _atom_site_symmetry_multiplicity
 _atom_site_fract_x
 _atom_site_fract_y
 _atom_site_fract_z
 _atom_site_occupancy
  Hf  Hf0  1  0.672387  0.172387  0.500000  1
  Hf  Hf1  1  0.499001  0.500556  0.000000  1
  Hf  Hf2  1  0.000556  0.999001  0.000000  1
  Zr  Zr3  1  0.831389  0.671834  0.500000  1
  Zr  Zr4  1  0.325754  0.825754  0.500000  1
  Zr  Zr5  1  0.171834  0.331389  0.500000  1
  Si  Si6  1  0.623966  0.876953  0.000000  1
  Si  Si7  1  0.376953  0.123966  0.000000  1
  Si  Si8  1  0.871525  0.371525  0.000000  1
  P  P9  1  0.126635  0.626635  0.000000  1
