# generated using pymatgen
data_Ce3V(Ga3Pd)8
_symmetry_space_group_name_H-M   'P 1'
_cell_length_a   8.51654617
_cell_length_b   8.51838111
_cell_length_c   8.51142200
_cell_angle_alpha   89.79208799
_cell_angle_beta   89.77932797
_cell_angle_gamma   89.79703961
_symmetry_Int_Tables_number   1
_chemical_formula_structural   Ce3V(Ga3Pd)8
_chemical_formula_sum   'Ce3 V1 Ga24 Pd8'
_cell_volume   617.46722596
_cell_formula_units_Z   1
loop_
 _symmetry_equiv_pos_site_id
 _symmetry_equiv_pos_as_xyz
  1  'x, y, z'
loop_
 _atom_site_type_symbol
 _atom_site_label
 _atom_site_symmetry_multiplicity
 _atom_site_fract_x
 _atom_site_fract_y
 _atom_site_fract_z
 _atom_site_occupancy
  Ce  Ce0  1  0.000000  0.500000  0.000000  1
  Ce  Ce1  1  0.500000  0.000000  0.000000  1
  Ce  Ce2  1  0.000000  0.000000  0.500000  1
  V  V3  1  0.500000  0.500000  0.500000  1
  Ga  Ga4  1  0.990095  0.643245  0.643491  1
  Ga  Ga5  1  0.643289  0.643471  0.990094  1
  Ga  Ga6  1  0.643056  0.990123  0.643442  1
  Ga  Ga7  1  0.009905  0.356755  0.356509  1
  Ga  Ga8  1  0.356711  0.356529  0.009906  1
  Ga  Ga9  1  0.356944  0.009877  0.356558  1
  Ga  Ga10  1  0.733609  0.499955  0.266608  1
  Ga  Ga11  1  0.266391  0.500045  0.733392  1
  Ga  Ga12  1  0.499958  0.267267  0.732909  1
  Ga  Ga13  1  0.500042  0.732733  0.267091  1
  Ga  Ga14  1  0.266681  0.732998  0.500070  1
  Ga  Ga15  1  0.733319  0.267002  0.499930  1
  Ga  Ga16  1  0.838823  0.142096  0.838777  1
  Ga  Ga17  1  0.142309  0.838773  0.839057  1
  Ga  Ga18  1  0.839089  0.838741  0.142207  1
  Ga  Ga19  1  0.161177  0.857904  0.161223  1
  Ga  Ga20  1  0.857691  0.161227  0.160943  1
  Ga  Ga21  1  0.160911  0.161259  0.857793  1
  Ga  Ga22  1  0.726538  0.489435  0.726267  1
  Ga  Ga23  1  0.489335  0.725881  0.726066  1
  Ga  Ga24  1  0.726357  0.725953  0.489390  1
  Ga  Ga25  1  0.273462  0.510565  0.273733  1
  Ga  Ga26  1  0.510665  0.274119  0.273934  1
  Ga  Ga27  1  0.273643  0.274047  0.510610  1
  Pd  Pd28  1  0.836214  0.836146  0.836076  1
  Pd  Pd29  1  0.163786  0.163854  0.163924  1
  Pd  Pd30  1  0.664500  0.335556  0.999939  1
  Pd  Pd31  1  0.999958  0.335679  0.664349  1
  Pd  Pd32  1  0.335203  0.000031  0.664774  1
  Pd  Pd33  1  0.335500  0.664444  0.000061  1
  Pd  Pd34  1  0.000042  0.664321  0.335651  1
  Pd  Pd35  1  0.664797  0.999969  0.335226  1
