# generated using pymatgen
data_LaTb4Tm2CoI12
_symmetry_space_group_name_H-M   'P 1'
_cell_length_a   9.78399940
_cell_length_b   9.78739500
_cell_length_c   9.79034209
_cell_angle_alpha   106.27974481
_cell_angle_beta   106.18860318
_cell_angle_gamma   106.14721865
_symmetry_Int_Tables_number   1
_chemical_formula_structural   LaTb4Tm2CoI12
_chemical_formula_sum   'La1 Tb4 Tm2 Co1 I12'
_cell_volume   797.09922835
_cell_formula_units_Z   1
loop_
 _symmetry_equiv_pos_site_id
 _symmetry_equiv_pos_as_xyz
  1  'x, y, z'
loop_
 _atom_site_type_symbol
 _atom_site_label
 _atom_site_symmetry_multiplicity
 _atom_site_fract_x
 _atom_site_fract_y
 _atom_site_fract_z
 _atom_site_occupancy
  La  La0  1  0.997799  0.997959  0.998204  1
  Tb  Tb1  1  0.514434  0.586855  0.783216  1
  Tb  Tb2  1  0.783741  0.514670  0.587843  1
  Tb  Tb3  1  0.586542  0.783702  0.515241  1
  Tb  Tb4  1  0.481906  0.408824  0.214105  1
  Tm  Tm5  1  0.220696  0.482395  0.411903  1
  Tm  Tm6  1  0.411193  0.220793  0.482225  1
  Co  Co7  1  0.499807  0.499545  0.499123  1
  I  I8  1  0.273742  0.821849  0.426277  1
  I  I9  1  0.425357  0.273006  0.820532  1
  I  I10  1  0.825253  0.426742  0.275989  1
  I  I11  1  0.717594  0.173247  0.570140  1
  I  I12  1  0.571158  0.721994  0.174102  1
  I  I13  1  0.172881  0.569969  0.718173  1
  I  I14  1  0.049483  0.126748  0.353471  1
  I  I15  1  0.351807  0.045572  0.126883  1
  I  I16  1  0.124017  0.353162  0.049220  1
  I  I17  1  0.950991  0.872761  0.644096  1
  I  I18  1  0.643963  0.951345  0.873049  1
  I  I19  1  0.873007  0.644232  0.951580  1
