# generated using pymatgen
data_MgTcI18
_symmetry_space_group_name_H-M   'P 1'
_cell_length_a   10.12632872
_cell_length_b   10.12633078
_cell_length_c   10.12633086
_cell_angle_alpha   92.58616714
_cell_angle_beta   92.58615793
_cell_angle_gamma   92.58617223
_symmetry_Int_Tables_number   1
_chemical_formula_structural   MgTcI18
_chemical_formula_sum   'Mg1 Tc1 I18'
_cell_volume   1035.10811109
_cell_formula_units_Z   1
loop_
 _symmetry_equiv_pos_site_id
 _symmetry_equiv_pos_as_xyz
  1  'x, y, z'
loop_
 _atom_site_type_symbol
 _atom_site_label
 _atom_site_symmetry_multiplicity
 _atom_site_fract_x
 _atom_site_fract_y
 _atom_site_fract_z
 _atom_site_occupancy
  Mg  Mg0  1  0.000000  0.000000  0.000000  1
  Tc  Tc1  1  0.500000  0.500000  0.500000  1
  I  I2  1  0.749086  0.130503  0.607991  1
  I  I3  1  0.993364  0.034431  0.715285  1
  I  I4  1  0.607991  0.749086  0.130503  1
  I  I5  1  0.965569  0.284715  0.006636  1
  I  I6  1  0.715285  0.993364  0.034431  1
  I  I7  1  0.034431  0.715285  0.993364  1
  I  I8  1  0.006636  0.965569  0.284715  1
  I  I9  1  0.869497  0.392009  0.250914  1
  I  I10  1  0.284715  0.006636  0.965569  1
  I  I11  1  0.250914  0.869497  0.392009  1
  I  I12  1  0.130503  0.607991  0.749086  1
  I  I13  1  0.392009  0.250914  0.869497  1
  I  I14  1  0.769938  0.524827  0.497756  1
  I  I15  1  0.524827  0.497756  0.769938  1
  I  I16  1  0.230062  0.475173  0.502244  1
  I  I17  1  0.475173  0.502244  0.230062  1
  I  I18  1  0.497756  0.769938  0.524827  1
  I  I19  1  0.502244  0.230062  0.475173  1
