# generated using pymatgen
data_CaEu2Lu3O8
_symmetry_space_group_name_H-M   'P 1'
_cell_length_a   6.74077487
_cell_length_b   6.81125604
_cell_length_c   6.81125628
_cell_angle_alpha   120.61641882
_cell_angle_beta   89.99822143
_cell_angle_gamma   119.72738314
_symmetry_Int_Tables_number   1
_chemical_formula_structural   CaEu2Lu3O8
_chemical_formula_sum   'Ca1 Eu2 Lu3 O8'
_cell_volume   219.96693626
_cell_formula_units_Z   1
loop_
 _symmetry_equiv_pos_site_id
 _symmetry_equiv_pos_as_xyz
  1  'x, y, z'
loop_
 _atom_site_type_symbol
 _atom_site_label
 _atom_site_symmetry_multiplicity
 _atom_site_fract_x
 _atom_site_fract_y
 _atom_site_fract_z
 _atom_site_occupancy
  Ca  Ca0  1  0.375000  0.750001  0.625000  1
  Eu  Eu1  1  0.998317  0.996441  0.001876  1
  Eu  Eu2  1  0.751684  0.503560  0.248123  1
  Lu  Lu3  1  0.375001  0.750001  0.125001  1
  Lu  Lu4  1  0.875000  0.250000  0.625000  1
  Lu  Lu5  1  0.375001  0.250000  0.625001  1
  O  O6  1  0.610482  0.220912  0.389570  1
  O  O7  1  0.165440  0.785326  0.380115  1
  O  O8  1  0.619974  0.785226  0.380111  1
  O  O9  1  0.130027  0.260137  0.415251  1
  O  O10  1  0.619974  0.239862  0.834749  1
  O  O11  1  0.130027  0.714777  0.869891  1
  O  O12  1  0.139516  0.279087  0.860430  1
  O  O13  1  0.584562  0.714677  0.869886  1
