# generated using pymatgen
data_Li2Nd3HfIr3
_symmetry_space_group_name_H-M   'P 1'
_cell_length_a   7.41085200
_cell_length_b   7.47626390
_cell_length_c   4.09371400
_cell_angle_alpha   90.00000000
_cell_angle_beta   90.00000000
_cell_angle_gamma   119.71098704
_symmetry_Int_Tables_number   1
_chemical_formula_structural   Li2Nd3HfIr3
_chemical_formula_sum   'Li2 Nd3 Hf1 Ir3'
_cell_volume   196.99641830
_cell_formula_units_Z   1
loop_
 _symmetry_equiv_pos_site_id
 _symmetry_equiv_pos_as_xyz
  1  'x, y, z'
loop_
 _atom_site_type_symbol
 _atom_site_label
 _atom_site_symmetry_multiplicity
 _atom_site_fract_x
 _atom_site_fract_y
 _atom_site_fract_z
 _atom_site_occupancy
  Li  Li0  1  0.005506  0.241954  0.500000  1
  Li  Li1  1  0.763552  0.758046  0.500000  1
  Nd  Nd2  1  0.608424  0.000000  0.000000  1
  Nd  Nd3  1  0.988561  0.571840  0.000000  1
  Nd  Nd4  1  0.416720  0.428160  0.000000  1
  Hf  Hf5  1  0.241494  0.000000  0.500000  1
  Ir  Ir6  1  0.321235  0.689046  0.500000  1
  Ir  Ir7  1  0.632190  0.310954  0.500000  1
  Ir  Ir8  1  0.022318  0.000000  0.000000  1
