# generated using pymatgen
data_La3CoSn6
_symmetry_space_group_name_H-M   'P 1'
_cell_length_a   8.79430722
_cell_length_b   8.79430767
_cell_length_c   13.50380300
_cell_angle_alpha   90.00000000
_cell_angle_beta   90.00000000
_cell_angle_gamma   148.76212504
_symmetry_Int_Tables_number   1
_chemical_formula_structural   La3CoSn6
_chemical_formula_sum   'La6 Co2 Sn12'
_cell_volume   541.60849842
_cell_formula_units_Z   2
loop_
 _symmetry_equiv_pos_site_id
 _symmetry_equiv_pos_as_xyz
  1  'x, y, z'
loop_
 _atom_site_type_symbol
 _atom_site_label
 _atom_site_symmetry_multiplicity
 _atom_site_fract_x
 _atom_site_fract_y
 _atom_site_fract_z
 _atom_site_occupancy
  La  La0  1  0.899273  0.100727  0.091917  1
  La  La1  1  0.100727  0.899273  0.591917  1
  La  La2  1  0.897146  0.102854  0.750000  1
  La  La3  1  0.100727  0.899273  0.908083  1
  La  La4  1  0.102854  0.897146  0.250000  1
  La  La5  1  0.899273  0.100727  0.408083  1
  Co  Co6  1  0.299907  0.700093  0.250000  1
  Co  Co7  1  0.700093  0.299907  0.750000  1
  Sn  Sn8  1  0.752110  0.247890  0.571536  1
  Sn  Sn9  1  0.431673  0.568327  0.577508  1
  Sn  Sn10  1  0.568327  0.431673  0.422492  1
  Sn  Sn11  1  0.738569  0.261431  0.250000  1
  Sn  Sn12  1  0.261431  0.738569  0.750000  1
  Sn  Sn13  1  0.247890  0.752110  0.071536  1
  Sn  Sn14  1  0.247890  0.752110  0.428464  1
  Sn  Sn15  1  0.568327  0.431673  0.077508  1
  Sn  Sn16  1  0.452863  0.547137  0.250000  1
  Sn  Sn17  1  0.547137  0.452863  0.750000  1
  Sn  Sn18  1  0.752110  0.247890  0.928464  1
  Sn  Sn19  1  0.431673  0.568327  0.922492  1
