# generated using pymatgen
data_Zr10Al2InBiSb4
_symmetry_space_group_name_H-M   'P 1'
_cell_length_a   8.75706324
_cell_length_b   8.75706280
_cell_length_c   5.89957000
_cell_angle_alpha   90.00000000
_cell_angle_beta   90.00000000
_cell_angle_gamma   120.21260298
_symmetry_Int_Tables_number   1
_chemical_formula_structural   Zr10Al2InBiSb4
_chemical_formula_sum   'Zr10 Al2 In1 Bi1 Sb4'
_cell_volume   390.96109902
_cell_formula_units_Z   1
loop_
 _symmetry_equiv_pos_site_id
 _symmetry_equiv_pos_as_xyz
  1  'x, y, z'
loop_
 _atom_site_type_symbol
 _atom_site_label
 _atom_site_symmetry_multiplicity
 _atom_site_fract_x
 _atom_site_fract_y
 _atom_site_fract_z
 _atom_site_occupancy
  Zr  Zr0  1  0.730316  0.730316  0.750000  1
  Zr  Zr1  1  0.272390  0.997457  0.750000  1
  Zr  Zr2  1  0.997457  0.272390  0.750000  1
  Zr  Zr3  1  0.264400  0.264400  0.250000  1
  Zr  Zr4  1  0.733295  0.005550  0.250000  1
  Zr  Zr5  1  0.005550  0.733295  0.250000  1
  Zr  Zr6  1  0.669226  0.329918  0.997723  1
  Zr  Zr7  1  0.329918  0.669226  0.997723  1
  Zr  Zr8  1  0.329918  0.669226  0.502277  1
  Zr  Zr9  1  0.669226  0.329918  0.502277  1
  Al  Al10  1  0.001274  0.001274  0.994812  1
  Al  Al11  1  0.001274  0.001274  0.505188  1
  In  In12  1  0.382304  0.382304  0.750000  1
  Bi  Bi13  1  0.609696  0.609696  0.250000  1
  Sb  Sb14  1  0.613556  0.998931  0.750000  1
  Sb  Sb15  1  0.998931  0.613556  0.750000  1
  Sb  Sb16  1  0.389231  0.002038  0.250000  1
  Sb  Sb17  1  0.002038  0.389231  0.250000  1
