# generated using pymatgen
data_Pa2Zn13Ni4
_symmetry_space_group_name_H-M   'P 1'
_cell_length_a   6.62865264
_cell_length_b   6.62865221
_cell_length_c   6.62865362
_cell_angle_alpha   83.50415751
_cell_angle_beta   83.50415569
_cell_angle_gamma   83.50416350
_symmetry_Int_Tables_number   1
_chemical_formula_structural   Pa2Zn13Ni4
_chemical_formula_sum   'Pa2 Zn13 Ni4'
_cell_volume   286.04009775
_cell_formula_units_Z   1
loop_
 _symmetry_equiv_pos_site_id
 _symmetry_equiv_pos_as_xyz
  1  'x, y, z'
loop_
 _atom_site_type_symbol
 _atom_site_label
 _atom_site_symmetry_multiplicity
 _atom_site_fract_x
 _atom_site_fract_y
 _atom_site_fract_z
 _atom_site_occupancy
  Pa  Pa0  1  0.342780  0.342780  0.342780  1
  Pa  Pa1  1  0.678505  0.678505  0.678505  1
  Zn  Zn2  1  0.706838  0.288172  0.999875  1
  Zn  Zn3  1  0.288172  0.999875  0.706838  1
  Zn  Zn4  1  0.999875  0.706838  0.288172  1
  Zn  Zn5  1  0.706838  0.999875  0.288172  1
  Zn  Zn6  1  0.999875  0.288172  0.706838  1
  Zn  Zn7  1  0.288172  0.706838  0.999875  1
  Zn  Zn8  1  0.653064  0.653064  0.150488  1
  Zn  Zn9  1  0.653064  0.150488  0.653064  1
  Zn  Zn10  1  0.150488  0.653064  0.653064  1
  Zn  Zn11  1  0.352828  0.352828  0.847611  1
  Zn  Zn12  1  0.352828  0.847611  0.352828  1
  Zn  Zn13  1  0.847611  0.352828  0.352828  1
  Zn  Zn14  1  0.105267  0.105267  0.105267  1
  Ni  Ni15  1  0.998796  0.998796  0.495594  1
  Ni  Ni16  1  0.998796  0.495594  0.998796  1
  Ni  Ni17  1  0.495594  0.998796  0.998796  1
  Ni  Ni18  1  0.880610  0.880610  0.880610  1
