# generated using pymatgen
data_Ac2U(ZnIr)3
_symmetry_space_group_name_H-M   'P 1'
_cell_length_a   7.56796757
_cell_length_b   7.44786479
_cell_length_c   4.00243400
_cell_angle_alpha   90.00000000
_cell_angle_beta   90.00000000
_cell_angle_gamma   119.47642005
_symmetry_Int_Tables_number   1
_chemical_formula_structural   Ac2U(ZnIr)3
_chemical_formula_sum   'Ac2 U1 Zn3 Ir3'
_cell_volume   196.39619747
_cell_formula_units_Z   1
loop_
 _symmetry_equiv_pos_site_id
 _symmetry_equiv_pos_as_xyz
  1  'x, y, z'
loop_
 _atom_site_type_symbol
 _atom_site_label
 _atom_site_symmetry_multiplicity
 _atom_site_fract_x
 _atom_site_fract_y
 _atom_site_fract_z
 _atom_site_occupancy
  Ac  Ac0  1  0.413068  0.412879  0.500000  1
  Ac  Ac1  1  0.586932  0.999812  0.500000  1
  U  U2  1  0.000000  0.587123  0.500000  1
  Zn  Zn3  1  0.784166  0.764906  0.000000  1
  Zn  Zn4  1  0.215834  0.980740  0.000000  1
  Zn  Zn5  1  0.000000  0.232177  0.000000  1
  Ir  Ir6  1  0.728551  0.383216  0.000000  1
  Ir  Ir7  1  0.271449  0.654666  0.000000  1
  Ir  Ir8  1  0.000000  0.984480  0.500000  1
