# generated using pymatgen
data_Tm6Co16ReP12Rh
_symmetry_space_group_name_H-M   'P 1'
_cell_length_a   3.69445000
_cell_length_b   10.49129200
_cell_length_c   12.18271500
_cell_angle_alpha   90.00000000
_cell_angle_beta   90.00000000
_cell_angle_gamma   90.00000000
_symmetry_Int_Tables_number   1
_chemical_formula_structural   Tm6Co16ReP12Rh
_chemical_formula_sum   'Tm6 Co16 Re1 P12 Rh1'
_cell_volume   472.19659661
_cell_formula_units_Z   1
loop_
 _symmetry_equiv_pos_site_id
 _symmetry_equiv_pos_as_xyz
  1  'x, y, z'
loop_
 _atom_site_type_symbol
 _atom_site_label
 _atom_site_symmetry_multiplicity
 _atom_site_fract_x
 _atom_site_fract_y
 _atom_site_fract_z
 _atom_site_occupancy
  Tm  Tm0  1  0.000000  0.500000  0.525527  1
  Tm  Tm1  1  0.500000  0.000000  0.475144  1
  Tm  Tm2  1  0.500000  0.818800  0.205702  1
  Tm  Tm3  1  0.500000  0.181200  0.205702  1
  Tm  Tm4  1  0.000000  0.681968  0.792498  1
  Tm  Tm5  1  0.000000  0.318032  0.792498  1
  Co  Co6  1  0.500000  0.500000  0.703670  1
  Co  Co7  1  0.000000  0.000000  0.297476  1
  Co  Co8  1  0.000000  0.500000  0.985189  1
  Co  Co9  1  0.500000  0.000000  0.011467  1
  Co  Co10  1  0.500000  0.331292  0.990687  1
  Co  Co11  1  0.500000  0.668708  0.990687  1
  Co  Co12  1  0.000000  0.166260  0.008700  1
  Co  Co13  1  0.000000  0.833740  0.008700  1
  Co  Co14  1  0.500000  0.297077  0.432127  1
  Co  Co15  1  0.500000  0.702923  0.432127  1
  Co  Co16  1  0.000000  0.202996  0.568958  1
  Co  Co17  1  0.000000  0.797004  0.568958  1
  Co  Co18  1  0.500000  0.878794  0.707809  1
  Co  Co19  1  0.500000  0.121206  0.707809  1
  Co  Co20  1  0.000000  0.622873  0.292989  1
  Co  Co21  1  0.000000  0.377127  0.292989  1
  Re  Re22  1  0.000000  0.000000  0.842077  1
  P  P23  1  0.500000  0.500000  0.881751  1
  P  P24  1  0.000000  0.000000  0.120043  1
  P  P25  1  0.500000  0.500000  0.353253  1
  P  P26  1  0.000000  0.000000  0.648358  1
  P  P27  1  0.500000  0.312091  0.616691  1
  P  P28  1  0.500000  0.687909  0.616691  1
  P  P29  1  0.000000  0.187246  0.383484  1
  P  P30  1  0.000000  0.812754  0.383484  1
  P  P31  1  0.500000  0.844491  0.891309  1
  P  P32  1  0.500000  0.155509  0.891309  1
  P  P33  1  0.000000  0.655270  0.106914  1
  P  P34  1  0.000000  0.344730  0.106914  1
  Rh  Rh35  1  0.500000  0.500000  0.160307  1
