# generated using pymatgen
data_DyMg3Ge4P2Ir7
_symmetry_space_group_name_H-M   'P 1'
_cell_length_a   7.10178363
_cell_length_b   7.09105155
_cell_length_c   7.09105177
_cell_angle_alpha   109.18623704
_cell_angle_beta   110.24326658
_cell_angle_gamma   110.24328505
_symmetry_Int_Tables_number   1
_chemical_formula_structural   DyMg3Ge4P2Ir7
_chemical_formula_sum   'Dy1 Mg3 Ge4 P2 Ir7'
_cell_volume   270.51622056
_cell_formula_units_Z   1
loop_
 _symmetry_equiv_pos_site_id
 _symmetry_equiv_pos_as_xyz
  1  'x, y, z'
loop_
 _atom_site_type_symbol
 _atom_site_label
 _atom_site_symmetry_multiplicity
 _atom_site_fract_x
 _atom_site_fract_y
 _atom_site_fract_z
 _atom_site_occupancy
  Dy  Dy0  1  0.500000  0.499896  0.500104  1
  Mg  Mg1  1  0.999210  0.000645  0.482460  1
  Mg  Mg2  1  0.000790  0.517540  0.999355  1
  Mg  Mg3  1  0.500000  0.000965  0.999035  1
  Ge  Ge4  1  0.990985  0.309960  0.307409  1
  Ge  Ge5  1  0.295965  0.296028  0.988180  1
  Ge  Ge6  1  0.704035  0.011820  0.703972  1
  Ge  Ge7  1  0.009015  0.692591  0.690040  1
  P  P8  1  0.676362  0.675460  0.003900  1
  P  P9  1  0.323638  0.996100  0.324540  1
  Ir  Ir10  1  0.747403  0.243535  0.495475  1
  Ir  Ir11  1  0.750938  0.507157  0.243775  1
  Ir  Ir12  1  0.500000  0.248131  0.751869  1
  Ir  Ir13  1  0.252597  0.504525  0.756465  1
  Ir  Ir14  1  0.249062  0.756225  0.492843  1
  Ir  Ir15  1  0.500000  0.754369  0.245631  1
  Ir  Ir16  1  0.000000  0.985053  0.014947  1
