# generated using pymatgen
data_Cs2Ga2Ge3O10
_symmetry_space_group_name_H-M   'P 1'
_cell_length_a   10.01673644
_cell_length_b   10.01673701
_cell_length_c   13.38289023
_cell_angle_alpha   48.93391757
_cell_angle_beta   48.93391506
_cell_angle_gamma   40.02664875
_symmetry_Int_Tables_number   1
_chemical_formula_structural   Cs2Ga2Ge3O10
_chemical_formula_sum   'Cs4 Ga4 Ge6 O20'
_cell_volume   617.45072362
_cell_formula_units_Z   2
loop_
 _symmetry_equiv_pos_site_id
 _symmetry_equiv_pos_as_xyz
  1  'x, y, z'
loop_
 _atom_site_type_symbol
 _atom_site_label
 _atom_site_symmetry_multiplicity
 _atom_site_fract_x
 _atom_site_fract_y
 _atom_site_fract_z
 _atom_site_occupancy
  Cs  Cs0  1  0.636824  0.855734  0.113676  1
  Cs  Cs1  1  0.144266  0.363176  0.886324  1
  Cs  Cs2  1  0.284022  0.003034  0.610578  1
  Cs  Cs3  1  0.996966  0.715978  0.389422  1
  Ga  Ga4  1  0.711575  0.423829  0.558665  1
  Ga  Ga5  1  0.576171  0.288425  0.441335  1
  Ga  Ga6  1  0.263716  0.472432  0.075779  1
  Ga  Ga7  1  0.527568  0.736284  0.924221  1
  Ge  Ge8  1  0.688763  0.417357  0.812273  1
  Ge  Ge9  1  0.582643  0.311237  0.187727  1
  Ge  Ge10  1  0.262249  0.737751  0.500000  1
  Ge  Ge11  1  0.012488  0.987512  0.000000  1
  Ge  Ge12  1  0.754428  0.985402  0.694797  1
  Ge  Ge13  1  0.014598  0.245572  0.305203  1
  O  O14  1  0.978724  0.305038  0.422649  1
  O  O15  1  0.694962  0.021276  0.577351  1
  O  O16  1  0.630501  0.236008  0.696143  1
  O  O17  1  0.763992  0.369499  0.303857  1
  O  O18  1  0.046938  0.817713  0.653966  1
  O  O19  1  0.182287  0.953062  0.346034  1
  O  O20  1  0.484449  0.690200  0.483812  1
  O  O21  1  0.309800  0.515551  0.516188  1
  O  O22  1  0.772499  0.473573  0.631666  1
  O  O23  1  0.526427  0.227501  0.368334  1
  O  O24  1  0.148036  0.344407  0.129625  1
  O  O25  1  0.655593  0.851964  0.870375  1
  O  O26  1  0.412750  0.515394  0.885317  1
  O  O27  1  0.484606  0.587250  0.114683  1
  O  O28  1  0.459762  0.264594  0.172871  1
  O  O29  1  0.735406  0.540238  0.827129  1
  O  O30  1  0.869110  0.124819  0.889521  1
  O  O31  1  0.875181  0.130890  0.110479  1
  O  O32  1  0.037142  0.740138  0.109954  1
  O  O33  1  0.259862  0.962858  0.890046  1
