# generated using pymatgen
data_Ag2TePdO6
_symmetry_space_group_name_H-M   'P 1'
_cell_length_a   6.18046515
_cell_length_b   6.18046500
_cell_length_c   6.18046403
_cell_angle_alpha   50.92850334
_cell_angle_beta   50.92849903
_cell_angle_gamma   50.92850641
_symmetry_Int_Tables_number   1
_chemical_formula_structural   Ag2TePdO6
_chemical_formula_sum   'Ag2 Te1 Pd1 O6'
_cell_volume   131.23052276
_cell_formula_units_Z   1
loop_
 _symmetry_equiv_pos_site_id
 _symmetry_equiv_pos_as_xyz
  1  'x, y, z'
loop_
 _atom_site_type_symbol
 _atom_site_label
 _atom_site_symmetry_multiplicity
 _atom_site_fract_x
 _atom_site_fract_y
 _atom_site_fract_z
 _atom_site_occupancy
  Ag  Ag0  1  0.858332  0.858332  0.858332  1
  Ag  Ag1  1  0.142063  0.142063  0.142063  1
  Te  Te2  1  0.336778  0.336778  0.336778  1
  Pd  Pd3  1  0.663710  0.663710  0.663710  1
  O  O4  1  0.693538  0.073802  0.440336  1
  O  O5  1  0.440336  0.693538  0.073802  1
  O  O6  1  0.073802  0.440336  0.693538  1
  O  O7  1  0.298688  0.945229  0.547523  1
  O  O8  1  0.547523  0.298688  0.945229  1
  O  O9  1  0.945229  0.547523  0.298688  1
