# generated using pymatgen
data_Tb5Nd3(CdRu)2
_symmetry_space_group_name_H-M   'P 1'
_cell_length_a   9.75968426
_cell_length_b   9.75968479
_cell_length_c   9.75968400
_cell_angle_alpha   59.99999589
_cell_angle_beta   59.99999410
_cell_angle_gamma   59.99999785
_symmetry_Int_Tables_number   1
_chemical_formula_structural   Tb5Nd3(CdRu)2
_chemical_formula_sum   'Tb10 Nd6 Cd4 Ru4'
_cell_volume   657.34335583
_cell_formula_units_Z   2
loop_
 _symmetry_equiv_pos_site_id
 _symmetry_equiv_pos_as_xyz
  1  'x, y, z'
loop_
 _atom_site_type_symbol
 _atom_site_label
 _atom_site_symmetry_multiplicity
 _atom_site_fract_x
 _atom_site_fract_y
 _atom_site_fract_z
 _atom_site_occupancy
  Tb  Tb0  1  0.344940  0.344940  0.344940  1
  Tb  Tb1  1  0.344940  0.344940  0.965180  1
  Tb  Tb2  1  0.344940  0.965180  0.344940  1
  Tb  Tb3  1  0.965180  0.344940  0.344940  1
  Tb  Tb4  1  0.811807  0.188193  0.188193  1
  Tb  Tb5  1  0.188193  0.811807  0.811807  1
  Tb  Tb6  1  0.188193  0.811807  0.188193  1
  Tb  Tb7  1  0.811807  0.188193  0.811807  1
  Tb  Tb8  1  0.188193  0.188193  0.811807  1
  Tb  Tb9  1  0.811807  0.811807  0.188193  1
  Nd  Nd10  1  0.940263  0.559737  0.559737  1
  Nd  Nd11  1  0.559737  0.940263  0.940263  1
  Nd  Nd12  1  0.559737  0.940263  0.559737  1
  Nd  Nd13  1  0.940263  0.559737  0.940263  1
  Nd  Nd14  1  0.559737  0.559737  0.940263  1
  Nd  Nd15  1  0.940263  0.940263  0.559737  1
  Cd  Cd16  1  0.578949  0.578949  0.578949  1
  Cd  Cd17  1  0.578949  0.578949  0.263153  1
  Cd  Cd18  1  0.578949  0.263153  0.578949  1
  Cd  Cd19  1  0.263153  0.578949  0.578949  1
  Ru  Ru20  1  0.138807  0.138807  0.138807  1
  Ru  Ru21  1  0.138807  0.138807  0.583578  1
  Ru  Ru22  1  0.138807  0.583578  0.138807  1
  Ru  Ru23  1  0.583578  0.138807  0.138807  1
