# generated using pymatgen
data_Rb4UCrI12
_symmetry_space_group_name_H-M   'P 1'
_cell_length_a   8.25895800
_cell_length_b   8.25895800
_cell_length_c   12.16106200
_cell_angle_alpha   90.00000000
_cell_angle_beta   90.00000000
_cell_angle_gamma   90.00000000
_symmetry_Int_Tables_number   1
_chemical_formula_structural   Rb4UCrI12
_chemical_formula_sum   'Rb4 U1 Cr1 I12'
_cell_volume   829.51074834
_cell_formula_units_Z   1
loop_
 _symmetry_equiv_pos_site_id
 _symmetry_equiv_pos_as_xyz
  1  'x, y, z'
loop_
 _atom_site_type_symbol
 _atom_site_label
 _atom_site_symmetry_multiplicity
 _atom_site_fract_x
 _atom_site_fract_y
 _atom_site_fract_z
 _atom_site_occupancy
  Rb  Rb0  1  0.500000  0.000000  0.795761  1
  Rb  Rb1  1  0.500000  0.000000  0.204239  1
  Rb  Rb2  1  0.000000  0.500000  0.204239  1
  Rb  Rb3  1  0.000000  0.500000  0.795761  1
  U  U4  1  0.500000  0.500000  0.500000  1
  Cr  Cr5  1  0.000000  0.000000  0.000000  1
  I  I6  1  0.767313  0.240735  0.000000  1
  I  I7  1  0.232687  0.759265  0.000000  1
  I  I8  1  0.500000  0.500000  0.256949  1
  I  I9  1  0.290710  0.214065  0.500000  1
  I  I10  1  0.240735  0.232687  0.000000  1
  I  I11  1  0.785935  0.290710  0.500000  1
  I  I12  1  0.000000  0.000000  0.227822  1
  I  I13  1  0.709290  0.785935  0.500000  1
  I  I14  1  0.214065  0.709290  0.500000  1
  I  I15  1  0.500000  0.500000  0.743051  1
  I  I16  1  0.759265  0.767313  0.000000  1
  I  I17  1  0.000000  0.000000  0.772178  1
