# generated using pymatgen
data_Pr3Th(AgAs2)4
_symmetry_space_group_name_H-M   'P 1'
_cell_length_a   4.10955700
_cell_length_b   4.12272227
_cell_length_c   21.14657707
_cell_angle_alpha   90.46607964
_cell_angle_beta   90.00000000
_cell_angle_gamma   90.00000000
_symmetry_Int_Tables_number   1
_chemical_formula_structural   Pr3Th(AgAs2)4
_chemical_formula_sum   'Pr3 Th1 Ag4 As8'
_cell_volume   358.26534230
_cell_formula_units_Z   1
loop_
 _symmetry_equiv_pos_site_id
 _symmetry_equiv_pos_as_xyz
  1  'x, y, z'
loop_
 _atom_site_type_symbol
 _atom_site_label
 _atom_site_symmetry_multiplicity
 _atom_site_fract_x
 _atom_site_fract_y
 _atom_site_fract_z
 _atom_site_occupancy
  Pr  Pr0  1  0.750000  0.237108  0.387455  1
  Pr  Pr1  1  0.750000  0.272782  0.885289  1
  Pr  Pr2  1  0.250000  0.726476  0.116448  1
  Th  Th3  1  0.250000  0.761804  0.611034  1
  Ag  Ag4  1  0.250000  0.226113  0.251766  1
  Ag  Ag5  1  0.750000  0.726651  0.251494  1
  Ag  Ag6  1  0.750000  0.773676  0.748524  1
  Ag  Ag7  1  0.250000  0.273536  0.748489  1
  As  As8  1  0.250000  0.773950  0.836539  1
  As  As9  1  0.750000  0.226569  0.162057  1
  As  As10  1  0.750000  0.264162  0.655883  1
  As  As11  1  0.250000  0.732924  0.340631  1
  As  As12  1  0.250000  0.252590  0.502411  1
  As  As13  1  0.250000  0.214379  0.000823  1
  As  As14  1  0.750000  0.785524  0.999045  1
  As  As15  1  0.750000  0.751756  0.502111  1
