# generated using pymatgen
data_Th2B(Ir2Rh)2
_symmetry_space_group_name_H-M   'P 1'
_cell_length_a   5.95857943
_cell_length_b   5.95857810
_cell_length_c   5.99712400
_cell_angle_alpha   59.78576516
_cell_angle_beta   59.78577262
_cell_angle_gamma   60.20424025
_symmetry_Int_Tables_number   1
_chemical_formula_structural   Th2B(Ir2Rh)2
_chemical_formula_sum   'Th2 B1 Ir4 Rh2'
_cell_volume   150.30068837
_cell_formula_units_Z   1
loop_
 _symmetry_equiv_pos_site_id
 _symmetry_equiv_pos_as_xyz
  1  'x, y, z'
loop_
 _atom_site_type_symbol
 _atom_site_label
 _atom_site_symmetry_multiplicity
 _atom_site_fract_x
 _atom_site_fract_y
 _atom_site_fract_z
 _atom_site_occupancy
  Th  Th0  1  0.750126  0.750126  0.749741  1
  Th  Th1  1  0.249874  0.249874  0.249994  1
  B  B2  1  0.500000  0.500000  0.498823  1
  Ir  Ir3  1  0.755539  0.755539  0.245430  1
  Ir  Ir4  1  0.757174  0.242826  0.243373  1
  Ir  Ir5  1  0.242826  0.757174  0.243373  1
  Ir  Ir6  1  0.244461  0.244461  0.756509  1
  Rh  Rh7  1  0.756043  0.243957  0.756378  1
  Rh  Rh8  1  0.243957  0.756043  0.756378  1
