# generated using pymatgen
data_Ti10BeSiSb6
_symmetry_space_group_name_H-M   'P 1'
_cell_length_a   8.15877000
_cell_length_b   8.15876993
_cell_length_c   5.46664100
_cell_angle_alpha   90.00000000
_cell_angle_beta   90.00000000
_cell_angle_gamma   120.00000029
_symmetry_Int_Tables_number   1
_chemical_formula_structural   Ti10BeSiSb6
_chemical_formula_sum   'Ti10 Be1 Si1 Sb6'
_cell_volume   315.13784542
_cell_formula_units_Z   1
loop_
 _symmetry_equiv_pos_site_id
 _symmetry_equiv_pos_as_xyz
  1  'x, y, z'
loop_
 _atom_site_type_symbol
 _atom_site_label
 _atom_site_symmetry_multiplicity
 _atom_site_fract_x
 _atom_site_fract_y
 _atom_site_fract_z
 _atom_site_occupancy
  Ti  Ti0  1  0.256576  0.000000  0.244728  1
  Ti  Ti1  1  0.256576  0.256576  0.755272  1
  Ti  Ti2  1  0.000000  0.743424  0.755272  1
  Ti  Ti3  1  0.000000  0.256576  0.244728  1
  Ti  Ti4  1  0.743424  0.743424  0.244728  1
  Ti  Ti5  1  0.743424  0.000000  0.755272  1
  Ti  Ti6  1  0.333333  0.666667  0.000000  1
  Ti  Ti7  1  0.666667  0.333333  0.500000  1
  Ti  Ti8  1  0.666667  0.333333  0.000000  1
  Ti  Ti9  1  0.333333  0.666667  0.500000  1
  Be  Be10  1  0.000000  0.000000  0.000000  1
  Si  Si11  1  0.000000  0.000000  0.500000  1
  Sb  Sb12  1  0.608201  0.000000  0.249701  1
  Sb  Sb13  1  0.608201  0.608201  0.750299  1
  Sb  Sb14  1  0.000000  0.391799  0.750299  1
  Sb  Sb15  1  0.000000  0.608201  0.249701  1
  Sb  Sb16  1  0.391799  0.391799  0.249701  1
  Sb  Sb17  1  0.391799  0.000000  0.750299  1
