# generated using pymatgen
data_La15NdCd2(HgIr2)2
_symmetry_space_group_name_H-M   'P 1'
_cell_length_a   10.10818900
_cell_length_b   10.10818941
_cell_length_c   10.13122100
_cell_angle_alpha   59.92459563
_cell_angle_beta   59.92459426
_cell_angle_gamma   59.83727990
_symmetry_Int_Tables_number   1
_chemical_formula_structural   La15NdCd2(HgIr2)2
_chemical_formula_sum   'La15 Nd1 Cd2 Hg2 Ir4'
_cell_volume   730.23371737
_cell_formula_units_Z   1
loop_
 _symmetry_equiv_pos_site_id
 _symmetry_equiv_pos_as_xyz
  1  'x, y, z'
loop_
 _atom_site_type_symbol
 _atom_site_label
 _atom_site_symmetry_multiplicity
 _atom_site_fract_x
 _atom_site_fract_y
 _atom_site_fract_z
 _atom_site_occupancy
  La  La0  1  0.348069  0.348069  0.347574  1
  La  La1  1  0.348069  0.348069  0.956288  1
  La  La2  1  0.348660  0.953435  0.348952  1
  La  La3  1  0.953435  0.348660  0.348952  1
  La  La4  1  0.809485  0.189295  0.191903  1
  La  La5  1  0.189295  0.809485  0.809317  1
  La  La6  1  0.189295  0.809485  0.191903  1
  La  La7  1  0.809485  0.189295  0.809317  1
  La  La8  1  0.189193  0.189193  0.810807  1
  La  La9  1  0.808330  0.808330  0.191670  1
  La  La10  1  0.939771  0.560275  0.560729  1
  La  La11  1  0.560275  0.939771  0.939225  1
  La  La12  1  0.560275  0.939771  0.560729  1
  La  La13  1  0.939771  0.560275  0.939225  1
  La  La14  1  0.560170  0.560170  0.939830  1
  Nd  Nd15  1  0.939084  0.939084  0.560916  1
  Cd  Cd16  1  0.579476  0.261090  0.579716  1
  Cd  Cd17  1  0.261090  0.579476  0.579716  1
  Hg  Hg18  1  0.582797  0.582797  0.585183  1
  Hg  Hg19  1  0.582797  0.582797  0.249223  1
  Ir  Ir20  1  0.141713  0.141713  0.140984  1
  Ir  Ir21  1  0.141713  0.141713  0.575589  1
  Ir  Ir22  1  0.141555  0.576194  0.141125  1
  Ir  Ir23  1  0.576194  0.141555  0.141125  1
