# generated using pymatgen
data_Sc12In(PtBr8)2
_symmetry_space_group_name_H-M   'P 1'
_cell_length_a   9.15957683
_cell_length_b   11.17132417
_cell_length_c   11.80615627
_cell_angle_alpha   116.98368767
_cell_angle_beta   102.12291376
_cell_angle_gamma   101.46124059
_symmetry_Int_Tables_number   1
_chemical_formula_structural   Sc12In(PtBr8)2
_chemical_formula_sum   'Sc12 In1 Pt2 Br16'
_cell_volume   990.80560079
_cell_formula_units_Z   1
loop_
 _symmetry_equiv_pos_site_id
 _symmetry_equiv_pos_as_xyz
  1  'x, y, z'
loop_
 _atom_site_type_symbol
 _atom_site_label
 _atom_site_symmetry_multiplicity
 _atom_site_fract_x
 _atom_site_fract_y
 _atom_site_fract_z
 _atom_site_occupancy
  Sc  Sc0  1  0.086796  0.246086  0.343537  1
  Sc  Sc1  1  0.913204  0.753914  0.656463  1
  Sc  Sc2  1  0.765878  0.539230  0.312245  1
  Sc  Sc3  1  0.234122  0.460770  0.687755  1
  Sc  Sc4  1  0.296039  0.754937  0.656087  1
  Sc  Sc5  1  0.703961  0.245063  0.343913  1
  Sc  Sc6  1  0.148284  0.538422  0.312845  1
  Sc  Sc7  1  0.851716  0.461578  0.687155  1
  Sc  Sc8  1  0.399548  0.349570  0.260141  1
  Sc  Sc9  1  0.600452  0.650430  0.739859  1
  Sc  Sc10  1  0.455751  0.296331  0.521623  1
  Sc  Sc11  1  0.544249  0.703669  0.478377  1
  In  In12  1  0.000000  0.500000  0.500000  1
  Pt  Pt13  1  0.341058  0.500184  0.499606  1
  Pt  Pt14  1  0.658943  0.499816  0.500394  1
  Br  Br15  1  0.405749  0.744397  0.888053  1
  Br  Br16  1  0.594251  0.255603  0.111947  1
  Br  Br17  1  0.190640  0.968835  0.785367  1
  Br  Br18  1  0.809360  0.031165  0.214633  1
  Br  Br19  1  0.337789  0.087339  0.246185  1
  Br  Br20  1  0.662211  0.912661  0.753815  1
  Br  Br21  1  0.550866  0.437272  0.804113  1
  Br  Br22  1  0.449134  0.562728  0.195887  1
  Br  Br23  1  0.316012  0.829615  0.461669  1
  Br  Br24  1  0.683988  0.170385  0.538331  1
  Br  Br25  1  0.172414  0.167546  0.532262  1
  Br  Br26  1  0.827586  0.832454  0.467738  1
  Br  Br27  1  0.925211  0.576550  0.158734  1
  Br  Br28  1  0.074789  0.423450  0.841266  1
  Br  Br29  1  0.919141  0.742666  0.888717  1
  Br  Br30  1  0.080859  0.257334  0.111283  1
