# generated using pymatgen
data_Ca3Lu(ReN3)4
_symmetry_space_group_name_H-M   'P 1'
_cell_length_a   7.37768084
_cell_length_b   7.37768084
_cell_length_c   6.25203357
_cell_angle_alpha   74.23033386
_cell_angle_beta   74.23033023
_cell_angle_gamma   83.88259290
_symmetry_Int_Tables_number   1
_chemical_formula_structural   Ca3Lu(ReN3)4
_chemical_formula_sum   'Ca3 Lu1 Re4 N12'
_cell_volume   314.96839440
_cell_formula_units_Z   1
loop_
 _symmetry_equiv_pos_site_id
 _symmetry_equiv_pos_as_xyz
  1  'x, y, z'
loop_
 _atom_site_type_symbol
 _atom_site_label
 _atom_site_symmetry_multiplicity
 _atom_site_fract_x
 _atom_site_fract_y
 _atom_site_fract_z
 _atom_site_occupancy
  Ca  Ca0  1  0.294811  0.705189  0.750000  1
  Ca  Ca1  1  0.086727  0.913273  0.250000  1
  Ca  Ca2  1  0.706564  0.293436  0.250000  1
  Lu  Lu3  1  0.909781  0.090219  0.750000  1
  Re  Re4  1  0.623999  0.797343  0.265484  1
  Re  Re5  1  0.202657  0.376001  0.234516  1
  Re  Re6  1  0.378809  0.202976  0.728717  1
  Re  Re7  1  0.797024  0.621191  0.771283  1
  N  N8  1  0.339348  0.350962  0.942288  1
  N  N9  1  0.006477  0.220406  0.359636  1
  N  N10  1  0.779594  0.993523  0.140364  1
  N  N11  1  0.213906  0.016398  0.831215  1
  N  N12  1  0.654897  0.637475  0.063648  1
  N  N13  1  0.881714  0.381678  0.817544  1
  N  N14  1  0.123142  0.612938  0.173182  1
  N  N15  1  0.983602  0.786094  0.668785  1
  N  N16  1  0.387062  0.876858  0.326818  1
  N  N17  1  0.649038  0.660652  0.557712  1
  N  N18  1  0.618322  0.118286  0.682456  1
  N  N19  1  0.362525  0.345103  0.436352  1
