# generated using pymatgen
data_BaNpI6
_symmetry_space_group_name_H-M   'P 1'
_cell_length_a   8.44548547
_cell_length_b   8.42265415
_cell_length_c   15.27127561
_cell_angle_alpha   84.27613090
_cell_angle_beta   84.54076021
_cell_angle_gamma   120.41235482
_symmetry_Int_Tables_number   1
_chemical_formula_structural   BaNpI6
_chemical_formula_sum   'Ba2 Np2 I12'
_cell_volume   918.63612322
_cell_formula_units_Z   2
loop_
 _symmetry_equiv_pos_site_id
 _symmetry_equiv_pos_as_xyz
  1  'x, y, z'
loop_
 _atom_site_type_symbol
 _atom_site_label
 _atom_site_symmetry_multiplicity
 _atom_site_fract_x
 _atom_site_fract_y
 _atom_site_fract_z
 _atom_site_occupancy
  Ba  Ba0  1  0.171100  0.336461  0.996388  1
  Ba  Ba1  1  0.334866  0.169635  0.496355  1
  Np  Np2  1  0.666839  0.840750  0.499300  1
  Np  Np3  1  0.840332  0.666472  0.999299  1
  I  I4  1  0.594819  0.714913  0.882610  1
  I  I5  1  0.714095  0.594065  0.382993  1
  I  I6  1  0.887234  0.427740  0.876695  1
  I  I7  1  0.611067  0.076038  0.620687  1
  I  I8  1  0.428283  0.887411  0.376536  1
  I  I9  1  0.999893  0.186490  0.386872  1
  I  I10  1  0.185538  0.999962  0.887022  1
  I  I11  1  0.915126  0.801017  0.617048  1
  I  I12  1  0.074994  0.610391  0.121062  1
  I  I13  1  0.501385  0.331927  0.114677  1
  I  I14  1  0.332947  0.501292  0.614789  1
  I  I15  1  0.801479  0.915436  0.116868  1
