# generated using pymatgen
data_Ce4Ni3Sn2Ir
_symmetry_space_group_name_H-M   'P 1'
_cell_length_a   7.53572115
_cell_length_b   7.53572202
_cell_length_c   3.72397800
_cell_angle_alpha   90.00000000
_cell_angle_beta   90.00000000
_cell_angle_gamma   89.93738743
_symmetry_Int_Tables_number   1
_chemical_formula_structural   Ce4Ni3Sn2Ir
_chemical_formula_sum   'Ce4 Ni3 Sn2 Ir1'
_cell_volume   211.47378411
_cell_formula_units_Z   1
loop_
 _symmetry_equiv_pos_site_id
 _symmetry_equiv_pos_as_xyz
  1  'x, y, z'
loop_
 _atom_site_type_symbol
 _atom_site_label
 _atom_site_symmetry_multiplicity
 _atom_site_fract_x
 _atom_site_fract_y
 _atom_site_fract_z
 _atom_site_occupancy
  Ce  Ce0  1  0.673835  0.173835  0.500000  1
  Ce  Ce1  1  0.173570  0.321809  0.500000  1
  Ce  Ce2  1  0.821809  0.673570  0.500000  1
  Ce  Ce3  1  0.325585  0.825585  0.500000  1
  Ni  Ni4  1  0.622019  0.875920  0.000000  1
  Ni  Ni5  1  0.134713  0.634713  0.000000  1
  Ni  Ni6  1  0.375920  0.122019  0.000000  1
  Sn  Sn7  1  0.000860  0.994389  0.000000  1
  Sn  Sn8  1  0.494389  0.500860  0.000000  1
  Ir  Ir9  1  0.877298  0.377298  0.000000  1
