# generated using pymatgen
data_Pr20Si15Se
_symmetry_space_group_name_H-M   'P 1'
_cell_length_a   7.96081481
_cell_length_b   7.91918688
_cell_length_c   15.38429815
_cell_angle_alpha   89.71978495
_cell_angle_beta   89.30555150
_cell_angle_gamma   89.98487916
_symmetry_Int_Tables_number   1
_chemical_formula_structural   Pr20Si15Se
_chemical_formula_sum   'Pr20 Si15 Se1'
_cell_volume   969.79222441
_cell_formula_units_Z   1
loop_
 _symmetry_equiv_pos_site_id
 _symmetry_equiv_pos_as_xyz
  1  'x, y, z'
loop_
 _atom_site_type_symbol
 _atom_site_label
 _atom_site_symmetry_multiplicity
 _atom_site_fract_x
 _atom_site_fract_y
 _atom_site_fract_z
 _atom_site_occupancy
  Pr  Pr0  1  0.310565  0.310144  0.000329  1
  Pr  Pr1  1  0.188528  0.808999  0.249655  1
  Pr  Pr2  1  0.801527  0.190438  0.751478  1
  Pr  Pr3  1  0.686855  0.688512  0.497428  1
  Pr  Pr4  1  0.381871  0.007291  0.443362  1
  Pr  Pr5  1  0.492182  0.875631  0.698124  1
  Pr  Pr6  1  0.510559  0.121079  0.196444  1
  Pr  Pr7  1  0.877189  0.487339  0.301604  1
  Pr  Pr8  1  0.122700  0.510744  0.803429  1
  Pr  Pr9  1  0.628489  0.985822  0.949552  1
  Pr  Pr10  1  0.001142  0.380214  0.548755  1
  Pr  Pr11  1  0.990371  0.621534  0.053423  1
  Pr  Pr12  1  0.136474  0.988666  0.873279  1
  Pr  Pr13  1  0.518090  0.628933  0.126206  1
  Pr  Pr14  1  0.478242  0.369811  0.630458  1
  Pr  Pr15  1  0.631247  0.521354  0.875466  1
  Pr  Pr16  1  0.370700  0.478712  0.374513  1
  Pr  Pr17  1  0.872015  0.018877  0.376506  1
  Pr  Pr18  1  0.982367  0.128645  0.124467  1
  Pr  Pr19  1  0.015464  0.867607  0.621956  1
  Si  Si20  1  0.330038  0.697288  0.951135  1
  Si  Si21  1  0.664740  0.304763  0.454247  1
  Si  Si22  1  0.699968  0.334580  0.049304  1
  Si  Si23  1  0.304316  0.667651  0.549123  1
  Si  Si24  1  0.803783  0.832589  0.202662  1
  Si  Si25  1  0.168234  0.195486  0.297195  1
  Si  Si26  1  0.840107  0.803495  0.796873  1
  Si  Si27  1  0.285847  0.921397  0.058299  1
  Si  Si28  1  0.577626  0.786953  0.308770  1
  Si  Si29  1  0.448365  0.210169  0.822899  1
  Si  Si30  1  0.789164  0.578507  0.688882  1
  Si  Si31  1  0.211918  0.423470  0.191249  1
  Si  Si32  1  0.704811  0.075920  0.560352  1
  Si  Si33  1  0.925496  0.289929  0.940404  1
  Si  Si34  1  0.077984  0.711198  0.440959  1
  Se  Se35  1  0.171025  0.176253  0.691210  1
