# generated using pymatgen
data_Er4ScZn(B2Rh5)2
_symmetry_space_group_name_H-M   'P 1'
_cell_length_a   9.56706500
_cell_length_b   9.56706500
_cell_length_c   3.19568600
_cell_angle_alpha   90.00000000
_cell_angle_beta   90.00000000
_cell_angle_gamma   90.00000000
_symmetry_Int_Tables_number   1
_chemical_formula_structural   Er4ScZn(B2Rh5)2
_chemical_formula_sum   'Er4 Sc1 Zn1 B4 Rh10'
_cell_volume   292.49708973
_cell_formula_units_Z   1
loop_
 _symmetry_equiv_pos_site_id
 _symmetry_equiv_pos_as_xyz
  1  'x, y, z'
loop_
 _atom_site_type_symbol
 _atom_site_label
 _atom_site_symmetry_multiplicity
 _atom_site_fract_x
 _atom_site_fract_y
 _atom_site_fract_z
 _atom_site_occupancy
  Er  Er0  1  0.827558  0.322935  0.000000  1
  Er  Er1  1  0.322935  0.172442  0.000000  1
  Er  Er2  1  0.677065  0.827558  0.000000  1
  Er  Er3  1  0.172442  0.677065  0.000000  1
  Sc  Sc4  1  0.500000  0.500000  0.000000  1
  Zn  Zn5  1  0.000000  0.000000  0.000000  1
  B  B6  1  0.626719  0.117784  0.000000  1
  B  B7  1  0.117784  0.373281  0.000000  1
  B  B8  1  0.882216  0.626719  0.000000  1
  B  B9  1  0.373281  0.882216  0.000000  1
  Rh  Rh10  1  0.068799  0.218436  0.500000  1
  Rh  Rh11  1  0.218436  0.931201  0.500000  1
  Rh  Rh12  1  0.781564  0.068799  0.500000  1
  Rh  Rh13  1  0.931201  0.781564  0.500000  1
  Rh  Rh14  1  0.426528  0.725056  0.500000  1
  Rh  Rh15  1  0.573472  0.274944  0.500000  1
  Rh  Rh16  1  0.725056  0.573472  0.500000  1
  Rh  Rh17  1  0.274944  0.426528  0.500000  1
  Rh  Rh18  1  0.500000  0.000000  0.500000  1
  Rh  Rh19  1  0.000000  0.500000  0.500000  1
