# generated using pymatgen
data_BaYIn2Pt3
_symmetry_space_group_name_H-M   'P 1'
_cell_length_a   4.42487600
_cell_length_b   8.10455200
_cell_length_c   9.18251100
_cell_angle_alpha   90.00000000
_cell_angle_beta   90.00000000
_cell_angle_gamma   90.00000000
_symmetry_Int_Tables_number   1
_chemical_formula_structural   BaYIn2Pt3
_chemical_formula_sum   'Ba2 Y2 In4 Pt6'
_cell_volume   329.29988207
_cell_formula_units_Z   2
loop_
 _symmetry_equiv_pos_site_id
 _symmetry_equiv_pos_as_xyz
  1  'x, y, z'
loop_
 _atom_site_type_symbol
 _atom_site_label
 _atom_site_symmetry_multiplicity
 _atom_site_fract_x
 _atom_site_fract_y
 _atom_site_fract_z
 _atom_site_occupancy
  Ba  Ba0  1  0.000000  0.000000  0.276646  1
  Ba  Ba1  1  0.500001  0.500000  0.723355  1
  Y  Y2  1  0.000000  0.500000  0.348523  1
  Y  Y3  1  0.500001  0.000000  0.651478  1
  In  In4  1  0.500001  0.307172  0.111877  1
  In  In5  1  0.500001  0.692829  0.111877  1
  In  In6  1  0.000000  0.192828  0.888123  1
  In  In7  1  0.000000  0.807171  0.888123  1
  Pt  Pt8  1  0.000000  0.500000  0.028004  1
  Pt  Pt9  1  0.500001  0.268889  0.409849  1
  Pt  Pt10  1  0.500001  0.731111  0.409849  1
  Pt  Pt11  1  0.000000  0.231111  0.590152  1
  Pt  Pt12  1  0.000000  0.768889  0.590152  1
  Pt  Pt13  1  0.500001  0.000000  0.971997  1
