# generated using pymatgen
data_SmY7(WC2)4
_symmetry_space_group_name_H-M   'P 1'
_cell_length_a   5.75669274
_cell_length_b   5.75669333
_cell_length_c   9.95097192
_cell_angle_alpha   90.23237718
_cell_angle_beta   89.76762031
_cell_angle_gamma   90.03903186
_symmetry_Int_Tables_number   1
_chemical_formula_structural   SmY7(WC2)4
_chemical_formula_sum   'Sm1 Y7 W4 C8'
_cell_volume   329.76488349
_cell_formula_units_Z   1
loop_
 _symmetry_equiv_pos_site_id
 _symmetry_equiv_pos_as_xyz
  1  'x, y, z'
loop_
 _atom_site_type_symbol
 _atom_site_label
 _atom_site_symmetry_multiplicity
 _atom_site_fract_x
 _atom_site_fract_y
 _atom_site_fract_z
 _atom_site_occupancy
  Sm  Sm0  1  0.299902  0.700098  0.158847  1
  Y  Y1  1  0.200440  0.198133  0.343004  1
  Y  Y2  1  0.801383  0.798800  0.658347  1
  Y  Y3  1  0.299747  0.700253  0.842294  1
  Y  Y4  1  0.801867  0.799560  0.343004  1
  Y  Y5  1  0.201200  0.198617  0.658347  1
  Y  Y6  1  0.697990  0.302010  0.156799  1
  Y  Y7  1  0.699643  0.300357  0.840960  1
  W  W8  1  0.175454  0.179890  0.998249  1
  W  W9  1  0.820110  0.824546  0.998249  1
  W  W10  1  0.324163  0.675837  0.501885  1
  W  W11  1  0.680216  0.319784  0.501297  1
  C  C12  1  0.995882  0.004118  0.151206  1
  C  C13  1  0.503673  0.496327  0.350691  1
  C  C14  1  0.501095  0.498905  0.653663  1
  C  C15  1  0.498450  0.004635  0.996773  1
  C  C16  1  0.995365  0.501550  0.996773  1
  C  C17  1  0.999443  0.000557  0.846498  1
  C  C18  1  0.501870  0.997894  0.501557  1
  C  C19  1  0.002106  0.498130  0.501557  1
