# generated using pymatgen
data_TbHf(NbS2)8
_symmetry_space_group_name_H-M   'P 1'
_cell_length_a   6.71791800
_cell_length_b   6.71791694
_cell_length_c   13.38995300
_cell_angle_alpha   90.00000000
_cell_angle_beta   90.00000000
_cell_angle_gamma   119.99999538
_symmetry_Int_Tables_number   1
_chemical_formula_structural   TbHf(NbS2)8
_chemical_formula_sum   'Tb1 Hf1 Nb8 S16'
_cell_volume   523.33409868
_cell_formula_units_Z   1
loop_
 _symmetry_equiv_pos_site_id
 _symmetry_equiv_pos_as_xyz
  1  'x, y, z'
loop_
 _atom_site_type_symbol
 _atom_site_label
 _atom_site_symmetry_multiplicity
 _atom_site_fract_x
 _atom_site_fract_y
 _atom_site_fract_z
 _atom_site_occupancy
  Tb  Tb0  1  0.000000  0.000000  0.000000  1
  Hf  Hf1  1  0.000000  0.000000  0.500000  1
  Nb  Nb2  1  0.990024  0.495011  0.261582  1
  Nb  Nb3  1  0.009976  0.504989  0.738418  1
  Nb  Nb4  1  0.495011  0.504989  0.738418  1
  Nb  Nb5  1  0.504989  0.009976  0.261582  1
  Nb  Nb6  1  0.000000  0.000000  0.739245  1
  Nb  Nb7  1  0.000000  0.000000  0.260755  1
  Nb  Nb8  1  0.504989  0.495011  0.261582  1
  Nb  Nb9  1  0.495011  0.990024  0.738418  1
  S  S10  1  0.333333  0.666667  0.619112  1
  S  S11  1  0.666667  0.333333  0.141388  1
  S  S12  1  0.666667  0.333333  0.380888  1
  S  S13  1  0.333333  0.666667  0.858612  1
  S  S14  1  0.168193  0.336386  0.379889  1
  S  S15  1  0.831378  0.168622  0.856652  1
  S  S16  1  0.337243  0.168622  0.856652  1
  S  S17  1  0.663614  0.831807  0.379889  1
  S  S18  1  0.168193  0.831807  0.379889  1
  S  S19  1  0.831378  0.662757  0.856652  1
  S  S20  1  0.168622  0.337243  0.143348  1
  S  S21  1  0.831807  0.168193  0.620111  1
  S  S22  1  0.336386  0.168193  0.620111  1
  S  S23  1  0.662757  0.831378  0.143348  1
  S  S24  1  0.168622  0.831378  0.143348  1
  S  S25  1  0.831807  0.663614  0.620111  1
