# generated using pymatgen
data_Li3Ac4As8Au
_symmetry_space_group_name_H-M   'P 1'
_cell_length_a   4.09826000
_cell_length_b   4.13994525
_cell_length_c   21.81922500
_cell_angle_alpha   89.98023685
_cell_angle_beta   90.00000000
_cell_angle_gamma   90.00000000
_symmetry_Int_Tables_number   1
_chemical_formula_structural   Li3Ac4As8Au
_chemical_formula_sum   'Li3 Ac4 As8 Au1'
_cell_volume   370.19743003
_cell_formula_units_Z   1
loop_
 _symmetry_equiv_pos_site_id
 _symmetry_equiv_pos_as_xyz
  1  'x, y, z'
loop_
 _atom_site_type_symbol
 _atom_site_label
 _atom_site_symmetry_multiplicity
 _atom_site_fract_x
 _atom_site_fract_y
 _atom_site_fract_z
 _atom_site_occupancy
  Li  Li0  1  0.750000  0.225629  0.249989  1
  Li  Li1  1  0.250000  0.725710  0.249975  1
  Li  Li2  1  0.750000  0.274443  0.750044  1
  Ac  Ac3  1  0.250000  0.225760  0.119388  1
  Ac  Ac4  1  0.750000  0.725876  0.380566  1
  Ac  Ac5  1  0.250000  0.273531  0.619357  1
  Ac  Ac6  1  0.750000  0.775469  0.880627  1
  As  As7  1  0.250000  0.696663  0.001070  1
  As  As8  1  0.750000  0.724161  0.176893  1
  As  As9  1  0.250000  0.224571  0.323113  1
  As  As10  1  0.750000  0.197199  0.498849  1
  As  As11  1  0.250000  0.801828  0.502218  1
  As  As12  1  0.750000  0.774316  0.672515  1
  As  As13  1  0.250000  0.276622  0.827321  1
  As  As14  1  0.750000  0.302066  0.997777  1
  Au  Au15  1  0.250000  0.776155  0.750299  1
