# generated using pymatgen
data_TmLuHf2F14
_symmetry_space_group_name_H-M   'P 1'
_cell_length_a   5.69389932
_cell_length_b   5.98922020
_cell_length_c   8.18680682
_cell_angle_alpha   103.25124512
_cell_angle_beta   90.03214221
_cell_angle_gamma   89.97183562
_symmetry_Int_Tables_number   1
_chemical_formula_structural   TmLuHf2F14
_chemical_formula_sum   'Tm1 Lu1 Hf2 F14'
_cell_volume   271.75301666
_cell_formula_units_Z   1
loop_
 _symmetry_equiv_pos_site_id
 _symmetry_equiv_pos_as_xyz
  1  'x, y, z'
loop_
 _atom_site_type_symbol
 _atom_site_label
 _atom_site_symmetry_multiplicity
 _atom_site_fract_x
 _atom_site_fract_y
 _atom_site_fract_z
 _atom_site_occupancy
  Tm  Tm0  1  0.699027  0.652311  0.684316  1
  Lu  Lu1  1  0.198576  0.345846  0.313159  1
  Hf  Hf2  1  0.707335  0.814407  0.225965  1
  Hf  Hf3  1  0.207243  0.186334  0.774343  1
  F  F4  1  0.907561  0.464517  0.480197  1
  F  F5  1  0.404964  0.530104  0.515518  1
  F  F6  1  0.433498  0.925949  0.767515  1
  F  F7  1  0.939493  0.070499  0.232898  1
  F  F8  1  0.954113  0.945191  0.756859  1
  F  F9  1  0.457841  0.060587  0.245787  1
  F  F10  1  0.986315  0.451962  0.790548  1
  F  F11  1  0.482096  0.552494  0.210271  1
  F  F12  1  0.694616  0.757537  0.975901  1
  F  F13  1  0.194846  0.244505  0.025349  1
  F  F14  1  0.698286  0.865651  0.476725  1
  F  F15  1  0.198188  0.135079  0.524049  1
  F  F16  1  0.495633  0.383883  0.782018  1
  F  F17  1  0.993088  0.613145  0.218584  1
