# generated using pymatgen
data_Tm2MnV2Ni9P7
_symmetry_space_group_name_H-M   'P 1'
_cell_length_a   9.08825870
_cell_length_b   9.14751563
_cell_length_c   3.64824100
_cell_angle_alpha   90.00000000
_cell_angle_beta   90.00000000
_cell_angle_gamma   119.87331396
_symmetry_Int_Tables_number   1
_chemical_formula_structural   Tm2MnV2Ni9P7
_chemical_formula_sum   'Tm2 Mn1 V2 Ni9 P7'
_cell_volume   262.99711640
_cell_formula_units_Z   1
loop_
 _symmetry_equiv_pos_site_id
 _symmetry_equiv_pos_as_xyz
  1  'x, y, z'
loop_
 _atom_site_type_symbol
 _atom_site_label
 _atom_site_symmetry_multiplicity
 _atom_site_fract_x
 _atom_site_fract_y
 _atom_site_fract_z
 _atom_site_occupancy
  Tm  Tm0  1  0.000521  0.001966  0.000000  1
  Tm  Tm1  1  0.666276  0.332554  0.500000  1
  Mn  Mn2  1  0.113526  0.546519  0.500000  1
  V  V3  1  0.451813  0.566736  0.500000  1
  V  V4  1  0.432449  0.883896  0.500000  1
  Ni  Ni5  1  0.705917  0.604120  0.000000  1
  Ni  Ni6  1  0.395546  0.100401  0.000000  1
  Ni  Ni7  1  0.897528  0.295375  0.000000  1
  Ni  Ni8  1  0.208282  0.387312  0.000000  1
  Ni  Ni9  1  0.615755  0.822608  0.000000  1
  Ni  Ni10  1  0.176808  0.791496  0.000000  1
  Ni  Ni11  1  0.278632  0.227849  0.500000  1
  Ni  Ni12  1  0.771684  0.050394  0.500000  1
  Ni  Ni13  1  0.949033  0.720042  0.500000  1
  P  P14  1  0.447467  0.371609  0.000000  1
  P  P15  1  0.628540  0.075540  0.000000  1
  P  P16  1  0.925195  0.551692  0.000000  1
  P  P17  1  0.042857  0.262162  0.500000  1
  P  P18  1  0.739776  0.782043  0.500000  1
  P  P19  1  0.218974  0.958599  0.500000  1
  P  P20  1  0.333419  0.667086  0.000000  1
