# generated using pymatgen
data_La5Pr(GaRh)4
_symmetry_space_group_name_H-M   'P 1'
_cell_length_a   5.75941872
_cell_length_b   8.37321983
_cell_length_c   13.70520100
_cell_angle_alpha   90.00000000
_cell_angle_beta   90.00000000
_cell_angle_gamma   90.23827679
_symmetry_Int_Tables_number   1
_chemical_formula_structural   La5Pr(GaRh)4
_chemical_formula_sum   'La10 Pr2 Ga8 Rh8'
_cell_volume   660.92594435
_cell_formula_units_Z   2
loop_
 _symmetry_equiv_pos_site_id
 _symmetry_equiv_pos_as_xyz
  1  'x, y, z'
loop_
 _atom_site_type_symbol
 _atom_site_label
 _atom_site_symmetry_multiplicity
 _atom_site_fract_x
 _atom_site_fract_y
 _atom_site_fract_z
 _atom_site_occupancy
  La  La0  1  0.363989  0.762068  0.250000  1
  La  La1  1  0.636011  0.237932  0.750000  1
  La  La2  1  0.152904  0.402354  0.095361  1
  La  La3  1  0.847096  0.597646  0.904639  1
  La  La4  1  0.847096  0.597646  0.595361  1
  La  La5  1  0.848591  0.901433  0.404367  1
  La  La6  1  0.152904  0.402354  0.404639  1
  La  La7  1  0.151409  0.098567  0.595633  1
  La  La8  1  0.151409  0.098567  0.904367  1
  La  La9  1  0.848591  0.901433  0.095633  1
  Pr  Pr10  1  0.639693  0.258491  0.250000  1
  Pr  Pr11  1  0.360307  0.741509  0.750000  1
  Ga  Ga12  1  0.141923  0.114233  0.250000  1
  Ga  Ga13  1  0.858077  0.885767  0.750000  1
  Ga  Ga14  1  0.860060  0.608129  0.250000  1
  Ga  Ga15  1  0.139940  0.391871  0.750000  1
  Ga  Ga16  1  0.632542  0.249707  0.001609  1
  Ga  Ga17  1  0.367458  0.750293  0.998391  1
  Ga  Ga18  1  0.367458  0.750293  0.501609  1
  Ga  Ga19  1  0.632542  0.249707  0.498391  1
  Rh  Rh20  1  0.360364  0.028646  0.091377  1
  Rh  Rh21  1  0.639636  0.971354  0.908623  1
  Rh  Rh22  1  0.639636  0.971354  0.591377  1
  Rh  Rh23  1  0.636324  0.530938  0.408646  1
  Rh  Rh24  1  0.360364  0.028646  0.408623  1
  Rh  Rh25  1  0.363676  0.469062  0.591354  1
  Rh  Rh26  1  0.363676  0.469062  0.908646  1
  Rh  Rh27  1  0.636324  0.530938  0.091354  1
