# generated using pymatgen
data_Tm2Lu3Co19(SiP5)2
_symmetry_space_group_name_H-M   'P 1'
_cell_length_a   11.96733808
_cell_length_b   11.96733844
_cell_length_c   3.65208300
_cell_angle_alpha   90.00000000
_cell_angle_beta   90.00000000
_cell_angle_gamma   120.05667792
_symmetry_Int_Tables_number   1
_chemical_formula_structural   Tm2Lu3Co19(SiP5)2
_chemical_formula_sum   'Tm2 Lu3 Co19 Si2 P10'
_cell_volume   452.70791177
_cell_formula_units_Z   1
loop_
 _symmetry_equiv_pos_site_id
 _symmetry_equiv_pos_as_xyz
  1  'x, y, z'
loop_
 _atom_site_type_symbol
 _atom_site_label
 _atom_site_symmetry_multiplicity
 _atom_site_fract_x
 _atom_site_fract_y
 _atom_site_fract_z
 _atom_site_occupancy
  Tm  Tm0  1  0.332511  0.667469  0.500000  1
  Tm  Tm1  1  0.667469  0.332511  0.500000  1
  Lu  Lu2  1  0.184327  0.000584  0.000000  1
  Lu  Lu3  1  0.000584  0.184327  0.000000  1
  Lu  Lu4  1  0.813335  0.813335  0.000000  1
  Co  Co5  1  0.202633  0.377944  0.500000  1
  Co  Co6  1  0.623994  0.820886  0.500000  1
  Co  Co7  1  0.174285  0.798400  0.500000  1
  Co  Co8  1  0.820886  0.623994  0.500000  1
  Co  Co9  1  0.798400  0.174285  0.500000  1
  Co  Co10  1  0.377944  0.202633  0.500000  1
  Co  Co11  1  0.554925  0.996443  0.500000  1
  Co  Co12  1  0.996443  0.554925  0.500000  1
  Co  Co13  1  0.448760  0.448760  0.500000  1
  Co  Co14  1  0.127241  0.485307  0.000000  1
  Co  Co15  1  0.517162  0.642886  0.000000  1
  Co  Co16  1  0.356731  0.871650  0.000000  1
  Co  Co17  1  0.642886  0.517162  0.000000  1
  Co  Co18  1  0.871650  0.356731  0.000000  1
  Co  Co19  1  0.485307  0.127241  0.000000  1
  Co  Co20  1  0.716461  0.998346  0.000000  1
  Co  Co21  1  0.998346  0.716461  0.000000  1
  Co  Co22  1  0.285465  0.285465  0.000000  1
  Co  Co23  1  0.000714  0.000714  0.500000  1
  Si  Si24  1  0.367307  0.999913  0.500000  1
  Si  Si25  1  0.999913  0.367307  0.500000  1
  P  P26  1  0.633625  0.633625  0.500000  1
  P  P27  1  0.314789  0.481710  0.000000  1
  P  P28  1  0.519464  0.834354  0.000000  1
  P  P29  1  0.164286  0.685161  0.000000  1
  P  P30  1  0.834354  0.519464  0.000000  1
  P  P31  1  0.685161  0.164286  0.000000  1
  P  P32  1  0.481710  0.314789  0.000000  1
  P  P33  1  0.820267  0.999421  0.500000  1
  P  P34  1  0.999421  0.820267  0.500000  1
  P  P35  1  0.181245  0.181245  0.500000  1
