# generated using pymatgen
data_Tb2DyEr2Pb3
_symmetry_space_group_name_H-M   'P 1'
_cell_length_a   9.05035324
_cell_length_b   9.05035283
_cell_length_c   6.61916400
_cell_angle_alpha   90.00000000
_cell_angle_beta   90.00000000
_cell_angle_gamma   120.02644691
_symmetry_Int_Tables_number   1
_chemical_formula_structural   Tb2DyEr2Pb3
_chemical_formula_sum   'Tb4 Dy2 Er4 Pb6'
_cell_volume   469.40640859
_cell_formula_units_Z   2
loop_
 _symmetry_equiv_pos_site_id
 _symmetry_equiv_pos_as_xyz
  1  'x, y, z'
loop_
 _atom_site_type_symbol
 _atom_site_label
 _atom_site_symmetry_multiplicity
 _atom_site_fract_x
 _atom_site_fract_y
 _atom_site_fract_z
 _atom_site_occupancy
  Tb  Tb0  1  0.760990  0.760990  0.750000  1
  Tb  Tb1  1  0.239089  0.999939  0.750000  1
  Tb  Tb2  1  0.999939  0.239089  0.750000  1
  Tb  Tb3  1  0.238961  0.238961  0.250000  1
  Dy  Dy4  1  0.760917  0.999943  0.250000  1
  Dy  Dy5  1  0.999943  0.760917  0.250000  1
  Er  Er6  1  0.666710  0.333349  0.000011  1
  Er  Er7  1  0.333349  0.666710  0.000011  1
  Er  Er8  1  0.333349  0.666710  0.499989  1
  Er  Er9  1  0.666710  0.333349  0.499989  1
  Pb  Pb10  1  0.394608  0.394608  0.750000  1
  Pb  Pb11  1  0.605363  0.000004  0.750000  1
  Pb  Pb12  1  0.000004  0.605363  0.750000  1
  Pb  Pb13  1  0.605761  0.605761  0.250000  1
  Pb  Pb14  1  0.394490  0.999817  0.250000  1
  Pb  Pb15  1  0.999817  0.394490  0.250000  1
