# generated using pymatgen
data_Pr2Nd6Si12Rh3Au
_symmetry_space_group_name_H-M   'P 1'
_cell_length_a   8.26680400
_cell_length_b   8.26680326
_cell_length_c   8.49297800
_cell_angle_alpha   90.00000000
_cell_angle_beta   90.00000000
_cell_angle_gamma   119.99999494
_symmetry_Int_Tables_number   1
_chemical_formula_structural   Pr2Nd6Si12Rh3Au
_chemical_formula_sum   'Pr2 Nd6 Si12 Rh3 Au1'
_cell_volume   502.65024222
_cell_formula_units_Z   1
loop_
 _symmetry_equiv_pos_site_id
 _symmetry_equiv_pos_as_xyz
  1  'x, y, z'
loop_
 _atom_site_type_symbol
 _atom_site_label
 _atom_site_symmetry_multiplicity
 _atom_site_fract_x
 _atom_site_fract_y
 _atom_site_fract_z
 _atom_site_occupancy
  Pr  Pr0  1  0.000000  0.000000  0.748833  1
  Pr  Pr1  1  0.000000  0.000000  0.251891  1
  Nd  Nd2  1  0.496035  0.503965  0.744964  1
  Nd  Nd3  1  0.496035  0.992071  0.744964  1
  Nd  Nd4  1  0.007929  0.503965  0.744964  1
  Nd  Nd5  1  0.499174  0.500826  0.254941  1
  Nd  Nd6  1  0.001651  0.500826  0.254941  1
  Nd  Nd7  1  0.499174  0.998349  0.254941  1
  Si  Si8  1  0.838658  0.161342  0.001038  1
  Si  Si9  1  0.838658  0.677316  0.001038  1
  Si  Si10  1  0.322684  0.161342  0.001038  1
  Si  Si11  1  0.832475  0.167525  0.499231  1
  Si  Si12  1  0.832475  0.664950  0.499231  1
  Si  Si13  1  0.335050  0.167525  0.499231  1
  Si  Si14  1  0.166478  0.833522  0.500888  1
  Si  Si15  1  0.667045  0.833522  0.500888  1
  Si  Si16  1  0.166478  0.332955  0.500888  1
  Si  Si17  1  0.168731  0.831269  0.999200  1
  Si  Si18  1  0.662538  0.831269  0.999200  1
  Si  Si19  1  0.168731  0.337462  0.999200  1
  Rh  Rh20  1  0.666667  0.333333  0.506239  1
  Rh  Rh21  1  0.333333  0.666667  0.493101  1
  Rh  Rh22  1  0.333333  0.666667  0.005681  1
  Au  Au23  1  0.666667  0.333333  0.993470  1
