# generated using pymatgen
data_Ho8NbGe16Mo11
_symmetry_space_group_name_H-M   'P 1'
_cell_length_a   6.93338559
_cell_length_b   7.06541911
_cell_length_c   13.14966500
_cell_angle_alpha   90.00000000
_cell_angle_beta   90.00000000
_cell_angle_gamma   90.00349244
_symmetry_Int_Tables_number   1
_chemical_formula_structural   Ho8NbGe16Mo11
_chemical_formula_sum   'Ho8 Nb1 Ge16 Mo11'
_cell_volume   644.16625457
_cell_formula_units_Z   1
loop_
 _symmetry_equiv_pos_site_id
 _symmetry_equiv_pos_as_xyz
  1  'x, y, z'
loop_
 _atom_site_type_symbol
 _atom_site_label
 _atom_site_symmetry_multiplicity
 _atom_site_fract_x
 _atom_site_fract_y
 _atom_site_fract_z
 _atom_site_occupancy
  Ho  Ho0  1  0.490904  0.328911  0.092213  1
  Ho  Ho1  1  0.989088  0.170904  0.408046  1
  Ho  Ho2  1  0.511015  0.670523  0.592373  1
  Ho  Ho3  1  0.010920  0.830332  0.908066  1
  Ho  Ho4  1  0.511015  0.670523  0.907627  1
  Ho  Ho5  1  0.010920  0.830332  0.591934  1
  Ho  Ho6  1  0.490904  0.328911  0.407787  1
  Ho  Ho7  1  0.989088  0.170904  0.091954  1
  Nb  Nb8  1  0.836335  0.509382  0.250000  1
  Ge  Ge9  1  0.812578  0.645628  0.750000  1
  Ge  Ge10  1  0.311625  0.855321  0.750000  1
  Ge  Ge11  1  0.193102  0.352761  0.250000  1
  Ge  Ge12  1  0.688588  0.141206  0.250000  1
  Ge  Ge13  1  0.529048  0.368008  0.750000  1
  Ge  Ge14  1  0.030553  0.132319  0.750000  1
  Ge  Ge15  1  0.466087  0.632187  0.250000  1
  Ge  Ge16  1  0.971142  0.872318  0.250000  1
  Ge  Ge17  1  0.670395  0.046890  0.548159  1
  Ge  Ge18  1  0.170080  0.453346  0.951894  1
  Ge  Ge19  1  0.328410  0.953509  0.047748  1
  Ge  Ge20  1  0.828761  0.545652  0.454919  1
  Ge  Ge21  1  0.328410  0.953509  0.452252  1
  Ge  Ge22  1  0.828761  0.545652  0.045081  1
  Ge  Ge23  1  0.670395  0.046890  0.951841  1
  Ge  Ge24  1  0.170080  0.453346  0.548106  1
  Mo  Mo25  1  0.667164  0.005475  0.750000  1
  Mo  Mo26  1  0.166304  0.494892  0.750000  1
  Mo  Mo27  1  0.332729  0.993211  0.250000  1
  Mo  Mo28  1  0.829625  0.344745  0.628536  1
  Mo  Mo29  1  0.330388  0.155544  0.872803  1
  Mo  Mo30  1  0.168918  0.655058  0.126273  1
  Mo  Mo31  1  0.668870  0.843232  0.374096  1
  Mo  Mo32  1  0.168918  0.655058  0.373727  1
  Mo  Mo33  1  0.668870  0.843232  0.125904  1
  Mo  Mo34  1  0.829625  0.344745  0.871464  1
  Mo  Mo35  1  0.330388  0.155544  0.627197  1
