# generated using pymatgen
data_Pr10Bi5PbAuBr
_symmetry_space_group_name_H-M   'P 1'
_cell_length_a   9.74841934
_cell_length_b   9.74293957
_cell_length_c   6.72270823
_cell_angle_alpha   90.01510097
_cell_angle_beta   89.96982092
_cell_angle_gamma   120.01860354
_symmetry_Int_Tables_number   1
_chemical_formula_structural   Pr10Bi5PbAuBr
_chemical_formula_sum   'Pr10 Bi5 Pb1 Au1 Br1'
_cell_volume   552.86309681
_cell_formula_units_Z   1
loop_
 _symmetry_equiv_pos_site_id
 _symmetry_equiv_pos_as_xyz
  1  'x, y, z'
loop_
 _atom_site_type_symbol
 _atom_site_label
 _atom_site_symmetry_multiplicity
 _atom_site_fract_x
 _atom_site_fract_y
 _atom_site_fract_z
 _atom_site_occupancy
  Pr  Pr0  1  0.268057  0.000000  0.745883  1
  Pr  Pr1  1  0.732716  0.000000  0.253219  1
  Pr  Pr2  1  0.998777  0.267280  0.746598  1
  Pr  Pr3  1  0.000286  0.732542  0.253689  1
  Pr  Pr4  1  0.731497  0.732720  0.746598  1
  Pr  Pr5  1  0.267744  0.267458  0.253689  1
  Pr  Pr6  1  0.333668  0.666702  0.500111  1
  Pr  Pr7  1  0.666967  0.333298  0.500111  1
  Pr  Pr8  1  0.666488  0.332392  0.999522  1
  Pr  Pr9  1  0.334095  0.667608  0.999522  1
  Bi  Bi10  1  0.384429  0.000000  0.251756  1
  Bi  Bi11  1  0.999762  0.616490  0.748470  1
  Bi  Bi12  1  0.999736  0.383589  0.251341  1
  Bi  Bi13  1  0.383272  0.383510  0.748470  1
  Bi  Bi14  1  0.616147  0.616411  0.251341  1
  Pb  Pb15  1  0.616559  0.000000  0.748360  1
  Au  Au16  1  0.999096  0.000000  0.501091  1
  Br  Br17  1  0.000705  0.000000  0.000229  1
