# generated using pymatgen
data_K8Nb4V3As(PO5)8
_symmetry_space_group_name_H-M   'P 1'
_cell_length_a   6.55366600
_cell_length_b   10.94595500
_cell_length_c   13.15462500
_cell_angle_alpha   90.00000000
_cell_angle_beta   90.00000000
_cell_angle_gamma   90.00000000
_symmetry_Int_Tables_number   1
_chemical_formula_structural   K8Nb4V3As(PO5)8
_chemical_formula_sum   'K8 Nb4 V3 As1 P8 O40'
_cell_volume   943.66193016
_cell_formula_units_Z   1
loop_
 _symmetry_equiv_pos_site_id
 _symmetry_equiv_pos_as_xyz
  1  'x, y, z'
loop_
 _atom_site_type_symbol
 _atom_site_label
 _atom_site_symmetry_multiplicity
 _atom_site_fract_x
 _atom_site_fract_y
 _atom_site_fract_z
 _atom_site_occupancy
  K  K0  1  0.722440  0.302298  0.876544  1
  K  K1  1  0.277382  0.802448  0.126164  1
  K  K2  1  0.223319  0.803318  0.625078  1
  K  K3  1  0.777715  0.303101  0.374370  1
  K  K4  1  0.806686  0.064797  0.601977  1
  K  K5  1  0.191210  0.567036  0.395876  1
  K  K6  1  0.310426  0.565307  0.895819  1
  K  K7  1  0.691462  0.066699  0.104526  1
  Nb  Nb8  1  0.008091  0.000783  0.871249  1
  Nb  Nb9  1  0.994354  0.502781  0.131125  1
  Nb  Nb10  1  0.503812  0.503680  0.630911  1
  Nb  Nb11  1  0.494513  0.002171  0.368896  1
  V  V12  1  0.751959  0.751206  0.253993  1
  V  V13  1  0.748466  0.750684  0.753244  1
  V  V14  1  0.251522  0.251390  0.246832  1
  As  As15  1  0.239929  0.247667  0.744408  1
  P  P16  1  0.997063  0.506563  0.682085  1
  P  P17  1  0.998603  0.004166  0.316479  1
  P  P18  1  0.506417  0.001519  0.816898  1
  P  P19  1  0.498633  0.504630  0.183551  1
  P  P20  1  0.165307  0.254908  0.001064  1
  P  P21  1  0.835208  0.754332  0.001658  1
  P  P22  1  0.664574  0.755892  0.501325  1
  P  P23  1  0.334245  0.254786  0.496116  1
  O  O24  1  0.479917  0.384763  0.728284  1
  O  O25  1  0.539374  0.879985  0.274335  1
  O  O26  1  0.963367  0.880263  0.776078  1
  O  O27  1  0.038814  0.381125  0.225737  1
  O  O28  1  0.029778  0.372519  0.011230  1
  O  O29  1  0.968739  0.873716  0.989861  1
  O  O30  1  0.531801  0.874903  0.490292  1
  O  O31  1  0.465153  0.372993  0.510822  1
  O  O32  1  0.297422  0.232056  0.096359  1
  O  O33  1  0.699827  0.732771  0.907630  1
  O  O34  1  0.801262  0.734573  0.407227  1
  O  O35  1  0.186269  0.230572  0.586145  1
  O  O36  1  0.023972  0.393843  0.751505  1
  O  O37  1  0.963821  0.890765  0.249292  1
  O  O38  1  0.536151  0.886282  0.751754  1
  O  O39  1  0.464303  0.391147  0.250494  1
  O  O40  1  0.530070  0.630757  0.724788  1
  O  O41  1  0.467653  0.127040  0.273860  1
  O  O42  1  0.022226  0.128846  0.772579  1
  O  O43  1  0.967268  0.627901  0.226409  1
  O  O44  1  0.969517  0.619895  0.750618  1
  O  O45  1  0.030692  0.116819  0.247885  1
  O  O46  1  0.480600  0.111802  0.745094  1
  O  O47  1  0.531017  0.617260  0.252289  1
  O  O48  1  0.813089  0.486744  0.608499  1
  O  O49  1  0.186739  0.981642  0.387760  1
  O  O50  1  0.314194  0.983970  0.886608  1
  O  O51  1  0.686626  0.482495  0.112088  1
  O  O52  1  0.309769  0.272809  0.909219  1
  O  O53  1  0.700271  0.771887  0.097242  1
  O  O54  1  0.800760  0.773108  0.596820  1
  O  O55  1  0.201422  0.272633  0.399784  1
  O  O56  1  0.187830  0.528258  0.612931  1
  O  O57  1  0.812220  0.029819  0.387805  1
  O  O58  1  0.689504  0.026663  0.890033  1
  O  O59  1  0.312056  0.530328  0.112214  1
  O  O60  1  0.014771  0.145645  0.984602  1
  O  O61  1  0.989168  0.646573  0.015113  1
  O  O62  1  0.511791  0.647713  0.514004  1
  O  O63  1  0.487440  0.146560  0.484523  1
