# generated using pymatgen
data_Pr5P12Ru9Rh10
_symmetry_space_group_name_H-M   'P 1'
_cell_length_a   12.75403400
_cell_length_b   12.75403448
_cell_length_c   3.99820200
_cell_angle_alpha   90.00000000
_cell_angle_beta   90.00000000
_cell_angle_gamma   119.99999875
_symmetry_Int_Tables_number   1
_chemical_formula_structural   Pr5P12Ru9Rh10
_chemical_formula_sum   'Pr5 P12 Ru9 Rh10'
_cell_volume   563.23615675
_cell_formula_units_Z   1
loop_
 _symmetry_equiv_pos_site_id
 _symmetry_equiv_pos_as_xyz
  1  'x, y, z'
loop_
 _atom_site_type_symbol
 _atom_site_label
 _atom_site_symmetry_multiplicity
 _atom_site_fract_x
 _atom_site_fract_y
 _atom_site_fract_z
 _atom_site_occupancy
  Pr  Pr0  1  0.813546  0.000000  0.500000  1
  Pr  Pr1  1  0.000000  0.813546  0.500000  1
  Pr  Pr2  1  0.186454  0.186454  0.500000  1
  Pr  Pr3  1  0.333333  0.666667  0.000000  1
  Pr  Pr4  1  0.666667  0.333333  0.000000  1
  P  P5  1  0.185037  0.000000  0.000000  1
  P  P6  1  0.000000  0.185037  0.000000  1
  P  P7  1  0.814963  0.814963  0.000000  1
  P  P8  1  0.519298  0.690774  0.500000  1
  P  P9  1  0.309226  0.828524  0.500000  1
  P  P10  1  0.171476  0.480702  0.500000  1
  P  P11  1  0.480702  0.171476  0.500000  1
  P  P12  1  0.690774  0.519298  0.500000  1
  P  P13  1  0.828524  0.309226  0.500000  1
  P  P14  1  0.626710  0.000000  0.000000  1
  P  P15  1  0.000000  0.626710  0.000000  1
  P  P16  1  0.373290  0.373290  0.000000  1
  Ru  Ru17  1  0.287143  0.000000  0.500000  1
  Ru  Ru18  1  0.000000  0.287143  0.500000  1
  Ru  Ru19  1  0.712857  0.712857  0.500000  1
  Ru  Ru20  1  0.511891  0.875240  0.500000  1
  Ru  Ru21  1  0.124760  0.636651  0.500000  1
  Ru  Ru22  1  0.363349  0.488109  0.500000  1
  Ru  Ru23  1  0.488109  0.363349  0.500000  1
  Ru  Ru24  1  0.875240  0.511891  0.500000  1
  Ru  Ru25  1  0.636651  0.124760  0.500000  1
  Rh  Rh26  1  0.448234  0.000000  0.000000  1
  Rh  Rh27  1  0.000000  0.448234  0.000000  1
  Rh  Rh28  1  0.551766  0.551766  0.000000  1
  Rh  Rh29  1  0.622905  0.805287  0.000000  1
  Rh  Rh30  1  0.194713  0.817618  0.000000  1
  Rh  Rh31  1  0.182382  0.377095  0.000000  1
  Rh  Rh32  1  0.377095  0.182382  0.000000  1
  Rh  Rh33  1  0.805287  0.622905  0.000000  1
  Rh  Rh34  1  0.817618  0.194713  0.000000  1
  Rh  Rh35  1  0.000000  0.000000  0.000000  1
