# generated using pymatgen
data_Y3Tm5(CdIr)2
_symmetry_space_group_name_H-M   'P 1'
_cell_length_a   9.57351731
_cell_length_b   9.57351753
_cell_length_c   9.57351700
_cell_angle_alpha   59.99999839
_cell_angle_beta   59.99999763
_cell_angle_gamma   59.99999519
_symmetry_Int_Tables_number   1
_chemical_formula_structural   Y3Tm5(CdIr)2
_chemical_formula_sum   'Y6 Tm10 Cd4 Ir4'
_cell_volume   620.43965857
_cell_formula_units_Z   2
loop_
 _symmetry_equiv_pos_site_id
 _symmetry_equiv_pos_as_xyz
  1  'x, y, z'
loop_
 _atom_site_type_symbol
 _atom_site_label
 _atom_site_symmetry_multiplicity
 _atom_site_fract_x
 _atom_site_fract_y
 _atom_site_fract_z
 _atom_site_occupancy
  Y  Y0  1  0.939204  0.560796  0.560796  1
  Y  Y1  1  0.560796  0.939204  0.939204  1
  Y  Y2  1  0.560796  0.939204  0.560796  1
  Y  Y3  1  0.939204  0.560796  0.939204  1
  Y  Y4  1  0.560796  0.560796  0.939204  1
  Y  Y5  1  0.939204  0.939204  0.560796  1
  Tm  Tm6  1  0.348597  0.348597  0.348597  1
  Tm  Tm7  1  0.348597  0.348597  0.954210  1
  Tm  Tm8  1  0.348597  0.954210  0.348597  1
  Tm  Tm9  1  0.954210  0.348597  0.348597  1
  Tm  Tm10  1  0.811237  0.188763  0.188763  1
  Tm  Tm11  1  0.188763  0.811237  0.811237  1
  Tm  Tm12  1  0.188763  0.811237  0.188763  1
  Tm  Tm13  1  0.811237  0.188763  0.811237  1
  Tm  Tm14  1  0.188763  0.188763  0.811237  1
  Tm  Tm15  1  0.811237  0.811237  0.188763  1
  Cd  Cd16  1  0.580595  0.580595  0.580595  1
  Cd  Cd17  1  0.580595  0.580595  0.258217  1
  Cd  Cd18  1  0.580595  0.258217  0.580595  1
  Cd  Cd19  1  0.258217  0.580595  0.580595  1
  Ir  Ir20  1  0.141767  0.141767  0.141767  1
  Ir  Ir21  1  0.141767  0.141767  0.574700  1
  Ir  Ir22  1  0.141767  0.574700  0.141767  1
  Ir  Ir23  1  0.574700  0.141767  0.141767  1
