# generated using pymatgen
data_DyHo7Ti12Si15As
_symmetry_space_group_name_H-M   'P 1'
_cell_length_a   7.05256380
_cell_length_b   7.04556471
_cell_length_c   12.95572604
_cell_angle_alpha   89.98081776
_cell_angle_beta   89.82672884
_cell_angle_gamma   89.92624836
_symmetry_Int_Tables_number   1
_chemical_formula_structural   DyHo7Ti12Si15As
_chemical_formula_sum   'Dy1 Ho7 Ti12 Si15 As1'
_cell_volume   643.75737528
_cell_formula_units_Z   1
loop_
 _symmetry_equiv_pos_site_id
 _symmetry_equiv_pos_as_xyz
  1  'x, y, z'
loop_
 _atom_site_type_symbol
 _atom_site_label
 _atom_site_symmetry_multiplicity
 _atom_site_fract_x
 _atom_site_fract_y
 _atom_site_fract_z
 _atom_site_occupancy
  Dy  Dy0  1  0.341680  0.002169  0.466090  1
  Ho  Ho1  1  0.497182  0.842095  0.717362  1
  Ho  Ho2  1  0.502456  0.158856  0.216434  1
  Ho  Ho3  1  0.840826  0.497133  0.283212  1
  Ho  Ho4  1  0.158701  0.501946  0.783415  1
  Ho  Ho5  1  0.660034  0.995399  0.967378  1
  Ho  Ho6  1  0.000115  0.343409  0.532046  1
  Ho  Ho7  1  0.997839  0.659110  0.033500  1
  Ti  Ti8  1  0.325848  0.326481  0.999690  1
  Ti  Ti9  1  0.173169  0.826973  0.250000  1
  Ti  Ti10  1  0.823773  0.173571  0.750243  1
  Ti  Ti11  1  0.673308  0.673005  0.500060  1
  Ti  Ti12  1  0.153577  0.008772  0.875570  1
  Ti  Ti13  1  0.492030  0.651580  0.125793  1
  Ti  Ti14  1  0.508958  0.348097  0.626898  1
  Ti  Ti15  1  0.653765  0.494299  0.874628  1
  Ti  Ti16  1  0.347749  0.507556  0.373964  1
  Ti  Ti17  1  0.847722  0.992426  0.375721  1
  Ti  Ti18  1  0.007773  0.151585  0.124139  1
  Ti  Ti19  1  0.990090  0.844410  0.623343  1
  Si  Si20  1  0.368401  0.703151  0.933714  1
  Si  Si21  1  0.630367  0.297805  0.434376  1
  Si  Si22  1  0.702859  0.369248  0.066135  1
  Si  Si23  1  0.297413  0.630813  0.566169  1
  Si  Si24  1  0.797138  0.869252  0.184365  1
  Si  Si25  1  0.130927  0.202785  0.316024  1
  Si  Si26  1  0.869798  0.797650  0.815622  1
  Si  Si27  1  0.290878  0.952770  0.064586  1
  Si  Si28  1  0.547339  0.790529  0.314531  1
  Si  Si29  1  0.460738  0.210978  0.819188  1
  Si  Si30  1  0.790910  0.547060  0.685179  1
  Si  Si31  1  0.208918  0.452686  0.185380  1
  Si  Si32  1  0.709001  0.046410  0.564362  1
  Si  Si33  1  0.953388  0.290773  0.935474  1
  Si  Si34  1  0.047033  0.709523  0.434978  1
  As  As35  1  0.198301  0.129696  0.680434  1
