# generated using pymatgen
data_Rb2V3PbF12
_symmetry_space_group_name_H-M   'P 1'
_cell_length_a   7.64809300
_cell_length_b   7.59993018
_cell_length_c   10.59591600
_cell_angle_alpha   89.91591764
_cell_angle_beta   90.00000000
_cell_angle_gamma   90.00000000
_symmetry_Int_Tables_number   1
_chemical_formula_structural   Rb2V3PbF12
_chemical_formula_sum   'Rb4 V6 Pb2 F24'
_cell_volume   615.88666650
_cell_formula_units_Z   2
loop_
 _symmetry_equiv_pos_site_id
 _symmetry_equiv_pos_as_xyz
  1  'x, y, z'
loop_
 _atom_site_type_symbol
 _atom_site_label
 _atom_site_symmetry_multiplicity
 _atom_site_fract_x
 _atom_site_fract_y
 _atom_site_fract_z
 _atom_site_occupancy
  Rb  Rb0  1  0.750000  0.974055  0.111178  1
  Rb  Rb1  1  0.250000  0.025945  0.888822  1
  Rb  Rb2  1  0.250000  0.485110  0.649742  1
  Rb  Rb3  1  0.750000  0.514890  0.350258  1
  V  V4  1  0.500000  0.000000  0.500000  1
  V  V5  1  0.000000  0.000000  0.500000  1
  V  V6  1  0.000000  0.500000  0.000000  1
  V  V7  1  0.500000  0.500000  0.000000  1
  V  V8  1  0.750000  0.693729  0.717059  1
  V  V9  1  0.250000  0.306271  0.282941  1
  Pb  Pb10  1  0.750000  0.218515  0.760332  1
  Pb  Pb11  1  0.250000  0.781485  0.239668  1
  F  F12  1  0.750000  0.083763  0.502912  1
  F  F13  1  0.250000  0.916237  0.497088  1
  F  F14  1  0.750000  0.484165  0.611324  1
  F  F15  1  0.250000  0.515835  0.388676  1
  F  F16  1  0.250000  0.469328  0.939468  1
  F  F17  1  0.750000  0.530672  0.060532  1
  F  F18  1  0.250000  0.096003  0.176408  1
  F  F19  1  0.750000  0.903997  0.823592  1
  F  F20  1  0.962709  0.854850  0.340609  1
  F  F21  1  0.462709  0.145150  0.659391  1
  F  F22  1  0.037291  0.145150  0.659391  1
  F  F23  1  0.537291  0.854850  0.340609  1
  F  F24  1  0.942236  0.786992  0.611223  1
  F  F25  1  0.442236  0.213008  0.388777  1
  F  F26  1  0.057764  0.213008  0.388777  1
  F  F27  1  0.557764  0.786992  0.611223  1
  F  F28  1  0.050751  0.752343  0.051710  1
  F  F29  1  0.550751  0.247657  0.948290  1
  F  F30  1  0.949249  0.247657  0.948290  1
  F  F31  1  0.449249  0.752343  0.051710  1
  F  F32  1  0.437091  0.425073  0.181428  1
  F  F33  1  0.937091  0.574927  0.818572  1
  F  F34  1  0.562909  0.574927  0.818572  1
  F  F35  1  0.062909  0.425073  0.181428  1
