# generated using pymatgen
data_Tb3YbGa18Ir4PdPt
_symmetry_space_group_name_H-M   'P 1'
_cell_length_a   7.63158200
_cell_length_b   7.62524626
_cell_length_c   9.52366800
_cell_angle_alpha   90.00000000
_cell_angle_beta   90.00000000
_cell_angle_gamma   119.77719625
_symmetry_Int_Tables_number   1
_chemical_formula_structural   Tb3YbGa18Ir4PdPt
_chemical_formula_sum   'Tb3 Yb1 Ga18 Ir4 Pd1 Pt1'
_cell_volume   481.03203415
_cell_formula_units_Z   1
loop_
 _symmetry_equiv_pos_site_id
 _symmetry_equiv_pos_as_xyz
  1  'x, y, z'
loop_
 _atom_site_type_symbol
 _atom_site_label
 _atom_site_symmetry_multiplicity
 _atom_site_fract_x
 _atom_site_fract_y
 _atom_site_fract_z
 _atom_site_occupancy
  Tb  Tb0  1  0.003090  0.331118  0.750124  1
  Tb  Tb1  1  0.669127  0.996835  0.249892  1
  Tb  Tb2  1  0.329655  0.002162  0.750072  1
  Yb  Yb3  1  0.997030  0.669417  0.249823  1
  Ga  Ga4  1  0.129314  0.128623  0.250603  1
  Ga  Ga5  1  0.870705  0.870425  0.749351  1
  Ga  Ga6  1  0.999269  0.339772  0.081686  1
  Ga  Ga7  1  0.000538  0.662297  0.920822  1
  Ga  Ga8  1  0.000385  0.662606  0.579386  1
  Ga  Ga9  1  0.335606  0.997931  0.418230  1
  Ga  Ga10  1  0.999405  0.339537  0.418163  1
  Ga  Ga11  1  0.662721  0.000495  0.581296  1
  Ga  Ga12  1  0.662406  0.000719  0.918864  1
  Ga  Ga13  1  0.335868  0.997639  0.081652  1
  Ga  Ga14  1  0.335662  0.335520  0.566721  1
  Ga  Ga15  1  0.665657  0.663881  0.432903  1
  Ga  Ga16  1  0.665575  0.663673  0.066940  1
  Ga  Ga17  1  0.335888  0.335806  0.933448  1
  Ga  Ga18  1  0.336977  0.547250  0.250013  1
  Ga  Ga19  1  0.663453  0.453890  0.749974  1
  Ga  Ga20  1  0.548039  0.338191  0.250007  1
  Ga  Ga21  1  0.453875  0.663024  0.749991  1
  Ir  Ir22  1  0.670290  0.327364  0.999331  1
  Ir  Ir23  1  0.329610  0.671518  0.999185  1
  Ir  Ir24  1  0.329415  0.671491  0.500780  1
  Ir  Ir25  1  0.670475  0.327313  0.500708  1
  Pd  Pd26  1  0.999989  0.000720  0.500385  1
  Pt  Pt27  1  0.999975  0.000782  0.999649  1
