# generated using pymatgen
data_EuMg2PaNi8
_symmetry_space_group_name_H-M   'P 1'
_cell_length_a   4.94862700
_cell_length_b   4.94862527
_cell_length_c   8.59437900
_cell_angle_alpha   73.26777717
_cell_angle_beta   90.00000000
_cell_angle_gamma   120.00000491
_symmetry_Int_Tables_number   1
_chemical_formula_structural   EuMg2PaNi8
_chemical_formula_sum   'Eu1 Mg2 Pa1 Ni8'
_cell_volume   171.90314385
_cell_formula_units_Z   1
loop_
 _symmetry_equiv_pos_site_id
 _symmetry_equiv_pos_as_xyz
  1  'x, y, z'
loop_
 _atom_site_type_symbol
 _atom_site_label
 _atom_site_symmetry_multiplicity
 _atom_site_fract_x
 _atom_site_fract_y
 _atom_site_fract_z
 _atom_site_occupancy
  Eu  Eu0  1  0.000914  0.001830  0.997255  1
  Mg  Mg1  1  0.877750  0.755502  0.366748  1
  Mg  Mg2  1  0.372958  0.745916  0.881126  1
  Pa  Pa3  1  0.499899  0.999797  0.500304  1
  Ni  Ni4  1  0.435060  0.368551  0.196390  1
  Ni  Ni5  1  0.936148  0.382889  0.680964  1
  Ni  Ni6  1  0.435060  0.870119  0.196390  1
  Ni  Ni7  1  0.936148  0.872294  0.680964  1
  Ni  Ni8  1  0.187867  0.375733  0.436401  1
  Ni  Ni9  1  0.687965  0.375929  0.936106  1
  Ni  Ni10  1  0.933491  0.368551  0.196390  1
  Ni  Ni11  1  0.446742  0.382889  0.680964  1
