# generated using pymatgen
data_Nd10In3GaRu6
_symmetry_space_group_name_H-M   'P 1'
_cell_length_a   8.67684701
_cell_length_b   8.71633152
_cell_length_c   8.67870361
_cell_angle_alpha   109.58964526
_cell_angle_beta   109.43528944
_cell_angle_gamma   109.57654071
_symmetry_Int_Tables_number   1
_chemical_formula_structural   Nd10In3GaRu6
_chemical_formula_sum   'Nd10 In3 Ga1 Ru6'
_cell_volume   504.10056410
_cell_formula_units_Z   1
loop_
 _symmetry_equiv_pos_site_id
 _symmetry_equiv_pos_as_xyz
  1  'x, y, z'
loop_
 _atom_site_type_symbol
 _atom_site_label
 _atom_site_symmetry_multiplicity
 _atom_site_fract_x
 _atom_site_fract_y
 _atom_site_fract_z
 _atom_site_occupancy
  Nd  Nd0  1  0.472343  0.155189  0.217883  1
  Nd  Nd1  1  0.158373  0.225484  0.481868  1
  Nd  Nd2  1  0.229243  0.474770  0.155049  1
  Nd  Nd3  1  0.407752  0.690488  0.906554  1
  Nd  Nd4  1  0.700132  0.908229  0.409941  1
  Nd  Nd5  1  0.904410  0.407239  0.698224  1
  Nd  Nd6  1  0.654078  0.091449  0.843140  1
  Nd  Nd7  1  0.096472  0.844547  0.660150  1
  Nd  Nd8  1  0.833711  0.651873  0.085814  1
  Nd  Nd9  1  0.616032  0.615452  0.613799  1
  In  In10  1  0.314294  0.908567  0.405580  1
  In  In11  1  0.910078  0.408302  0.315714  1
  In  In12  1  0.998973  0.000235  0.000502  1
  Ga  Ga13  1  0.407084  0.318801  0.908609  1
  Ru  Ru14  1  0.041088  0.165853  0.780321  1
  Ru  Ru15  1  0.156292  0.773465  0.020309  1
  Ru  Ru16  1  0.773351  0.024018  0.159682  1
  Ru  Ru17  1  0.646775  0.530656  0.274345  1
  Ru  Ru18  1  0.534480  0.294282  0.670966  1
  Ru  Ru19  1  0.295038  0.661099  0.541550  1
