# generated using pymatgen
data_Cu2GePd5
_symmetry_space_group_name_H-M   'P 1'
_cell_length_a   4.13043600
_cell_length_b   5.38714900
_cell_length_c   10.41420300
_cell_angle_alpha   90.00000000
_cell_angle_beta   90.00000000
_cell_angle_gamma   90.00000000
_symmetry_Int_Tables_number   1
_chemical_formula_structural   Cu2GePd5
_chemical_formula_sum   'Cu4 Ge2 Pd10'
_cell_volume   231.72928618
_cell_formula_units_Z   2
loop_
 _symmetry_equiv_pos_site_id
 _symmetry_equiv_pos_as_xyz
  1  'x, y, z'
loop_
 _atom_site_type_symbol
 _atom_site_label
 _atom_site_symmetry_multiplicity
 _atom_site_fract_x
 _atom_site_fract_y
 _atom_site_fract_z
 _atom_site_occupancy
  Cu  Cu0  1  0.500000  0.163582  0.140052  1
  Cu  Cu1  1  0.500000  0.836418  0.859948  1
  Cu  Cu2  1  0.500000  0.336418  0.640052  1
  Cu  Cu3  1  0.500000  0.663582  0.359948  1
  Ge  Ge4  1  0.000000  0.000000  0.500000  1
  Ge  Ge5  1  0.000000  0.500000  0.000000  1
  Pd  Pd6  1  0.500000  0.179281  0.392967  1
  Pd  Pd7  1  0.500000  0.820719  0.607033  1
  Pd  Pd8  1  0.500000  0.320719  0.892967  1
  Pd  Pd9  1  0.500000  0.679281  0.107033  1
  Pd  Pd10  1  0.000000  0.406330  0.235038  1
  Pd  Pd11  1  0.000000  0.593670  0.764962  1
  Pd  Pd12  1  0.000000  0.093670  0.735038  1
  Pd  Pd13  1  0.000000  0.906330  0.264962  1
  Pd  Pd14  1  0.000000  0.000000  0.000000  1
  Pd  Pd15  1  0.000000  0.500000  0.500000  1
