# generated using pymatgen
data_Sm3TiZn2Ir3
_symmetry_space_group_name_H-M   'P 1'
_cell_length_a   6.95996000
_cell_length_b   7.12589236
_cell_length_c   4.09114100
_cell_angle_alpha   90.00000000
_cell_angle_beta   90.00000000
_cell_angle_gamma   119.23264520
_symmetry_Int_Tables_number   1
_chemical_formula_structural   Sm3TiZn2Ir3
_chemical_formula_sum   'Sm3 Ti1 Zn2 Ir3'
_cell_volume   177.06288705
_cell_formula_units_Z   1
loop_
 _symmetry_equiv_pos_site_id
 _symmetry_equiv_pos_as_xyz
  1  'x, y, z'
loop_
 _atom_site_type_symbol
 _atom_site_label
 _atom_site_symmetry_multiplicity
 _atom_site_fract_x
 _atom_site_fract_y
 _atom_site_fract_z
 _atom_site_occupancy
  Sm  Sm0  1  0.394017  0.000000  0.499999  1
  Sm  Sm1  1  0.013081  0.429663  0.499999  1
  Sm  Sm2  1  0.583419  0.570337  0.499999  1
  Ti  Ti3  1  0.764490  0.000000  0.000000  1
  Zn  Zn4  1  0.238561  0.242984  0.000000  1
  Zn  Zn5  1  0.995576  0.757015  0.000000  1
  Ir  Ir6  1  0.676289  0.315577  0.000000  1
  Ir  Ir7  1  0.360712  0.684422  0.000000  1
  Ir  Ir8  1  0.973855  0.000000  0.499999  1
