# generated using pymatgen
data_Ti5Sn2GeSb
_symmetry_space_group_name_H-M   'P 1'
_cell_length_a   8.27508700
_cell_length_b   8.25140538
_cell_length_c   5.56693200
_cell_angle_alpha   90.00000000
_cell_angle_beta   90.00000000
_cell_angle_gamma   120.09498869
_symmetry_Int_Tables_number   1
_chemical_formula_structural   Ti5Sn2GeSb
_chemical_formula_sum   'Ti10 Sn4 Ge2 Sb2'
_cell_volume   328.87476519
_cell_formula_units_Z   2
loop_
 _symmetry_equiv_pos_site_id
 _symmetry_equiv_pos_as_xyz
  1  'x, y, z'
loop_
 _atom_site_type_symbol
 _atom_site_label
 _atom_site_symmetry_multiplicity
 _atom_site_fract_x
 _atom_site_fract_y
 _atom_site_fract_z
 _atom_site_occupancy
  Ti  Ti0  1  0.266680  0.000000  0.750000  1
  Ti  Ti1  1  0.733320  0.000000  0.250000  1
  Ti  Ti2  1  0.999376  0.263070  0.750000  1
  Ti  Ti3  1  0.000624  0.736930  0.250000  1
  Ti  Ti4  1  0.736307  0.736930  0.750000  1
  Ti  Ti5  1  0.263693  0.263070  0.250000  1
  Ti  Ti6  1  0.334809  0.669620  0.500000  1
  Ti  Ti7  1  0.665191  0.330380  0.500000  1
  Ti  Ti8  1  0.665191  0.330380  0.000000  1
  Ti  Ti9  1  0.334809  0.669620  0.000000  1
  Sn  Sn10  1  0.999055  0.606365  0.750000  1
  Sn  Sn11  1  0.000945  0.393635  0.250000  1
  Sn  Sn12  1  0.392690  0.393635  0.750000  1
  Sn  Sn13  1  0.607310  0.606365  0.250000  1
  Ge  Ge14  1  0.000000  0.000000  0.500000  1
  Ge  Ge15  1  0.000000  0.000000  0.000000  1
  Sb  Sb16  1  0.608248  0.000000  0.750000  1
  Sb  Sb17  1  0.391752  0.000000  0.250000  1
