# generated using pymatgen
data_HoLu3(CrB4)4
_symmetry_space_group_name_H-M   'P 1'
_cell_length_a   3.40344300
_cell_length_b   5.88405000
_cell_length_c   11.36065206
_cell_angle_alpha   89.94796100
_cell_angle_beta   90.00000000
_cell_angle_gamma   90.00000000
_symmetry_Int_Tables_number   1
_chemical_formula_structural   HoLu3(CrB4)4
_chemical_formula_sum   'Ho1 Lu3 Cr4 B16'
_cell_volume   227.50865143
_cell_formula_units_Z   1
loop_
 _symmetry_equiv_pos_site_id
 _symmetry_equiv_pos_as_xyz
  1  'x, y, z'
loop_
 _atom_site_type_symbol
 _atom_site_label
 _atom_site_symmetry_multiplicity
 _atom_site_fract_x
 _atom_site_fract_y
 _atom_site_fract_z
 _atom_site_occupancy
  Ho  Ho0  1  0.000000  0.625622  0.349336  1
  Lu  Lu1  1  0.000000  0.374708  0.650802  1
  Lu  Lu2  1  0.000000  0.125352  0.149956  1
  Lu  Lu3  1  0.000000  0.874490  0.849518  1
  Cr  Cr4  1  0.000000  0.623214  0.079046  1
  Cr  Cr5  1  0.000000  0.376299  0.919569  1
  Cr  Cr6  1  0.000000  0.123661  0.420631  1
  Cr  Cr7  1  0.000000  0.876989  0.580892  1
  B  B8  1  0.500000  0.783025  0.183483  1
  B  B9  1  0.500000  0.217133  0.815284  1
  B  B10  1  0.500000  0.281409  0.315224  1
  B  B11  1  0.500000  0.717288  0.685230  1
  B  B12  1  0.500000  0.864402  0.031659  1
  B  B13  1  0.500000  0.135408  0.967130  1
  B  B14  1  0.500000  0.364087  0.468545  1
  B  B15  1  0.500000  0.636179  0.533550  1
  B  B16  1  0.500000  0.887540  0.453639  1
  B  B17  1  0.500000  0.114685  0.548336  1
  B  B18  1  0.500000  0.385302  0.046784  1
  B  B19  1  0.500000  0.613863  0.952077  1
  B  B20  1  0.500000  0.976602  0.307318  1
  B  B21  1  0.500000  0.024147  0.693398  1
  B  B22  1  0.500000  0.474664  0.191536  1
  B  B23  1  0.500000  0.523929  0.807057  1
