# generated using pymatgen
data_Yb2Pr4Sm4InSi4Ge
_symmetry_space_group_name_H-M   'P 1'
_cell_length_a   7.79221800
_cell_length_b   9.05502032
_cell_length_c   7.79221800
_cell_angle_alpha   115.48474114
_cell_angle_beta   90.00000000
_cell_angle_gamma   115.48473413
_symmetry_Int_Tables_number   1
_chemical_formula_structural   Yb2Pr4Sm4InSi4Ge
_chemical_formula_sum   'Yb2 Pr4 Sm4 In1 Si4 Ge1'
_cell_volume   436.30511343
_cell_formula_units_Z   1
loop_
 _symmetry_equiv_pos_site_id
 _symmetry_equiv_pos_as_xyz
  1  'x, y, z'
loop_
 _atom_site_type_symbol
 _atom_site_label
 _atom_site_symmetry_multiplicity
 _atom_site_fract_x
 _atom_site_fract_y
 _atom_site_fract_z
 _atom_site_occupancy
  Yb  Yb0  1  0.985902  0.971802  0.985902  1
  Yb  Yb1  1  0.510412  0.020825  0.510412  1
  Pr  Pr2  1  0.457810  0.283947  0.310660  1
  Pr  Pr3  1  0.826137  0.283947  0.973285  1
  Pr  Pr4  1  0.310660  0.283947  0.826137  1
  Pr  Pr5  1  0.973285  0.283947  0.457810  1
  Sm  Sm6  1  0.528848  0.719213  0.674580  1
  Sm  Sm7  1  0.190367  0.719213  0.044633  1
  Sm  Sm8  1  0.674580  0.719213  0.190367  1
  Sm  Sm9  1  0.044633  0.719213  0.528848  1
  In  In10  1  0.752211  0.504422  0.752211  1
  Si  Si11  1  0.883086  0.994714  0.611488  1
  Si  Si12  1  0.111628  0.994714  0.383226  1
  Si  Si13  1  0.611488  0.994714  0.111628  1
  Si  Si14  1  0.383226  0.994714  0.883086  1
  Ge  Ge15  1  0.255726  0.511453  0.255726  1
