# generated using pymatgen
data_Li4Tb3ThSi8
_symmetry_space_group_name_H-M   'P 1'
_cell_length_a   3.80563000
_cell_length_b   7.66731835
_cell_length_c   10.32187156
_cell_angle_alpha   89.88991079
_cell_angle_beta   90.00000000
_cell_angle_gamma   90.00000000
_symmetry_Int_Tables_number   1
_chemical_formula_structural   Li4Tb3ThSi8
_chemical_formula_sum   'Li4 Tb3 Th1 Si8'
_cell_volume   301.18109439
_cell_formula_units_Z   1
loop_
 _symmetry_equiv_pos_site_id
 _symmetry_equiv_pos_as_xyz
  1  'x, y, z'
loop_
 _atom_site_type_symbol
 _atom_site_label
 _atom_site_symmetry_multiplicity
 _atom_site_fract_x
 _atom_site_fract_y
 _atom_site_fract_z
 _atom_site_occupancy
  Li  Li0  1  0.250000  0.988310  0.392464  1
  Li  Li1  1  0.250000  0.491566  0.105285  1
  Li  Li2  1  0.750000  0.009297  0.608933  1
  Li  Li3  1  0.750000  0.509316  0.891954  1
  Tb  Tb4  1  0.250000  0.139092  0.863129  1
  Tb  Tb5  1  0.250000  0.637990  0.636429  1
  Tb  Tb6  1  0.750000  0.863025  0.135870  1
  Th  Th7  1  0.750000  0.357168  0.362592  1
  Si  Si8  1  0.250000  0.233194  0.571346  1
  Si  Si9  1  0.250000  0.732799  0.931826  1
  Si  Si10  1  0.750000  0.770674  0.432377  1
  Si  Si11  1  0.750000  0.264986  0.065996  1
  Si  Si12  1  0.250000  0.660673  0.318541  1
  Si  Si13  1  0.250000  0.155063  0.178420  1
  Si  Si14  1  0.750000  0.342279  0.683836  1
  Si  Si15  1  0.750000  0.844568  0.821001  1
