# generated using pymatgen
data_Dy5SiBi2
_symmetry_space_group_name_H-M   'P 1'
_cell_length_a   8.03467200
_cell_length_b   9.16245700
_cell_length_c   12.17300800
_cell_angle_alpha   90.00000000
_cell_angle_beta   90.00000000
_cell_angle_gamma   90.00000000
_symmetry_Int_Tables_number   1
_chemical_formula_structural   Dy5SiBi2
_chemical_formula_sum   'Dy20 Si4 Bi8'
_cell_volume   896.14442870
_cell_formula_units_Z   4
loop_
 _symmetry_equiv_pos_site_id
 _symmetry_equiv_pos_as_xyz
  1  'x, y, z'
loop_
 _atom_site_type_symbol
 _atom_site_label
 _atom_site_symmetry_multiplicity
 _atom_site_fract_x
 _atom_site_fract_y
 _atom_site_fract_z
 _atom_site_occupancy
  Dy  Dy0  1  0.844167  0.750000  0.789652  1
  Dy  Dy1  1  0.155833  0.250000  0.210348  1
  Dy  Dy2  1  0.344167  0.250000  0.710348  1
  Dy  Dy3  1  0.655833  0.750000  0.289652  1
  Dy  Dy4  1  0.367837  0.750000  0.705248  1
  Dy  Dy5  1  0.632163  0.250000  0.294752  1
  Dy  Dy6  1  0.867837  0.250000  0.794752  1
  Dy  Dy7  1  0.132163  0.750000  0.205248  1
  Dy  Dy8  1  0.959049  0.750000  0.500610  1
  Dy  Dy9  1  0.040951  0.250000  0.499390  1
  Dy  Dy10  1  0.459049  0.250000  0.999390  1
  Dy  Dy11  1  0.540951  0.750000  0.000610  1
  Dy  Dy12  1  0.681655  0.050700  0.564050  1
  Dy  Dy13  1  0.318345  0.949300  0.435950  1
  Dy  Dy14  1  0.181655  0.949300  0.935950  1
  Dy  Dy15  1  0.318345  0.550700  0.435950  1
  Dy  Dy16  1  0.818345  0.050700  0.064050  1
  Dy  Dy17  1  0.681655  0.449300  0.564050  1
  Dy  Dy18  1  0.818345  0.449300  0.064050  1
  Dy  Dy19  1  0.181655  0.550700  0.935950  1
  Si  Si20  1  0.582340  0.750000  0.518997  1
  Si  Si21  1  0.417660  0.250000  0.481003  1
  Si  Si22  1  0.082340  0.250000  0.981003  1
  Si  Si23  1  0.917660  0.750000  0.018997  1
  Bi  Bi24  1  0.574277  0.490861  0.827088  1
  Bi  Bi25  1  0.425723  0.509139  0.172912  1
  Bi  Bi26  1  0.074277  0.509139  0.672912  1
  Bi  Bi27  1  0.425723  0.990861  0.172912  1
  Bi  Bi28  1  0.925723  0.490861  0.327088  1
  Bi  Bi29  1  0.574277  0.009139  0.827088  1
  Bi  Bi30  1  0.925723  0.009139  0.327088  1
  Bi  Bi31  1  0.074277  0.990861  0.672912  1
