# generated using pymatgen
data_Cs2TiCr4(TcSe2)7
_symmetry_space_group_name_H-M   'P 1'
_cell_length_a   9.75483870
_cell_length_b   9.80226527
_cell_length_c   9.73529191
_cell_angle_alpha   60.59411965
_cell_angle_beta   61.05551177
_cell_angle_gamma   60.92395250
_symmetry_Int_Tables_number   1
_chemical_formula_structural   Cs2TiCr4(TcSe2)7
_chemical_formula_sum   'Cs2 Ti1 Cr4 Tc7 Se14'
_cell_volume   670.94324086
_cell_formula_units_Z   1
loop_
 _symmetry_equiv_pos_site_id
 _symmetry_equiv_pos_as_xyz
  1  'x, y, z'
loop_
 _atom_site_type_symbol
 _atom_site_label
 _atom_site_symmetry_multiplicity
 _atom_site_fract_x
 _atom_site_fract_y
 _atom_site_fract_z
 _atom_site_occupancy
  Cs  Cs0  1  0.384298  0.383975  0.386688  1
  Cs  Cs1  1  0.616549  0.617327  0.625128  1
  Ti  Ti2  1  0.059809  0.201350  0.881070  1
  Cr  Cr3  1  0.877057  0.998801  0.711203  1
  Cr  Cr4  1  0.127143  0.001614  0.291980  1
  Cr  Cr5  1  0.998135  0.715746  0.874684  1
  Cr  Cr6  1  0.714300  0.877879  0.995498  1
  Tc  Tc7  1  0.296797  0.128436  0.991777  1
  Tc  Tc8  1  0.197521  0.884883  0.061120  1
  Tc  Tc9  1  0.887693  0.055740  0.197421  1
  Tc  Tc10  1  0.941431  0.802472  0.114678  1
  Tc  Tc11  1  0.805054  0.108822  0.941027  1
  Tc  Tc12  1  0.112366  0.937980  0.805724  1
  Tc  Tc13  1  0.992781  0.298230  0.123465  1
  Se  Se14  1  0.974992  0.229421  0.641345  1
  Se  Se15  1  0.235522  0.642594  0.985252  1
  Se  Se16  1  0.646922  0.973626  0.238806  1
  Se  Se17  1  0.021291  0.759508  0.354649  1
  Se  Se18  1  0.751630  0.351789  0.028670  1
  Se  Se19  1  0.361993  0.009637  0.761894  1
  Se  Se20  1  0.160654  0.428174  0.819030  1
  Se  Se21  1  0.416912  0.830684  0.167981  1
  Se  Se22  1  0.829873  0.157106  0.418840  1
  Se  Se23  1  0.829982  0.589272  0.170892  1
  Se  Se24  1  0.588892  0.174020  0.825888  1
  Se  Se25  1  0.168479  0.836838  0.583000  1
  Se  Se26  1  0.781179  0.783352  0.779593  1
  Se  Se27  1  0.220742  0.220718  0.222699  1
