# generated using pymatgen
data_MgZr2CdNi8
_symmetry_space_group_name_H-M   'P 1'
_cell_length_a   4.88103922
_cell_length_b   4.88103927
_cell_length_c   8.49666645
_cell_angle_alpha   106.69236299
_cell_angle_beta   73.30763700
_cell_angle_gamma   119.99999828
_symmetry_Int_Tables_number   1
_chemical_formula_structural   MgZr2CdNi8
_chemical_formula_sum   'Mg1 Zr2 Cd1 Ni8'
_cell_volume   165.38568981
_cell_formula_units_Z   1
loop_
 _symmetry_equiv_pos_site_id
 _symmetry_equiv_pos_as_xyz
  1  'x, y, z'
loop_
 _atom_site_type_symbol
 _atom_site_label
 _atom_site_symmetry_multiplicity
 _atom_site_fract_x
 _atom_site_fract_y
 _atom_site_fract_z
 _atom_site_occupancy
  Mg  Mg0  1  0.375303  0.624697  0.874090  1
  Zr  Zr1  1  0.999801  0.000199  0.000594  1
  Zr  Zr2  1  0.500454  0.499546  0.498637  1
  Cd  Cd3  1  0.874903  0.125097  0.375293  1
  Ni  Ni4  1  0.437077  0.562923  0.185323  1
  Ni  Ni5  1  0.936204  0.063796  0.690649  1
  Ni  Ni6  1  0.437077  0.059478  0.185323  1
  Ni  Ni7  1  0.936204  0.563058  0.690649  1
  Ni  Ni8  1  0.187571  0.812429  0.437288  1
  Ni  Ni9  1  0.687940  0.312060  0.936182  1
  Ni  Ni10  1  0.940522  0.562923  0.185323  1
  Ni  Ni11  1  0.436942  0.063796  0.690649  1
