# generated using pymatgen
data_Yb5NbN5
_symmetry_space_group_name_H-M   'P 1'
_cell_length_a   6.86716500
_cell_length_b   6.86716557
_cell_length_c   8.75043491
_cell_angle_alpha   81.31549987
_cell_angle_beta   81.31549717
_cell_angle_gamma   60.33038757
_symmetry_Int_Tables_number   1
_chemical_formula_structural   Yb5NbN5
_chemical_formula_sum   'Yb10 Nb2 N10'
_cell_volume   353.04115739
_cell_formula_units_Z   2
loop_
 _symmetry_equiv_pos_site_id
 _symmetry_equiv_pos_as_xyz
  1  'x, y, z'
loop_
 _atom_site_type_symbol
 _atom_site_label
 _atom_site_symmetry_multiplicity
 _atom_site_fract_x
 _atom_site_fract_y
 _atom_site_fract_z
 _atom_site_occupancy
  Yb  Yb0  1  0.878482  0.356435  0.839693  1
  Yb  Yb1  1  0.873242  0.873242  0.826721  1
  Yb  Yb2  1  0.732555  0.732555  0.537547  1
  Yb  Yb3  1  0.746921  0.256639  0.505903  1
  Yb  Yb4  1  0.618050  0.140577  0.150120  1
  Yb  Yb5  1  0.356435  0.878482  0.839693  1
  Yb  Yb6  1  0.256639  0.746921  0.505903  1
  Yb  Yb7  1  0.240907  0.240907  0.489598  1
  Yb  Yb8  1  0.145342  0.145342  0.167649  1
  Yb  Yb9  1  0.140577  0.618050  0.150120  1
  Nb  Nb10  1  0.633468  0.633468  0.218754  1
  Nb  Nb11  1  0.370441  0.370441  0.771481  1
  N  N12  1  0.918779  0.468341  0.325018  1
  N  N13  1  0.995472  0.995472  0.028191  1
  N  N14  1  0.682736  0.682736  0.994885  1
  N  N15  1  0.540271  0.540271  0.687551  1
  N  N16  1  0.468341  0.918779  0.325018  1
  N  N17  1  0.539700  0.084792  0.672715  1
  N  N18  1  0.465143  0.465143  0.298124  1
  N  N19  1  0.315714  0.315714  0.993737  1
  N  N20  1  0.058284  0.058284  0.644672  1
  N  N21  1  0.084792  0.539700  0.672715  1
