# generated using pymatgen
data_Nd6Dy10Cd4Ni3Ir
_symmetry_space_group_name_H-M   'P 1'
_cell_length_a   9.70029579
_cell_length_b   9.70029582
_cell_length_c   9.70029744
_cell_angle_alpha   59.87265180
_cell_angle_beta   59.87266127
_cell_angle_gamma   59.87265634
_symmetry_Int_Tables_number   1
_chemical_formula_structural   Nd6Dy10Cd4Ni3Ir
_chemical_formula_sum   'Nd6 Dy10 Cd4 Ni3 Ir1'
_cell_volume   643.55148791
_cell_formula_units_Z   1
loop_
 _symmetry_equiv_pos_site_id
 _symmetry_equiv_pos_as_xyz
  1  'x, y, z'
loop_
 _atom_site_type_symbol
 _atom_site_label
 _atom_site_symmetry_multiplicity
 _atom_site_fract_x
 _atom_site_fract_y
 _atom_site_fract_z
 _atom_site_occupancy
  Nd  Nd0  1  0.188814  0.812557  0.812557  1
  Nd  Nd1  1  0.807350  0.189814  0.189814  1
  Nd  Nd2  1  0.812557  0.188814  0.812557  1
  Nd  Nd3  1  0.189814  0.807350  0.189814  1
  Nd  Nd4  1  0.812557  0.812557  0.188814  1
  Nd  Nd5  1  0.189814  0.189814  0.807350  1
  Dy  Dy6  1  0.597133  0.597133  0.597133  1
  Dy  Dy7  1  0.599321  0.599321  0.207450  1
  Dy  Dy8  1  0.599321  0.207450  0.599321  1
  Dy  Dy9  1  0.207450  0.599321  0.599321  1
  Dy  Dy10  1  0.061512  0.437000  0.437000  1
  Dy  Dy11  1  0.435084  0.062380  0.062380  1
  Dy  Dy12  1  0.437000  0.061512  0.437000  1
  Dy  Dy13  1  0.062380  0.435084  0.062380  1
  Dy  Dy14  1  0.437000  0.437000  0.061512  1
  Dy  Dy15  1  0.062380  0.062380  0.435084  1
  Cd  Cd16  1  0.829585  0.829585  0.829585  1
  Cd  Cd17  1  0.829146  0.829146  0.511273  1
  Cd  Cd18  1  0.829146  0.511273  0.829146  1
  Cd  Cd19  1  0.511273  0.829146  0.829146  1
  Ni  Ni20  1  0.391819  0.391819  0.825386  1
  Ni  Ni21  1  0.391819  0.825386  0.391819  1
  Ni  Ni22  1  0.825386  0.391819  0.391819  1
  Ir  Ir23  1  0.392343  0.392343  0.392343  1
