# generated using pymatgen
data_Sc12Mn(GaI8)2
_symmetry_space_group_name_H-M   'P 1'
_cell_length_a   9.23087791
_cell_length_b   11.94330411
_cell_length_c   12.63036195
_cell_angle_alpha   117.04543512
_cell_angle_beta   101.29790094
_cell_angle_gamma   100.76976356
_symmetry_Int_Tables_number   1
_chemical_formula_structural   Sc12Mn(GaI8)2
_chemical_formula_sum   'Sc12 Mn1 Ga2 I16'
_cell_volume   1153.86341286
_cell_formula_units_Z   1
loop_
 _symmetry_equiv_pos_site_id
 _symmetry_equiv_pos_as_xyz
  1  'x, y, z'
loop_
 _atom_site_type_symbol
 _atom_site_label
 _atom_site_symmetry_multiplicity
 _atom_site_fract_x
 _atom_site_fract_y
 _atom_site_fract_z
 _atom_site_occupancy
  Sc  Sc0  1  0.086759  0.262522  0.354220  1
  Sc  Sc1  1  0.897639  0.728181  0.640040  1
  Sc  Sc2  1  0.768325  0.535800  0.331506  1
  Sc  Sc3  1  0.221712  0.462715  0.675292  1
  Sc  Sc4  1  0.279643  0.737925  0.644948  1
  Sc  Sc5  1  0.712035  0.271315  0.360508  1
  Sc  Sc6  1  0.145281  0.537562  0.324533  1
  Sc  Sc7  1  0.841237  0.463922  0.668826  1
  Sc  Sc8  1  0.421138  0.364589  0.282984  1
  Sc  Sc9  1  0.602321  0.635434  0.717075  1
  Sc  Sc10  1  0.471704  0.314565  0.520254  1
  Sc  Sc11  1  0.551409  0.685519  0.479723  1
  Mn  Mn12  1  0.662653  0.499883  0.500310  1
  Ga  Ga13  1  0.989827  0.499899  0.500131  1
  Ga  Ga14  1  0.350250  0.500237  0.499823  1
  I  I15  1  0.394330  0.735939  0.877145  1
  I  I16  1  0.607526  0.259437  0.114826  1
  I  I17  1  0.184159  0.962922  0.781117  1
  I  I18  1  0.810146  0.037239  0.218891  1
  I  I19  1  0.333659  0.095182  0.251764  1
  I  I20  1  0.660886  0.904684  0.748145  1
  I  I21  1  0.559174  0.436839  0.798998  1
  I  I22  1  0.434736  0.563326  0.201009  1
  I  I23  1  0.308173  0.823503  0.463869  1
  I  I24  1  0.695209  0.169928  0.537302  1
  I  I25  1  0.169850  0.176682  0.534696  1
  I  I26  1  0.837135  0.829654  0.464236  1
  I  I27  1  0.923869  0.576459  0.161761  1
  I  I28  1  0.070465  0.423286  0.838123  1
  I  I29  1  0.929040  0.739880  0.885655  1
  I  I30  1  0.079708  0.264974  0.122289  1
