# generated using pymatgen
data_GdErTcB6
_symmetry_space_group_name_H-M   'P 1'
_cell_length_a   3.68474400
_cell_length_b   9.15811400
_cell_length_c   11.55977100
_cell_angle_alpha   90.00000000
_cell_angle_beta   90.00000000
_cell_angle_gamma   90.00000000
_symmetry_Int_Tables_number   1
_chemical_formula_structural   GdErTcB6
_chemical_formula_sum   'Gd4 Er4 Tc4 B24'
_cell_volume   390.08800521
_cell_formula_units_Z   4
loop_
 _symmetry_equiv_pos_site_id
 _symmetry_equiv_pos_as_xyz
  1  'x, y, z'
loop_
 _atom_site_type_symbol
 _atom_site_label
 _atom_site_symmetry_multiplicity
 _atom_site_fract_x
 _atom_site_fract_y
 _atom_site_fract_z
 _atom_site_occupancy
  Gd  Gd0  1  0.000000  0.323870  0.414167  1
  Gd  Gd1  1  0.000000  0.676130  0.585833  1
  Gd  Gd2  1  0.000000  0.823870  0.085833  1
  Gd  Gd3  1  0.000000  0.176130  0.914167  1
  Er  Er4  1  0.000000  0.943004  0.369347  1
  Er  Er5  1  0.000000  0.056996  0.630653  1
  Er  Er6  1  0.000000  0.443004  0.130653  1
  Er  Er7  1  0.000000  0.556996  0.869347  1
  Tc  Tc8  1  0.000000  0.639442  0.319999  1
  Tc  Tc9  1  0.000000  0.360558  0.680001  1
  Tc  Tc10  1  0.000000  0.139442  0.180001  1
  Tc  Tc11  1  0.000000  0.860558  0.819999  1
  B  B12  1  0.500000  0.554015  0.432144  1
  B  B13  1  0.500000  0.445985  0.567856  1
  B  B14  1  0.500000  0.054015  0.067856  1
  B  B15  1  0.500000  0.945985  0.932144  1
  B  B16  1  0.500000  0.749646  0.417951  1
  B  B17  1  0.500000  0.250354  0.582049  1
  B  B18  1  0.500000  0.249646  0.082049  1
  B  B19  1  0.500000  0.750354  0.917951  1
  B  B20  1  0.500000  0.792343  0.265405  1
  B  B21  1  0.500000  0.207657  0.734595  1
  B  B22  1  0.500000  0.292343  0.234595  1
  B  B23  1  0.500000  0.707657  0.765405  1
  B  B24  1  0.500000  0.630772  0.185470  1
  B  B25  1  0.500000  0.369228  0.814530  1
  B  B26  1  0.500000  0.130772  0.314530  1
  B  B27  1  0.500000  0.869228  0.685470  1
  B  B28  1  0.500000  0.982909  0.212320  1
  B  B29  1  0.500000  0.017091  0.787680  1
  B  B30  1  0.500000  0.482909  0.287680  1
  B  B31  1  0.500000  0.517091  0.712320  1
  B  B32  1  0.500000  0.598734  0.027399  1
  B  B33  1  0.500000  0.401266  0.972601  1
  B  B34  1  0.500000  0.098734  0.472601  1
  B  B35  1  0.500000  0.901266  0.527399  1
