# generated using pymatgen
data_HoEr8Th3Co4
_symmetry_space_group_name_H-M   'P 1'
_cell_length_a   6.26413724
_cell_length_b   6.87535273
_cell_length_c   9.47587200
_cell_angle_alpha   90.00000000
_cell_angle_beta   90.00000000
_cell_angle_gamma   91.05804636
_symmetry_Int_Tables_number   1
_chemical_formula_structural   HoEr8Th3Co4
_chemical_formula_sum   'Ho1 Er8 Th3 Co4'
_cell_volume   408.03872379
_cell_formula_units_Z   1
loop_
 _symmetry_equiv_pos_site_id
 _symmetry_equiv_pos_as_xyz
  1  'x, y, z'
loop_
 _atom_site_type_symbol
 _atom_site_label
 _atom_site_symmetry_multiplicity
 _atom_site_fract_x
 _atom_site_fract_y
 _atom_site_fract_z
 _atom_site_occupancy
  Ho  Ho0  1  0.356312  0.957546  0.750000  1
  Er  Er1  1  0.328189  0.672246  0.068423  1
  Er  Er2  1  0.170768  0.171112  0.431196  1
  Er  Er3  1  0.675715  0.329056  0.569417  1
  Er  Er4  1  0.824037  0.828444  0.928487  1
  Er  Er5  1  0.675715  0.329056  0.930583  1
  Er  Er6  1  0.824037  0.828444  0.571513  1
  Er  Er7  1  0.328189  0.672246  0.431577  1
  Er  Er8  1  0.170768  0.171112  0.068804  1
  Th  Th9  1  0.845634  0.550372  0.250000  1
  Th  Th10  1  0.651687  0.052587  0.250000  1
  Th  Th11  1  0.156294  0.449727  0.750000  1
  Co  Co12  1  0.034243  0.871188  0.250000  1
  Co  Co13  1  0.463202  0.371276  0.250000  1
  Co  Co14  1  0.960102  0.132728  0.750000  1
  Co  Co15  1  0.535107  0.612859  0.750000  1
