# generated using pymatgen
data_LaEuAs2(IrO)2
_symmetry_space_group_name_H-M   'P 1'
_cell_length_a   4.09805400
_cell_length_b   4.09805400
_cell_length_c   8.66198300
_cell_angle_alpha   90.00000000
_cell_angle_beta   90.00000000
_cell_angle_gamma   90.00000000
_symmetry_Int_Tables_number   1
_chemical_formula_structural   LaEuAs2(IrO)2
_chemical_formula_sum   'La1 Eu1 As2 Ir2 O2'
_cell_volume   145.46974604
_cell_formula_units_Z   1
loop_
 _symmetry_equiv_pos_site_id
 _symmetry_equiv_pos_as_xyz
  1  'x, y, z'
loop_
 _atom_site_type_symbol
 _atom_site_label
 _atom_site_symmetry_multiplicity
 _atom_site_fract_x
 _atom_site_fract_y
 _atom_site_fract_z
 _atom_site_occupancy
  La  La0  1  0.750000  0.750000  0.871615  1
  Eu  Eu1  1  0.250002  0.250002  0.137174  1
  As  As2  1  0.750000  0.750000  0.336905  1
  As  As3  1  0.250002  0.250002  0.658651  1
  Ir  Ir4  1  0.750000  0.250002  0.498279  1
  Ir  Ir5  1  0.250002  0.750000  0.498279  1
  O  O6  1  0.750000  0.250002  0.999548  1
  O  O7  1  0.250002  0.750000  0.999548  1
