# generated using pymatgen
data_Sc4Tc3MoOs4
_symmetry_space_group_name_H-M   'P 1'
_cell_length_a   5.33661000
_cell_length_b   5.17168871
_cell_length_c   8.68265200
_cell_angle_alpha   90.00000000
_cell_angle_beta   90.00000000
_cell_angle_gamma   121.06061605
_symmetry_Int_Tables_number   1
_chemical_formula_structural   Sc4Tc3MoOs4
_chemical_formula_sum   'Sc4 Tc3 Mo1 Os4'
_cell_volume   205.27659192
_cell_formula_units_Z   1
loop_
 _symmetry_equiv_pos_site_id
 _symmetry_equiv_pos_as_xyz
  1  'x, y, z'
loop_
 _atom_site_type_symbol
 _atom_site_label
 _atom_site_symmetry_multiplicity
 _atom_site_fract_x
 _atom_site_fract_y
 _atom_site_fract_z
 _atom_site_occupancy
  Sc  Sc0  1  0.331631  0.663263  0.435635  1
  Sc  Sc1  1  0.670790  0.341580  0.566472  1
  Sc  Sc2  1  0.670790  0.341580  0.933528  1
  Sc  Sc3  1  0.331631  0.663263  0.064365  1
  Tc  Tc4  1  0.345363  0.171032  0.250000  1
  Tc  Tc5  1  0.823882  0.647764  0.250000  1
  Tc  Tc6  1  0.825668  0.171032  0.250000  1
  Mo  Mo7  1  0.168278  0.336554  0.750000  1
  Os  Os8  1  0.174651  0.828086  0.750000  1
  Os  Os9  1  0.653434  0.828086  0.750000  1
  Os  Os10  1  0.001941  0.003882  0.003447  1
  Os  Os11  1  0.001941  0.003882  0.496553  1
