# generated using pymatgen
data_Tb3Ce2Dy(HfSb5)2
_symmetry_space_group_name_H-M   'P 1'
_cell_length_a   9.33578600
_cell_length_b   9.34709648
_cell_length_c   6.18016400
_cell_angle_alpha   90.00000000
_cell_angle_beta   90.00000000
_cell_angle_gamma   119.95997277
_symmetry_Int_Tables_number   1
_chemical_formula_structural   Tb3Ce2Dy(HfSb5)2
_chemical_formula_sum   'Tb3 Ce2 Dy1 Hf2 Sb10'
_cell_volume   467.23274578
_cell_formula_units_Z   1
loop_
 _symmetry_equiv_pos_site_id
 _symmetry_equiv_pos_as_xyz
  1  'x, y, z'
loop_
 _atom_site_type_symbol
 _atom_site_label
 _atom_site_symmetry_multiplicity
 _atom_site_fract_x
 _atom_site_fract_y
 _atom_site_fract_z
 _atom_site_occupancy
  Tb  Tb0  1  0.383590  0.000000  0.750000  1
  Tb  Tb1  1  0.997811  0.618562  0.250000  1
  Tb  Tb2  1  0.379249  0.381438  0.250000  1
  Ce  Ce3  1  0.002558  0.385489  0.750000  1
  Ce  Ce4  1  0.617068  0.614511  0.750000  1
  Dy  Dy5  1  0.617891  0.000000  0.250000  1
  Hf  Hf6  1  0.001029  0.000000  0.001327  1
  Hf  Hf7  1  0.001029  0.000000  0.498673  1
  Sb  Sb8  1  0.269525  0.000000  0.250000  1
  Sb  Sb9  1  0.734077  0.000000  0.750000  1
  Sb  Sb10  1  0.999001  0.269013  0.250000  1
  Sb  Sb11  1  0.002900  0.735196  0.750000  1
  Sb  Sb12  1  0.729988  0.730987  0.250000  1
  Sb  Sb13  1  0.267704  0.264804  0.750000  1
  Sb  Sb14  1  0.333350  0.668411  0.006222  1
  Sb  Sb15  1  0.664940  0.331589  0.006222  1
  Sb  Sb16  1  0.664940  0.331589  0.493778  1
  Sb  Sb17  1  0.333350  0.668411  0.493778  1
