# generated using pymatgen
data_Nd10OsRh5
_symmetry_space_group_name_H-M   'P 1'
_cell_length_a   11.27000100
_cell_length_b   11.27000100
_cell_length_c   6.60601600
_cell_angle_alpha   90.00000000
_cell_angle_beta   90.00000000
_cell_angle_gamma   90.00000000
_symmetry_Int_Tables_number   1
_chemical_formula_structural   Nd10OsRh5
_chemical_formula_sum   'Nd20 Os2 Rh10'
_cell_volume   839.04939851
_cell_formula_units_Z   2
loop_
 _symmetry_equiv_pos_site_id
 _symmetry_equiv_pos_as_xyz
  1  'x, y, z'
loop_
 _atom_site_type_symbol
 _atom_site_label
 _atom_site_symmetry_multiplicity
 _atom_site_fract_x
 _atom_site_fract_y
 _atom_site_fract_z
 _atom_site_occupancy
  Nd  Nd0  1  0.089096  0.292739  0.119773  1
  Nd  Nd1  1  0.792739  0.410904  0.119773  1
  Nd  Nd2  1  0.207261  0.589096  0.119773  1
  Nd  Nd3  1  0.910904  0.707261  0.119773  1
  Nd  Nd4  1  0.410904  0.792739  0.380227  1
  Nd  Nd5  1  0.589096  0.207261  0.380227  1
  Nd  Nd6  1  0.292739  0.089096  0.380227  1
  Nd  Nd7  1  0.707261  0.910904  0.380227  1
  Nd  Nd8  1  0.410302  0.207355  0.885679  1
  Nd  Nd9  1  0.707355  0.089698  0.885679  1
  Nd  Nd10  1  0.292645  0.910302  0.885679  1
  Nd  Nd11  1  0.589698  0.792645  0.885679  1
  Nd  Nd12  1  0.089698  0.707355  0.614321  1
  Nd  Nd13  1  0.910302  0.292645  0.614321  1
  Nd  Nd14  1  0.207355  0.410302  0.614321  1
  Nd  Nd15  1  0.792645  0.589698  0.614321  1
  Nd  Nd16  1  0.000000  0.000000  0.999471  1
  Nd  Nd17  1  0.500000  0.500000  0.999471  1
  Nd  Nd18  1  0.500000  0.500000  0.500529  1
  Nd  Nd19  1  0.000000  0.000000  0.500529  1
  Os  Os20  1  0.000000  0.500000  0.375305  1
  Os  Os21  1  0.500000  0.000000  0.124695  1
  Rh  Rh22  1  0.153312  0.846688  0.250000  1
  Rh  Rh23  1  0.346688  0.346688  0.250000  1
  Rh  Rh24  1  0.653312  0.653312  0.250000  1
  Rh  Rh25  1  0.846688  0.153312  0.250000  1
  Rh  Rh26  1  0.347003  0.652997  0.750000  1
  Rh  Rh27  1  0.152997  0.152997  0.750000  1
  Rh  Rh28  1  0.847003  0.847003  0.750000  1
  Rh  Rh29  1  0.652997  0.347003  0.750000  1
  Rh  Rh30  1  0.500000  0.000000  0.623066  1
  Rh  Rh31  1  0.000000  0.500000  0.876934  1
