# generated using pymatgen
data_DyU(ZnRu)2
_symmetry_space_group_name_H-M   'P 1'
_cell_length_a   3.67202800
_cell_length_b   7.13297956
_cell_length_c   8.49693382
_cell_angle_alpha   93.28496168
_cell_angle_beta   90.00000000
_cell_angle_gamma   90.00000000
_symmetry_Int_Tables_number   1
_chemical_formula_structural   DyU(ZnRu)2
_chemical_formula_sum   'Dy2 U2 Zn4 Ru4'
_cell_volume   222.19026114
_cell_formula_units_Z   2
loop_
 _symmetry_equiv_pos_site_id
 _symmetry_equiv_pos_as_xyz
  1  'x, y, z'
loop_
 _atom_site_type_symbol
 _atom_site_label
 _atom_site_symmetry_multiplicity
 _atom_site_fract_x
 _atom_site_fract_y
 _atom_site_fract_z
 _atom_site_occupancy
  Dy  Dy0  1  0.250000  0.054469  0.317495  1
  Dy  Dy1  1  0.750000  0.945531  0.682505  1
  U  U2  1  0.250000  0.543945  0.188441  1
  U  U3  1  0.750000  0.456055  0.811559  1
  Zn  Zn4  1  0.250000  0.117463  0.938012  1
  Zn  Zn5  1  0.750000  0.882537  0.061988  1
  Zn  Zn6  1  0.250000  0.628501  0.554190  1
  Zn  Zn7  1  0.750000  0.371499  0.445810  1
  Ru  Ru8  1  0.750000  0.735682  0.343745  1
  Ru  Ru9  1  0.250000  0.264318  0.656255  1
  Ru  Ru10  1  0.750000  0.293032  0.126097  1
  Ru  Ru11  1  0.250000  0.706968  0.873903  1
