# generated using pymatgen
data_AlAgBr4
_symmetry_space_group_name_H-M   'P 1'
_cell_length_a   7.47833700
_cell_length_b   7.54533330
_cell_length_c   14.63683392
_cell_angle_alpha   87.36795217
_cell_angle_beta   90.00000000
_cell_angle_gamma   90.00000000
_symmetry_Int_Tables_number   1
_chemical_formula_structural   AlAgBr4
_chemical_formula_sum   'Al4 Ag4 Br16'
_cell_volume   825.03467323
_cell_formula_units_Z   4
loop_
 _symmetry_equiv_pos_site_id
 _symmetry_equiv_pos_as_xyz
  1  'x, y, z'
loop_
 _atom_site_type_symbol
 _atom_site_label
 _atom_site_symmetry_multiplicity
 _atom_site_fract_x
 _atom_site_fract_y
 _atom_site_fract_z
 _atom_site_occupancy
  Al  Al0  1  0.175288  0.711046  0.600794  1
  Al  Al1  1  0.824712  0.288954  0.399206  1
  Al  Al2  1  0.675288  0.288954  0.899206  1
  Al  Al3  1  0.324712  0.711046  0.100794  1
  Ag  Ag4  1  0.483657  0.843352  0.868450  1
  Ag  Ag5  1  0.516343  0.156648  0.131550  1
  Ag  Ag6  1  0.983657  0.156648  0.631550  1
  Ag  Ag7  1  0.016343  0.843352  0.368450  1
  Br  Br8  1  0.189488  0.444653  0.687110  1
  Br  Br9  1  0.810512  0.555347  0.312890  1
  Br  Br10  1  0.689488  0.555347  0.812890  1
  Br  Br11  1  0.310512  0.444653  0.187110  1
  Br  Br12  1  0.314616  0.932500  0.683647  1
  Br  Br13  1  0.685384  0.067500  0.316353  1
  Br  Br14  1  0.814616  0.067500  0.816353  1
  Br  Br15  1  0.185384  0.932500  0.183647  1
  Br  Br16  1  0.184790  0.690755  0.959830  1
  Br  Br17  1  0.815210  0.309245  0.040170  1
  Br  Br18  1  0.684790  0.309245  0.540170  1
  Br  Br19  1  0.315210  0.690755  0.459830  1
  Br  Br20  1  0.879380  0.803721  0.576554  1
  Br  Br21  1  0.120620  0.196279  0.423446  1
  Br  Br22  1  0.379380  0.196279  0.923446  1
  Br  Br23  1  0.620620  0.803721  0.076554  1
