# generated using pymatgen
data_EuHo2Ga8Ag3
_symmetry_space_group_name_H-M   'P 1'
_cell_length_a   4.35832632
_cell_length_b   8.35946287
_cell_length_c   8.35946319
_cell_angle_alpha   69.92080463
_cell_angle_beta   74.88944003
_cell_angle_gamma   74.88944958
_symmetry_Int_Tables_number   1
_chemical_formula_structural   EuHo2Ga8Ag3
_chemical_formula_sum   'Eu1 Ho2 Ga8 Ag3'
_cell_volume   271.19450048
_cell_formula_units_Z   1
loop_
 _symmetry_equiv_pos_site_id
 _symmetry_equiv_pos_as_xyz
  1  'x, y, z'
loop_
 _atom_site_type_symbol
 _atom_site_label
 _atom_site_symmetry_multiplicity
 _atom_site_fract_x
 _atom_site_fract_y
 _atom_site_fract_z
 _atom_site_occupancy
  Eu  Eu0  1  0.500000  0.500000  0.500000  1
  Ho  Ho1  1  0.200203  0.799797  0.799797  1
  Ho  Ho2  1  0.799797  0.200203  0.200203  1
  Ga  Ga3  1  0.354851  0.362590  0.927708  1
  Ga  Ga4  1  0.645149  0.637410  0.072292  1
  Ga  Ga5  1  0.354851  0.927708  0.362590  1
  Ga  Ga6  1  0.645149  0.072292  0.637410  1
  Ga  Ga7  1  0.161162  0.470772  0.206903  1
  Ga  Ga8  1  0.838838  0.529228  0.793097  1
  Ga  Ga9  1  0.161162  0.206903  0.470772  1
  Ga  Ga10  1  0.838838  0.793097  0.529228  1
  Ag  Ag11  1  0.500000  0.000000  0.000000  1
  Ag  Ag12  1  0.000000  0.807708  0.192292  1
  Ag  Ag13  1  0.000000  0.192292  0.807708  1
