# generated using pymatgen
data_HoSc5(WO6)3
_symmetry_space_group_name_H-M   'P 1'
_cell_length_a   8.89973600
_cell_length_b   8.89493845
_cell_length_c   4.89616314
_cell_angle_alpha   89.97587391
_cell_angle_beta   90.00000000
_cell_angle_gamma   120.01784340
_symmetry_Int_Tables_number   1
_chemical_formula_structural   HoSc5(WO6)3
_chemical_formula_sum   'Ho1 Sc5 W3 O18'
_cell_volume   335.60499558
_cell_formula_units_Z   1
loop_
 _symmetry_equiv_pos_site_id
 _symmetry_equiv_pos_as_xyz
  1  'x, y, z'
loop_
 _atom_site_type_symbol
 _atom_site_label
 _atom_site_symmetry_multiplicity
 _atom_site_fract_x
 _atom_site_fract_y
 _atom_site_fract_z
 _atom_site_occupancy
  Ho  Ho0  1  0.628054  0.000000  0.000000  1
  Sc  Sc1  1  0.367234  0.366352  0.998593  1
  Sc  Sc2  1  0.000881  0.633648  0.001407  1
  Sc  Sc3  1  0.295017  0.000000  0.500001  1
  Sc  Sc4  1  0.000473  0.296800  0.499460  1
  Sc  Sc5  1  0.703672  0.703199  0.500542  1
  W  W6  1  0.003491  0.000000  0.000000  1
  W  W7  1  0.667221  0.337902  0.499803  1
  W  W8  1  0.329320  0.662099  0.500196  1
  O  O9  1  0.887758  0.091223  0.225896  1
  O  O10  1  0.213816  0.120430  0.218611  1
  O  O11  1  0.910339  0.789206  0.221379  1
  O  O12  1  0.231731  0.453583  0.275973  1
  O  O13  1  0.222320  0.764788  0.270638  1
  O  O14  1  0.543096  0.770667  0.285758  1
  O  O15  1  0.537176  0.127532  0.286592  1
  O  O16  1  0.874570  0.420682  0.270037  1
  O  O17  1  0.579700  0.458264  0.275624  1
  O  O18  1  0.121437  0.541737  0.724375  1
  O  O19  1  0.453889  0.579318  0.729962  1
  O  O20  1  0.409644  0.872469  0.713407  1
  O  O21  1  0.772430  0.229334  0.714241  1
  O  O22  1  0.457531  0.235211  0.729361  1
  O  O23  1  0.778148  0.546418  0.724026  1
  O  O24  1  0.121132  0.210795  0.778621  1
  O  O25  1  0.093387  0.879571  0.781389  1
  O  O26  1  0.796535  0.908778  0.774104  1
