# generated using pymatgen
data_Tb12Nd8Si15Se
_symmetry_space_group_name_H-M   'P 1'
_cell_length_a   7.61494006
_cell_length_b   7.76525578
_cell_length_c   14.80290200
_cell_angle_alpha   89.75929116
_cell_angle_beta   86.92137641
_cell_angle_gamma   89.97238101
_symmetry_Int_Tables_number   1
_chemical_formula_structural   Tb12Nd8Si15Se
_chemical_formula_sum   'Tb12 Nd8 Si15 Se1'
_cell_volume   874.05353836
_cell_formula_units_Z   1
loop_
 _symmetry_equiv_pos_site_id
 _symmetry_equiv_pos_as_xyz
  1  'x, y, z'
loop_
 _atom_site_type_symbol
 _atom_site_label
 _atom_site_symmetry_multiplicity
 _atom_site_fract_x
 _atom_site_fract_y
 _atom_site_fract_z
 _atom_site_occupancy
  Tb  Tb0  1  0.667506  0.993347  0.246173  1
  Tb  Tb1  1  0.165506  0.506933  0.245116  1
  Tb  Tb2  1  0.834888  0.492278  0.748587  1
  Tb  Tb3  1  0.331470  0.007286  0.752772  1
  Tb  Tb4  1  0.646348  0.836793  0.878812  1
  Tb  Tb5  1  0.175713  0.677813  0.623032  1
  Tb  Tb6  1  0.851707  0.333385  0.118908  1
  Tb  Tb7  1  0.323997  0.178147  0.377785  1
  Tb  Tb8  1  0.351637  0.167175  0.120549  1
  Tb  Tb9  1  0.825253  0.321121  0.377762  1
  Tb  Tb10  1  0.152825  0.666985  0.881890  1
  Tb  Tb11  1  0.676083  0.821011  0.623105  1
  Nd  Nd12  1  0.000213  0.824597  0.100601  1
  Nd  Nd13  1  0.474997  0.682033  0.398954  1
  Nd  Nd14  1  0.496887  0.315457  0.900125  1
  Nd  Nd15  1  0.024227  0.180618  0.600913  1
  Nd  Nd16  1  0.003460  0.178869  0.901164  1
  Nd  Nd17  1  0.524101  0.317067  0.600346  1
  Nd  Nd18  1  0.494695  0.686376  0.100822  1
  Nd  Nd19  1  0.975266  0.816828  0.399490  1
  Si  Si20  1  0.780903  0.621788  0.251118  1
  Si  Si21  1  0.280318  0.877431  0.251838  1
  Si  Si22  1  0.717677  0.124039  0.749024  1
  Si  Si23  1  0.217724  0.376846  0.749619  1
  Si  Si24  1  0.042272  0.112308  0.251445  1
  Si  Si25  1  0.543750  0.388579  0.251065  1
  Si  Si26  1  0.457923  0.610337  0.750651  1
  Si  Si27  1  0.957257  0.886589  0.750528  1
  Si  Si28  1  0.358689  0.969018  0.541375  1
  Si  Si29  1  0.695687  0.038406  0.042012  1
  Si  Si30  1  0.143229  0.469203  0.459575  1
  Si  Si31  1  0.202969  0.463577  0.044392  1
  Si  Si32  1  0.642648  0.029046  0.458848  1
  Si  Si33  1  0.306859  0.963570  0.955958  1
  Si  Si34  1  0.858269  0.528586  0.541665  1
  Se  Se35  1  0.797047  0.536554  0.953976  1
