# generated using pymatgen
data_Zr6Al17Os4Rh3
_symmetry_space_group_name_H-M   'P 1'
_cell_length_a   8.80294371
_cell_length_b   8.80771796
_cell_length_c   8.80336534
_cell_angle_alpha   119.97232009
_cell_angle_beta   119.85599688
_cell_angle_gamma   90.00257013
_symmetry_Int_Tables_number   1
_chemical_formula_structural   Zr6Al17Os4Rh3
_chemical_formula_sum   'Zr6 Al17 Os4 Rh3'
_cell_volume   483.88043933
_cell_formula_units_Z   1
loop_
 _symmetry_equiv_pos_site_id
 _symmetry_equiv_pos_as_xyz
  1  'x, y, z'
loop_
 _atom_site_type_symbol
 _atom_site_label
 _atom_site_symmetry_multiplicity
 _atom_site_fract_x
 _atom_site_fract_y
 _atom_site_fract_z
 _atom_site_occupancy
  Zr  Zr0  1  0.773454  0.284032  0.068867  1
  Zr  Zr1  1  0.221865  0.292689  0.511655  1
  Zr  Zr2  1  0.221338  0.719087  0.512196  1
  Zr  Zr3  1  0.226434  0.716086  0.930838  1
  Zr  Zr4  1  0.779460  0.708581  0.489070  1
  Zr  Zr5  1  0.777484  0.279706  0.487459  1
  Al  Al6  1  0.372508  0.121757  0.742574  1
  Al  Al7  1  0.375285  0.634176  0.256971  1
  Al  Al8  1  0.999268  0.499155  0.499885  1
  Al  Al9  1  0.154483  0.341933  0.183020  1
  Al  Al10  1  0.156728  0.979802  0.819687  1
  Al  Al11  1  0.156272  0.340669  0.818977  1
  Al  Al12  1  0.510870  0.338246  0.175276  1
  Al  Al13  1  0.845385  0.657961  0.816625  1
  Al  Al14  1  0.844016  0.020736  0.180854  1
  Al  Al15  1  0.843556  0.658904  0.180354  1
  Al  Al16  1  0.489560  0.662514  0.825115  1
  Al  Al17  1  0.374548  0.122920  0.256552  1
  Al  Al18  1  0.862935  0.121049  0.741978  1
  Al  Al19  1  0.627222  0.877757  0.256850  1
  Al  Al20  1  0.625250  0.366375  0.743671  1
  Al  Al21  1  0.624812  0.876981  0.742498  1
  Al  Al22  1  0.137403  0.879217  0.258735  1
  Os  Os23  1  0.999707  0.999583  0.500066  1
  Os  Os24  1  0.500437  0.000225  0.000463  1
  Os  Os25  1  0.499774  0.499866  0.999573  1
  Os  Os26  1  0.499605  0.499806  0.500273  1
  Rh  Rh27  1  0.000096  0.500129  0.000071  1
  Rh  Rh28  1  0.000011  0.999784  0.999999  1
  Rh  Rh29  1  0.500231  0.000275  0.499848  1
