# generated using pymatgen
data_Li2Tb3YP4
_symmetry_space_group_name_H-M   'P 1'
_cell_length_a   4.06758400
_cell_length_b   4.06758530
_cell_length_c   13.90558500
_cell_angle_alpha   90.00000000
_cell_angle_beta   90.00000000
_cell_angle_gamma   120.00000569
_symmetry_Int_Tables_number   1
_chemical_formula_structural   Li2Tb3YP4
_chemical_formula_sum   'Li2 Tb3 Y1 P4'
_cell_volume   199.24758694
_cell_formula_units_Z   1
loop_
 _symmetry_equiv_pos_site_id
 _symmetry_equiv_pos_as_xyz
  1  'x, y, z'
loop_
 _atom_site_type_symbol
 _atom_site_label
 _atom_site_symmetry_multiplicity
 _atom_site_fract_x
 _atom_site_fract_y
 _atom_site_fract_z
 _atom_site_occupancy
  Li  Li0  1  0.000000  0.000000  0.250136  1
  Li  Li1  1  0.000000  0.000000  0.750050  1
  Tb  Tb2  1  0.666667  0.333333  0.610046  1
  Tb  Tb3  1  0.666667  0.333333  0.890033  1
  Tb  Tb4  1  0.333333  0.666667  0.110076  1
  Y  Y5  1  0.333333  0.666667  0.390001  1
  P  P6  1  0.000000  0.000000  0.499616  1
  P  P7  1  0.000000  0.000000  0.999973  1
  P  P8  1  0.333333  0.666667  0.749880  1
  P  P9  1  0.666667  0.333333  0.250189  1
