# generated using pymatgen
data_LiPr7Nd(Si4Rh)3
_symmetry_space_group_name_H-M   'P 1'
_cell_length_a   8.29617200
_cell_length_b   8.29831368
_cell_length_c   8.50989303
_cell_angle_alpha   90.00793277
_cell_angle_beta   90.00000000
_cell_angle_gamma   119.99147091
_symmetry_Int_Tables_number   1
_chemical_formula_structural   LiPr7Nd(Si4Rh)3
_chemical_formula_sum   'Li1 Pr7 Nd1 Si12 Rh3'
_cell_volume   507.41072293
_cell_formula_units_Z   1
loop_
 _symmetry_equiv_pos_site_id
 _symmetry_equiv_pos_as_xyz
  1  'x, y, z'
loop_
 _atom_site_type_symbol
 _atom_site_label
 _atom_site_symmetry_multiplicity
 _atom_site_fract_x
 _atom_site_fract_y
 _atom_site_fract_z
 _atom_site_occupancy
  Li  Li0  1  0.666658  0.333314  0.998354  1
  Pr  Pr1  1  0.000012  0.000025  0.750472  1
  Pr  Pr2  1  0.999989  0.999976  0.249672  1
  Pr  Pr3  1  0.496365  0.503601  0.746643  1
  Pr  Pr4  1  0.496336  0.992673  0.746677  1
  Pr  Pr5  1  0.007234  0.503601  0.746643  1
  Pr  Pr6  1  0.497662  0.502417  0.253233  1
  Pr  Pr7  1  0.004757  0.502417  0.253233  1
  Nd  Nd8  1  0.497422  0.994842  0.253573  1
  Si  Si9  1  0.836604  0.163004  0.000610  1
  Si  Si10  1  0.837033  0.674066  0.000108  1
  Si  Si11  1  0.326400  0.163004  0.000610  1
  Si  Si12  1  0.832217  0.167274  0.499420  1
  Si  Si13  1  0.832563  0.665126  0.500016  1
  Si  Si14  1  0.335057  0.167274  0.499420  1
  Si  Si15  1  0.166687  0.833771  0.499378  1
  Si  Si16  1  0.667085  0.833771  0.499378  1
  Si  Si17  1  0.166324  0.332649  0.500225  1
  Si  Si18  1  0.167692  0.832827  0.000790  1
  Si  Si19  1  0.665136  0.832827  0.000790  1
  Si  Si20  1  0.167348  0.334696  0.999908  1
  Rh  Rh21  1  0.666531  0.333060  0.501388  1
  Rh  Rh22  1  0.333402  0.666805  0.497060  1
  Rh  Rh23  1  0.333489  0.666978  0.002399  1
