# generated using pymatgen
data_Lu8NbRu9
_symmetry_space_group_name_H-M   'P 1'
_cell_length_a   8.11460753
_cell_length_b   8.11460776
_cell_length_c   5.75172532
_cell_angle_alpha   90.00661944
_cell_angle_beta   90.00660710
_cell_angle_gamma   119.99946934
_symmetry_Int_Tables_number   1
_chemical_formula_structural   Lu8NbRu9
_chemical_formula_sum   'Lu8 Nb1 Ru9'
_cell_volume   327.99417549
_cell_formula_units_Z   1
loop_
 _symmetry_equiv_pos_site_id
 _symmetry_equiv_pos_as_xyz
  1  'x, y, z'
loop_
 _atom_site_type_symbol
 _atom_site_label
 _atom_site_symmetry_multiplicity
 _atom_site_fract_x
 _atom_site_fract_y
 _atom_site_fract_z
 _atom_site_occupancy
  Lu  Lu0  1  0.666303  0.000088  0.225141  1
  Lu  Lu1  1  0.333440  0.333439  0.224754  1
  Lu  Lu2  1  0.000088  0.666304  0.225141  1
  Lu  Lu3  1  0.666763  0.333016  0.559042  1
  Lu  Lu4  1  0.333017  0.666764  0.559042  1
  Lu  Lu5  1  0.000359  0.000359  0.559412  1
  Lu  Lu6  1  0.333119  0.000018  0.892170  1
  Lu  Lu7  1  0.000018  0.333118  0.892170  1
  Nb  Nb8  1  0.666936  0.666936  0.891802  1
  Ru  Ru9  1  0.666647  0.346331  0.053006  1
  Ru  Ru10  1  0.346332  0.666648  0.053006  1
  Ru  Ru11  1  0.986560  0.986560  0.053958  1
  Ru  Ru12  1  0.333027  0.000059  0.392114  1
  Ru  Ru13  1  0.000059  0.333026  0.392114  1
  Ru  Ru14  1  0.666837  0.666837  0.392285  1
  Ru  Ru15  1  0.666666  0.986871  0.731057  1
  Ru  Ru16  1  0.346959  0.346959  0.730574  1
  Ru  Ru17  1  0.986871  0.666666  0.731057  1
