# generated using pymatgen
data_DyEr2LuZn12
_symmetry_space_group_name_H-M   'P 1'
_cell_length_a   4.37131300
_cell_length_b   6.63912852
_cell_length_c   10.05880796
_cell_angle_alpha   90.13281872
_cell_angle_beta   90.00000000
_cell_angle_gamma   90.00000000
_symmetry_Int_Tables_number   1
_chemical_formula_structural   DyEr2LuZn12
_chemical_formula_sum   'Dy1 Er2 Lu1 Zn12'
_cell_volume   291.92301133
_cell_formula_units_Z   1
loop_
 _symmetry_equiv_pos_site_id
 _symmetry_equiv_pos_as_xyz
  1  'x, y, z'
loop_
 _atom_site_type_symbol
 _atom_site_label
 _atom_site_symmetry_multiplicity
 _atom_site_fract_x
 _atom_site_fract_y
 _atom_site_fract_z
 _atom_site_occupancy
  Dy  Dy0  1  0.750000  0.720684  0.335402  1
  Er  Er1  1  0.250000  0.279638  0.664018  1
  Er  Er2  1  0.250000  0.779361  0.835496  1
  Lu  Lu3  1  0.750000  0.220275  0.164010  1
  Zn  Zn4  1  0.250000  0.534909  0.103938  1
  Zn  Zn5  1  0.250000  0.035342  0.396777  1
  Zn  Zn6  1  0.750000  0.464354  0.897272  1
  Zn  Zn7  1  0.750000  0.964949  0.603807  1
  Zn  Zn8  1  0.250000  0.920104  0.149555  1
  Zn  Zn9  1  0.250000  0.416897  0.349970  1
  Zn  Zn10  1  0.750000  0.081583  0.850771  1
  Zn  Zn11  1  0.750000  0.581306  0.649247  1
  Zn  Zn12  1  0.250000  0.215910  0.957873  1
  Zn  Zn13  1  0.250000  0.716310  0.543233  1
  Zn  Zn14  1  0.750000  0.786049  0.042419  1
  Zn  Zn15  1  0.750000  0.282328  0.456212  1
