# generated using pymatgen
data_Tm4Al24Pt8Au
_symmetry_space_group_name_H-M   'P 1'
_cell_length_a   7.53297508
_cell_length_b   7.55105296
_cell_length_c   13.11915990
_cell_angle_alpha   84.55043149
_cell_angle_beta   79.01008501
_cell_angle_gamma   59.89861365
_symmetry_Int_Tables_number   1
_chemical_formula_structural   Tm4Al24Pt8Au
_chemical_formula_sum   'Tm4 Al24 Pt8 Au1'
_cell_volume   633.76377432
_cell_formula_units_Z   1
loop_
 _symmetry_equiv_pos_site_id
 _symmetry_equiv_pos_as_xyz
  1  'x, y, z'
loop_
 _atom_site_type_symbol
 _atom_site_label
 _atom_site_symmetry_multiplicity
 _atom_site_fract_x
 _atom_site_fract_y
 _atom_site_fract_z
 _atom_site_occupancy
  Tm  Tm0  1  0.393083  0.169214  0.808424  1
  Tm  Tm1  1  0.605938  0.831647  0.192818  1
  Tm  Tm2  1  0.734118  0.499121  0.808209  1
  Tm  Tm3  1  0.266419  0.501073  0.192222  1
  Al  Al4  1  0.682910  0.833969  0.944927  1
  Al  Al5  1  0.316143  0.166094  0.056240  1
  Al  Al6  1  0.146881  0.838655  0.560138  1
  Al  Al7  1  0.854270  0.167414  0.436470  1
  Al  Al8  1  0.487816  0.159801  0.557562  1
  Al  Al9  1  0.520320  0.833617  0.439725  1
  Al  Al10  1  0.218109  0.165310  0.328053  1
  Al  Al11  1  0.777132  0.838896  0.674102  1
  Al  Al12  1  0.440122  0.506804  0.674246  1
  Al  Al13  1  0.563161  0.493665  0.327778  1
  Al  Al14  1  0.108551  0.154736  0.672981  1
  Al  Al15  1  0.890584  0.839946  0.329066  1
  Al  Al16  1  0.353873  0.498496  0.944793  1
  Al  Al17  1  0.646502  0.501120  0.056249  1
  Al  Al18  1  0.015703  0.168183  0.952694  1
  Al  Al19  1  0.983861  0.831960  0.048358  1
  Al  Al20  1  0.188134  0.499664  0.436383  1
  Al  Al21  1  0.807067  0.500136  0.557442  1
  Al  Al22  1  0.733583  0.163999  0.183249  1
  Al  Al23  1  0.267285  0.835390  0.816944  1
  Al  Al24  1  0.060601  0.632863  0.818073  1
  Al  Al25  1  0.938517  0.369095  0.184622  1
  Al  Al26  1  0.853847  0.042409  0.816334  1
  Al  Al27  1  0.145128  0.957879  0.183802  1
  Pt  Pt28  1  0.879745  0.509102  0.360795  1
  Pt  Pt29  1  0.657158  0.171563  0.999337  1
  Pt  Pt30  1  0.343132  0.828358  0.999801  1
  Pt  Pt31  1  0.537042  0.166875  0.360938  1
  Pt  Pt32  1  0.462860  0.833238  0.638608  1
  Pt  Pt33  1  0.778468  0.175686  0.637155  1
  Pt  Pt34  1  0.221812  0.824300  0.362364  1
  Pt  Pt35  1  0.999971  0.499795  0.000228  1
  Au  Au36  1  0.120153  0.489929  0.638866  1
