# generated using pymatgen
data_Ho4Al3Ga3Pt8
_symmetry_space_group_name_H-M   'P 1'
_cell_length_a   8.11696420
_cell_length_b   8.11696402
_cell_length_c   7.65725270
_cell_angle_alpha   89.98318431
_cell_angle_beta   89.98318599
_cell_angle_gamma   139.95604541
_symmetry_Int_Tables_number   1
_chemical_formula_structural   Ho4Al3Ga3Pt8
_chemical_formula_sum   'Ho4 Al3 Ga3 Pt8'
_cell_volume   324.58191314
_cell_formula_units_Z   1
loop_
 _symmetry_equiv_pos_site_id
 _symmetry_equiv_pos_as_xyz
  1  'x, y, z'
loop_
 _atom_site_type_symbol
 _atom_site_label
 _atom_site_symmetry_multiplicity
 _atom_site_fract_x
 _atom_site_fract_y
 _atom_site_fract_z
 _atom_site_occupancy
  Ho  Ho0  1  0.107372  0.893239  0.407127  1
  Ho  Ho1  1  0.892562  0.106845  0.592836  1
  Ho  Ho2  1  0.393155  0.607438  0.907164  1
  Ho  Ho3  1  0.606761  0.392628  0.092873  1
  Al  Al4  1  0.999788  0.000029  0.000059  1
  Al  Al5  1  0.499971  0.500212  0.499941  1
  Al  Al6  1  0.523653  0.976347  0.250000  1
  Ga  Ga7  1  0.022156  0.477844  0.250000  1
  Ga  Ga8  1  0.477552  0.022448  0.750000  1
  Ga  Ga9  1  0.977405  0.522595  0.750000  1
  Pt  Pt10  1  0.193136  0.306864  0.250000  1
  Pt  Pt11  1  0.307003  0.192997  0.750000  1
  Pt  Pt12  1  0.806952  0.693048  0.750000  1
  Pt  Pt13  1  0.691534  0.808466  0.250000  1
  Pt  Pt14  1  0.186842  0.821430  0.029868  1
  Pt  Pt15  1  0.815567  0.179980  0.974395  1
  Pt  Pt16  1  0.320020  0.684433  0.525605  1
  Pt  Pt17  1  0.678570  0.313158  0.470132  1
