# generated using pymatgen
data_Dy16In4IrPt3
_symmetry_space_group_name_H-M   'P 1'
_cell_length_a   9.73158850
_cell_length_b   9.72033258
_cell_length_c   9.72033200
_cell_angle_alpha   59.99999518
_cell_angle_beta   60.03824907
_cell_angle_gamma   60.03825240
_symmetry_Int_Tables_number   1
_chemical_formula_structural   Dy16In4IrPt3
_chemical_formula_sum   'Dy16 In4 Ir1 Pt3'
_cell_volume   650.55166987
_cell_formula_units_Z   1
loop_
 _symmetry_equiv_pos_site_id
 _symmetry_equiv_pos_as_xyz
  1  'x, y, z'
loop_
 _atom_site_type_symbol
 _atom_site_label
 _atom_site_symmetry_multiplicity
 _atom_site_fract_x
 _atom_site_fract_y
 _atom_site_fract_z
 _atom_site_occupancy
  Dy  Dy0  1  0.602211  0.598146  0.598146  1
  Dy  Dy1  1  0.602211  0.598146  0.201497  1
  Dy  Dy2  1  0.602211  0.201497  0.598146  1
  Dy  Dy3  1  0.199742  0.600086  0.600086  1
  Dy  Dy4  1  0.057302  0.439678  0.439678  1
  Dy  Dy5  1  0.440110  0.059680  0.059680  1
  Dy  Dy6  1  0.440110  0.059680  0.440530  1
  Dy  Dy7  1  0.057302  0.439678  0.063342  1
  Dy  Dy8  1  0.440110  0.440530  0.059680  1
  Dy  Dy9  1  0.057302  0.063342  0.439678  1
  Dy  Dy10  1  0.188303  0.811962  0.811962  1
  Dy  Dy11  1  0.812511  0.188689  0.188689  1
  Dy  Dy12  1  0.812511  0.188689  0.810112  1
  Dy  Dy13  1  0.188303  0.811962  0.187773  1
  Dy  Dy14  1  0.812511  0.810112  0.188689  1
  Dy  Dy15  1  0.188303  0.187773  0.811962  1
  In  In16  1  0.833111  0.832691  0.832691  1
  In  In17  1  0.833111  0.832691  0.501508  1
  In  In18  1  0.833111  0.501508  0.832691  1
  In  In19  1  0.500181  0.833273  0.833273  1
  Ir  Ir20  1  0.823173  0.392276  0.392276  1
  Pt  Pt21  1  0.392088  0.392504  0.392504  1
  Pt  Pt22  1  0.392088  0.392504  0.822905  1
  Pt  Pt23  1  0.392088  0.822905  0.392504  1
