# generated using pymatgen
data_DyIn(AgTe2)4
_symmetry_space_group_name_H-M   'P 1'
_cell_length_a   12.01055058
_cell_length_b   12.01055055
_cell_length_c   11.00282800
_cell_angle_alpha   90.13345834
_cell_angle_beta   90.13345834
_cell_angle_gamma   14.87961710
_symmetry_Int_Tables_number   1
_chemical_formula_structural   DyIn(AgTe2)4
_chemical_formula_sum   'Dy1 In1 Ag4 Te8'
_cell_volume   407.57295348
_cell_formula_units_Z   1
loop_
 _symmetry_equiv_pos_site_id
 _symmetry_equiv_pos_as_xyz
  1  'x, y, z'
loop_
 _atom_site_type_symbol
 _atom_site_label
 _atom_site_symmetry_multiplicity
 _atom_site_fract_x
 _atom_site_fract_y
 _atom_site_fract_z
 _atom_site_occupancy
  Dy  Dy0  1  0.500000  0.500000  0.500000  1
  In  In1  1  0.000000  0.000000  0.000000  1
  Ag  Ag2  1  0.243626  0.243626  0.139040  1
  Ag  Ag3  1  0.871234  0.871234  0.418542  1
  Ag  Ag4  1  0.128766  0.128766  0.581458  1
  Ag  Ag5  1  0.756374  0.756374  0.860960  1
  Te  Te6  1  0.910089  0.910089  0.654722  1
  Te  Te7  1  0.089911  0.089911  0.345278  1
  Te  Te8  1  0.563102  0.563102  0.758456  1
  Te  Te9  1  0.436898  0.436898  0.241544  1
  Te  Te10  1  0.654250  0.654250  0.004841  1
  Te  Te11  1  0.345750  0.345750  0.995159  1
  Te  Te12  1  0.758392  0.758392  0.359977  1
  Te  Te13  1  0.241608  0.241608  0.640023  1
