# generated using pymatgen
data_Zr8Mn7Si14Os
_symmetry_space_group_name_H-M   'P 1'
_cell_length_a   9.69339633
_cell_length_b   9.70210598
_cell_length_c   9.68844883
_cell_angle_alpha   94.05422815
_cell_angle_beta   94.04049036
_cell_angle_gamma   149.18092236
_symmetry_Int_Tables_number   1
_chemical_formula_structural   Zr8Mn7Si14Os
_chemical_formula_sum   'Zr8 Mn7 Si14 Os1'
_cell_volume   450.04556374
_cell_formula_units_Z   1
loop_
 _symmetry_equiv_pos_site_id
 _symmetry_equiv_pos_as_xyz
  1  'x, y, z'
loop_
 _atom_site_type_symbol
 _atom_site_label
 _atom_site_symmetry_multiplicity
 _atom_site_fract_x
 _atom_site_fract_y
 _atom_site_fract_z
 _atom_site_occupancy
  Zr  Zr0  1  0.139091  0.139132  0.278322  1
  Zr  Zr1  1  0.861601  0.861647  0.723150  1
  Zr  Zr2  1  0.862513  0.138981  0.000721  1
  Zr  Zr3  1  0.138249  0.861725  0.000681  1
  Zr  Zr4  1  0.501197  0.304930  0.803285  1
  Zr  Zr5  1  0.502099  0.698633  0.197856  1
  Zr  Zr6  1  0.695736  0.499144  0.197903  1
  Zr  Zr7  1  0.302277  0.498473  0.803385  1
  Mn  Mn8  1  0.102525  0.602337  0.204563  1
  Mn  Mn9  1  0.100999  0.898606  0.499580  1
  Mn  Mn10  1  0.398526  0.601159  0.499568  1
  Mn  Mn11  1  0.601239  0.396211  0.498483  1
  Mn  Mn12  1  0.897292  0.102043  0.498467  1
  Mn  Mn13  1  0.896961  0.397192  0.794347  1
  Mn  Mn14  1  0.603211  0.103313  0.206809  1
  Si  Si15  1  0.493512  0.087063  0.584823  1
  Si  Si16  1  0.496303  0.904133  0.409567  1
  Si  Si17  1  0.915516  0.507602  0.409615  1
  Si  Si18  1  0.089229  0.495702  0.584990  1
  Si  Si19  1  0.749625  0.749750  0.000645  1
  Si  Si20  1  0.251065  0.250863  0.000645  1
  Si  Si21  1  0.290668  0.290668  0.580984  1
  Si  Si22  1  0.709624  0.709638  0.419653  1
  Si  Si23  1  0.713983  0.296749  0.004683  1
  Si  Si24  1  0.290758  0.707938  0.004716  1
  Si  Si25  1  0.002692  0.299899  0.297420  1
  Si  Si26  1  0.997384  0.705207  0.701374  1
  Si  Si27  1  0.704540  0.996824  0.701373  1
  Si  Si28  1  0.294159  0.997026  0.297341  1
  Os  Os29  1  0.397430  0.897419  0.795053  1
