# generated using pymatgen
data_Dy3Er7TlPb5
_symmetry_space_group_name_H-M   'P 1'
_cell_length_a   8.99988500
_cell_length_b   8.99988407
_cell_length_c   6.62540200
_cell_angle_alpha   90.00000000
_cell_angle_beta   90.00000000
_cell_angle_gamma   120.05634757
_symmetry_Int_Tables_number   1
_chemical_formula_structural   Dy3Er7TlPb5
_chemical_formula_sum   'Dy3 Er7 Tl1 Pb5'
_cell_volume   464.48305087
_cell_formula_units_Z   1
loop_
 _symmetry_equiv_pos_site_id
 _symmetry_equiv_pos_as_xyz
  1  'x, y, z'
loop_
 _atom_site_type_symbol
 _atom_site_label
 _atom_site_symmetry_multiplicity
 _atom_site_fract_x
 _atom_site_fract_y
 _atom_site_fract_z
 _atom_site_occupancy
  Dy  Dy0  1  0.237764  0.237764  0.250000  1
  Dy  Dy1  1  0.762016  0.999540  0.250000  1
  Dy  Dy2  1  0.999540  0.762016  0.250000  1
  Er  Er3  1  0.663792  0.333712  0.997892  1
  Er  Er4  1  0.333712  0.663792  0.997892  1
  Er  Er5  1  0.333712  0.663792  0.502108  1
  Er  Er6  1  0.663792  0.333712  0.502108  1
  Er  Er7  1  0.760908  0.760908  0.750000  1
  Er  Er8  1  0.238972  0.004877  0.750000  1
  Er  Er9  1  0.004877  0.238972  0.750000  1
  Tl  Tl10  1  0.396282  0.396282  0.750000  1
  Pb  Pb11  1  0.606520  0.000894  0.750000  1
  Pb  Pb12  1  0.000894  0.606520  0.750000  1
  Pb  Pb13  1  0.603843  0.603843  0.250000  1
  Pb  Pb14  1  0.395311  0.998066  0.250000  1
  Pb  Pb15  1  0.998066  0.395311  0.250000  1
