# generated using pymatgen
data_Dy5HoSbO12
_symmetry_space_group_name_H-M   'P 1'
_cell_length_a   6.49645119
_cell_length_b   6.49516121
_cell_length_c   6.49666920
_cell_angle_alpha   98.88119119
_cell_angle_beta   98.86430259
_cell_angle_gamma   98.85614522
_symmetry_Int_Tables_number   1
_chemical_formula_structural   Dy5HoSbO12
_chemical_formula_sum   'Dy5 Ho1 Sb1 O12'
_cell_volume   263.13538239
_cell_formula_units_Z   1
loop_
 _symmetry_equiv_pos_site_id
 _symmetry_equiv_pos_as_xyz
  1  'x, y, z'
loop_
 _atom_site_type_symbol
 _atom_site_label
 _atom_site_symmetry_multiplicity
 _atom_site_fract_x
 _atom_site_fract_y
 _atom_site_fract_z
 _atom_site_occupancy
  Dy  Dy0  1  0.390834  0.696597  0.860219  1
  Dy  Dy1  1  0.860014  0.390623  0.696347  1
  Dy  Dy2  1  0.303468  0.139916  0.609271  1
  Dy  Dy3  1  0.609414  0.303356  0.139944  1
  Dy  Dy4  1  0.139650  0.609380  0.303437  1
  Ho  Ho5  1  0.696479  0.860197  0.390809  1
  Sb  Sb6  1  0.999812  0.999881  0.999938  1
  O  O7  1  0.436695  0.587748  0.178674  1
  O  O8  1  0.178188  0.436205  0.587051  1
  O  O9  1  0.587388  0.177246  0.435907  1
  O  O10  1  0.563857  0.412904  0.821904  1
  O  O11  1  0.821303  0.564918  0.412900  1
  O  O12  1  0.413806  0.821809  0.563512  1
  O  O13  1  0.928556  0.041947  0.695639  1
  O  O14  1  0.957552  0.303714  0.070808  1
  O  O15  1  0.303623  0.070848  0.957459  1
  O  O16  1  0.070503  0.957451  0.303791  1
  O  O17  1  0.042536  0.696257  0.929164  1
  O  O18  1  0.696322  0.929002  0.043226  1
