# generated using pymatgen
data_Y2Ga2PtRh
_symmetry_space_group_name_H-M   'P 1'
_cell_length_a   4.42117700
_cell_length_b   6.89214300
_cell_length_c   7.71734600
_cell_angle_alpha   90.00000000
_cell_angle_beta   90.00000000
_cell_angle_gamma   90.00000000
_symmetry_Int_Tables_number   1
_chemical_formula_structural   Y2Ga2PtRh
_chemical_formula_sum   'Y4 Ga4 Pt2 Rh2'
_cell_volume   235.15821429
_cell_formula_units_Z   2
loop_
 _symmetry_equiv_pos_site_id
 _symmetry_equiv_pos_as_xyz
  1  'x, y, z'
loop_
 _atom_site_type_symbol
 _atom_site_label
 _atom_site_symmetry_multiplicity
 _atom_site_fract_x
 _atom_site_fract_y
 _atom_site_fract_z
 _atom_site_occupancy
  Y  Y0  1  0.250000  0.983541  0.303338  1
  Y  Y1  1  0.250000  0.483541  0.196662  1
  Y  Y2  1  0.750000  0.020406  0.691391  1
  Y  Y3  1  0.750000  0.520406  0.808609  1
  Ga  Ga4  1  0.250000  0.331524  0.571298  1
  Ga  Ga5  1  0.250000  0.831524  0.928702  1
  Ga  Ga6  1  0.750000  0.664304  0.423815  1
  Ga  Ga7  1  0.750000  0.164304  0.076185  1
  Pt  Pt8  1  0.250000  0.224944  0.897880  1
  Pt  Pt9  1  0.250000  0.724944  0.602120  1
  Rh  Rh10  1  0.750000  0.775282  0.100978  1
  Rh  Rh11  1  0.750000  0.275282  0.399022  1
