# generated using pymatgen
data_Tb8Dy8Cd4Ru3Pt
_symmetry_space_group_name_H-M   'P 1'
_cell_length_a   9.65759231
_cell_length_b   9.66535704
_cell_length_c   9.70430300
_cell_angle_alpha   59.86662094
_cell_angle_beta   59.83987792
_cell_angle_gamma   59.72832949
_symmetry_Int_Tables_number   1
_chemical_formula_structural   Tb8Dy8Cd4Ru3Pt
_chemical_formula_sum   'Tb8 Dy8 Cd4 Ru3 Pt1'
_cell_volume   637.78386091
_cell_formula_units_Z   1
loop_
 _symmetry_equiv_pos_site_id
 _symmetry_equiv_pos_as_xyz
  1  'x, y, z'
loop_
 _atom_site_type_symbol
 _atom_site_label
 _atom_site_symmetry_multiplicity
 _atom_site_fract_x
 _atom_site_fract_y
 _atom_site_fract_z
 _atom_site_occupancy
  Tb  Tb0  1  0.188423  0.188057  0.811759  1
  Tb  Tb1  1  0.815415  0.805829  0.189378  1
  Tb  Tb2  1  0.937033  0.561872  0.561795  1
  Tb  Tb3  1  0.558011  0.938442  0.938422  1
  Tb  Tb4  1  0.558011  0.938442  0.565125  1
  Tb  Tb5  1  0.937033  0.561872  0.939300  1
  Tb  Tb6  1  0.557912  0.565344  0.938372  1
  Tb  Tb7  1  0.937352  0.939468  0.561590  1
  Dy  Dy8  1  0.344907  0.350512  0.349285  1
  Dy  Dy9  1  0.344907  0.350512  0.955297  1
  Dy  Dy10  1  0.344939  0.955668  0.349697  1
  Dy  Dy11  1  0.962636  0.345374  0.345995  1
  Dy  Dy12  1  0.814747  0.188906  0.189761  1
  Dy  Dy13  1  0.188049  0.811020  0.811725  1
  Dy  Dy14  1  0.188049  0.811020  0.189205  1
  Dy  Dy15  1  0.814747  0.188906  0.806587  1
  Cd  Cd16  1  0.580614  0.580030  0.580529  1
  Cd  Cd17  1  0.580614  0.580030  0.258826  1
  Cd  Cd18  1  0.580938  0.258397  0.580332  1
  Cd  Cd19  1  0.256514  0.580965  0.581259  1
  Ru  Ru20  1  0.144568  0.138862  0.137736  1
  Ru  Ru21  1  0.144568  0.138862  0.578835  1
  Ru  Ru22  1  0.145247  0.578438  0.138158  1
  Pt  Pt23  1  0.574766  0.143173  0.141031  1
