# generated using pymatgen
data_CeSm3Er4(Si3Pt)4
_symmetry_space_group_name_H-M   'P 1'
_cell_length_a   8.16139700
_cell_length_b   8.16609907
_cell_length_c   8.18386500
_cell_angle_alpha   90.00000000
_cell_angle_beta   90.00000000
_cell_angle_gamma   119.84697470
_symmetry_Int_Tables_number   1
_chemical_formula_structural   CeSm3Er4(Si3Pt)4
_chemical_formula_sum   'Ce1 Sm3 Er4 Si12 Pt4'
_cell_volume   473.08137361
_cell_formula_units_Z   1
loop_
 _symmetry_equiv_pos_site_id
 _symmetry_equiv_pos_as_xyz
  1  'x, y, z'
loop_
 _atom_site_type_symbol
 _atom_site_label
 _atom_site_symmetry_multiplicity
 _atom_site_fract_x
 _atom_site_fract_y
 _atom_site_fract_z
 _atom_site_occupancy
  Ce  Ce0  1  0.999996  0.000037  0.250000  1
  Sm  Sm1  1  0.500338  0.000720  0.250000  1
  Sm  Sm2  1  0.499543  0.999114  0.750000  1
  Sm  Sm3  1  0.999241  0.499612  0.250000  1
  Er  Er4  1  0.000690  0.500382  0.750000  1
  Er  Er5  1  0.500276  0.499676  0.250000  1
  Er  Er6  1  0.499663  0.500463  0.750000  1
  Er  Er7  1  0.999975  0.999849  0.750000  1
  Si  Si8  1  0.164806  0.329417  0.997505  1
  Si  Si9  1  0.835196  0.670576  0.997095  1
  Si  Si10  1  0.669720  0.834457  0.999537  1
  Si  Si11  1  0.835196  0.670576  0.502905  1
  Si  Si12  1  0.330357  0.165588  0.999021  1
  Si  Si13  1  0.164806  0.329417  0.502495  1
  Si  Si14  1  0.165373  0.834065  0.997322  1
  Si  Si15  1  0.330357  0.165588  0.500979  1
  Si  Si16  1  0.834629  0.165952  0.996788  1
  Si  Si17  1  0.669720  0.834457  0.500463  1
  Si  Si18  1  0.834629  0.165952  0.503212  1
  Si  Si19  1  0.165373  0.834065  0.502678  1
  Pt  Pt20  1  0.333553  0.663355  0.995827  1
  Pt  Pt21  1  0.666505  0.336664  0.993975  1
  Pt  Pt22  1  0.666505  0.336664  0.506025  1
  Pt  Pt23  1  0.333553  0.663355  0.504173  1
