# generated using pymatgen
data_Y2LuMgIr8
_symmetry_space_group_name_H-M   'P 1'
_cell_length_a   5.32009700
_cell_length_b   5.32009575
_cell_length_c   8.64281200
_cell_angle_alpha   90.00000000
_cell_angle_beta   90.00000000
_cell_angle_gamma   120.00000154
_symmetry_Int_Tables_number   1
_chemical_formula_structural   Y2LuMgIr8
_chemical_formula_sum   'Y2 Lu1 Mg1 Ir8'
_cell_volume   211.84815732
_cell_formula_units_Z   1
loop_
 _symmetry_equiv_pos_site_id
 _symmetry_equiv_pos_as_xyz
  1  'x, y, z'
loop_
 _atom_site_type_symbol
 _atom_site_label
 _atom_site_symmetry_multiplicity
 _atom_site_fract_x
 _atom_site_fract_y
 _atom_site_fract_z
 _atom_site_occupancy
  Y  Y0  1  0.333333  0.666667  0.077957  1
  Y  Y1  1  0.666667  0.333333  0.559454  1
  Lu  Lu2  1  0.666667  0.333333  0.930698  1
  Mg  Mg3  1  0.333333  0.666667  0.439661  1
  Ir  Ir4  1  0.000000  0.000000  0.997025  1
  Ir  Ir5  1  0.000000  0.000000  0.497403  1
  Ir  Ir6  1  0.830338  0.660677  0.249977  1
  Ir  Ir7  1  0.170617  0.829383  0.749291  1
  Ir  Ir8  1  0.658767  0.829383  0.749291  1
  Ir  Ir9  1  0.339323  0.169662  0.249977  1
  Ir  Ir10  1  0.830338  0.169662  0.249977  1
  Ir  Ir11  1  0.170617  0.341233  0.749291  1
