# generated using pymatgen
data_Dy3Ho13(In3Fe)2
_symmetry_space_group_name_H-M   'P 1'
_cell_length_a   10.29330600
_cell_length_b   10.29330558
_cell_length_c   7.01396700
_cell_angle_alpha   90.00000000
_cell_angle_beta   90.00000000
_cell_angle_gamma   120.00000135
_symmetry_Int_Tables_number   1
_chemical_formula_structural   Dy3Ho13(In3Fe)2
_chemical_formula_sum   'Dy3 Ho13 In6 Fe2'
_cell_volume   643.58230329
_cell_formula_units_Z   1
loop_
 _symmetry_equiv_pos_site_id
 _symmetry_equiv_pos_as_xyz
  1  'x, y, z'
loop_
 _atom_site_type_symbol
 _atom_site_label
 _atom_site_symmetry_multiplicity
 _atom_site_fract_x
 _atom_site_fract_y
 _atom_site_fract_z
 _atom_site_occupancy
  Dy  Dy0  1  0.534683  0.069365  0.506026  1
  Dy  Dy1  1  0.930635  0.465317  0.506026  1
  Dy  Dy2  1  0.534683  0.465317  0.506026  1
  Ho  Ho3  1  0.464932  0.929864  0.006566  1
  Ho  Ho4  1  0.070136  0.535068  0.006566  1
  Ho  Ho5  1  0.464932  0.535068  0.006566  1
  Ho  Ho6  1  0.178812  0.357622  0.711824  1
  Ho  Ho7  1  0.642378  0.821188  0.711824  1
  Ho  Ho8  1  0.178812  0.821188  0.711824  1
  Ho  Ho9  1  0.821346  0.642694  0.211067  1
  Ho  Ho10  1  0.357306  0.178654  0.211067  1
  Ho  Ho11  1  0.821346  0.178654  0.211067  1
  Ho  Ho12  1  0.666667  0.333333  0.892022  1
  Ho  Ho13  1  0.333333  0.666667  0.391008  1
  Ho  Ho14  1  0.000000  0.000000  0.492954  1
  Ho  Ho15  1  0.000000  0.000000  0.993565  1
  In  In16  1  0.837084  0.674167  0.753343  1
  In  In17  1  0.325833  0.162916  0.753343  1
  In  In18  1  0.837084  0.162916  0.753343  1
  In  In19  1  0.163096  0.326193  0.252781  1
  In  In20  1  0.673807  0.836904  0.252781  1
  In  In21  1  0.163096  0.836904  0.252781  1
  Fe  Fe22  1  0.666667  0.333333  0.281523  1
  Fe  Fe23  1  0.333333  0.666667  0.782149  1
