# generated using pymatgen
data_Ho3Tm2(OsO6)2
_symmetry_space_group_name_H-M   'P 1'
_cell_length_a   6.82543464
_cell_length_b   6.82543487
_cell_length_c   7.42392217
_cell_angle_alpha   74.04993623
_cell_angle_beta   74.04994397
_cell_angle_gamma   48.77425616
_symmetry_Int_Tables_number   1
_chemical_formula_structural   Ho3Tm2(OsO6)2
_chemical_formula_sum   'Ho3 Tm2 Os2 O12'
_cell_volume   248.00140335
_cell_formula_units_Z   1
loop_
 _symmetry_equiv_pos_site_id
 _symmetry_equiv_pos_as_xyz
  1  'x, y, z'
loop_
 _atom_site_type_symbol
 _atom_site_label
 _atom_site_symmetry_multiplicity
 _atom_site_fract_x
 _atom_site_fract_y
 _atom_site_fract_z
 _atom_site_occupancy
  Ho  Ho0  1  0.800583  0.800583  0.358887  1
  Ho  Ho1  1  0.199367  0.199367  0.641972  1
  Ho  Ho2  1  0.187665  0.187665  0.172134  1
  Tm  Tm3  1  0.812209  0.812209  0.827318  1
  Tm  Tm4  1  0.499883  0.499883  0.500396  1
  Os  Os5  1  0.280278  0.719868  0.999766  1
  Os  Os6  1  0.719868  0.280278  0.999766  1
  O  O7  1  0.415612  0.920048  0.912207  1
  O  O8  1  0.077888  0.587601  0.085945  1
  O  O9  1  0.587601  0.077888  0.085945  1
  O  O10  1  0.920048  0.415612  0.912207  1
  O  O11  1  0.600235  0.097107  0.573230  1
  O  O12  1  0.901616  0.400964  0.428769  1
  O  O13  1  0.400964  0.901616  0.428769  1
  O  O14  1  0.999938  0.999938  0.822931  1
  O  O15  1  0.999155  0.999155  0.176451  1
  O  O16  1  0.498087  0.498087  0.795310  1
  O  O17  1  0.501895  0.501895  0.204769  1
  O  O18  1  0.097107  0.600235  0.573230  1
