# generated using pymatgen
data_Tb3Ho14Er3Sn16
_symmetry_space_group_name_H-M   'P 1'
_cell_length_a   8.01046041
_cell_length_b   8.13933418
_cell_length_c   15.39823108
_cell_angle_alpha   90.00402732
_cell_angle_beta   90.12811628
_cell_angle_gamma   89.97778168
_symmetry_Int_Tables_number   1
_chemical_formula_structural   Tb3Ho14Er3Sn16
_chemical_formula_sum   'Tb3 Ho14 Er3 Sn16'
_cell_volume   1003.95921740
_cell_formula_units_Z   1
loop_
 _symmetry_equiv_pos_site_id
 _symmetry_equiv_pos_as_xyz
  1  'x, y, z'
loop_
 _atom_site_type_symbol
 _atom_site_label
 _atom_site_symmetry_multiplicity
 _atom_site_fract_x
 _atom_site_fract_y
 _atom_site_fract_z
 _atom_site_occupancy
  Tb  Tb0  1  0.980585  0.820637  0.403419  1
  Tb  Tb1  1  0.519162  0.321181  0.596227  1
  Tb  Tb2  1  0.019976  0.178811  0.903562  1
  Ho  Ho3  1  0.367857  0.837587  0.877587  1
  Ho  Ho4  1  0.866556  0.663079  0.622817  1
  Ho  Ho5  1  0.633271  0.162397  0.376971  1
  Ho  Ho6  1  0.132539  0.337374  0.122468  1
  Ho  Ho7  1  0.632039  0.162354  0.122554  1
  Ho  Ho8  1  0.132933  0.337464  0.377204  1
  Ho  Ho9  1  0.367383  0.837597  0.622856  1
  Ho  Ho10  1  0.868438  0.662480  0.877421  1
  Ho  Ho11  1  0.521782  0.321291  0.902590  1
  Ho  Ho12  1  0.020744  0.179231  0.597084  1
  Ho  Ho13  1  0.479290  0.679169  0.403054  1
  Ho  Ho14  1  0.978489  0.820220  0.097402  1
  Ho  Ho15  1  0.478931  0.678629  0.096648  1
  Ho  Ho16  1  0.198717  0.503867  0.750232  1
  Er  Er17  1  0.698752  0.996599  0.750225  1
  Er  Er18  1  0.801519  0.496346  0.249643  1
  Er  Er19  1  0.301520  0.003425  0.249768  1
  Sn  Sn20  1  0.292732  0.035713  0.042324  1
  Sn  Sn21  1  0.793350  0.462531  0.458118  1
  Sn  Sn22  1  0.706311  0.962883  0.541821  1
  Sn  Sn23  1  0.208014  0.537332  0.958587  1
  Sn  Sn24  1  0.706144  0.961069  0.958903  1
  Sn  Sn25  1  0.204722  0.539210  0.541144  1
  Sn  Sn26  1  0.294859  0.038737  0.458710  1
  Sn  Sn27  1  0.792568  0.462490  0.041469  1
  Sn  Sn28  1  0.565182  0.618967  0.750243  1
  Sn  Sn29  1  0.064725  0.881949  0.750131  1
  Sn  Sn30  1  0.435781  0.382170  0.249882  1
  Sn  Sn31  1  0.935515  0.118210  0.249830  1
  Sn  Sn32  1  0.330684  0.148845  0.750199  1
  Sn  Sn33  1  0.830431  0.351118  0.749516  1
  Sn  Sn34  1  0.668632  0.850209  0.249807  1
  Sn  Sn35  1  0.169869  0.648830  0.249582  1
