# generated using pymatgen
data_Tm2HgS4
_symmetry_space_group_name_H-M   'P 1'
_cell_length_a   7.92914388
_cell_length_b   7.92914382
_cell_length_c   7.92914400
_cell_angle_alpha   59.99999926
_cell_angle_beta   59.99999951
_cell_angle_gamma   60.00000424
_symmetry_Int_Tables_number   1
_chemical_formula_structural   Tm2HgS4
_chemical_formula_sum   'Tm4 Hg2 S8'
_cell_volume   352.50388779
_cell_formula_units_Z   2
loop_
 _symmetry_equiv_pos_site_id
 _symmetry_equiv_pos_as_xyz
  1  'x, y, z'
loop_
 _atom_site_type_symbol
 _atom_site_label
 _atom_site_symmetry_multiplicity
 _atom_site_fract_x
 _atom_site_fract_y
 _atom_site_fract_z
 _atom_site_occupancy
  Tm  Tm0  1  0.125000  0.125000  0.625000  1
  Tm  Tm1  1  0.125000  0.625000  0.125000  1
  Tm  Tm2  1  0.625000  0.125000  0.125000  1
  Tm  Tm3  1  0.125000  0.125000  0.125000  1
  Hg  Hg4  1  0.750000  0.750000  0.750000  1
  Hg  Hg5  1  0.500000  0.500000  0.500000  1
  S  S6  1  0.883932  0.348204  0.883932  1
  S  S7  1  0.366068  0.366068  0.901796  1
  S  S8  1  0.366068  0.366068  0.366068  1
  S  S9  1  0.901796  0.366068  0.366068  1
  S  S10  1  0.883932  0.883932  0.883932  1
  S  S11  1  0.348204  0.883932  0.883932  1
  S  S12  1  0.366068  0.901796  0.366068  1
  S  S13  1  0.883932  0.883932  0.348204  1
