# generated using pymatgen
data_Y2Ga2Os2C
_symmetry_space_group_name_H-M   'P 1'
_cell_length_a   5.87363909
_cell_length_b   5.87363851
_cell_length_c   7.03450482
_cell_angle_alpha   55.19283352
_cell_angle_beta   55.19282265
_cell_angle_gamma   40.83826083
_symmetry_Int_Tables_number   1
_chemical_formula_structural   Y2Ga2Os2C
_chemical_formula_sum   'Y2 Ga2 Os2 C1'
_cell_volume   125.86528325
_cell_formula_units_Z   1
loop_
 _symmetry_equiv_pos_site_id
 _symmetry_equiv_pos_as_xyz
  1  'x, y, z'
loop_
 _atom_site_type_symbol
 _atom_site_label
 _atom_site_symmetry_multiplicity
 _atom_site_fract_x
 _atom_site_fract_y
 _atom_site_fract_z
 _atom_site_occupancy
  Y  Y0  1  0.436661  0.436661  0.290770  1
  Y  Y1  1  0.563339  0.563339  0.709230  1
  Ga  Ga2  1  0.851419  0.851419  0.683952  1
  Ga  Ga3  1  0.148581  0.148581  0.316048  1
  Os  Os4  1  0.799776  0.799776  0.089879  1
  Os  Os5  1  0.200224  0.200224  0.910121  1
  C  C6  1  0.000000  0.000000  0.000000  1
