# generated using pymatgen
data_YLu4P12Ru19
_symmetry_space_group_name_H-M   'P 1'
_cell_length_a   12.50927206
_cell_length_b   12.50668473
_cell_length_c   3.96850500
_cell_angle_alpha   90.00000000
_cell_angle_beta   90.00000000
_cell_angle_gamma   119.99315399
_symmetry_Int_Tables_number   1
_chemical_formula_structural   YLu4P12Ru19
_chemical_formula_sum   'Y1 Lu4 P12 Ru19'
_cell_volume   537.72689572
_cell_formula_units_Z   1
loop_
 _symmetry_equiv_pos_site_id
 _symmetry_equiv_pos_as_xyz
  1  'x, y, z'
loop_
 _atom_site_type_symbol
 _atom_site_label
 _atom_site_symmetry_multiplicity
 _atom_site_fract_x
 _atom_site_fract_y
 _atom_site_fract_z
 _atom_site_occupancy
  Y  Y0  1  0.000000  0.816497  0.500000  1
  Lu  Lu1  1  0.182849  0.182694  0.500000  1
  Lu  Lu2  1  0.817151  0.999845  0.500000  1
  Lu  Lu3  1  0.333343  0.666387  0.000000  1
  Lu  Lu4  1  0.666657  0.333044  0.000000  1
  P  P5  1  0.815785  0.816739  0.000000  1
  P  P6  1  0.184215  0.000954  0.000000  1
  P  P7  1  0.000000  0.184168  0.000000  1
  P  P8  1  0.171943  0.477937  0.500000  1
  P  P9  1  0.521215  0.693547  0.500000  1
  P  P10  1  0.306483  0.828021  0.500000  1
  P  P11  1  0.693517  0.521538  0.500000  1
  P  P12  1  0.828057  0.305994  0.500000  1
  P  P13  1  0.478785  0.172332  0.500000  1
  P  P14  1  0.372246  0.372353  0.000000  1
  P  P15  1  0.627754  0.000106  0.000000  1
  P  P16  1  0.000000  0.627154  0.000000  1
  Ru  Ru17  1  0.554285  0.555038  0.000000  1
  Ru  Ru18  1  0.445715  0.000754  0.000000  1
  Ru  Ru19  1  0.000000  0.444736  0.000000  1
  Ru  Ru20  1  0.716753  0.717531  0.500000  1
  Ru  Ru21  1  0.283247  0.000777  0.500000  1
  Ru  Ru22  1  0.000000  0.281916  0.500000  1
  Ru  Ru23  1  0.185590  0.376519  0.000000  1
  Ru  Ru24  1  0.623091  0.809196  0.000000  1
  Ru  Ru25  1  0.193245  0.814814  0.000000  1
  Ru  Ru26  1  0.806755  0.621570  0.000000  1
  Ru  Ru27  1  0.814410  0.190930  0.000000  1
  Ru  Ru28  1  0.376909  0.186105  0.000000  1
  Ru  Ru29  1  0.365991  0.492731  0.500000  1
  Ru  Ru30  1  0.507056  0.873348  0.500000  1
  Ru  Ru31  1  0.126817  0.633317  0.500000  1
  Ru  Ru32  1  0.873183  0.506500  0.500000  1
  Ru  Ru33  1  0.634009  0.126739  0.500000  1
  Ru  Ru34  1  0.492944  0.366291  0.500000  1
  Ru  Ru35  1  0.000000  0.001876  0.000000  1
