# generated using pymatgen
data_Pr4YGa2Sn
_symmetry_space_group_name_H-M   'P 1'
_cell_length_a   8.05971100
_cell_length_b   8.05971100
_cell_length_c   14.60662500
_cell_angle_alpha   90.00000000
_cell_angle_beta   90.00000000
_cell_angle_gamma   90.00000000
_symmetry_Int_Tables_number   1
_chemical_formula_structural   Pr4YGa2Sn
_chemical_formula_sum   'Pr16 Y4 Ga8 Sn4'
_cell_volume   948.83089748
_cell_formula_units_Z   4
loop_
 _symmetry_equiv_pos_site_id
 _symmetry_equiv_pos_as_xyz
  1  'x, y, z'
loop_
 _atom_site_type_symbol
 _atom_site_label
 _atom_site_symmetry_multiplicity
 _atom_site_fract_x
 _atom_site_fract_y
 _atom_site_fract_z
 _atom_site_occupancy
  Pr  Pr0  1  0.825549  0.839715  0.606169  1
  Pr  Pr1  1  0.174451  0.839715  0.106169  1
  Pr  Pr2  1  0.160285  0.825549  0.393831  1
  Pr  Pr3  1  0.839715  0.174451  0.393831  1
  Pr  Pr4  1  0.674451  0.660285  0.393831  1
  Pr  Pr5  1  0.660285  0.325549  0.606169  1
  Pr  Pr6  1  0.339715  0.674451  0.606169  1
  Pr  Pr7  1  0.660285  0.674451  0.106169  1
  Pr  Pr8  1  0.674451  0.339715  0.893831  1
  Pr  Pr9  1  0.839715  0.825549  0.893831  1
  Pr  Pr10  1  0.325549  0.339715  0.393831  1
  Pr  Pr11  1  0.174451  0.160285  0.606169  1
  Pr  Pr12  1  0.825549  0.160285  0.106169  1
  Pr  Pr13  1  0.325549  0.660285  0.893831  1
  Pr  Pr14  1  0.339715  0.325549  0.106169  1
  Pr  Pr15  1  0.160285  0.174451  0.893831  1
  Y  Y16  1  0.000000  0.500000  0.731958  1
  Y  Y17  1  0.000000  0.500000  0.231958  1
  Y  Y18  1  0.500000  0.000000  0.268042  1
  Y  Y19  1  0.500000  0.000000  0.768042  1
  Ga  Ga20  1  0.626561  0.373439  0.250000  1
  Ga  Ga21  1  0.126561  0.873439  0.750000  1
  Ga  Ga22  1  0.373439  0.373439  0.750000  1
  Ga  Ga23  1  0.373439  0.626561  0.250000  1
  Ga  Ga24  1  0.873439  0.873439  0.250000  1
  Ga  Ga25  1  0.626561  0.626561  0.750000  1
  Ga  Ga26  1  0.873439  0.126561  0.750000  1
  Ga  Ga27  1  0.126561  0.126561  0.250000  1
  Sn  Sn28  1  0.000000  0.500000  0.506359  1
  Sn  Sn29  1  0.500000  0.000000  0.493641  1
  Sn  Sn30  1  0.500000  0.000000  0.993641  1
  Sn  Sn31  1  0.000000  0.500000  0.006359  1
