# generated using pymatgen
data_Ba4Al4Si3Ge
_symmetry_space_group_name_H-M   'P 1'
_cell_length_a   4.33353600
_cell_length_b   4.33353627
_cell_length_c   20.73454500
_cell_angle_alpha   90.00000000
_cell_angle_beta   90.00000000
_cell_angle_gamma   120.00001320
_symmetry_Int_Tables_number   1
_chemical_formula_structural   Ba4Al4Si3Ge
_chemical_formula_sum   'Ba4 Al4 Si3 Ge1'
_cell_volume   337.21736321
_cell_formula_units_Z   1
loop_
 _symmetry_equiv_pos_site_id
 _symmetry_equiv_pos_as_xyz
  1  'x, y, z'
loop_
 _atom_site_type_symbol
 _atom_site_label
 _atom_site_symmetry_multiplicity
 _atom_site_fract_x
 _atom_site_fract_y
 _atom_site_fract_z
 _atom_site_occupancy
  Ba  Ba0  1  0.000000  0.000000  0.498825  1
  Ba  Ba1  1  0.000000  0.000000  0.000171  1
  Ba  Ba2  1  0.000000  0.000000  0.249615  1
  Ba  Ba3  1  0.000000  0.000000  0.751843  1
  Al  Al4  1  0.333333  0.666667  0.373949  1
  Al  Al5  1  0.666667  0.333333  0.630383  1
  Al  Al6  1  0.666667  0.333333  0.874674  1
  Al  Al7  1  0.333333  0.666667  0.125088  1
  Si  Si8  1  0.333333  0.666667  0.877453  1
  Si  Si9  1  0.666667  0.333333  0.124076  1
  Si  Si10  1  0.666667  0.333333  0.374962  1
  Ge  Ge11  1  0.333333  0.666667  0.618959  1
