# generated using pymatgen
data_RbLa(BrO3)4
_symmetry_space_group_name_H-M   'P 1'
_cell_length_a   7.15191691
_cell_length_b   7.06682951
_cell_length_c   7.37578800
_cell_angle_alpha   76.97187143
_cell_angle_beta   73.00309236
_cell_angle_gamma   116.50711705
_symmetry_Int_Tables_number   1
_chemical_formula_structural   RbLa(BrO3)4
_chemical_formula_sum   'Rb1 La1 Br4 O12'
_cell_volume   290.12861978
_cell_formula_units_Z   1
loop_
 _symmetry_equiv_pos_site_id
 _symmetry_equiv_pos_as_xyz
  1  'x, y, z'
loop_
 _atom_site_type_symbol
 _atom_site_label
 _atom_site_symmetry_multiplicity
 _atom_site_fract_x
 _atom_site_fract_y
 _atom_site_fract_z
 _atom_site_occupancy
  Rb  Rb0  1  0.394152  0.627201  0.485552  1
  La  La1  1  0.629284  0.370219  0.997011  1
  Br  Br2  1  0.406145  0.780834  0.953237  1
  Br  Br3  1  0.793152  0.404332  0.430361  1
  Br  Br4  1  0.976846  0.112521  0.038312  1
  Br  Br5  1  0.073717  0.961124  0.532063  1
  O  O6  1  0.451233  0.584489  0.077425  1
  O  O7  1  0.640410  0.424676  0.640831  1
  O  O8  1  0.745118  0.532950  0.240225  1
  O  O9  1  0.564989  0.867005  0.703281  1
  O  O10  1  0.567609  0.006297  0.005134  1
  O  O11  1  0.069384  0.605146  0.358416  1
  O  O12  1  0.027238  0.380446  0.921435  1
  O  O13  1  0.359957  0.069556  0.384252  1
  O  O14  1  0.001946  0.747993  0.753962  1
  O  O15  1  0.830413  0.049457  0.288236  1
  O  O16  1  0.235895  0.154206  0.013670  1
  O  O17  1  0.075114  0.164148  0.609196  1
