# generated using pymatgen
data_YbCeLu2(B6Ru)2
_symmetry_space_group_name_H-M   'P 1'
_cell_length_a   3.64599000
_cell_length_b   9.09818204
_cell_length_c   11.48615181
_cell_angle_alpha   90.21369671
_cell_angle_beta   90.00000000
_cell_angle_gamma   90.00000000
_symmetry_Int_Tables_number   1
_chemical_formula_structural   YbCeLu2(B6Ru)2
_chemical_formula_sum   'Yb2 Ce2 Lu4 B24 Ru4'
_cell_volume   381.01460767
_cell_formula_units_Z   2
loop_
 _symmetry_equiv_pos_site_id
 _symmetry_equiv_pos_as_xyz
  1  'x, y, z'
loop_
 _atom_site_type_symbol
 _atom_site_label
 _atom_site_symmetry_multiplicity
 _atom_site_fract_x
 _atom_site_fract_y
 _atom_site_fract_z
 _atom_site_occupancy
  Yb  Yb0  1  0.000000  0.824891  0.084684  1
  Yb  Yb1  1  0.000000  0.175109  0.915316  1
  Ce  Ce2  1  0.000000  0.321659  0.413933  1
  Ce  Ce3  1  0.000000  0.678341  0.586067  1
  Lu  Lu4  1  0.000000  0.944793  0.370765  1
  Lu  Lu5  1  0.000000  0.055207  0.629235  1
  Lu  Lu6  1  0.000000  0.443096  0.126717  1
  Lu  Lu7  1  0.000000  0.556904  0.873283  1
  B  B8  1  0.500000  0.555321  0.431391  1
  B  B9  1  0.500000  0.444679  0.568609  1
  B  B10  1  0.500000  0.054693  0.067725  1
  B  B11  1  0.500000  0.945307  0.932275  1
  B  B12  1  0.500000  0.750598  0.417628  1
  B  B13  1  0.500000  0.249402  0.582372  1
  B  B14  1  0.500000  0.249007  0.081224  1
  B  B15  1  0.500000  0.750993  0.918776  1
  B  B16  1  0.500000  0.791931  0.264228  1
  B  B17  1  0.500000  0.208069  0.735772  1
  B  B18  1  0.500000  0.291874  0.233689  1
  B  B19  1  0.500000  0.708126  0.766311  1
  B  B20  1  0.500000  0.631604  0.183182  1
  B  B21  1  0.500000  0.368396  0.816818  1
  B  B22  1  0.500000  0.130873  0.315135  1
  B  B23  1  0.500000  0.869127  0.684865  1
  B  B24  1  0.500000  0.983635  0.212128  1
  B  B25  1  0.500000  0.016365  0.787872  1
  B  B26  1  0.500000  0.484746  0.285537  1
  B  B27  1  0.500000  0.515254  0.714463  1
  B  B28  1  0.500000  0.601302  0.027699  1
  B  B29  1  0.500000  0.398698  0.972301  1
  B  B30  1  0.500000  0.103033  0.472087  1
  B  B31  1  0.500000  0.896967  0.527913  1
  Ru  Ru32  1  0.000000  0.638842  0.320316  1
  Ru  Ru33  1  0.000000  0.361158  0.679684  1
  Ru  Ru34  1  0.000000  0.140799  0.181924  1
  Ru  Ru35  1  0.000000  0.859201  0.818076  1
