# generated using pymatgen
data_Ce6ZnSb8Pt3Rh2
_symmetry_space_group_name_H-M   'P 1'
_cell_length_a   8.53096297
_cell_length_b   8.53109427
_cell_length_c   8.52885634
_cell_angle_alpha   109.16040510
_cell_angle_beta   109.89048182
_cell_angle_gamma   109.35951021
_symmetry_Int_Tables_number   1
_chemical_formula_structural   Ce6ZnSb8Pt3Rh2
_chemical_formula_sum   'Ce6 Zn1 Sb8 Pt3 Rh2'
_cell_volume   477.83180518
_cell_formula_units_Z   1
loop_
 _symmetry_equiv_pos_site_id
 _symmetry_equiv_pos_as_xyz
  1  'x, y, z'
loop_
 _atom_site_type_symbol
 _atom_site_label
 _atom_site_symmetry_multiplicity
 _atom_site_fract_x
 _atom_site_fract_y
 _atom_site_fract_z
 _atom_site_occupancy
  Ce  Ce0  1  0.878994  0.254574  0.127843  1
  Ce  Ce1  1  0.621274  0.749003  0.375992  1
  Ce  Ce2  1  0.243752  0.117171  0.879438  1
  Ce  Ce3  1  0.762605  0.383269  0.626899  1
  Ce  Ce4  1  0.122267  0.861261  0.239044  1
  Ce  Ce5  1  0.371288  0.634081  0.751815  1
  Zn  Zn6  1  0.375565  0.249323  0.624499  1
  Sb  Sb7  1  0.664447  0.501234  0.999028  1
  Sb  Sb8  1  0.495693  0.995633  0.662295  1
  Sb  Sb9  1  0.004619  0.671746  0.500377  1
  Sb  Sb10  1  0.831320  0.828216  0.831539  1
  Sb  Sb11  1  0.497372  0.999320  0.168402  1
  Sb  Sb12  1  0.170942  0.502352  0.001071  1
  Sb  Sb13  1  0.000829  0.165453  0.501530  1
  Sb  Sb14  1  0.333812  0.335956  0.335513  1
  Pt  Pt15  1  0.749477  0.877232  0.124854  1
  Pt  Pt16  1  0.626474  0.375172  0.250689  1
  Pt  Pt17  1  0.875135  0.125822  0.752781  1
  Rh  Rh18  1  0.124753  0.749755  0.872987  1
  Rh  Rh19  1  0.249383  0.623429  0.373401  1
