# generated using pymatgen
data_Hf4TaGaRh10
_symmetry_space_group_name_H-M   'P 1'
_cell_length_a   4.16586700
_cell_length_b   5.57068302
_cell_length_c   10.92965704
_cell_angle_alpha   90.00953502
_cell_angle_beta   90.00000000
_cell_angle_gamma   90.00000000
_symmetry_Int_Tables_number   1
_chemical_formula_structural   Hf4TaGaRh10
_chemical_formula_sum   'Hf4 Ta1 Ga1 Rh10'
_cell_volume   253.64153689
_cell_formula_units_Z   1
loop_
 _symmetry_equiv_pos_site_id
 _symmetry_equiv_pos_as_xyz
  1  'x, y, z'
loop_
 _atom_site_type_symbol
 _atom_site_label
 _atom_site_symmetry_multiplicity
 _atom_site_fract_x
 _atom_site_fract_y
 _atom_site_fract_z
 _atom_site_occupancy
  Hf  Hf0  1  0.500000  0.169569  0.647178  1
  Hf  Hf1  1  0.500000  0.830431  0.352822  1
  Hf  Hf2  1  0.500000  0.684792  0.862766  1
  Hf  Hf3  1  0.500000  0.315208  0.137234  1
  Ta  Ta4  1  0.000000  0.500000  0.500000  1
  Ga  Ga5  1  0.000000  0.000000  0.000000  1
  Rh  Rh6  1  0.500000  0.196087  0.891168  1
  Rh  Rh7  1  0.500000  0.803913  0.108832  1
  Rh  Rh8  1  0.500000  0.688715  0.605455  1
  Rh  Rh9  1  0.500000  0.311285  0.394545  1
  Rh  Rh10  1  0.000000  0.427894  0.742288  1
  Rh  Rh11  1  0.000000  0.572106  0.257712  1
  Rh  Rh12  1  0.000000  0.000000  0.500000  1
  Rh  Rh13  1  0.000000  0.500000  0.000000  1
  Rh  Rh14  1  0.000000  0.069283  0.242376  1
  Rh  Rh15  1  0.000000  0.930717  0.757624  1
