# generated using pymatgen
data_Rb2US3
_symmetry_space_group_name_H-M   'P 1'
_cell_length_a   7.39129677
_cell_length_b   7.39129703
_cell_length_c   8.12129400
_cell_angle_alpha   80.94201017
_cell_angle_beta   80.94201604
_cell_angle_gamma   119.75849227
_symmetry_Int_Tables_number   1
_chemical_formula_structural   Rb2US3
_chemical_formula_sum   'Rb4 U2 S6'
_cell_volume   365.72148432
_cell_formula_units_Z   2
loop_
 _symmetry_equiv_pos_site_id
 _symmetry_equiv_pos_as_xyz
  1  'x, y, z'
loop_
 _atom_site_type_symbol
 _atom_site_label
 _atom_site_symmetry_multiplicity
 _atom_site_fract_x
 _atom_site_fract_y
 _atom_site_fract_z
 _atom_site_occupancy
  Rb  Rb0  1  0.500000  0.500000  0.000000  1
  Rb  Rb1  1  0.654483  0.345517  0.500000  1
  Rb  Rb2  1  0.345517  0.654483  0.500000  1
  Rb  Rb3  1  0.000000  0.000000  0.500000  1
  U  U4  1  0.832063  0.167937  0.000000  1
  U  U5  1  0.167937  0.832063  0.000000  1
  S  S6  1  0.819012  0.819012  0.195028  1
  S  S7  1  0.180988  0.180988  0.804972  1
  S  S8  1  0.432069  0.044391  0.198541  1
  S  S9  1  0.567931  0.955609  0.801459  1
  S  S10  1  0.955609  0.567931  0.801459  1
  S  S11  1  0.044391  0.432069  0.198541  1
