# generated using pymatgen
data_LaNd2Ga6(Ni2Pd)3
_symmetry_space_group_name_H-M   'P 1'
_cell_length_a   9.08317300
_cell_length_b   9.08317363
_cell_length_c   4.20711600
_cell_angle_alpha   90.00000000
_cell_angle_beta   90.00000000
_cell_angle_gamma   120.00000136
_symmetry_Int_Tables_number   1
_chemical_formula_structural   LaNd2Ga6(Ni2Pd)3
_chemical_formula_sum   'La1 Nd2 Ga6 Ni6 Pd3'
_cell_volume   300.60092612
_cell_formula_units_Z   1
loop_
 _symmetry_equiv_pos_site_id
 _symmetry_equiv_pos_as_xyz
  1  'x, y, z'
loop_
 _atom_site_type_symbol
 _atom_site_label
 _atom_site_symmetry_multiplicity
 _atom_site_fract_x
 _atom_site_fract_y
 _atom_site_fract_z
 _atom_site_occupancy
  La  La0  1  0.000000  0.000000  0.000000  1
  Nd  Nd1  1  0.333333  0.666667  0.500000  1
  Nd  Nd2  1  0.666667  0.333333  0.500000  1
  Ga  Ga3  1  0.463374  0.000000  0.000000  1
  Ga  Ga4  1  0.000000  0.463374  0.000000  1
  Ga  Ga5  1  0.536626  0.536626  0.000000  1
  Ga  Ga6  1  0.713992  0.000000  0.500000  1
  Ga  Ga7  1  0.000000  0.713992  0.500000  1
  Ga  Ga8  1  0.286008  0.286008  0.500000  1
  Ni  Ni9  1  0.221621  0.384475  0.000000  1
  Ni  Ni10  1  0.615525  0.837146  0.000000  1
  Ni  Ni11  1  0.162854  0.778379  0.000000  1
  Ni  Ni12  1  0.837146  0.615525  0.000000  1
  Ni  Ni13  1  0.778379  0.162854  0.000000  1
  Ni  Ni14  1  0.384475  0.221621  0.000000  1
  Pd  Pd15  1  0.284588  0.000000  0.500000  1
  Pd  Pd16  1  0.000000  0.284588  0.500000  1
  Pd  Pd17  1  0.715412  0.715412  0.500000  1
