# generated using pymatgen
data_Ho2MnCo6(P2Ir)3
_symmetry_space_group_name_H-M   'P 1'
_cell_length_a   3.75658900
_cell_length_b   10.38068100
_cell_length_c   12.10374800
_cell_angle_alpha   90.00000000
_cell_angle_beta   90.00000000
_cell_angle_gamma   90.00000000
_symmetry_Int_Tables_number   1
_chemical_formula_structural   Ho2MnCo6(P2Ir)3
_chemical_formula_sum   'Ho4 Mn2 Co12 P12 Ir6'
_cell_volume   471.99717672
_cell_formula_units_Z   2
loop_
 _symmetry_equiv_pos_site_id
 _symmetry_equiv_pos_as_xyz
  1  'x, y, z'
loop_
 _atom_site_type_symbol
 _atom_site_label
 _atom_site_symmetry_multiplicity
 _atom_site_fract_x
 _atom_site_fract_y
 _atom_site_fract_z
 _atom_site_occupancy
  Ho  Ho0  1  0.250000  0.584984  0.712244  1
  Ho  Ho1  1  0.250000  0.915016  0.212244  1
  Ho  Ho2  1  0.750000  0.419126  0.288486  1
  Ho  Ho3  1  0.750000  0.080874  0.788486  1
  Mn  Mn4  1  0.250000  0.710265  0.987858  1
  Mn  Mn5  1  0.250000  0.789735  0.487858  1
  Co  Co6  1  0.250000  0.223652  0.176142  1
  Co  Co7  1  0.250000  0.276348  0.676142  1
  Co  Co8  1  0.750000  0.776685  0.822383  1
  Co  Co9  1  0.750000  0.723315  0.322383  1
  Co  Co10  1  0.250000  0.881383  0.695964  1
  Co  Co11  1  0.250000  0.618617  0.195964  1
  Co  Co12  1  0.750000  0.117854  0.303073  1
  Co  Co13  1  0.750000  0.382146  0.803073  1
  Co  Co14  1  0.250000  0.463319  0.934043  1
  Co  Co15  1  0.250000  0.036681  0.434043  1
  Co  Co16  1  0.750000  0.537520  0.064951  1
  Co  Co17  1  0.750000  0.962480  0.564951  1
  P  P18  1  0.250000  0.425023  0.112307  1
  P  P19  1  0.250000  0.074977  0.612307  1
  P  P20  1  0.750000  0.579409  0.888017  1
  P  P21  1  0.750000  0.920591  0.388017  1
  P  P22  1  0.250000  0.273541  0.858789  1
  P  P23  1  0.250000  0.226459  0.358789  1
  P  P24  1  0.750000  0.725825  0.138762  1
  P  P25  1  0.750000  0.774175  0.638762  1
  P  P26  1  0.250000  0.606528  0.379547  1
  P  P27  1  0.250000  0.893472  0.879547  1
  P  P28  1  0.750000  0.399186  0.621594  1
  P  P29  1  0.750000  0.100814  0.121594  1
  Ir  Ir30  1  0.750000  0.290507  0.017476  1
  Ir  Ir31  1  0.750000  0.209493  0.517476  1
  Ir  Ir32  1  0.250000  0.404127  0.477948  1
  Ir  Ir33  1  0.250000  0.095873  0.977948  1
  Ir  Ir34  1  0.750000  0.596288  0.520415  1
  Ir  Ir35  1  0.750000  0.903712  0.020415  1
