# generated using pymatgen
data_Tb2Ho3Bi2Ir
_symmetry_space_group_name_H-M   'P 1'
_cell_length_a   8.00978100
_cell_length_b   9.01528800
_cell_length_c   12.50987300
_cell_angle_alpha   90.00000000
_cell_angle_beta   90.00000000
_cell_angle_gamma   90.00000000
_symmetry_Int_Tables_number   1
_chemical_formula_structural   Tb2Ho3Bi2Ir
_chemical_formula_sum   'Tb8 Ho12 Bi8 Ir4'
_cell_volume   903.34396574
_cell_formula_units_Z   4
loop_
 _symmetry_equiv_pos_site_id
 _symmetry_equiv_pos_as_xyz
  1  'x, y, z'
loop_
 _atom_site_type_symbol
 _atom_site_label
 _atom_site_symmetry_multiplicity
 _atom_site_fract_x
 _atom_site_fract_y
 _atom_site_fract_z
 _atom_site_occupancy
  Tb  Tb0  1  0.342874  0.750000  0.705325  1
  Tb  Tb1  1  0.657126  0.250000  0.294675  1
  Tb  Tb2  1  0.842874  0.250000  0.794675  1
  Tb  Tb3  1  0.157126  0.750000  0.205325  1
  Tb  Tb4  1  0.879010  0.750000  0.806059  1
  Tb  Tb5  1  0.120990  0.250000  0.193941  1
  Tb  Tb6  1  0.379010  0.250000  0.693941  1
  Tb  Tb7  1  0.620990  0.750000  0.306059  1
  Ho  Ho8  1  0.677454  0.541655  0.564741  1
  Ho  Ho9  1  0.322546  0.458345  0.435259  1
  Ho  Ho10  1  0.177454  0.458345  0.935259  1
  Ho  Ho11  1  0.322546  0.041655  0.435259  1
  Ho  Ho12  1  0.822546  0.541655  0.064741  1
  Ho  Ho13  1  0.677454  0.958345  0.564741  1
  Ho  Ho14  1  0.822546  0.958345  0.064741  1
  Ho  Ho15  1  0.177454  0.041655  0.935259  1
  Ho  Ho16  1  0.053314  0.750000  0.498524  1
  Ho  Ho17  1  0.946686  0.250000  0.501476  1
  Ho  Ho18  1  0.553314  0.250000  0.001476  1
  Ho  Ho19  1  0.446686  0.750000  0.998524  1
  Bi  Bi20  1  0.570245  0.509316  0.828197  1
  Bi  Bi21  1  0.429755  0.490684  0.171803  1
  Bi  Bi22  1  0.070245  0.490684  0.671803  1
  Bi  Bi23  1  0.429755  0.009316  0.171803  1
  Bi  Bi24  1  0.929755  0.509316  0.328197  1
  Bi  Bi25  1  0.570245  0.990684  0.828197  1
  Bi  Bi26  1  0.929755  0.990684  0.328197  1
  Bi  Bi27  1  0.070245  0.009316  0.671803  1
  Ir  Ir28  1  0.069017  0.750000  0.990904  1
  Ir  Ir29  1  0.930983  0.250000  0.009096  1
  Ir  Ir30  1  0.569017  0.250000  0.509096  1
  Ir  Ir31  1  0.430983  0.750000  0.490904  1
