# generated using pymatgen
data_YbEr2Tm7(In2Pt)4
_symmetry_space_group_name_H-M   'P 1'
_cell_length_a   3.56789300
_cell_length_b   8.13403465
_cell_length_c   18.21807586
_cell_angle_alpha   89.88135890
_cell_angle_beta   90.00000000
_cell_angle_gamma   90.00000000
_symmetry_Int_Tables_number   1
_chemical_formula_structural   YbEr2Tm7(In2Pt)4
_chemical_formula_sum   'Yb1 Er2 Tm7 In8 Pt4'
_cell_volume   528.71230075
_cell_formula_units_Z   1
loop_
 _symmetry_equiv_pos_site_id
 _symmetry_equiv_pos_as_xyz
  1  'x, y, z'
loop_
 _atom_site_type_symbol
 _atom_site_label
 _atom_site_symmetry_multiplicity
 _atom_site_fract_x
 _atom_site_fract_y
 _atom_site_fract_z
 _atom_site_occupancy
  Yb  Yb0  1  0.000000  0.999985  0.999983  1
  Er  Er1  1  0.000000  0.117364  0.414777  1
  Er  Er2  1  0.000000  0.500130  0.500042  1
  Tm  Tm3  1  0.000000  0.882967  0.585605  1
  Tm  Tm4  1  0.000000  0.381263  0.913833  1
  Tm  Tm5  1  0.000000  0.618698  0.086134  1
  Tm  Tm6  1  0.000000  0.243247  0.221260  1
  Tm  Tm7  1  0.000000  0.756647  0.778676  1
  Tm  Tm8  1  0.000000  0.257116  0.720867  1
  Tm  Tm9  1  0.000000  0.742852  0.279078  1
  In  In10  1  0.500000  0.423791  0.351825  1
  In  In11  1  0.500000  0.576323  0.648114  1
  In  In12  1  0.500000  0.074720  0.850763  1
  In  In13  1  0.500000  0.925190  0.149150  1
  In  In14  1  0.500000  0.293898  0.067268  1
  In  In15  1  0.500000  0.706110  0.932682  1
  In  In16  1  0.500000  0.208374  0.566738  1
  In  In17  1  0.500000  0.791501  0.433323  1
  Pt  Pt18  1  0.500000  0.024876  0.303994  1
  Pt  Pt19  1  0.500000  0.974990  0.695922  1
  Pt  Pt20  1  0.500000  0.476161  0.803121  1
  Pt  Pt21  1  0.500000  0.523797  0.196846  1
