# generated using pymatgen
data_Li4CeZrBr12
_symmetry_space_group_name_H-M   'P 1'
_cell_length_a   6.89497100
_cell_length_b   6.89497121
_cell_length_c   27.06004100
_cell_angle_alpha   90.00000000
_cell_angle_beta   90.00000000
_cell_angle_gamma   120.00000378
_symmetry_Int_Tables_number   1
_chemical_formula_structural   Li4CeZrBr12
_chemical_formula_sum   'Li8 Ce2 Zr2 Br24'
_cell_volume   1114.09946719
_cell_formula_units_Z   2
loop_
 _symmetry_equiv_pos_site_id
 _symmetry_equiv_pos_as_xyz
  1  'x, y, z'
loop_
 _atom_site_type_symbol
 _atom_site_label
 _atom_site_symmetry_multiplicity
 _atom_site_fract_x
 _atom_site_fract_y
 _atom_site_fract_z
 _atom_site_occupancy
  Li  Li0  1  0.000000  0.000000  0.250000  1
  Li  Li1  1  0.000000  0.000000  0.750000  1
  Li  Li2  1  0.333333  0.666667  0.001097  1
  Li  Li3  1  0.333333  0.666667  0.498903  1
  Li  Li4  1  0.333333  0.666667  0.250000  1
  Li  Li5  1  0.666667  0.333333  0.750000  1
  Li  Li6  1  0.666667  0.333333  0.998903  1
  Li  Li7  1  0.666667  0.333333  0.501097  1
  Ce  Ce8  1  0.333333  0.666667  0.750000  1
  Ce  Ce9  1  0.666667  0.333333  0.250000  1
  Zr  Zr10  1  0.000000  0.000000  0.000000  1
  Zr  Zr11  1  0.000000  0.000000  0.500000  1
  Br  Br12  1  0.330470  0.996943  0.307948  1
  Br  Br13  1  0.333526  0.003057  0.807948  1
  Br  Br14  1  0.999174  0.317507  0.055914  1
  Br  Br15  1  0.000826  0.318332  0.555914  1
  Br  Br16  1  0.003057  0.333526  0.307948  1
  Br  Br17  1  0.996943  0.330470  0.807948  1
  Br  Br18  1  0.330470  0.333526  0.192052  1
  Br  Br19  1  0.333526  0.330470  0.692052  1
  Br  Br20  1  0.318332  0.317507  0.444086  1
  Br  Br21  1  0.317507  0.318332  0.944086  1
  Br  Br22  1  0.682493  0.000826  0.444086  1
  Br  Br23  1  0.318332  0.000826  0.055914  1
  Br  Br24  1  0.317507  0.999174  0.555914  1
  Br  Br25  1  0.682493  0.681668  0.055914  1
  Br  Br26  1  0.681668  0.682493  0.555914  1
  Br  Br27  1  0.666474  0.669530  0.307948  1
  Br  Br28  1  0.669530  0.666474  0.807948  1
  Br  Br29  1  0.003057  0.669530  0.192052  1
  Br  Br30  1  0.996943  0.666474  0.692052  1
  Br  Br31  1  0.999174  0.681668  0.444086  1
  Br  Br32  1  0.000826  0.682493  0.944086  1
  Br  Br33  1  0.681668  0.999174  0.944086  1
  Br  Br34  1  0.666474  0.996943  0.192052  1
  Br  Br35  1  0.669530  0.003057  0.692052  1
