# generated using pymatgen
data_Ho12Tc3Sn2
_symmetry_space_group_name_H-M   'P 1'
_cell_length_a   8.43656216
_cell_length_b   8.43656219
_cell_length_c   8.43656288
_cell_angle_alpha   109.10721796
_cell_angle_beta   109.10721277
_cell_angle_gamma   110.20171469
_symmetry_Int_Tables_number   1
_chemical_formula_structural   Ho12Tc3Sn2
_chemical_formula_sum   'Ho12 Tc3 Sn2'
_cell_volume   462.19115300
_cell_formula_units_Z   1
loop_
 _symmetry_equiv_pos_site_id
 _symmetry_equiv_pos_as_xyz
  1  'x, y, z'
loop_
 _atom_site_type_symbol
 _atom_site_label
 _atom_site_symmetry_multiplicity
 _atom_site_fract_x
 _atom_site_fract_y
 _atom_site_fract_z
 _atom_site_occupancy
  Ho  Ho0  1  0.306052  0.306052  0.612106  1
  Ho  Ho1  1  0.693948  0.693948  0.387894  1
  Ho  Ho2  1  0.693948  0.306052  0.000000  1
  Ho  Ho3  1  0.306052  0.693948  0.000000  1
  Ho  Ho4  1  0.190829  0.430618  0.239789  1
  Ho  Ho5  1  0.809171  0.569382  0.760211  1
  Ho  Ho6  1  0.190829  0.951038  0.760211  1
  Ho  Ho7  1  0.951038  0.190829  0.760211  1
  Ho  Ho8  1  0.809171  0.048962  0.239789  1
  Ho  Ho9  1  0.048962  0.809171  0.239789  1
  Ho  Ho10  1  0.430618  0.190829  0.239789  1
  Ho  Ho11  1  0.569382  0.809171  0.760211  1
  Tc  Tc12  1  0.369945  0.369945  0.000000  1
  Tc  Tc13  1  0.630055  0.630055  0.000000  1
  Tc  Tc14  1  0.000000  0.000000  0.000000  1
  Sn  Sn15  1  0.000000  0.500000  0.500000  1
  Sn  Sn16  1  0.500000  0.000000  0.500000  1
