# generated using pymatgen
data_SmPa3Pt4
_symmetry_space_group_name_H-M   'P 1'
_cell_length_a   4.38905100
_cell_length_b   5.73117525
_cell_length_c   7.27699246
_cell_angle_alpha   89.79989896
_cell_angle_beta   90.00000000
_cell_angle_gamma   90.00000000
_symmetry_Int_Tables_number   1
_chemical_formula_structural   SmPa3Pt4
_chemical_formula_sum   'Sm1 Pa3 Pt4'
_cell_volume   183.04741179
_cell_formula_units_Z   1
loop_
 _symmetry_equiv_pos_site_id
 _symmetry_equiv_pos_as_xyz
  1  'x, y, z'
loop_
 _atom_site_type_symbol
 _atom_site_label
 _atom_site_symmetry_multiplicity
 _atom_site_fract_x
 _atom_site_fract_y
 _atom_site_fract_z
 _atom_site_occupancy
  Sm  Sm0  1  0.250000  0.849114  0.682020  1
  Pa  Pa1  1  0.250000  0.652011  0.179752  1
  Pa  Pa2  1  0.750000  0.352973  0.816038  1
  Pa  Pa3  1  0.750000  0.145495  0.321383  1
  Pt  Pt4  1  0.250000  0.177707  0.054339  1
  Pt  Pt5  1  0.750000  0.837167  0.962701  1
  Pt  Pt6  1  0.750000  0.652775  0.438530  1
  Pt  Pt7  1  0.250000  0.332758  0.545237  1
