# generated using pymatgen
data_Er10In3Bi2Te
_symmetry_space_group_name_H-M   'P 1'
_cell_length_a   8.97588500
_cell_length_b   8.96774692
_cell_length_c   6.55859600
_cell_angle_alpha   90.00000000
_cell_angle_beta   90.00000000
_cell_angle_gamma   119.87060591
_symmetry_Int_Tables_number   1
_chemical_formula_structural   Er10In3Bi2Te
_chemical_formula_sum   'Er10 In3 Bi2 Te1'
_cell_volume   457.79065037
_cell_formula_units_Z   1
loop_
 _symmetry_equiv_pos_site_id
 _symmetry_equiv_pos_as_xyz
  1  'x, y, z'
loop_
 _atom_site_type_symbol
 _atom_site_label
 _atom_site_symmetry_multiplicity
 _atom_site_fract_x
 _atom_site_fract_y
 _atom_site_fract_z
 _atom_site_occupancy
  Er  Er0  1  0.672828  0.334837  0.002665  1
  Er  Er1  1  0.325528  0.668284  0.002771  1
  Er  Er2  1  0.325528  0.668284  0.497229  1
  Er  Er3  1  0.672828  0.334837  0.497335  1
  Er  Er4  1  0.770045  0.760664  0.750000  1
  Er  Er5  1  0.229451  0.988535  0.750000  1
  Er  Er6  1  0.997548  0.238828  0.750000  1
  Er  Er7  1  0.233728  0.235245  0.250000  1
  Er  Er8  1  0.766059  0.008132  0.250000  1
  Er  Er9  1  0.006350  0.764557  0.250000  1
  In  In10  1  0.997159  0.597672  0.750000  1
  In  In11  1  0.397358  0.004023  0.250000  1
  In  In12  1  0.000393  0.396775  0.250000  1
  Bi  Bi13  1  0.393820  0.392215  0.750000  1
  Bi  Bi14  1  0.604286  0.997006  0.750000  1
  Te  Te15  1  0.607091  0.610106  0.250000  1
