# generated using pymatgen
data_CaDy5Y2(B6Ru)4
_symmetry_space_group_name_H-M   'P 1'
_cell_length_a   3.66889900
_cell_length_b   9.15941832
_cell_length_c   11.54864002
_cell_angle_alpha   89.88849821
_cell_angle_beta   90.00000000
_cell_angle_gamma   90.00000000
_symmetry_Int_Tables_number   1
_chemical_formula_structural   CaDy5Y2(B6Ru)4
_chemical_formula_sum   'Ca1 Dy5 Y2 B24 Ru4'
_cell_volume   388.09109012
_cell_formula_units_Z   1
loop_
 _symmetry_equiv_pos_site_id
 _symmetry_equiv_pos_as_xyz
  1  'x, y, z'
loop_
 _atom_site_type_symbol
 _atom_site_label
 _atom_site_symmetry_multiplicity
 _atom_site_fract_x
 _atom_site_fract_y
 _atom_site_fract_z
 _atom_site_occupancy
  Ca  Ca0  1  0.000000  0.323177  0.413855  1
  Dy  Dy1  1  0.000000  0.177336  0.914521  1
  Dy  Dy2  1  0.000000  0.944019  0.370991  1
  Dy  Dy3  1  0.000000  0.057903  0.628349  1
  Dy  Dy4  1  0.000000  0.442981  0.129681  1
  Dy  Dy5  1  0.000000  0.556100  0.872155  1
  Y  Y6  1  0.000000  0.675442  0.585005  1
  Y  Y7  1  0.000000  0.822926  0.086315  1
  B  B8  1  0.500000  0.554536  0.432472  1
  B  B9  1  0.500000  0.446011  0.567844  1
  B  B10  1  0.500000  0.053491  0.066569  1
  B  B11  1  0.500000  0.945808  0.932259  1
  B  B12  1  0.500000  0.748257  0.419114  1
  B  B13  1  0.500000  0.252481  0.581415  1
  B  B14  1  0.500000  0.247217  0.080280  1
  B  B15  1  0.500000  0.752119  0.919511  1
  B  B16  1  0.500000  0.791348  0.266197  1
  B  B17  1  0.500000  0.209877  0.734177  1
  B  B18  1  0.500000  0.289583  0.232920  1
  B  B19  1  0.500000  0.709425  0.766592  1
  B  B20  1  0.500000  0.632467  0.186025  1
  B  B21  1  0.500000  0.368044  0.815097  1
  B  B22  1  0.500000  0.131190  0.313442  1
  B  B23  1  0.500000  0.868291  0.685445  1
  B  B24  1  0.500000  0.983794  0.211668  1
  B  B25  1  0.500000  0.016081  0.787420  1
  B  B26  1  0.500000  0.484823  0.287560  1
  B  B27  1  0.500000  0.515890  0.712892  1
  B  B28  1  0.500000  0.609030  0.030380  1
  B  B29  1  0.500000  0.391084  0.970333  1
  B  B30  1  0.500000  0.104785  0.470938  1
  B  B31  1  0.500000  0.893910  0.529330  1
  Ru  Ru32  1  0.000000  0.639995  0.320442  1
  Ru  Ru33  1  0.000000  0.361946  0.680708  1
  Ru  Ru34  1  0.000000  0.136504  0.176985  1
  Ru  Ru35  1  0.000000  0.862124  0.821114  1
