# generated using pymatgen
data_K2Cd4Si8O21
_symmetry_space_group_name_H-M   'P 1'
_cell_length_a   6.84427048
_cell_length_b   7.30663869
_cell_length_c   11.06704243
_cell_angle_alpha   95.70584870
_cell_angle_beta   105.57913824
_cell_angle_gamma   109.84290523
_symmetry_Int_Tables_number   1
_chemical_formula_structural   K2Cd4Si8O21
_chemical_formula_sum   'K2 Cd4 Si8 O21'
_cell_volume   490.24248499
_cell_formula_units_Z   1
loop_
 _symmetry_equiv_pos_site_id
 _symmetry_equiv_pos_as_xyz
  1  'x, y, z'
loop_
 _atom_site_type_symbol
 _atom_site_label
 _atom_site_symmetry_multiplicity
 _atom_site_fract_x
 _atom_site_fract_y
 _atom_site_fract_z
 _atom_site_occupancy
  K  K0  1  0.735844  0.700212  0.423493  1
  K  K1  1  0.264156  0.299788  0.576507  1
  Cd  Cd2  1  0.656056  0.797427  0.818858  1
  Cd  Cd3  1  0.343944  0.202573  0.181142  1
  Cd  Cd4  1  0.373556  0.751181  0.043452  1
  Cd  Cd5  1  0.626444  0.248819  0.956548  1
  Si  Si6  1  0.098583  0.234685  0.887615  1
  Si  Si7  1  0.901417  0.765315  0.112385  1
  Si  Si8  1  0.164153  0.897252  0.746435  1
  Si  Si9  1  0.835847  0.102748  0.253565  1
  Si  Si10  1  0.661771  0.198964  0.468910  1
  Si  Si11  1  0.338229  0.801036  0.531090  1
  Si  Si12  1  0.868149  0.467276  0.747100  1
  Si  Si13  1  0.131851  0.532724  0.252900  1
  O  O14  1  0.500000  0.000000  0.500000  1
  O  O15  1  0.839476  0.350364  0.603844  1
  O  O16  1  0.160524  0.649636  0.396156  1
  O  O17  1  0.380328  0.909866  0.856364  1
  O  O18  1  0.619672  0.090134  0.143636  1
  O  O19  1  0.875109  0.121600  0.918789  1
  O  O20  1  0.124891  0.878400  0.081211  1
  O  O21  1  0.667278  0.706827  0.002265  1
  O  O22  1  0.332722  0.293173  0.997735  1
  O  O23  1  0.102921  0.096220  0.758916  1
  O  O24  1  0.897079  0.903780  0.241084  1
  O  O25  1  0.088532  0.447817  0.845873  1
  O  O26  1  0.911468  0.552183  0.154127  1
  O  O27  1  0.943031  0.708373  0.743333  1
  O  O28  1  0.056969  0.291627  0.256667  1
  O  O29  1  0.474651  0.691012  0.614111  1
  O  O30  1  0.525349  0.308988  0.385889  1
  O  O31  1  0.349052  0.600728  0.212763  1
  O  O32  1  0.650948  0.399272  0.787237  1
  O  O33  1  0.182154  0.874168  0.599908  1
  O  O34  1  0.817846  0.125832  0.400092  1
