# generated using pymatgen
data_La5Pr5Ir5Ru
_symmetry_space_group_name_H-M   'P 1'
_cell_length_a   11.38797204
_cell_length_b   11.34852400
_cell_length_c   6.66879102
_cell_angle_alpha   90.00000000
_cell_angle_beta   89.99056535
_cell_angle_gamma   90.00000000
_symmetry_Int_Tables_number   1
_chemical_formula_structural   La5Pr5Ir5Ru
_chemical_formula_sum   'La10 Pr10 Ir10 Ru2'
_cell_volume   861.85235962
_cell_formula_units_Z   2
loop_
 _symmetry_equiv_pos_site_id
 _symmetry_equiv_pos_as_xyz
  1  'x, y, z'
loop_
 _atom_site_type_symbol
 _atom_site_label
 _atom_site_symmetry_multiplicity
 _atom_site_fract_x
 _atom_site_fract_y
 _atom_site_fract_z
 _atom_site_occupancy
  La  La0  1  0.412727  0.796178  0.388919  1
  La  La1  1  0.412727  0.203822  0.888919  1
  La  La2  1  0.209686  0.407538  0.613594  1
  La  La3  1  0.209686  0.592462  0.113594  1
  La  La4  1  0.790068  0.407553  0.114611  1
  La  La5  1  0.790068  0.592447  0.614611  1
  La  La6  1  0.907970  0.709494  0.113892  1
  La  La7  1  0.907970  0.290506  0.613892  1
  La  La8  1  0.091612  0.709418  0.614346  1
  La  La9  1  0.091612  0.290582  0.114346  1
  Pr  Pr10  1  0.293289  0.088195  0.386661  1
  Pr  Pr11  1  0.293289  0.911805  0.886661  1
  Pr  Pr12  1  0.706223  0.087557  0.886668  1
  Pr  Pr13  1  0.706223  0.912443  0.386668  1
  Pr  Pr14  1  0.588305  0.794571  0.887421  1
  Pr  Pr15  1  0.588305  0.205429  0.387421  1
  Pr  Pr16  1  0.000115  0.000256  0.496569  1
  Pr  Pr17  1  0.000115  0.999744  0.996569  1
  Pr  Pr18  1  0.500139  0.500439  0.995756  1
  Pr  Pr19  1  0.500139  0.499561  0.495756  1
  Ir  Ir20  1  0.847884  0.155250  0.250966  1
  Ir  Ir21  1  0.847884  0.844750  0.750966  1
  Ir  Ir22  1  0.152004  0.155578  0.751411  1
  Ir  Ir23  1  0.152004  0.844422  0.251411  1
  Ir  Ir24  1  0.655632  0.347972  0.750942  1
  Ir  Ir25  1  0.655632  0.652028  0.250942  1
  Ir  Ir26  1  0.345026  0.347072  0.249328  1
  Ir  Ir27  1  0.345026  0.652928  0.749328  1
  Ir  Ir28  1  0.000044  0.500123  0.881658  1
  Ir  Ir29  1  0.000044  0.499877  0.381658  1
  Ru  Ru30  1  0.499276  0.999902  0.117257  1
  Ru  Ru31  1  0.499276  0.000098  0.617257  1
