# generated using pymatgen
data_PrYHo2(WO6)2
_symmetry_space_group_name_H-M   'P 1'
_cell_length_a   5.46206800
_cell_length_b   7.77987474
_cell_length_c   11.54483180
_cell_angle_alpha   75.69069129
_cell_angle_beta   90.00000000
_cell_angle_gamma   90.00000000
_symmetry_Int_Tables_number   1
_chemical_formula_structural   PrYHo2(WO6)2
_chemical_formula_sum   'Pr2 Y2 Ho4 W4 O24'
_cell_volume   475.36822970
_cell_formula_units_Z   2
loop_
 _symmetry_equiv_pos_site_id
 _symmetry_equiv_pos_as_xyz
  1  'x, y, z'
loop_
 _atom_site_type_symbol
 _atom_site_label
 _atom_site_symmetry_multiplicity
 _atom_site_fract_x
 _atom_site_fract_y
 _atom_site_fract_z
 _atom_site_occupancy
  Pr  Pr0  1  0.314660  0.500000  0.750000  1
  Pr  Pr1  1  0.685340  0.500000  0.250000  1
  Y  Y2  1  0.257759  0.000000  0.750000  1
  Y  Y3  1  0.742241  0.000000  0.250000  1
  Ho  Ho4  1  0.185723  0.797013  0.076866  1
  Ho  Ho5  1  0.185723  0.202987  0.423134  1
  Ho  Ho6  1  0.814277  0.202987  0.923134  1
  Ho  Ho7  1  0.814277  0.797013  0.576866  1
  W  W8  1  0.746309  0.728322  0.884323  1
  W  W9  1  0.253691  0.728322  0.384323  1
  W  W10  1  0.746309  0.271678  0.615677  1
  W  W11  1  0.253691  0.271678  0.115677  1
  O  O12  1  0.855152  0.357559  0.454519  1
  O  O13  1  0.466039  0.845004  0.931128  1
  O  O14  1  0.855152  0.642441  0.045481  1
  O  O15  1  0.013450  0.279972  0.730296  1
  O  O16  1  0.986550  0.279972  0.230296  1
  O  O17  1  0.144848  0.357559  0.954519  1
  O  O18  1  0.653307  0.493601  0.887583  1
  O  O19  1  0.533961  0.154996  0.068872  1
  O  O20  1  0.144848  0.642441  0.545481  1
  O  O21  1  0.013450  0.720028  0.769704  1
  O  O22  1  0.453602  0.205042  0.273037  1
  O  O23  1  0.044069  0.941750  0.396423  1
  O  O24  1  0.466039  0.154996  0.568872  1
  O  O25  1  0.986550  0.720028  0.269704  1
  O  O26  1  0.955931  0.058250  0.603577  1
  O  O27  1  0.546398  0.205042  0.773037  1
  O  O28  1  0.546398  0.794958  0.726963  1
  O  O29  1  0.044069  0.058250  0.103577  1
  O  O30  1  0.653307  0.506399  0.612417  1
  O  O31  1  0.346693  0.506399  0.112417  1
  O  O32  1  0.453602  0.794958  0.226963  1
  O  O33  1  0.346693  0.493601  0.387583  1
  O  O34  1  0.533961  0.845004  0.431128  1
  O  O35  1  0.955931  0.941750  0.896423  1
