# generated using pymatgen
data_Yb4AlCoRu6
_symmetry_space_group_name_H-M   'P 1'
_cell_length_a   5.13806700
_cell_length_b   5.20073865
_cell_length_c   8.69098000
_cell_angle_alpha   90.00000000
_cell_angle_beta   90.00000000
_cell_angle_gamma   119.59816844
_symmetry_Int_Tables_number   1
_chemical_formula_structural   Yb4AlCoRu6
_chemical_formula_sum   'Yb4 Al1 Co1 Ru6'
_cell_volume   201.93355151
_cell_formula_units_Z   1
loop_
 _symmetry_equiv_pos_site_id
 _symmetry_equiv_pos_as_xyz
  1  'x, y, z'
loop_
 _atom_site_type_symbol
 _atom_site_label
 _atom_site_symmetry_multiplicity
 _atom_site_fract_x
 _atom_site_fract_y
 _atom_site_fract_z
 _atom_site_occupancy
  Yb  Yb0  1  0.666410  0.333019  0.570877  1
  Yb  Yb1  1  0.333098  0.666344  0.445020  1
  Yb  Yb2  1  0.333098  0.666344  0.054980  1
  Yb  Yb3  1  0.666410  0.333019  0.929123  1
  Al  Al4  1  0.833710  0.667296  0.250000  1
  Co  Co5  1  0.160301  0.320673  0.750000  1
  Ru  Ru6  1  0.007881  0.016130  0.503322  1
  Ru  Ru7  1  0.007881  0.016130  0.996678  1
  Ru  Ru8  1  0.176608  0.827253  0.750000  1
  Ru  Ru9  1  0.651002  0.827293  0.750000  1
  Ru  Ru10  1  0.818308  0.163307  0.250000  1
  Ru  Ru11  1  0.345291  0.163189  0.250000  1
