# generated using pymatgen
data_Sm3Be2(AsPd5)4
_symmetry_space_group_name_H-M   'P 1'
_cell_length_a   8.87310005
_cell_length_b   8.74230598
_cell_length_c   8.74230487
_cell_angle_alpha   60.99235094
_cell_angle_beta   59.50390955
_cell_angle_gamma   59.50391427
_symmetry_Int_Tables_number   1
_chemical_formula_structural   Sm3Be2(AsPd5)4
_chemical_formula_sum   'Sm3 Be2 As4 Pd20'
_cell_volume   479.30888822
_cell_formula_units_Z   1
loop_
 _symmetry_equiv_pos_site_id
 _symmetry_equiv_pos_as_xyz
  1  'x, y, z'
loop_
 _atom_site_type_symbol
 _atom_site_label
 _atom_site_symmetry_multiplicity
 _atom_site_fract_x
 _atom_site_fract_y
 _atom_site_fract_z
 _atom_site_occupancy
  Sm  Sm0  1  0.250000  0.250000  0.250000  1
  Sm  Sm1  1  0.750000  0.750000  0.750000  1
  Sm  Sm2  1  0.000000  0.000000  0.000000  1
  Be  Be3  1  0.732001  0.267999  0.267999  1
  Be  Be4  1  0.267999  0.732001  0.732001  1
  As  As5  1  0.266628  0.733372  0.266628  1
  As  As6  1  0.733372  0.266628  0.733372  1
  As  As7  1  0.266628  0.266628  0.733372  1
  As  As8  1  0.733372  0.733372  0.266628  1
  Pd  Pd9  1  0.393897  0.378827  0.378827  1
  Pd  Pd10  1  0.606103  0.621173  0.621173  1
  Pd  Pd11  1  0.378827  0.393898  0.848448  1
  Pd  Pd12  1  0.378827  0.848449  0.393898  1
  Pd  Pd13  1  0.621173  0.606102  0.151552  1
  Pd  Pd14  1  0.621173  0.151551  0.606102  1
  Pd  Pd15  1  0.848448  0.378827  0.378827  1
  Pd  Pd16  1  0.151552  0.621173  0.621173  1
  Pd  Pd17  1  0.347833  0.000000  0.000000  1
  Pd  Pd18  1  0.652167  0.000000  0.000000  1
  Pd  Pd19  1  0.000000  0.347834  0.652166  1
  Pd  Pd20  1  0.000000  0.652166  0.347834  1
  Pd  Pd21  1  0.988673  0.345109  0.011328  1
  Pd  Pd22  1  0.654891  0.011328  0.345109  1
  Pd  Pd23  1  0.011327  0.654891  0.988672  1
  Pd  Pd24  1  0.345109  0.988672  0.654891  1
  Pd  Pd25  1  0.988673  0.011327  0.345109  1
  Pd  Pd26  1  0.011327  0.988673  0.654891  1
  Pd  Pd27  1  0.654891  0.345109  0.011328  1
  Pd  Pd28  1  0.345109  0.654891  0.988672  1
