# generated using pymatgen
data_ZrTa(BeB)2
_symmetry_space_group_name_H-M   'P 1'
_cell_length_a   3.33580200
_cell_length_b   3.33580313
_cell_length_c   6.74749100
_cell_angle_alpha   90.00000000
_cell_angle_beta   90.00000000
_cell_angle_gamma   120.00000864
_symmetry_Int_Tables_number   1
_chemical_formula_structural   ZrTa(BeB)2
_chemical_formula_sum   'Zr1 Ta1 Be2 B2'
_cell_volume   65.02398538
_cell_formula_units_Z   1
loop_
 _symmetry_equiv_pos_site_id
 _symmetry_equiv_pos_as_xyz
  1  'x, y, z'
loop_
 _atom_site_type_symbol
 _atom_site_label
 _atom_site_symmetry_multiplicity
 _atom_site_fract_x
 _atom_site_fract_y
 _atom_site_fract_z
 _atom_site_occupancy
  Zr  Zr0  1  0.000000  0.000000  0.500000  1
  Ta  Ta1  1  0.000000  0.000000  0.000000  1
  Be  Be2  1  0.666667  0.333333  0.762254  1
  Be  Be3  1  0.666667  0.333333  0.237746  1
  B  B4  1  0.333333  0.666667  0.766615  1
  B  B5  1  0.333333  0.666667  0.233385  1
