# generated using pymatgen
data_Tb2Lu3CoRu
_symmetry_space_group_name_H-M   'P 1'
_cell_length_a   6.23612537
_cell_length_b   7.06445312
_cell_length_c   8.41208437
_cell_angle_alpha   96.85141678
_cell_angle_beta   112.51508586
_cell_angle_gamma   89.80659594
_symmetry_Int_Tables_number   1
_chemical_formula_structural   Tb2Lu3CoRu
_chemical_formula_sum   'Tb4 Lu6 Co2 Ru2'
_cell_volume   339.53925371
_cell_formula_units_Z   2
loop_
 _symmetry_equiv_pos_site_id
 _symmetry_equiv_pos_as_xyz
  1  'x, y, z'
loop_
 _atom_site_type_symbol
 _atom_site_label
 _atom_site_symmetry_multiplicity
 _atom_site_fract_x
 _atom_site_fract_y
 _atom_site_fract_z
 _atom_site_occupancy
  Tb  Tb0  1  0.527338  0.087177  0.811397  1
  Tb  Tb1  1  0.472662  0.912823  0.188603  1
  Tb  Tb2  1  0.705700  0.418909  0.193537  1
  Tb  Tb3  1  0.294300  0.581091  0.806463  1
  Lu  Lu4  1  0.290522  0.319508  0.431432  1
  Lu  Lu5  1  0.709478  0.680492  0.568568  1
  Lu  Lu6  1  0.858588  0.186866  0.565804  1
  Lu  Lu7  1  0.141412  0.813134  0.434196  1
  Lu  Lu8  1  0.076572  0.258950  0.000429  1
  Lu  Lu9  1  0.923428  0.741050  0.999571  1
  Co  Co10  1  0.321824  0.576548  0.228456  1
  Co  Co11  1  0.678176  0.423452  0.771544  1
  Ru  Ru12  1  0.099916  0.927363  0.782536  1
  Ru  Ru13  1  0.900084  0.072637  0.217464  1
