# generated using pymatgen
data_EuBeP
_symmetry_space_group_name_H-M   'P 1'
_cell_length_a   3.77103200
_cell_length_b   3.77103056
_cell_length_c   4.39833300
_cell_angle_alpha   90.00000000
_cell_angle_beta   90.00000000
_cell_angle_gamma   119.99997756
_symmetry_Int_Tables_number   1
_chemical_formula_structural   EuBeP
_chemical_formula_sum   'Eu1 Be1 P1'
_cell_volume   54.16753919
_cell_formula_units_Z   1
loop_
 _symmetry_equiv_pos_site_id
 _symmetry_equiv_pos_as_xyz
  1  'x, y, z'
loop_
 _atom_site_type_symbol
 _atom_site_label
 _atom_site_symmetry_multiplicity
 _atom_site_fract_x
 _atom_site_fract_y
 _atom_site_fract_z
 _atom_site_occupancy
  Eu  Eu0  1  0.666667  0.333333  0.500000  1
  Be  Be1  1  0.333333  0.666667  0.000000  1
  P  P2  1  0.000000  0.000000  0.000000  1
