# generated using pymatgen
data_TbLuNb3P7Rh9
_symmetry_space_group_name_H-M   'P 1'
_cell_length_a   3.91638401
_cell_length_b   9.64466529
_cell_length_c   9.64096883
_cell_angle_alpha   120.04592203
_cell_angle_beta   90.00395238
_cell_angle_gamma   90.00264247
_symmetry_Int_Tables_number   1
_chemical_formula_structural   TbLuNb3P7Rh9
_chemical_formula_sum   'Tb1 Lu1 Nb3 P7 Rh9'
_cell_volume   315.22640171
_cell_formula_units_Z   1
loop_
 _symmetry_equiv_pos_site_id
 _symmetry_equiv_pos_as_xyz
  1  'x, y, z'
loop_
 _atom_site_type_symbol
 _atom_site_label
 _atom_site_symmetry_multiplicity
 _atom_site_fract_x
 _atom_site_fract_y
 _atom_site_fract_z
 _atom_site_occupancy
  Tb  Tb0  1  0.261354  0.666657  0.333404  1
  Lu  Lu1  1  0.762064  0.333351  0.666642  1
  Nb  Nb2  1  0.762098  0.095574  0.873914  1
  Nb  Nb3  1  0.762093  0.126082  0.221572  1
  Nb  Nb4  1  0.762088  0.778263  0.904299  1
  P  P5  1  0.262272  0.000031  0.999967  1
  P  P6  1  0.761691  0.876676  0.590064  1
  P  P7  1  0.761681  0.410024  0.286603  1
  P  P8  1  0.761667  0.713468  0.123599  1
  P  P9  1  0.262268  0.117764  0.417524  1
  P  P10  1  0.262277  0.582498  0.700320  1
  P  P11  1  0.262275  0.299626  0.882199  1
  Rh  Rh12  1  0.261859  0.883028  0.162855  1
  Rh  Rh13  1  0.261894  0.836949  0.720072  1
  Rh  Rh14  1  0.261864  0.280039  0.117113  1
  Rh  Rh15  1  0.761839  0.609500  0.556616  1
  Rh  Rh16  1  0.761817  0.443348  0.052730  1
  Rh  Rh17  1  0.761820  0.947351  0.390583  1
  Rh  Rh18  1  0.261700  0.367020  0.440614  1
  Rh  Rh19  1  0.261701  0.559203  0.926400  1
  Rh  Rh20  1  0.261679  0.073550  0.632906  1
