# generated using pymatgen
data_Tm2Tc3Ge4
_symmetry_space_group_name_H-M   'P 1'
_cell_length_a   8.31427300
_cell_length_b   5.65515236
_cell_length_c   6.97276684
_cell_angle_alpha   75.93532101
_cell_angle_beta   90.00000000
_cell_angle_gamma   90.00000000
_symmetry_Int_Tables_number   1
_chemical_formula_structural   Tm2Tc3Ge4
_chemical_formula_sum   'Tm4 Tc6 Ge8'
_cell_volume   318.02065177
_cell_formula_units_Z   2
loop_
 _symmetry_equiv_pos_site_id
 _symmetry_equiv_pos_as_xyz
  1  'x, y, z'
loop_
 _atom_site_type_symbol
 _atom_site_label
 _atom_site_symmetry_multiplicity
 _atom_site_fract_x
 _atom_site_fract_y
 _atom_site_fract_z
 _atom_site_occupancy
  Tm  Tm0  1  0.551319  0.077717  0.244222  1
  Tm  Tm1  1  0.051319  0.422283  0.755778  1
  Tm  Tm2  1  0.448681  0.922283  0.755778  1
  Tm  Tm3  1  0.948681  0.577717  0.244222  1
  Tc  Tc4  1  0.204429  0.115557  0.112320  1
  Tc  Tc5  1  0.704429  0.384443  0.887680  1
  Tc  Tc6  1  0.795571  0.884443  0.887680  1
  Tc  Tc7  1  0.295571  0.615557  0.112320  1
  Tc  Tc8  1  0.000000  0.000000  0.500000  1
  Tc  Tc9  1  0.500000  0.500000  0.500000  1
  Ge  Ge10  1  0.900060  0.120122  0.129751  1
  Ge  Ge11  1  0.400060  0.379878  0.870249  1
  Ge  Ge12  1  0.099940  0.879878  0.870249  1
  Ge  Ge13  1  0.599940  0.620122  0.129751  1
  Ge  Ge14  1  0.748656  0.223930  0.576849  1
  Ge  Ge15  1  0.248656  0.276070  0.423151  1
  Ge  Ge16  1  0.251344  0.776070  0.423151  1
  Ge  Ge17  1  0.751344  0.723930  0.576849  1
