# generated using pymatgen
data_K4CaMnV2F14
_symmetry_space_group_name_H-M   'P 1'
_cell_length_a   7.92830779
_cell_length_b   7.92830776
_cell_length_c   8.00507927
_cell_angle_alpha   120.70340045
_cell_angle_beta   117.51221300
_cell_angle_gamma   91.03432029
_symmetry_Int_Tables_number   1
_chemical_formula_structural   K4CaMnV2F14
_chemical_formula_sum   'K4 Ca1 Mn1 V2 F14'
_cell_volume   361.82598528
_cell_formula_units_Z   1
loop_
 _symmetry_equiv_pos_site_id
 _symmetry_equiv_pos_as_xyz
  1  'x, y, z'
loop_
 _atom_site_type_symbol
 _atom_site_label
 _atom_site_symmetry_multiplicity
 _atom_site_fract_x
 _atom_site_fract_y
 _atom_site_fract_z
 _atom_site_occupancy
  K  K0  1  0.500000  0.500000  0.000000  1
  K  K1  1  0.000000  0.000000  0.000000  1
  K  K2  1  0.000000  0.500000  0.000000  1
  K  K3  1  0.000000  0.000000  0.500000  1
  Ca  Ca4  1  0.500000  0.000000  0.000000  1
  Mn  Mn5  1  0.500000  0.500000  0.500000  1
  V  V6  1  0.000000  0.500000  0.500000  1
  V  V7  1  0.500000  0.000000  0.500000  1
  F  F8  1  0.875814  0.584368  0.289035  1
  F  F9  1  0.204666  0.913223  0.289035  1
  F  F10  1  0.172633  0.798321  0.751301  1
  F  F11  1  0.460322  0.707684  0.395050  1
  F  F12  1  0.452979  0.078667  0.751301  1
  F  F13  1  0.187366  0.434728  0.395050  1
  F  F14  1  0.812634  0.565272  0.604950  1
  F  F15  1  0.547021  0.921333  0.248699  1
  F  F16  1  0.539678  0.292316  0.604950  1
  F  F17  1  0.827367  0.201679  0.248699  1
  F  F18  1  0.385416  0.262777  0.148193  1
  F  F19  1  0.124186  0.415632  0.710965  1
  F  F20  1  0.795334  0.086777  0.710965  1
  F  F21  1  0.614584  0.737223  0.851807  1
