# generated using pymatgen
data_LaNdEu2(MgRh)4
_symmetry_space_group_name_H-M   'P 1'
_cell_length_a   4.29863500
_cell_length_b   7.29291023
_cell_length_c   8.58202121
_cell_angle_alpha   89.97247366
_cell_angle_beta   90.00000000
_cell_angle_gamma   90.00000000
_symmetry_Int_Tables_number   1
_chemical_formula_structural   LaNdEu2(MgRh)4
_chemical_formula_sum   'La1 Nd1 Eu2 Mg4 Rh4'
_cell_volume   269.04255062
_cell_formula_units_Z   1
loop_
 _symmetry_equiv_pos_site_id
 _symmetry_equiv_pos_as_xyz
  1  'x, y, z'
loop_
 _atom_site_type_symbol
 _atom_site_label
 _atom_site_symmetry_multiplicity
 _atom_site_fract_x
 _atom_site_fract_y
 _atom_site_fract_z
 _atom_site_occupancy
  La  La0  1  0.250000  0.536263  0.823624  1
  Nd  Nd1  1  0.750000  0.462695  0.177913  1
  Eu  Eu2  1  0.750000  0.965390  0.324432  1
  Eu  Eu3  1  0.250000  0.034472  0.675379  1
  Mg  Mg4  1  0.750000  0.867363  0.942668  1
  Mg  Mg5  1  0.250000  0.133391  0.058029  1
  Mg  Mg6  1  0.250000  0.635672  0.441664  1
  Mg  Mg7  1  0.750000  0.363297  0.555886  1
  Rh  Rh8  1  0.750000  0.731760  0.633080  1
  Rh  Rh9  1  0.250000  0.268902  0.367341  1
  Rh  Rh10  1  0.250000  0.751663  0.122462  1
  Rh  Rh11  1  0.750000  0.249132  0.877523  1
