# generated using pymatgen
data_Dy8CdNi2Ag
_symmetry_space_group_name_H-M   'P 1'
_cell_length_a   9.45718195
_cell_length_b   9.45718149
_cell_length_c   9.44139800
_cell_angle_alpha   60.05519281
_cell_angle_beta   60.05519443
_cell_angle_gamma   60.05664722
_symmetry_Int_Tables_number   1
_chemical_formula_structural   Dy8CdNi2Ag
_chemical_formula_sum   'Dy16 Cd2 Ni4 Ag2'
_cell_volume   597.85033176
_cell_formula_units_Z   2
loop_
 _symmetry_equiv_pos_site_id
 _symmetry_equiv_pos_as_xyz
  1  'x, y, z'
loop_
 _atom_site_type_symbol
 _atom_site_label
 _atom_site_symmetry_multiplicity
 _atom_site_fract_x
 _atom_site_fract_y
 _atom_site_fract_z
 _atom_site_occupancy
  Dy  Dy0  1  0.598941  0.598941  0.598012  1
  Dy  Dy1  1  0.598941  0.598941  0.204108  1
  Dy  Dy2  1  0.600880  0.199871  0.599625  1
  Dy  Dy3  1  0.199871  0.600880  0.599625  1
  Dy  Dy4  1  0.061386  0.438868  0.439661  1
  Dy  Dy5  1  0.438868  0.061386  0.060085  1
  Dy  Dy6  1  0.438868  0.061386  0.439661  1
  Dy  Dy7  1  0.061386  0.438868  0.060085  1
  Dy  Dy8  1  0.439585  0.439585  0.060415  1
  Dy  Dy9  1  0.061262  0.061262  0.438738  1
  Dy  Dy10  1  0.183173  0.813746  0.814667  1
  Dy  Dy11  1  0.813746  0.183173  0.188413  1
  Dy  Dy12  1  0.813746  0.183173  0.814667  1
  Dy  Dy13  1  0.183173  0.813746  0.188413  1
  Dy  Dy14  1  0.813586  0.813586  0.186414  1
  Dy  Dy15  1  0.185864  0.185864  0.814136  1
  Cd  Cd16  1  0.831597  0.508787  0.829808  1
  Cd  Cd17  1  0.508787  0.831597  0.829808  1
  Ni  Ni18  1  0.392968  0.392968  0.393126  1
  Ni  Ni19  1  0.392968  0.392968  0.820938  1
  Ni  Ni20  1  0.392054  0.822184  0.392881  1
  Ni  Ni21  1  0.822184  0.392054  0.392881  1
  Ag  Ag22  1  0.833083  0.833083  0.831723  1
  Ag  Ag23  1  0.833083  0.833083  0.502111  1
