# generated using pymatgen
data_TbCo5Si4Ni
_symmetry_space_group_name_H-M   'P 1'
_cell_length_a   6.58139200
_cell_length_b   6.61483825
_cell_length_c   3.59286700
_cell_angle_alpha   90.00000000
_cell_angle_beta   90.00000000
_cell_angle_gamma   119.83289120
_symmetry_Int_Tables_number   1
_chemical_formula_structural   TbCo5Si4Ni
_chemical_formula_sum   'Tb1 Co5 Si4 Ni1'
_cell_volume   135.68680251
_cell_formula_units_Z   1
loop_
 _symmetry_equiv_pos_site_id
 _symmetry_equiv_pos_as_xyz
  1  'x, y, z'
loop_
 _atom_site_type_symbol
 _atom_site_label
 _atom_site_symmetry_multiplicity
 _atom_site_fract_x
 _atom_site_fract_y
 _atom_site_fract_z
 _atom_site_occupancy
  Tb  Tb0  1  0.997901  0.995802  0.000000  1
  Co  Co1  1  0.534431  0.068861  0.000000  1
  Co  Co2  1  0.532584  0.465936  0.000000  1
  Co  Co3  1  0.933352  0.465936  0.000000  1
  Co  Co4  1  0.205120  0.795940  0.500001  1
  Co  Co5  1  0.590819  0.795940  0.500001  1
  Si  Si6  1  0.336201  0.672400  0.000000  1
  Si  Si7  1  0.400353  0.197578  0.500001  1
  Si  Si8  1  0.797225  0.197578  0.500001  1
  Si  Si9  1  0.800643  0.601288  0.500001  1
  Ni  Ni10  1  0.204705  0.409412  0.500001  1
