# generated using pymatgen
data_SrEu(CuO2)4
_symmetry_space_group_name_H-M   'P 1'
_cell_length_a   6.38751028
_cell_length_b   6.38751109
_cell_length_c   6.38751213
_cell_angle_alpha   124.58980352
_cell_angle_beta   124.58981061
_cell_angle_gamma   82.21856309
_symmetry_Int_Tables_number   1
_chemical_formula_structural   SrEu(CuO2)4
_chemical_formula_sum   'Sr1 Eu1 Cu4 O8'
_cell_volume   169.77407416
_cell_formula_units_Z   1
loop_
 _symmetry_equiv_pos_site_id
 _symmetry_equiv_pos_as_xyz
  1  'x, y, z'
loop_
 _atom_site_type_symbol
 _atom_site_label
 _atom_site_symmetry_multiplicity
 _atom_site_fract_x
 _atom_site_fract_y
 _atom_site_fract_z
 _atom_site_occupancy
  Sr  Sr0  1  0.000000  0.000000  0.000000  1
  Eu  Eu1  1  0.750000  0.250000  0.500000  1
  Cu  Cu2  1  0.376818  0.618320  0.745416  1
  Cu  Cu3  1  0.381680  0.127096  0.758498  1
  Cu  Cu4  1  0.872904  0.631402  0.254584  1
  Cu  Cu5  1  0.368598  0.623182  0.241502  1
  O  O6  1  0.044252  0.439126  0.074111  1
  O  O7  1  0.723764  0.316351  0.139284  1
  O  O8  1  0.177068  0.584479  0.860716  1
  O  O9  1  0.365014  0.970143  0.925889  1
  O  O10  1  0.683649  0.822932  0.407412  1
  O  O11  1  0.029857  0.955748  0.394872  1
  O  O12  1  0.415521  0.276236  0.592588  1
  O  O13  1  0.560874  0.634986  0.605128  1
