# generated using pymatgen
data_DyTm3GaCo4
_symmetry_space_group_name_H-M   'P 1'
_cell_length_a   5.41609248
_cell_length_b   5.41609159
_cell_length_c   8.81112622
_cell_angle_alpha   70.92451804
_cell_angle_beta   70.92452253
_cell_angle_gamma   43.37463973
_symmetry_Int_Tables_number   1
_chemical_formula_structural   DyTm3GaCo4
_chemical_formula_sum   'Dy1 Tm3 Ga1 Co4'
_cell_volume   166.16467630
_cell_formula_units_Z   1
loop_
 _symmetry_equiv_pos_site_id
 _symmetry_equiv_pos_as_xyz
  1  'x, y, z'
loop_
 _atom_site_type_symbol
 _atom_site_label
 _atom_site_symmetry_multiplicity
 _atom_site_fract_x
 _atom_site_fract_y
 _atom_site_fract_z
 _atom_site_occupancy
  Dy  Dy0  1  0.746371  0.746371  0.662164  1
  Tm  Tm1  1  0.254013  0.254013  0.336407  1
  Tm  Tm2  1  0.391243  0.391243  0.887536  1
  Tm  Tm3  1  0.608557  0.608557  0.114824  1
  Ga  Ga4  1  0.500999  0.500999  0.498885  1
  Co  Co5  1  0.038319  0.038319  0.645533  1
  Co  Co6  1  0.962184  0.962184  0.352865  1
  Co  Co7  1  0.094118  0.094118  0.882300  1
  Co  Co8  1  0.904197  0.904197  0.119485  1
