# generated using pymatgen
data_Pr2FeCo16
_symmetry_space_group_name_H-M   'P 1'
_cell_length_a   6.35074066
_cell_length_b   6.35074069
_cell_length_c   6.35074103
_cell_angle_alpha   83.15439569
_cell_angle_beta   83.15439950
_cell_angle_gamma   83.15439189
_symmetry_Int_Tables_number   1
_chemical_formula_structural   Pr2FeCo16
_chemical_formula_sum   'Pr2 Fe1 Co16'
_cell_volume   251.06244511
_cell_formula_units_Z   1
loop_
 _symmetry_equiv_pos_site_id
 _symmetry_equiv_pos_as_xyz
  1  'x, y, z'
loop_
 _atom_site_type_symbol
 _atom_site_label
 _atom_site_symmetry_multiplicity
 _atom_site_fract_x
 _atom_site_fract_y
 _atom_site_fract_z
 _atom_site_occupancy
  Pr  Pr0  1  0.655352  0.655352  0.655352  1
  Pr  Pr1  1  0.345854  0.345855  0.345855  1
  Fe  Fe2  1  0.095145  0.095145  0.095145  1
  Co  Co3  1  0.342260  0.342260  0.850455  1
  Co  Co4  1  0.850455  0.342260  0.342260  1
  Co  Co5  1  0.342260  0.850455  0.342260  1
  Co  Co6  1  0.658753  0.658753  0.150639  1
  Co  Co7  1  0.150639  0.658753  0.658753  1
  Co  Co8  1  0.658753  0.150639  0.658753  1
  Co  Co9  1  0.715300  0.284018  0.999417  1
  Co  Co10  1  0.999417  0.715300  0.284018  1
  Co  Co11  1  0.284018  0.999417  0.715300  1
  Co  Co12  1  0.999417  0.284018  0.715300  1
  Co  Co13  1  0.715300  0.999417  0.284018  1
  Co  Co14  1  0.284018  0.715300  0.999417  1
  Co  Co15  1  0.998810  0.998810  0.501963  1
  Co  Co16  1  0.501963  0.998810  0.998810  1
  Co  Co17  1  0.998810  0.501963  0.998810  1
  Co  Co18  1  0.903473  0.903473  0.903473  1
