# generated using pymatgen
data_Li4Eu2ThSb4
_symmetry_space_group_name_H-M   'P 1'
_cell_length_a   8.84216382
_cell_length_b   8.84216370
_cell_length_c   8.84216386
_cell_angle_alpha   150.01958671
_cell_angle_beta   126.32772185
_cell_angle_gamma   62.70324029
_symmetry_Int_Tables_number   1
_chemical_formula_structural   Li4Eu2ThSb4
_chemical_formula_sum   'Li4 Eu2 Th1 Sb4'
_cell_volume   275.74536652
_cell_formula_units_Z   1
loop_
 _symmetry_equiv_pos_site_id
 _symmetry_equiv_pos_as_xyz
  1  'x, y, z'
loop_
 _atom_site_type_symbol
 _atom_site_label
 _atom_site_symmetry_multiplicity
 _atom_site_fract_x
 _atom_site_fract_y
 _atom_site_fract_z
 _atom_site_occupancy
  Li  Li0  1  0.990224  0.675401  0.314823  1
  Li  Li1  1  0.009776  0.324599  0.685177  1
  Li  Li2  1  0.639423  0.324599  0.314823  1
  Li  Li3  1  0.360577  0.675401  0.685177  1
  Eu  Eu4  1  0.618479  0.118479  0.500000  1
  Eu  Eu5  1  0.381521  0.881521  0.500000  1
  Th  Th6  1  0.000000  0.000000  0.000000  1
  Sb  Sb7  1  0.782161  0.782161  0.000000  1
  Sb  Sb8  1  0.217839  0.217839  0.000000  1
  Sb  Sb9  1  0.723907  0.500000  0.223907  1
  Sb  Sb10  1  0.276093  0.500000  0.776093  1
