# generated using pymatgen
data_Ho4ZrZnPd14
_symmetry_space_group_name_H-M   'P 1'
_cell_length_a   4.13761400
_cell_length_b   4.04942000
_cell_length_c   20.54419200
_cell_angle_alpha   90.00000000
_cell_angle_beta   90.00000000
_cell_angle_gamma   90.00000000
_symmetry_Int_Tables_number   1
_chemical_formula_structural   Ho4ZrZnPd14
_chemical_formula_sum   'Ho4 Zr1 Zn1 Pd14'
_cell_volume   344.21664029
_cell_formula_units_Z   1
loop_
 _symmetry_equiv_pos_site_id
 _symmetry_equiv_pos_as_xyz
  1  'x, y, z'
loop_
 _atom_site_type_symbol
 _atom_site_label
 _atom_site_symmetry_multiplicity
 _atom_site_fract_x
 _atom_site_fract_y
 _atom_site_fract_z
 _atom_site_occupancy
  Ho  Ho0  1  0.000000  0.000000  0.196530  1
  Ho  Ho1  1  0.000000  0.000000  0.392136  1
  Ho  Ho2  1  0.000000  0.000000  0.607864  1
  Ho  Ho3  1  0.000000  0.000000  0.803470  1
  Zr  Zr4  1  0.000000  0.000000  0.000000  1
  Zn  Zn5  1  0.500000  0.000000  0.500000  1
  Pd  Pd6  1  0.500000  0.500000  0.000000  1
  Pd  Pd7  1  0.500000  0.500000  0.197395  1
  Pd  Pd8  1  0.500000  0.500000  0.402228  1
  Pd  Pd9  1  0.500000  0.500000  0.597772  1
  Pd  Pd10  1  0.500000  0.500000  0.802605  1
  Pd  Pd11  1  0.500000  0.000000  0.095731  1
  Pd  Pd12  1  0.500000  0.000000  0.298540  1
  Pd  Pd13  1  0.500000  0.000000  0.701460  1
  Pd  Pd14  1  0.500000  0.000000  0.904269  1
  Pd  Pd15  1  0.000000  0.500000  0.095403  1
  Pd  Pd16  1  0.000000  0.500000  0.298070  1
  Pd  Pd17  1  0.000000  0.500000  0.500000  1
  Pd  Pd18  1  0.000000  0.500000  0.701930  1
  Pd  Pd19  1  0.000000  0.500000  0.904597  1
