# generated using pymatgen
data_Dy8Cd2FeNi
_symmetry_space_group_name_H-M   'P 1'
_cell_length_a   9.50661825
_cell_length_b   9.50661835
_cell_length_c   9.53563600
_cell_angle_alpha   59.89897716
_cell_angle_beta   59.89897683
_cell_angle_gamma   60.04675952
_symmetry_Int_Tables_number   1
_chemical_formula_structural   Dy8Cd2FeNi
_chemical_formula_sum   'Dy16 Cd4 Fe2 Ni2'
_cell_volume   608.65992184
_cell_formula_units_Z   2
loop_
 _symmetry_equiv_pos_site_id
 _symmetry_equiv_pos_as_xyz
  1  'x, y, z'
loop_
 _atom_site_type_symbol
 _atom_site_label
 _atom_site_symmetry_multiplicity
 _atom_site_fract_x
 _atom_site_fract_y
 _atom_site_fract_z
 _atom_site_occupancy
  Dy  Dy0  1  0.596031  0.596031  0.599051  1
  Dy  Dy1  1  0.596031  0.596031  0.208888  1
  Dy  Dy2  1  0.594278  0.210051  0.597836  1
  Dy  Dy3  1  0.210051  0.594278  0.597836  1
  Dy  Dy4  1  0.065865  0.436971  0.439019  1
  Dy  Dy5  1  0.436971  0.065865  0.058145  1
  Dy  Dy6  1  0.436971  0.065865  0.439019  1
  Dy  Dy7  1  0.065865  0.436971  0.058145  1
  Dy  Dy8  1  0.437768  0.437768  0.062232  1
  Dy  Dy9  1  0.061088  0.061088  0.438912  1
  Dy  Dy10  1  0.188190  0.808751  0.814573  1
  Dy  Dy11  1  0.808751  0.188190  0.188486  1
  Dy  Dy12  1  0.808751  0.188190  0.814573  1
  Dy  Dy13  1  0.188190  0.808751  0.188486  1
  Dy  Dy14  1  0.812559  0.812559  0.187441  1
  Dy  Dy15  1  0.189542  0.189542  0.810458  1
  Cd  Cd16  1  0.829917  0.829917  0.831000  1
  Cd  Cd17  1  0.829917  0.829917  0.509167  1
  Cd  Cd18  1  0.831146  0.506339  0.831257  1
  Cd  Cd19  1  0.506339  0.831146  0.831257  1
  Fe  Fe20  1  0.393004  0.393004  0.387463  1
  Fe  Fe21  1  0.393004  0.393004  0.826530  1
  Ni  Ni22  1  0.392512  0.827263  0.390113  1
  Ni  Ni23  1  0.827263  0.392512  0.390113  1
