# generated using pymatgen
data_Tm7Co3Sn23Ru3
_symmetry_space_group_name_H-M   'P 1'
_cell_length_a   9.72754635
_cell_length_b   9.71490017
_cell_length_c   9.98790247
_cell_angle_alpha   90.11333182
_cell_angle_beta   89.67806790
_cell_angle_gamma   119.81086371
_symmetry_Int_Tables_number   1
_chemical_formula_structural   Tm7Co3Sn23Ru3
_chemical_formula_sum   'Tm7 Co3 Sn23 Ru3'
_cell_volume   818.96262621
_cell_formula_units_Z   1
loop_
 _symmetry_equiv_pos_site_id
 _symmetry_equiv_pos_as_xyz
  1  'x, y, z'
loop_
 _atom_site_type_symbol
 _atom_site_label
 _atom_site_symmetry_multiplicity
 _atom_site_fract_x
 _atom_site_fract_y
 _atom_site_fract_z
 _atom_site_occupancy
  Tm  Tm0  1  0.483457  0.519005  0.306508  1
  Tm  Tm1  1  0.517381  0.480740  0.694059  1
  Tm  Tm2  1  0.485391  0.966185  0.305727  1
  Tm  Tm3  1  0.514944  0.035826  0.694228  1
  Tm  Tm4  1  0.033586  0.515701  0.304615  1
  Tm  Tm5  1  0.965160  0.484787  0.694741  1
  Tm  Tm6  1  0.995498  0.991637  0.004631  1
  Co  Co7  1  0.171302  0.340033  0.801590  1
  Co  Co8  1  0.339788  0.170821  0.197775  1
  Co  Co9  1  0.660457  0.830979  0.800484  1
  Sn  Sn10  1  0.122845  0.887872  0.274322  1
  Sn  Sn11  1  0.884214  0.117777  0.728228  1
  Sn  Sn12  1  0.124157  0.237045  0.273744  1
  Sn  Sn13  1  0.875527  0.762559  0.725819  1
  Sn  Sn14  1  0.759637  0.879701  0.278621  1
  Sn  Sn15  1  0.237093  0.125380  0.724345  1
  Sn  Sn16  1  0.778956  0.220774  0.460870  1
  Sn  Sn17  1  0.221312  0.779481  0.538058  1
  Sn  Sn18  1  0.778337  0.557595  0.459678  1
  Sn  Sn19  1  0.218927  0.436834  0.546495  1
  Sn  Sn20  1  0.438478  0.219631  0.453936  1
  Sn  Sn21  1  0.562929  0.781057  0.546867  1
  Sn  Sn22  1  0.349259  0.002220  0.002634  1
  Sn  Sn23  1  0.651116  0.997924  0.996330  1
  Sn  Sn24  1  0.003334  0.348196  0.995462  1
  Sn  Sn25  1  0.001542  0.649519  0.999211  1
  Sn  Sn26  1  0.647941  0.652004  0.996307  1
  Sn  Sn27  1  0.346281  0.346774  0.999342  1
  Sn  Sn28  1  0.333593  0.667064  0.125816  1
  Sn  Sn29  1  0.667209  0.333441  0.874143  1
  Sn  Sn30  1  0.334536  0.665520  0.816179  1
  Sn  Sn31  1  0.663524  0.331960  0.181019  1
  Sn  Sn32  1  0.999321  0.998997  0.501490  1
  Ru  Ru33  1  0.832392  0.168765  0.199718  1
  Ru  Ru34  1  0.169696  0.833418  0.798332  1
  Ru  Ru35  1  0.830881  0.662778  0.198673  1
