# generated using pymatgen
data_Pu7Zr(ReB6)4
_symmetry_space_group_name_H-M   'P 1'
_cell_length_a   3.65066500
_cell_length_b   9.20546854
_cell_length_c   11.42848553
_cell_angle_alpha   90.69861427
_cell_angle_beta   90.00000000
_cell_angle_gamma   90.00000000
_symmetry_Int_Tables_number   1
_chemical_formula_structural   Pu7Zr(ReB6)4
_chemical_formula_sum   'Pu7 Zr1 Re4 B24'
_cell_volume   384.03806970
_cell_formula_units_Z   1
loop_
 _symmetry_equiv_pos_site_id
 _symmetry_equiv_pos_as_xyz
  1  'x, y, z'
loop_
 _atom_site_type_symbol
 _atom_site_label
 _atom_site_symmetry_multiplicity
 _atom_site_fract_x
 _atom_site_fract_y
 _atom_site_fract_z
 _atom_site_occupancy
  Pu  Pu0  1  0.000000  0.333874  0.409674  1
  Pu  Pu1  1  0.000000  0.665773  0.590696  1
  Pu  Pu2  1  0.000000  0.824846  0.089021  1
  Pu  Pu3  1  0.000000  0.174701  0.911190  1
  Pu  Pu4  1  0.000000  0.956182  0.397575  1
  Pu  Pu5  1  0.000000  0.044875  0.603734  1
  Pu  Pu6  1  0.000000  0.445797  0.125306  1
  Zr  Zr7  1  0.000000  0.554227  0.873288  1
  Re  Re8  1  0.000000  0.644648  0.321043  1
  Re  Re9  1  0.000000  0.356394  0.679091  1
  Re  Re10  1  0.000000  0.140506  0.181533  1
  Re  Re11  1  0.000000  0.857799  0.817841  1
  B  B12  1  0.500000  0.552677  0.432896  1
  B  B13  1  0.500000  0.448643  0.567636  1
  B  B14  1  0.500000  0.051867  0.067625  1
  B  B15  1  0.500000  0.945130  0.932589  1
  B  B16  1  0.500000  0.745522  0.422051  1
  B  B17  1  0.500000  0.256375  0.578724  1
  B  B18  1  0.500000  0.248361  0.079123  1
  B  B19  1  0.500000  0.748843  0.920564  1
  B  B20  1  0.500000  0.799885  0.270135  1
  B  B21  1  0.500000  0.201994  0.730948  1
  B  B22  1  0.500000  0.297048  0.231204  1
  B  B23  1  0.500000  0.700676  0.768592  1
  B  B24  1  0.500000  0.636283  0.185602  1
  B  B25  1  0.500000  0.365762  0.814544  1
  B  B26  1  0.500000  0.138747  0.313696  1
  B  B27  1  0.500000  0.859703  0.686874  1
  B  B28  1  0.500000  0.983003  0.217976  1
  B  B29  1  0.500000  0.015151  0.783157  1
  B  B30  1  0.500000  0.486425  0.285633  1
  B  B31  1  0.500000  0.515560  0.715144  1
  B  B32  1  0.500000  0.608587  0.027651  1
  B  B33  1  0.500000  0.393891  0.968035  1
  B  B34  1  0.500000  0.138689  0.461893  1
  B  B35  1  0.500000  0.861557  0.537714  1
