# generated using pymatgen
data_Sc4Al6PtRh
_symmetry_space_group_name_H-M   'P 1'
_cell_length_a   5.34452800
_cell_length_b   5.34452848
_cell_length_c   8.47102200
_cell_angle_alpha   90.00000000
_cell_angle_beta   90.00000000
_cell_angle_gamma   120.00000939
_symmetry_Int_Tables_number   1
_chemical_formula_structural   Sc4Al6PtRh
_chemical_formula_sum   'Sc4 Al6 Pt1 Rh1'
_cell_volume   209.54878782
_cell_formula_units_Z   1
loop_
 _symmetry_equiv_pos_site_id
 _symmetry_equiv_pos_as_xyz
  1  'x, y, z'
loop_
 _atom_site_type_symbol
 _atom_site_label
 _atom_site_symmetry_multiplicity
 _atom_site_fract_x
 _atom_site_fract_y
 _atom_site_fract_z
 _atom_site_occupancy
  Sc  Sc0  1  0.333333  0.666667  0.057609  1
  Sc  Sc1  1  0.666667  0.333333  0.561119  1
  Sc  Sc2  1  0.333333  0.666667  0.438881  1
  Sc  Sc3  1  0.666667  0.333333  0.942391  1
  Al  Al4  1  0.831979  0.663957  0.251962  1
  Al  Al5  1  0.168021  0.831979  0.748038  1
  Al  Al6  1  0.663957  0.831979  0.748038  1
  Al  Al7  1  0.336043  0.168021  0.251962  1
  Al  Al8  1  0.831979  0.168021  0.251962  1
  Al  Al9  1  0.168021  0.336043  0.748038  1
  Pt  Pt10  1  0.000000  0.000000  0.000000  1
  Rh  Rh11  1  0.000000  0.000000  0.500000  1
