# generated using pymatgen
data_TbHo7Ti3Si16Tc9
_symmetry_space_group_name_H-M   'P 1'
_cell_length_a   6.78007960
_cell_length_b   6.77924815
_cell_length_c   12.94479032
_cell_angle_alpha   89.93062458
_cell_angle_beta   90.03794527
_cell_angle_gamma   89.33386443
_symmetry_Int_Tables_number   1
_chemical_formula_structural   TbHo7Ti3Si16Tc9
_chemical_formula_sum   'Tb1 Ho7 Ti3 Si16 Tc9'
_cell_volume   594.95151335
_cell_formula_units_Z   1
loop_
 _symmetry_equiv_pos_site_id
 _symmetry_equiv_pos_as_xyz
  1  'x, y, z'
loop_
 _atom_site_type_symbol
 _atom_site_label
 _atom_site_symmetry_multiplicity
 _atom_site_fract_x
 _atom_site_fract_y
 _atom_site_fract_z
 _atom_site_occupancy
  Tb  Tb0  1  0.997431  0.662719  0.028045  1
  Ho  Ho1  1  0.337156  0.002327  0.471466  1
  Ho  Ho2  1  0.509717  0.823910  0.716703  1
  Ho  Ho3  1  0.487688  0.178878  0.216757  1
  Ho  Ho4  1  0.823817  0.509601  0.283266  1
  Ho  Ho5  1  0.178875  0.487686  0.783377  1
  Ho  Ho6  1  0.661435  0.998847  0.972030  1
  Ho  Ho7  1  0.002345  0.337148  0.528560  1
  Ti  Ti8  1  0.155617  0.844975  0.249237  1
  Ti  Ti9  1  0.844805  0.155725  0.750932  1
  Ti  Ti10  1  0.666017  0.665975  0.500049  1
  Si  Si11  1  0.211098  0.118421  0.680505  1
  Si  Si12  1  0.397981  0.681336  0.940064  1
  Si  Si13  1  0.611432  0.308840  0.437995  1
  Si  Si14  1  0.680971  0.396550  0.059843  1
  Si  Si15  1  0.308775  0.611427  0.562062  1
  Si  Si16  1  0.786629  0.883961  0.182609  1
  Si  Si17  1  0.118358  0.211075  0.319525  1
  Si  Si18  1  0.883279  0.787441  0.817351  1
  Si  Si19  1  0.263421  0.985679  0.055471  1
  Si  Si20  1  0.525337  0.803889  0.314404  1
  Si  Si21  1  0.471856  0.197578  0.815212  1
  Si  Si22  1  0.803933  0.525340  0.685649  1
  Si  Si23  1  0.198136  0.471564  0.184887  1
  Si  Si24  1  0.730896  0.022681  0.557416  1
  Si  Si25  1  0.985384  0.261972  0.944466  1
  Si  Si26  1  0.022669  0.730901  0.442578  1
  Tc  Tc27  1  0.334300  0.334001  0.999990  1
  Tc  Tc28  1  0.183200  0.981185  0.864306  1
  Tc  Tc29  1  0.474094  0.693186  0.132240  1
  Tc  Tc30  1  0.524004  0.315328  0.632626  1
  Tc  Tc31  1  0.692706  0.473199  0.867633  1
  Tc  Tc32  1  0.315115  0.523898  0.367311  1
  Tc  Tc33  1  0.817728  0.012659  0.363843  1
  Tc  Tc34  1  0.981188  0.182461  0.135528  1
  Tc  Tc35  1  0.012610  0.817638  0.636066  1
