# generated using pymatgen
data_Er2Hf3Ni9As7
_symmetry_space_group_name_H-M   'P 1'
_cell_length_a   3.82935700
_cell_length_b   9.74598820
_cell_length_c   9.74598900
_cell_angle_alpha   119.99999842
_cell_angle_beta   90.00000000
_cell_angle_gamma   90.00000000
_symmetry_Int_Tables_number   1
_chemical_formula_structural   Er2Hf3Ni9As7
_chemical_formula_sum   'Er2 Hf3 Ni9 As7'
_cell_volume   314.99836018
_cell_formula_units_Z   1
loop_
 _symmetry_equiv_pos_site_id
 _symmetry_equiv_pos_as_xyz
  1  'x, y, z'
loop_
 _atom_site_type_symbol
 _atom_site_label
 _atom_site_symmetry_multiplicity
 _atom_site_fract_x
 _atom_site_fract_y
 _atom_site_fract_z
 _atom_site_occupancy
  Er  Er0  1  0.000000  0.666667  0.333333  1
  Er  Er1  1  0.500000  0.333333  0.666667  1
  Hf  Hf2  1  0.500000  0.769755  0.889593  1
  Hf  Hf3  1  0.500000  0.119836  0.230245  1
  Hf  Hf4  1  0.500000  0.110407  0.880164  1
  Ni  Ni5  1  0.000000  0.574855  0.934654  1
  Ni  Ni6  1  0.000000  0.359799  0.425145  1
  Ni  Ni7  1  0.000000  0.065346  0.640201  1
  Ni  Ni8  1  0.000000  0.873268  0.157879  1
  Ni  Ni9  1  0.000000  0.284611  0.126732  1
  Ni  Ni10  1  0.000000  0.842121  0.715389  1
  Ni  Ni11  1  0.500000  0.941582  0.381599  1
  Ni  Ni12  1  0.500000  0.440016  0.058418  1
  Ni  Ni13  1  0.500000  0.618401  0.559984  1
  As  As14  1  0.000000  0.000000  0.000000  1
  As  As15  1  0.500000  0.706749  0.124470  1
  As  As16  1  0.500000  0.417721  0.293251  1
  As  As17  1  0.500000  0.875530  0.582279  1
  As  As18  1  0.000000  0.574616  0.685024  1
  As  As19  1  0.000000  0.110408  0.425384  1
  As  As20  1  0.000000  0.314976  0.889592  1
