# generated using pymatgen
data_HfZr3(InN)2
_symmetry_space_group_name_H-M   'P 1'
_cell_length_a   3.30072500
_cell_length_b   3.30072588
_cell_length_c   14.90228900
_cell_angle_alpha   90.00000000
_cell_angle_beta   90.00000000
_cell_angle_gamma   119.99998121
_symmetry_Int_Tables_number   1
_chemical_formula_structural   HfZr3(InN)2
_chemical_formula_sum   'Hf1 Zr3 In2 N2'
_cell_volume   140.60556039
_cell_formula_units_Z   1
loop_
 _symmetry_equiv_pos_site_id
 _symmetry_equiv_pos_as_xyz
  1  'x, y, z'
loop_
 _atom_site_type_symbol
 _atom_site_label
 _atom_site_symmetry_multiplicity
 _atom_site_fract_x
 _atom_site_fract_y
 _atom_site_fract_z
 _atom_site_occupancy
  Hf  Hf0  1  0.333333  0.666667  0.417254  1
  Zr  Zr1  1  0.666667  0.333333  0.583025  1
  Zr  Zr2  1  0.666667  0.333333  0.916478  1
  Zr  Zr3  1  0.333333  0.666667  0.085473  1
  In  In4  1  0.333333  0.666667  0.749454  1
  In  In5  1  0.666667  0.333333  0.252137  1
  N  N6  1  0.000000  0.000000  0.495268  1
  N  N7  1  0.000000  0.000000  0.000912  1
