# generated using pymatgen
data_Zr10CdHgBi4
_symmetry_space_group_name_H-M   'P 1'
_cell_length_a   5.68133442
_cell_length_b   8.58009871
_cell_length_c   8.58009875
_cell_angle_alpha   83.70707542
_cell_angle_beta   70.66588509
_cell_angle_gamma   70.66587748
_symmetry_Int_Tables_number   1
_chemical_formula_structural   Zr10CdHgBi4
_chemical_formula_sum   'Zr10 Cd1 Hg1 Bi4'
_cell_volume   372.40408974
_cell_formula_units_Z   1
loop_
 _symmetry_equiv_pos_site_id
 _symmetry_equiv_pos_as_xyz
  1  'x, y, z'
loop_
 _atom_site_type_symbol
 _atom_site_label
 _atom_site_symmetry_multiplicity
 _atom_site_fract_x
 _atom_site_fract_y
 _atom_site_fract_z
 _atom_site_occupancy
  Zr  Zr0  1  0.250000  0.500000  0.500000  1
  Zr  Zr1  1  0.750000  0.500000  0.500000  1
  Zr  Zr2  1  0.076038  0.146346  0.701237  1
  Zr  Zr3  1  0.923621  0.853654  0.298763  1
  Zr  Zr4  1  0.777275  0.298763  0.146346  1
  Zr  Zr5  1  0.423962  0.298763  0.853654  1
  Zr  Zr6  1  0.222384  0.701237  0.853654  1
  Zr  Zr7  1  0.576379  0.701237  0.146346  1
  Zr  Zr8  1  0.722725  0.853654  0.701237  1
  Zr  Zr9  1  0.277616  0.146346  0.298763  1
  Cd  Cd10  1  0.750000  0.000000  0.000000  1
  Hg  Hg11  1  0.250000  0.000000  0.000000  1
  Bi  Bi12  1  0.164990  0.500000  0.170019  1
  Bi  Bi13  1  0.835010  0.500000  0.829981  1
  Bi  Bi14  1  0.335010  0.829981  0.500000  1
  Bi  Bi15  1  0.664990  0.170019  0.500000  1
