# generated using pymatgen
data_EuHoB8
_symmetry_space_group_name_H-M   'P 1'
_cell_length_a   7.17335294
_cell_length_b   7.17335294
_cell_length_c   4.07297600
_cell_angle_alpha   90.00000000
_cell_angle_beta   90.00000000
_cell_angle_gamma   89.18608647
_symmetry_Int_Tables_number   1
_chemical_formula_structural   EuHoB8
_chemical_formula_sum   'Eu2 Ho2 B16'
_cell_volume   209.56194916
_cell_formula_units_Z   2
loop_
 _symmetry_equiv_pos_site_id
 _symmetry_equiv_pos_as_xyz
  1  'x, y, z'
loop_
 _atom_site_type_symbol
 _atom_site_label
 _atom_site_symmetry_multiplicity
 _atom_site_fract_x
 _atom_site_fract_y
 _atom_site_fract_z
 _atom_site_occupancy
  Eu  Eu0  1  0.316010  0.183990  0.000000  1
  Eu  Eu1  1  0.683990  0.816010  0.000000  1
  Ho  Ho2  1  0.182807  0.682807  0.000000  1
  Ho  Ho3  1  0.817193  0.317193  0.000000  1
  B  B4  1  0.500000  0.500000  0.796669  1
  B  B5  1  0.087209  0.412791  0.500000  1
  B  B6  1  0.586923  0.086923  0.500000  1
  B  B7  1  0.675092  0.536957  0.500000  1
  B  B8  1  0.912791  0.587209  0.500000  1
  B  B9  1  0.460828  0.675882  0.500000  1
  B  B10  1  0.000000  0.000000  0.203331  1
  B  B11  1  0.500000  0.500000  0.203331  1
  B  B12  1  0.000000  0.000000  0.796669  1
  B  B13  1  0.824118  0.039172  0.500000  1
  B  B14  1  0.413077  0.913077  0.500000  1
  B  B15  1  0.963043  0.824908  0.500000  1
  B  B16  1  0.324908  0.463043  0.500000  1
  B  B17  1  0.539172  0.324118  0.500000  1
  B  B18  1  0.036957  0.175092  0.500000  1
  B  B19  1  0.175882  0.960828  0.500000  1
