# generated using pymatgen
data_Dy3Er3Hf2(Co4P3)4
_symmetry_space_group_name_H-M   'P 1'
_cell_length_a   3.70894300
_cell_length_b   10.66209702
_cell_length_c   12.35906003
_cell_angle_alpha   90.00745596
_cell_angle_beta   90.00000000
_cell_angle_gamma   90.00000000
_symmetry_Int_Tables_number   1
_chemical_formula_structural   Dy3Er3Hf2(Co4P3)4
_chemical_formula_sum   'Dy3 Er3 Hf2 Co16 P12'
_cell_volume   488.74038554
_cell_formula_units_Z   1
loop_
 _symmetry_equiv_pos_site_id
 _symmetry_equiv_pos_as_xyz
  1  'x, y, z'
loop_
 _atom_site_type_symbol
 _atom_site_label
 _atom_site_symmetry_multiplicity
 _atom_site_fract_x
 _atom_site_fract_y
 _atom_site_fract_z
 _atom_site_occupancy
  Dy  Dy0  1  0.000000  0.500141  0.528767  1
  Dy  Dy1  1  0.500000  0.999922  0.470960  1
  Dy  Dy2  1  0.000000  0.322005  0.795721  1
  Er  Er3  1  0.500000  0.822092  0.204308  1
  Er  Er4  1  0.500000  0.177802  0.204095  1
  Er  Er5  1  0.000000  0.678125  0.795863  1
  Hf  Hf6  1  0.500000  0.500117  0.157015  1
  Hf  Hf7  1  0.000000  0.999714  0.843008  1
  Co  Co8  1  0.500000  0.500803  0.703293  1
  Co  Co9  1  0.000000  0.999891  0.296405  1
  Co  Co10  1  0.000000  0.500370  0.986884  1
  Co  Co11  1  0.500000  0.999681  0.013694  1
  Co  Co12  1  0.500000  0.332114  0.993756  1
  Co  Co13  1  0.500000  0.668230  0.993550  1
  Co  Co14  1  0.000000  0.167663  0.007153  1
  Co  Co15  1  0.000000  0.832019  0.006836  1
  Co  Co16  1  0.500000  0.295030  0.432573  1
  Co  Co17  1  0.500000  0.705010  0.432901  1
  Co  Co18  1  0.000000  0.204808  0.566511  1
  Co  Co19  1  0.000000  0.795192  0.566981  1
  Co  Co20  1  0.500000  0.877324  0.703420  1
  Co  Co21  1  0.500000  0.121894  0.702737  1
  Co  Co22  1  0.000000  0.622576  0.296701  1
  Co  Co23  1  0.000000  0.377424  0.296478  1
  P  P24  1  0.500000  0.500698  0.883505  1
  P  P25  1  0.000000  0.999812  0.117096  1
  P  P26  1  0.500000  0.500018  0.361623  1
  P  P27  1  0.000000  0.000105  0.638267  1
  P  P28  1  0.500000  0.310074  0.615522  1
  P  P29  1  0.500000  0.689976  0.616237  1
  P  P30  1  0.000000  0.189617  0.383367  1
  P  P31  1  0.000000  0.810257  0.383669  1
  P  P32  1  0.500000  0.837975  0.892623  1
  P  P33  1  0.500000  0.161337  0.893339  1
  P  P34  1  0.000000  0.662117  0.107677  1
  P  P35  1  0.000000  0.338070  0.107465  1
