# generated using pymatgen
data_Tm8Nb11ReSi16
_symmetry_space_group_name_H-M   'P 1'
_cell_length_a   7.00380905
_cell_length_b   7.00946193
_cell_length_c   12.95539490
_cell_angle_alpha   89.84427640
_cell_angle_beta   89.92464915
_cell_angle_gamma   90.04924265
_symmetry_Int_Tables_number   1
_chemical_formula_structural   Tm8Nb11ReSi16
_chemical_formula_sum   'Tm8 Nb11 Re1 Si16'
_cell_volume   636.01519603
_cell_formula_units_Z   1
loop_
 _symmetry_equiv_pos_site_id
 _symmetry_equiv_pos_as_xyz
  1  'x, y, z'
loop_
 _atom_site_type_symbol
 _atom_site_label
 _atom_site_symmetry_multiplicity
 _atom_site_fract_x
 _atom_site_fract_y
 _atom_site_fract_z
 _atom_site_occupancy
  Tm  Tm0  1  0.999549  0.340015  0.220476  1
  Tm  Tm1  1  0.001176  0.660470  0.716755  1
  Tm  Tm2  1  0.160125  0.499953  0.468046  1
  Tm  Tm3  1  0.499857  0.840658  0.033202  1
  Tm  Tm4  1  0.839606  0.500875  0.968246  1
  Tm  Tm5  1  0.499131  0.158837  0.530349  1
  Tm  Tm6  1  0.339950  0.000337  0.781138  1
  Tm  Tm7  1  0.659940  0.000625  0.281724  1
  Nb  Nb8  1  0.170258  0.170648  0.001046  1
  Nb  Nb9  1  0.828352  0.830502  0.499842  1
  Nb  Nb10  1  0.328278  0.668125  0.250189  1
  Nb  Nb11  1  0.669556  0.329672  0.750397  1
  Nb  Nb12  1  0.846091  0.006867  0.875801  1
  Nb  Nb13  1  0.505342  0.656250  0.623947  1
  Nb  Nb14  1  0.345902  0.493282  0.873263  1
  Nb  Nb15  1  0.489701  0.343531  0.127797  1
  Nb  Nb16  1  0.654890  0.506158  0.374135  1
  Nb  Nb17  1  0.995581  0.154213  0.622412  1
  Nb  Nb18  1  0.005172  0.847358  0.123991  1
  Re  Re19  1  0.158537  0.995904  0.376237  1
  Si  Si20  1  0.293792  0.040362  0.189782  1
  Si  Si21  1  0.704797  0.956809  0.686669  1
  Si  Si22  1  0.452584  0.796408  0.434526  1
  Si  Si23  1  0.203716  0.544210  0.063462  1
  Si  Si24  1  0.543106  0.203539  0.937154  1
  Si  Si25  1  0.794943  0.455244  0.563343  1
  Si  Si26  1  0.043432  0.296527  0.813175  1
  Si  Si27  1  0.960315  0.710961  0.314119  1
  Si  Si28  1  0.366787  0.290018  0.320675  1
  Si  Si29  1  0.632972  0.706270  0.817898  1
  Si  Si30  1  0.202977  0.868107  0.565288  1
  Si  Si31  1  0.133967  0.795594  0.932020  1
  Si  Si32  1  0.794951  0.134310  0.069060  1
  Si  Si33  1  0.872661  0.199799  0.430349  1
  Si  Si34  1  0.296397  0.366153  0.680955  1
  Si  Si35  1  0.705611  0.631414  0.182531  1
