# generated using pymatgen
data_Y8Sn(PdPt2)8
_symmetry_space_group_name_H-M   'P 1'
_cell_length_a   8.41868100
_cell_length_b   8.43215906
_cell_length_c   8.43854806
_cell_angle_alpha   90.01344884
_cell_angle_beta   90.00000000
_cell_angle_gamma   90.00000000
_symmetry_Int_Tables_number   1
_chemical_formula_structural   Y8Sn(PdPt2)8
_chemical_formula_sum   'Y8 Sn1 Pd8 Pt16'
_cell_volume   599.03274074
_cell_formula_units_Z   1
loop_
 _symmetry_equiv_pos_site_id
 _symmetry_equiv_pos_as_xyz
  1  'x, y, z'
loop_
 _atom_site_type_symbol
 _atom_site_label
 _atom_site_symmetry_multiplicity
 _atom_site_fract_x
 _atom_site_fract_y
 _atom_site_fract_z
 _atom_site_occupancy
  Y  Y0  1  0.250745  0.251670  0.252033  1
  Y  Y1  1  0.747562  0.748118  0.747036  1
  Y  Y2  1  0.748292  0.748028  0.252878  1
  Y  Y3  1  0.748759  0.251682  0.747963  1
  Y  Y4  1  0.251241  0.251682  0.747963  1
  Y  Y5  1  0.251708  0.748028  0.252878  1
  Y  Y6  1  0.252438  0.748118  0.747036  1
  Y  Y7  1  0.749255  0.251670  0.252033  1
  Sn  Sn8  1  0.000000  0.002231  0.000345  1
  Pd  Pd9  1  0.000000  0.500391  0.734806  1
  Pd  Pd10  1  0.500000  0.255432  0.500070  1
  Pd  Pd11  1  0.500000  0.744712  0.500045  1
  Pd  Pd12  1  0.500000  0.499855  0.255443  1
  Pd  Pd13  1  0.500000  0.499863  0.744193  1
  Pd  Pd14  1  0.000000  0.691555  0.999454  1
  Pd  Pd15  1  0.000000  0.999236  0.310256  1
  Pd  Pd16  1  0.000000  0.999278  0.689969  1
  Pt  Pt17  1  0.265847  0.499961  0.999963  1
  Pt  Pt18  1  0.734153  0.499961  0.999963  1
  Pt  Pt19  1  0.000000  0.264431  0.500387  1
  Pt  Pt20  1  0.500000  0.265741  0.000019  1
  Pt  Pt21  1  0.000000  0.734578  0.500414  1
  Pt  Pt22  1  0.500000  0.732532  0.000074  1
  Pt  Pt23  1  0.500000  0.000013  0.266468  1
  Pt  Pt24  1  0.265378  0.000063  0.500040  1
  Pt  Pt25  1  0.500000  0.000037  0.733791  1
  Pt  Pt26  1  0.734622  0.000063  0.500040  1
  Pt  Pt27  1  0.000000  0.500359  0.265201  1
  Pt  Pt28  1  0.253613  0.499937  0.499889  1
  Pt  Pt29  1  0.746387  0.499937  0.499889  1
  Pt  Pt30  1  0.311246  0.999004  0.999898  1
  Pt  Pt31  1  0.688754  0.999004  0.999898  1
  Pt  Pt32  1  0.000000  0.312831  0.999670  1
