# generated using pymatgen
data_Er3Hf(P3Pd4)2
_symmetry_space_group_name_H-M   'P 1'
_cell_length_a   3.96923900
_cell_length_b   11.40124300
_cell_length_c   13.26827700
_cell_angle_alpha   90.00000000
_cell_angle_beta   90.00000000
_cell_angle_gamma   90.00000000
_symmetry_Int_Tables_number   1
_chemical_formula_structural   Er3Hf(P3Pd4)2
_chemical_formula_sum   'Er6 Hf2 P12 Pd16'
_cell_volume   600.44603540
_cell_formula_units_Z   2
loop_
 _symmetry_equiv_pos_site_id
 _symmetry_equiv_pos_as_xyz
  1  'x, y, z'
loop_
 _atom_site_type_symbol
 _atom_site_label
 _atom_site_symmetry_multiplicity
 _atom_site_fract_x
 _atom_site_fract_y
 _atom_site_fract_z
 _atom_site_occupancy
  Er  Er0  1  0.750000  0.250000  0.477148  1
  Er  Er1  1  0.250000  0.750000  0.522852  1
  Er  Er2  1  0.250000  0.932853  0.795872  1
  Er  Er3  1  0.250000  0.567147  0.795872  1
  Er  Er4  1  0.750000  0.067147  0.204128  1
  Er  Er5  1  0.750000  0.432853  0.204128  1
  Hf  Hf6  1  0.250000  0.250000  0.842887  1
  Hf  Hf7  1  0.750000  0.750000  0.157113  1
  P  P8  1  0.250000  0.250000  0.128380  1
  P  P9  1  0.750000  0.750000  0.871620  1
  P  P10  1  0.250000  0.250000  0.642996  1
  P  P11  1  0.750000  0.750000  0.357004  1
  P  P12  1  0.250000  0.430233  0.383003  1
  P  P13  1  0.250000  0.069767  0.383003  1
  P  P14  1  0.750000  0.569767  0.616997  1
  P  P15  1  0.750000  0.930233  0.616997  1
  P  P16  1  0.250000  0.904910  0.116930  1
  P  P17  1  0.250000  0.595090  0.116930  1
  P  P18  1  0.750000  0.095090  0.883070  1
  P  P19  1  0.750000  0.404910  0.883070  1
  Pd  Pd20  1  0.250000  0.250000  0.301452  1
  Pd  Pd21  1  0.750000  0.750000  0.698548  1
  Pd  Pd22  1  0.750000  0.250000  0.016790  1
  Pd  Pd23  1  0.250000  0.750000  0.983210  1
  Pd  Pd24  1  0.250000  0.418642  0.024782  1
  Pd  Pd25  1  0.250000  0.081358  0.024782  1
  Pd  Pd26  1  0.750000  0.581358  0.975218  1
  Pd  Pd27  1  0.750000  0.918642  0.975218  1
  Pd  Pd28  1  0.250000  0.446166  0.564594  1
  Pd  Pd29  1  0.250000  0.053834  0.564594  1
  Pd  Pd30  1  0.750000  0.553834  0.435406  1
  Pd  Pd31  1  0.750000  0.946166  0.435406  1
  Pd  Pd32  1  0.250000  0.877966  0.295100  1
  Pd  Pd33  1  0.250000  0.622034  0.295100  1
  Pd  Pd34  1  0.750000  0.122034  0.704900  1
  Pd  Pd35  1  0.750000  0.377966  0.704900  1
