# generated using pymatgen
data_Tb3Tm5Cd2IrRu
_symmetry_space_group_name_H-M   'P 1'
_cell_length_a   9.55443167
_cell_length_b   9.55443298
_cell_length_c   9.60289400
_cell_angle_alpha   59.83206710
_cell_angle_beta   59.83206254
_cell_angle_gamma   59.67370242
_symmetry_Int_Tables_number   1
_chemical_formula_structural   Tb3Tm5Cd2IrRu
_chemical_formula_sum   'Tb6 Tm10 Cd4 Ir2 Ru2'
_cell_volume   616.75526605
_cell_formula_units_Z   2
loop_
 _symmetry_equiv_pos_site_id
 _symmetry_equiv_pos_as_xyz
  1  'x, y, z'
loop_
 _atom_site_type_symbol
 _atom_site_label
 _atom_site_symmetry_multiplicity
 _atom_site_fract_x
 _atom_site_fract_y
 _atom_site_fract_z
 _atom_site_occupancy
  Tb  Tb0  1  0.189797  0.808453  0.811294  1
  Tb  Tb1  1  0.808453  0.189797  0.190455  1
  Tb  Tb2  1  0.808453  0.189797  0.811294  1
  Tb  Tb3  1  0.189797  0.808453  0.190455  1
  Tb  Tb4  1  0.810404  0.810404  0.189596  1
  Tb  Tb5  1  0.190931  0.190931  0.809069  1
  Tm  Tm6  1  0.597637  0.597637  0.597417  1
  Tm  Tm7  1  0.597637  0.597637  0.207310  1
  Tm  Tm8  1  0.597314  0.208299  0.597193  1
  Tm  Tm9  1  0.208299  0.597314  0.597193  1
  Tm  Tm10  1  0.063195  0.437266  0.438256  1
  Tm  Tm11  1  0.437266  0.063195  0.061284  1
  Tm  Tm12  1  0.437266  0.063195  0.438256  1
  Tm  Tm13  1  0.063195  0.437266  0.061284  1
  Tm  Tm14  1  0.437076  0.437076  0.062924  1
  Tm  Tm15  1  0.060942  0.060942  0.439058  1
  Cd  Cd16  1  0.830347  0.830347  0.830363  1
  Cd  Cd17  1  0.830347  0.830347  0.508944  1
  Cd  Cd18  1  0.830530  0.508155  0.830657  1
  Cd  Cd19  1  0.508155  0.830530  0.830657  1
  Ir  Ir20  1  0.392957  0.826954  0.390045  1
  Ir  Ir21  1  0.826954  0.392957  0.390045  1
  Ru  Ru22  1  0.391525  0.391525  0.388701  1
  Ru  Ru23  1  0.391525  0.391525  0.828249  1
