# generated using pymatgen
data_TaTi3(NbSi)6
_symmetry_space_group_name_H-M   'P 1'
_cell_length_a   7.56222552
_cell_length_b   7.54741627
_cell_length_c   7.56030471
_cell_angle_alpha   128.72047267
_cell_angle_beta   128.77537867
_cell_angle_gamma   75.34651850
_symmetry_Int_Tables_number   1
_chemical_formula_structural   TaTi3(NbSi)6
_chemical_formula_sum   'Ta1 Ti3 Nb6 Si6'
_cell_volume   255.54373636
_cell_formula_units_Z   1
loop_
 _symmetry_equiv_pos_site_id
 _symmetry_equiv_pos_as_xyz
  1  'x, y, z'
loop_
 _atom_site_type_symbol
 _atom_site_label
 _atom_site_symmetry_multiplicity
 _atom_site_fract_x
 _atom_site_fract_y
 _atom_site_fract_z
 _atom_site_occupancy
  Ta  Ta0  1  0.814104  0.316057  0.831497  1
  Ti  Ti1  1  0.015353  0.185619  0.500430  1
  Ti  Ti2  1  0.000745  0.999513  0.999262  1
  Ti  Ti3  1  0.501668  0.500319  0.000997  1
  Nb  Nb4  1  0.686196  0.517047  0.500700  1
  Nb  Nb5  1  0.517613  0.017409  0.831432  1
  Nb  Nb6  1  0.186604  0.686251  0.168633  1
  Nb  Nb7  1  0.983679  0.813449  0.499607  1
  Nb  Nb8  1  0.314493  0.481824  0.499733  1
  Nb  Nb9  1  0.481400  0.982954  0.167686  1
  Si  Si10  1  0.751927  0.753158  0.003296  1
  Si  Si11  1  0.248051  0.250390  0.996637  1
  Si  Si12  1  0.365626  0.131432  0.500595  1
  Si  Si13  1  0.631585  0.870356  0.500242  1
  Si  Si14  1  0.870422  0.366933  0.239412  1
  Si  Si15  1  0.130535  0.627288  0.759843  1
