# generated using pymatgen
data_Yb6RuPt
_symmetry_space_group_name_H-M   'P 1'
_cell_length_a   6.31752300
_cell_length_b   7.61779100
_cell_length_c   9.29427900
_cell_angle_alpha   90.00000000
_cell_angle_beta   90.00000000
_cell_angle_gamma   90.00000000
_symmetry_Int_Tables_number   1
_chemical_formula_structural   Yb6RuPt
_chemical_formula_sum   'Yb12 Ru2 Pt2'
_cell_volume   447.29247324
_cell_formula_units_Z   2
loop_
 _symmetry_equiv_pos_site_id
 _symmetry_equiv_pos_as_xyz
  1  'x, y, z'
loop_
 _atom_site_type_symbol
 _atom_site_label
 _atom_site_symmetry_multiplicity
 _atom_site_fract_x
 _atom_site_fract_y
 _atom_site_fract_z
 _atom_site_occupancy
  Yb  Yb0  1  0.339925  0.668094  0.071396  1
  Yb  Yb1  1  0.160075  0.168094  0.428604  1
  Yb  Yb2  1  0.655380  0.330314  0.559548  1
  Yb  Yb3  1  0.844620  0.830314  0.940452  1
  Yb  Yb4  1  0.655380  0.330314  0.940452  1
  Yb  Yb5  1  0.844620  0.830314  0.559548  1
  Yb  Yb6  1  0.339925  0.668094  0.428604  1
  Yb  Yb7  1  0.160075  0.168094  0.071396  1
  Yb  Yb8  1  0.867533  0.539542  0.250000  1
  Yb  Yb9  1  0.632467  0.039542  0.250000  1
  Yb  Yb10  1  0.137659  0.460660  0.750000  1
  Yb  Yb11  1  0.362341  0.960660  0.750000  1
  Ru  Ru12  1  0.042242  0.879843  0.250000  1
  Ru  Ru13  1  0.457758  0.379843  0.250000  1
  Pt  Pt14  1  0.947033  0.123138  0.750000  1
  Pt  Pt15  1  0.552967  0.623138  0.750000  1
