# generated using pymatgen
data_YbZrB4Ru5
_symmetry_space_group_name_H-M   'P 1'
_cell_length_a   3.01361900
_cell_length_b   8.70238325
_cell_length_c   10.15686294
_cell_angle_alpha   89.32797753
_cell_angle_beta   90.00000000
_cell_angle_gamma   90.00000000
_symmetry_Int_Tables_number   1
_chemical_formula_structural   YbZrB4Ru5
_chemical_formula_sum   'Yb2 Zr2 B8 Ru10'
_cell_volume   266.35218842
_cell_formula_units_Z   2
loop_
 _symmetry_equiv_pos_site_id
 _symmetry_equiv_pos_as_xyz
  1  'x, y, z'
loop_
 _atom_site_type_symbol
 _atom_site_label
 _atom_site_symmetry_multiplicity
 _atom_site_fract_x
 _atom_site_fract_y
 _atom_site_fract_z
 _atom_site_occupancy
  Yb  Yb0  1  0.500000  0.839820  0.180660  1
  Yb  Yb1  1  0.500000  0.160180  0.819340  1
  Zr  Zr2  1  0.500000  0.660435  0.682612  1
  Zr  Zr3  1  0.500000  0.339565  0.317388  1
  B  B4  1  0.500000  0.967730  0.587766  1
  B  B5  1  0.500000  0.032270  0.412234  1
  B  B6  1  0.500000  0.854508  0.901052  1
  B  B7  1  0.500000  0.145492  0.098948  1
  B  B8  1  0.500000  0.647625  0.397843  1
  B  B9  1  0.500000  0.352375  0.602157  1
  B  B10  1  0.500000  0.465976  0.912273  1
  B  B11  1  0.500000  0.534024  0.087727  1
  Ru  Ru12  1  0.000000  0.658731  0.951638  1
  Ru  Ru13  1  0.000000  0.341269  0.048362  1
  Ru  Ru14  1  0.000000  0.835100  0.455075  1
  Ru  Ru15  1  0.000000  0.164900  0.544925  1
  Ru  Ru16  1  0.000000  0.000000  0.000000  1
  Ru  Ru17  1  0.000000  0.411005  0.760891  1
  Ru  Ru18  1  0.000000  0.588995  0.239109  1
  Ru  Ru19  1  0.000000  0.500000  0.500000  1
  Ru  Ru20  1  0.000000  0.903906  0.737884  1
  Ru  Ru21  1  0.000000  0.096094  0.262116  1
