# generated using pymatgen
data_Sm2Fe7CoB8
_symmetry_space_group_name_H-M   'P 1'
_cell_length_a   7.02566031
_cell_length_b   7.01638357
_cell_length_c   3.80488966
_cell_angle_alpha   90.03000244
_cell_angle_beta   89.93936887
_cell_angle_gamma   90.12727255
_symmetry_Int_Tables_number   1
_chemical_formula_structural   Sm2Fe7CoB8
_chemical_formula_sum   'Sm2 Fe7 Co1 B8'
_cell_volume   187.56040617
_cell_formula_units_Z   1
loop_
 _symmetry_equiv_pos_site_id
 _symmetry_equiv_pos_as_xyz
  1  'x, y, z'
loop_
 _atom_site_type_symbol
 _atom_site_label
 _atom_site_symmetry_multiplicity
 _atom_site_fract_x
 _atom_site_fract_y
 _atom_site_fract_z
 _atom_site_occupancy
  Sm  Sm0  1  0.000780  0.001016  0.000224  1
  Sm  Sm1  1  0.499575  0.500012  0.499913  1
  Fe  Fe2  1  0.387476  0.132498  0.893903  1
  Fe  Fe3  1  0.613260  0.868293  0.893539  1
  Fe  Fe4  1  0.367749  0.887021  0.393896  1
  Fe  Fe5  1  0.633178  0.113461  0.393431  1
  Fe  Fe6  1  0.111724  0.368223  0.605931  1
  Fe  Fe7  1  0.885993  0.630995  0.606597  1
  Fe  Fe8  1  0.131210  0.612532  0.107006  1
  Co  Co9  1  0.864877  0.387254  0.107257  1
  B  B10  1  0.800086  0.668950  0.105091  1
  B  B11  1  0.206223  0.335464  0.104231  1
  B  B12  1  0.835608  0.296843  0.604237  1
  B  B13  1  0.165412  0.701501  0.605622  1
  B  B14  1  0.700401  0.834205  0.394995  1
  B  B15  1  0.297723  0.165108  0.395212  1
  B  B16  1  0.664770  0.198051  0.893680  1
  B  B17  1  0.333954  0.798574  0.895236  1
