# generated using pymatgen
data_GdScB6W
_symmetry_space_group_name_H-M   'P 1'
_cell_length_a   3.51608700
_cell_length_b   9.19132400
_cell_length_c   11.59892700
_cell_angle_alpha   90.00000000
_cell_angle_beta   90.00000000
_cell_angle_gamma   90.00000000
_symmetry_Int_Tables_number   1
_chemical_formula_structural   GdScB6W
_chemical_formula_sum   'Gd4 Sc4 B24 W4'
_cell_volume   374.84826335
_cell_formula_units_Z   4
loop_
 _symmetry_equiv_pos_site_id
 _symmetry_equiv_pos_as_xyz
  1  'x, y, z'
loop_
 _atom_site_type_symbol
 _atom_site_label
 _atom_site_symmetry_multiplicity
 _atom_site_fract_x
 _atom_site_fract_y
 _atom_site_fract_z
 _atom_site_occupancy
  Gd  Gd0  1  0.000000  0.320006  0.414551  1
  Gd  Gd1  1  0.000000  0.679994  0.585449  1
  Gd  Gd2  1  0.000000  0.820006  0.085449  1
  Gd  Gd3  1  0.000000  0.179994  0.914551  1
  Sc  Sc4  1  0.000000  0.945214  0.372266  1
  Sc  Sc5  1  0.000000  0.054786  0.627734  1
  Sc  Sc6  1  0.000000  0.445214  0.127734  1
  Sc  Sc7  1  0.000000  0.554786  0.872266  1
  B  B8  1  0.500000  0.552982  0.433853  1
  B  B9  1  0.500000  0.447018  0.566147  1
  B  B10  1  0.500000  0.052982  0.066147  1
  B  B11  1  0.500000  0.947018  0.933853  1
  B  B12  1  0.500000  0.757128  0.419855  1
  B  B13  1  0.500000  0.242872  0.580145  1
  B  B14  1  0.500000  0.257128  0.080145  1
  B  B15  1  0.500000  0.742872  0.919855  1
  B  B16  1  0.500000  0.797816  0.264155  1
  B  B17  1  0.500000  0.202184  0.735845  1
  B  B18  1  0.500000  0.297816  0.235845  1
  B  B19  1  0.500000  0.702184  0.764155  1
  B  B20  1  0.500000  0.628658  0.180856  1
  B  B21  1  0.500000  0.371342  0.819144  1
  B  B22  1  0.500000  0.128658  0.319144  1
  B  B23  1  0.500000  0.871342  0.680856  1
  B  B24  1  0.500000  0.978929  0.214970  1
  B  B25  1  0.500000  0.021071  0.785030  1
  B  B26  1  0.500000  0.478929  0.285030  1
  B  B27  1  0.500000  0.521071  0.714970  1
  B  B28  1  0.500000  0.594560  0.025908  1
  B  B29  1  0.500000  0.405440  0.974092  1
  B  B30  1  0.500000  0.094560  0.474092  1
  B  B31  1  0.500000  0.905440  0.525908  1
  W  W32  1  0.000000  0.641732  0.318343  1
  W  W33  1  0.000000  0.358268  0.681657  1
  W  W34  1  0.000000  0.141732  0.181657  1
  W  W35  1  0.000000  0.858268  0.818343  1
