# generated using pymatgen
data_Y3Th(B10Pt)2
_symmetry_space_group_name_H-M   'P 1'
_cell_length_a   4.18586900
_cell_length_b   5.71645904
_cell_length_c   11.40798507
_cell_angle_alpha   90.01301394
_cell_angle_beta   90.00000000
_cell_angle_gamma   90.00000000
_symmetry_Int_Tables_number   1
_chemical_formula_structural   Y3Th(B10Pt)2
_chemical_formula_sum   'Y3 Th1 B20 Pt2'
_cell_volume   272.97423745
_cell_formula_units_Z   1
loop_
 _symmetry_equiv_pos_site_id
 _symmetry_equiv_pos_as_xyz
  1  'x, y, z'
loop_
 _atom_site_type_symbol
 _atom_site_label
 _atom_site_symmetry_multiplicity
 _atom_site_fract_x
 _atom_site_fract_y
 _atom_site_fract_z
 _atom_site_occupancy
  Y  Y0  1  0.500000  0.313349  0.859890  1
  Y  Y1  1  0.500000  0.687533  0.139857  1
  Y  Y2  1  0.500000  0.813997  0.642973  1
  Th  Th3  1  0.500000  0.193075  0.360147  1
  B  B4  1  0.000000  0.116375  0.544504  1
  B  B5  1  0.000000  0.884384  0.455925  1
  B  B6  1  0.000000  0.616463  0.955898  1
  B  B7  1  0.000000  0.383899  0.043134  1
  B  B8  1  0.000000  0.138874  0.698729  1
  B  B9  1  0.000000  0.861990  0.302170  1
  B  B10  1  0.302735  0.220261  0.118733  1
  B  B11  1  0.302868  0.779819  0.879186  1
  B  B12  1  0.696955  0.716013  0.378385  1
  B  B13  1  0.696662  0.279352  0.621344  1
  B  B14  1  0.697132  0.779819  0.879186  1
  B  B15  1  0.697265  0.220261  0.118733  1
  B  B16  1  0.303338  0.279352  0.621344  1
  B  B17  1  0.303045  0.716013  0.378385  1
  B  B18  1  0.000000  0.054235  0.193251  1
  B  B19  1  0.000000  0.945000  0.806279  1
  B  B20  1  0.000000  0.553124  0.306145  1
  B  B21  1  0.000000  0.445172  0.694677  1
  B  B22  1  0.000000  0.360859  0.197191  1
  B  B23  1  0.000000  0.638073  0.802530  1
  Pt  Pt24  1  0.000000  0.502652  0.502124  1
  Pt  Pt25  1  0.000000  0.000054  0.999277  1
