# generated using pymatgen
data_Tm3In3Ag2Rh
_symmetry_space_group_name_H-M   'P 1'
_cell_length_a   8.00576700
_cell_length_b   8.00576746
_cell_length_c   3.63163800
_cell_angle_alpha   90.00000000
_cell_angle_beta   90.00000000
_cell_angle_gamma   119.99999285
_symmetry_Int_Tables_number   1
_chemical_formula_structural   Tm3In3Ag2Rh
_chemical_formula_sum   'Tm3 In3 Ag2 Rh1'
_cell_volume   201.57614360
_cell_formula_units_Z   1
loop_
 _symmetry_equiv_pos_site_id
 _symmetry_equiv_pos_as_xyz
  1  'x, y, z'
loop_
 _atom_site_type_symbol
 _atom_site_label
 _atom_site_symmetry_multiplicity
 _atom_site_fract_x
 _atom_site_fract_y
 _atom_site_fract_z
 _atom_site_occupancy
  Tm  Tm0  1  0.961839  0.380776  0.500000  1
  Tm  Tm1  1  0.619224  0.581063  0.500000  1
  Tm  Tm2  1  0.418937  0.038161  0.500000  1
  In  In3  1  0.268706  0.283091  0.000000  1
  In  In4  1  0.014385  0.731294  0.000000  1
  In  In5  1  0.716909  0.985615  0.000000  1
  Ag  Ag6  1  0.333333  0.666667  0.000000  1
  Ag  Ag7  1  0.000000  0.000000  0.500000  1
  Rh  Rh8  1  0.666667  0.333333  0.000000  1
