# generated using pymatgen
data_Y7ErTi11Si16Ag
_symmetry_space_group_name_H-M   'P 1'
_cell_length_a   7.07537415
_cell_length_b   7.07470678
_cell_length_c   12.91802911
_cell_angle_alpha   90.08548779
_cell_angle_beta   89.92281878
_cell_angle_gamma   89.63626795
_symmetry_Int_Tables_number   1
_chemical_formula_structural   Y7ErTi11Si16Ag
_chemical_formula_sum   'Y7 Er1 Ti11 Si16 Ag1'
_cell_volume   646.61307159
_cell_formula_units_Z   1
loop_
 _symmetry_equiv_pos_site_id
 _symmetry_equiv_pos_as_xyz
  1  'x, y, z'
loop_
 _atom_site_type_symbol
 _atom_site_label
 _atom_site_symmetry_multiplicity
 _atom_site_fract_x
 _atom_site_fract_y
 _atom_site_fract_z
 _atom_site_occupancy
  Y  Y0  1  0.340878  0.002083  0.466557  1
  Y  Y1  1  0.497541  0.840804  0.716756  1
  Y  Y2  1  0.501555  0.157960  0.214468  1
  Y  Y3  1  0.840903  0.497548  0.283175  1
  Y  Y4  1  0.157791  0.501552  0.785632  1
  Y  Y5  1  0.656701  0.000887  0.968450  1
  Y  Y6  1  0.002056  0.340875  0.533440  1
  Er  Er7  1  0.001434  0.656256  0.031728  1
  Ti  Ti8  1  0.173827  0.826074  0.249758  1
  Ti  Ti9  1  0.826280  0.174158  0.750103  1
  Ti  Ti10  1  0.672772  0.672767  0.499997  1
  Ti  Ti11  1  0.147399  0.008412  0.877015  1
  Ti  Ti12  1  0.494811  0.650625  0.123178  1
  Ti  Ti13  1  0.508565  0.350086  0.625184  1
  Ti  Ti14  1  0.651016  0.495008  0.876965  1
  Ti  Ti15  1  0.350034  0.508508  0.374756  1
  Ti  Ti16  1  0.849710  0.991141  0.374282  1
  Ti  Ti17  1  0.008634  0.147472  0.123096  1
  Ti  Ti18  1  0.991246  0.849655  0.625724  1
  Si  Si19  1  0.201959  0.132057  0.684799  1
  Si  Si20  1  0.373002  0.718802  0.929769  1
  Si  Si21  1  0.630816  0.294315  0.432953  1
  Si  Si22  1  0.720185  0.374819  0.070354  1
  Si  Si23  1  0.294411  0.630744  0.567023  1
  Si  Si24  1  0.798361  0.867157  0.182513  1
  Si  Si25  1  0.131901  0.201982  0.315236  1
  Si  Si26  1  0.868079  0.797325  0.817366  1
  Si  Si27  1  0.284911  0.937259  0.065981  1
  Si  Si28  1  0.547051  0.790220  0.314277  1
  Si  Si29  1  0.455318  0.208893  0.808690  1
  Si  Si30  1  0.790159  0.546797  0.685799  1
  Si  Si31  1  0.208133  0.455757  0.190842  1
  Si  Si32  1  0.709613  0.047584  0.564000  1
  Si  Si33  1  0.938468  0.286819  0.934173  1
  Si  Si34  1  0.047454  0.709664  0.435960  1
  Ag  Ag35  1  0.327027  0.327939  0.000004  1
