# generated using pymatgen
data_CaLa18LuGa12
_symmetry_space_group_name_H-M   'P 1'
_cell_length_a   7.97172300
_cell_length_b   7.97172300
_cell_length_c   14.96008300
_cell_angle_alpha   90.00000000
_cell_angle_beta   90.00000000
_cell_angle_gamma   90.00000000
_symmetry_Int_Tables_number   1
_chemical_formula_structural   CaLa18LuGa12
_chemical_formula_sum   'Ca1 La18 Lu1 Ga12'
_cell_volume   950.68885364
_cell_formula_units_Z   1
loop_
 _symmetry_equiv_pos_site_id
 _symmetry_equiv_pos_as_xyz
  1  'x, y, z'
loop_
 _atom_site_type_symbol
 _atom_site_label
 _atom_site_symmetry_multiplicity
 _atom_site_fract_x
 _atom_site_fract_y
 _atom_site_fract_z
 _atom_site_occupancy
  Ca  Ca0  1  0.500000  0.000000  0.768511  1
  La  La1  1  0.337314  0.312445  0.104018  1
  La  La2  1  0.837858  0.812460  0.897102  1
  La  La3  1  0.839915  0.182302  0.396080  1
  La  La4  1  0.162142  0.187540  0.897102  1
  La  La5  1  0.662686  0.687555  0.104018  1
  La  La6  1  0.000000  0.500000  0.707283  1
  La  La7  1  0.818937  0.839760  0.603047  1
  La  La8  1  0.317698  0.339915  0.396080  1
  La  La9  1  0.187555  0.837314  0.104018  1
  La  La10  1  0.181063  0.160240  0.603047  1
  La  La11  1  0.812445  0.162686  0.104018  1
  La  La12  1  0.339760  0.681063  0.603047  1
  La  La13  1  0.500000  0.000000  0.292135  1
  La  La14  1  0.687540  0.337858  0.897102  1
  La  La15  1  0.660240  0.318937  0.603047  1
  La  La16  1  0.312460  0.662142  0.897102  1
  La  La17  1  0.160085  0.817698  0.396080  1
  La  La18  1  0.682302  0.660085  0.396080  1
  Lu  Lu19  1  0.000000  0.500000  0.226919  1
  Ga  Ga20  1  0.625154  0.384120  0.247918  1
  Ga  Ga21  1  0.880233  0.117640  0.752034  1
  Ga  Ga22  1  0.500000  0.000000  0.499896  1
  Ga  Ga23  1  0.884120  0.874846  0.247918  1
  Ga  Ga24  1  0.000000  0.500000  0.019930  1
  Ga  Ga25  1  0.119767  0.882360  0.752034  1
  Ga  Ga26  1  0.382360  0.380233  0.752034  1
  Ga  Ga27  1  0.115880  0.125154  0.247918  1
  Ga  Ga28  1  0.374846  0.615880  0.247918  1
  Ga  Ga29  1  0.617640  0.619767  0.752034  1
  Ga  Ga30  1  0.500000  0.000000  0.984341  1
  Ga  Ga31  1  0.000000  0.500000  0.500183  1
