# generated using pymatgen
data_Pa4Al23ZnPt9
_symmetry_space_group_name_H-M   'P 1'
_cell_length_a   7.58564247
_cell_length_b   7.60265696
_cell_length_c   13.11680791
_cell_angle_alpha   84.39378051
_cell_angle_beta   78.82071152
_cell_angle_gamma   59.95115820
_symmetry_Int_Tables_number   1
_chemical_formula_structural   Pa4Al23ZnPt9
_chemical_formula_sum   'Pa4 Al23 Zn1 Pt9'
_cell_volume   642.36622673
_cell_formula_units_Z   1
loop_
 _symmetry_equiv_pos_site_id
 _symmetry_equiv_pos_as_xyz
  1  'x, y, z'
loop_
 _atom_site_type_symbol
 _atom_site_label
 _atom_site_symmetry_multiplicity
 _atom_site_fract_x
 _atom_site_fract_y
 _atom_site_fract_z
 _atom_site_occupancy
  Pa  Pa0  1  0.394450  0.168178  0.806462  1
  Pa  Pa1  1  0.606273  0.831596  0.191691  1
  Pa  Pa2  1  0.734379  0.498401  0.806385  1
  Pa  Pa3  1  0.265499  0.502029  0.193770  1
  Al  Al4  1  0.321406  0.161697  0.052829  1
  Al  Al5  1  0.146183  0.833412  0.561179  1
  Al  Al6  1  0.854257  0.166535  0.439428  1
  Al  Al7  1  0.481140  0.167072  0.558228  1
  Al  Al8  1  0.518809  0.833387  0.441670  1
  Al  Al9  1  0.215597  0.165251  0.330164  1
  Al  Al10  1  0.785674  0.834398  0.668813  1
  Al  Al11  1  0.434845  0.509088  0.670228  1
  Al  Al12  1  0.564760  0.491571  0.329923  1
  Al  Al13  1  0.109843  0.156842  0.668566  1
  Al  Al14  1  0.889478  0.843008  0.331481  1
  Al  Al15  1  0.352066  0.499900  0.946307  1
  Al  Al16  1  0.649158  0.504607  0.052836  1
  Al  Al17  1  0.015959  0.167312  0.953365  1
  Al  Al18  1  0.980404  0.832332  0.045088  1
  Al  Al19  1  0.186386  0.500122  0.442137  1
  Al  Al20  1  0.813598  0.499717  0.558230  1
  Al  Al21  1  0.736011  0.164791  0.182748  1
  Al  Al22  1  0.262619  0.836069  0.818280  1
  Al  Al23  1  0.057915  0.632976  0.818323  1
  Al  Al24  1  0.940003  0.367003  0.183958  1
  Al  Al25  1  0.854112  0.039476  0.819502  1
  Al  Al26  1  0.142925  0.959763  0.182838  1
  Zn  Zn27  1  0.686468  0.833648  0.938632  1
  Pt  Pt28  1  0.119720  0.491428  0.640361  1
  Pt  Pt29  1  0.879808  0.509071  0.360662  1
  Pt  Pt30  1  0.657909  0.177626  0.001547  1
  Pt  Pt31  1  0.335816  0.828597  0.001309  1
  Pt  Pt32  1  0.537318  0.166960  0.360898  1
  Pt  Pt33  1  0.462313  0.833114  0.639878  1
  Pt  Pt34  1  0.778382  0.174745  0.639254  1
  Pt  Pt35  1  0.221778  0.824974  0.361747  1
  Pt  Pt36  1  0.006738  0.493307  0.001285  1
