# generated using pymatgen
data_Tb16InAg3(PtRh)2
_symmetry_space_group_name_H-M   'P 1'
_cell_length_a   9.61958490
_cell_length_b   9.63344091
_cell_length_c   9.65321420
_cell_angle_alpha   60.06774737
_cell_angle_beta   60.10353005
_cell_angle_gamma   59.95234634
_symmetry_Int_Tables_number   1
_chemical_formula_structural   Tb16InAg3(PtRh)2
_chemical_formula_sum   'Tb16 In1 Ag3 Pt2 Rh2'
_cell_volume   633.13821424
_cell_formula_units_Z   1
loop_
 _symmetry_equiv_pos_site_id
 _symmetry_equiv_pos_as_xyz
  1  'x, y, z'
loop_
 _atom_site_type_symbol
 _atom_site_label
 _atom_site_symmetry_multiplicity
 _atom_site_fract_x
 _atom_site_fract_y
 _atom_site_fract_z
 _atom_site_occupancy
  Tb  Tb0  1  0.809998  0.807174  0.194255  1
  Tb  Tb1  1  0.809389  0.192264  0.806084  1
  Tb  Tb2  1  0.191387  0.186977  0.812146  1
  Tb  Tb3  1  0.646856  0.053828  0.647753  1
  Tb  Tb4  1  0.067583  0.061431  0.434925  1
  Tb  Tb5  1  0.437937  0.436189  0.062148  1
  Tb  Tb6  1  0.646856  0.651562  0.647753  1
  Tb  Tb7  1  0.809998  0.188573  0.194255  1
  Tb  Tb8  1  0.191387  0.809490  0.812146  1
  Tb  Tb9  1  0.063838  0.647258  0.641648  1
  Tb  Tb10  1  0.437937  0.063726  0.062148  1
  Tb  Tb11  1  0.437708  0.064063  0.434166  1
  Tb  Tb12  1  0.067193  0.435816  0.061175  1
  Tb  Tb13  1  0.642242  0.648699  0.060359  1
  Tb  Tb14  1  0.186897  0.812309  0.188484  1
  Tb  Tb15  1  0.067583  0.436061  0.434925  1
  In  In16  1  0.738591  0.420096  0.421216  1
  Ag  Ag17  1  0.415609  0.417309  0.417001  1
  Ag  Ag18  1  0.415832  0.417192  0.749784  1
  Ag  Ag19  1  0.415609  0.750081  0.417001  1
  Pt  Pt20  1  0.857119  0.430713  0.856750  1
  Pt  Pt21  1  0.857119  0.855418  0.856750  1
  Rh  Rh22  1  0.856623  0.857192  0.428993  1
  Rh  Rh23  1  0.428710  0.856578  0.858136  1
