# generated using pymatgen
data_La4Hg2Pt3Rh
_symmetry_space_group_name_H-M   'P 1'
_cell_length_a   7.91913406
_cell_length_b   7.91913384
_cell_length_c   3.94517500
_cell_angle_alpha   90.00000000
_cell_angle_beta   90.00000000
_cell_angle_gamma   90.23237193
_symmetry_Int_Tables_number   1
_chemical_formula_structural   La4Hg2Pt3Rh
_chemical_formula_sum   'La4 Hg2 Pt3 Rh1'
_cell_volume   247.41047245
_cell_formula_units_Z   1
loop_
 _symmetry_equiv_pos_site_id
 _symmetry_equiv_pos_as_xyz
  1  'x, y, z'
loop_
 _atom_site_type_symbol
 _atom_site_label
 _atom_site_symmetry_multiplicity
 _atom_site_fract_x
 _atom_site_fract_y
 _atom_site_fract_z
 _atom_site_occupancy
  La  La0  1  0.168403  0.323720  0.500000  1
  La  La1  1  0.681314  0.181314  0.500000  1
  La  La2  1  0.823720  0.668403  0.500000  1
  La  La3  1  0.327424  0.827424  0.500000  1
  Hg  Hg4  1  0.998676  0.001073  0.000000  1
  Hg  Hg5  1  0.501073  0.498676  0.000000  1
  Pt  Pt6  1  0.126371  0.626371  0.000000  1
  Pt  Pt7  1  0.630677  0.874661  0.000000  1
  Pt  Pt8  1  0.374661  0.130677  0.000000  1
  Rh  Rh9  1  0.867680  0.367680  0.000000  1
