# generated using pymatgen
data_Sr2PrSi5AsPd20
_symmetry_space_group_name_H-M   'P 1'
_cell_length_a   8.81032898
_cell_length_b   8.86435838
_cell_length_c   8.86435866
_cell_angle_alpha   59.59715956
_cell_angle_beta   60.20142234
_cell_angle_gamma   60.20142660
_symmetry_Int_Tables_number   1
_chemical_formula_structural   Sr2PrSi5AsPd20
_chemical_formula_sum   'Sr2 Pr1 Si5 As1 Pd20'
_cell_volume   489.48535985
_cell_formula_units_Z   1
loop_
 _symmetry_equiv_pos_site_id
 _symmetry_equiv_pos_as_xyz
  1  'x, y, z'
loop_
 _atom_site_type_symbol
 _atom_site_label
 _atom_site_symmetry_multiplicity
 _atom_site_fract_x
 _atom_site_fract_y
 _atom_site_fract_z
 _atom_site_occupancy
  Sr  Sr0  1  0.250257  0.249743  0.249743  1
  Sr  Sr1  1  0.750257  0.749743  0.749743  1
  Pr  Pr2  1  0.000632  0.999368  0.999368  1
  Si  Si3  1  0.268213  0.731787  0.731787  1
  Si  Si4  1  0.268223  0.731777  0.268118  1
  Si  Si5  1  0.731882  0.268118  0.731777  1
  Si  Si6  1  0.268223  0.268118  0.731777  1
  Si  Si7  1  0.731882  0.731777  0.268118  1
  As  As8  1  0.734344  0.265656  0.265656  1
  Pd  Pd9  1  0.381112  0.389666  0.389666  1
  Pd  Pd10  1  0.612083  0.613818  0.613818  1
  Pd  Pd11  1  0.386182  0.387917  0.839721  1
  Pd  Pd12  1  0.386182  0.839721  0.387917  1
  Pd  Pd13  1  0.610334  0.618888  0.160443  1
  Pd  Pd14  1  0.610334  0.160443  0.618888  1
  Pd  Pd15  1  0.839557  0.389666  0.389666  1
  Pd  Pd16  1  0.160279  0.613818  0.613818  1
  Pd  Pd17  1  0.346366  0.999410  0.999410  1
  Pd  Pd18  1  0.654814  0.999410  0.999410  1
  Pd  Pd19  1  0.000590  0.345186  0.653634  1
  Pd  Pd20  1  0.000590  0.653634  0.345186  1
  Pd  Pd21  1  0.007493  0.347509  0.992507  1
  Pd  Pd22  1  0.652491  0.992507  0.347509  1
  Pd  Pd23  1  0.999258  0.655410  0.000742  1
  Pd  Pd24  1  0.344590  0.000742  0.655410  1
  Pd  Pd25  1  0.007493  0.992507  0.347509  1
  Pd  Pd26  1  0.999258  0.000742  0.655410  1
  Pd  Pd27  1  0.652491  0.347509  0.992507  1
  Pd  Pd28  1  0.344590  0.655410  0.000742  1
