# generated using pymatgen
data_Cs10Fe5CoSe14
_symmetry_space_group_name_H-M   'P 1'
_cell_length_a   11.14879429
_cell_length_b   11.14879454
_cell_length_c   9.40830655
_cell_angle_alpha   78.70837077
_cell_angle_beta   78.70837215
_cell_angle_gamma   75.50160953
_symmetry_Int_Tables_number   1
_chemical_formula_structural   Cs10Fe5CoSe14
_chemical_formula_sum   'Cs10 Fe5 Co1 Se14'
_cell_volume   1096.90676019
_cell_formula_units_Z   1
loop_
 _symmetry_equiv_pos_site_id
 _symmetry_equiv_pos_as_xyz
  1  'x, y, z'
loop_
 _atom_site_type_symbol
 _atom_site_label
 _atom_site_symmetry_multiplicity
 _atom_site_fract_x
 _atom_site_fract_y
 _atom_site_fract_z
 _atom_site_occupancy
  Cs  Cs0  1  0.038446  0.428853  0.727828  1
  Cs  Cs1  1  0.428853  0.038446  0.727828  1
  Cs  Cs2  1  0.962884  0.570725  0.271231  1
  Cs  Cs3  1  0.570725  0.962884  0.271231  1
  Cs  Cs4  1  0.289003  0.709969  0.001020  1
  Cs  Cs5  1  0.709969  0.289003  0.001020  1
  Cs  Cs6  1  0.847610  0.152125  0.499715  1
  Cs  Cs7  1  0.152125  0.847610  0.499715  1
  Cs  Cs8  1  0.429598  0.429598  0.691525  1
  Cs  Cs9  1  0.569119  0.569119  0.309463  1
  Fe  Fe10  1  0.794425  0.794425  0.810218  1
  Fe  Fe11  1  0.071611  0.071611  0.061135  1
  Fe  Fe12  1  0.930396  0.930396  0.940949  1
  Fe  Fe13  1  0.333401  0.333401  0.326910  1
  Fe  Fe14  1  0.666068  0.666068  0.671461  1
  Co  Co15  1  0.205156  0.205156  0.188712  1
  Se  Se16  1  0.003190  0.274431  0.120565  1
  Se  Se17  1  0.274431  0.003190  0.120565  1
  Se  Se18  1  0.994735  0.725825  0.879694  1
  Se  Se19  1  0.725825  0.994735  0.879694  1
  Se  Se20  1  0.197665  0.197665  0.440196  1
  Se  Se21  1  0.803826  0.803826  0.557576  1
  Se  Se22  1  0.062936  0.062936  0.812911  1
  Se  Se23  1  0.936139  0.936139  0.188335  1
  Se  Se24  1  0.339665  0.339665  0.071949  1
  Se  Se25  1  0.661150  0.661150  0.927593  1
  Se  Se26  1  0.251276  0.537711  0.392446  1
  Se  Se27  1  0.537711  0.251276  0.392446  1
  Se  Se28  1  0.748844  0.463217  0.608034  1
  Se  Se29  1  0.463217  0.748844  0.608034  1
