# generated using pymatgen
data_HfZr9Sn6BH
_symmetry_space_group_name_H-M   'P 1'
_cell_length_a   8.53288800
_cell_length_b   8.53288783
_cell_length_c   5.81843100
_cell_angle_alpha   90.00000000
_cell_angle_beta   90.00000000
_cell_angle_gamma   120.00000842
_symmetry_Int_Tables_number   1
_chemical_formula_structural   HfZr9Sn6BH
_chemical_formula_sum   'Hf1 Zr9 Sn6 B1 H1'
_cell_volume   366.88382488
_cell_formula_units_Z   1
loop_
 _symmetry_equiv_pos_site_id
 _symmetry_equiv_pos_as_xyz
  1  'x, y, z'
loop_
 _atom_site_type_symbol
 _atom_site_label
 _atom_site_symmetry_multiplicity
 _atom_site_fract_x
 _atom_site_fract_y
 _atom_site_fract_z
 _atom_site_occupancy
  Hf  Hf0  1  0.666667  0.333333  0.000000  1
  Zr  Zr1  1  0.333333  0.666667  0.000000  1
  Zr  Zr2  1  0.333333  0.666667  0.500000  1
  Zr  Zr3  1  0.666667  0.333333  0.500000  1
  Zr  Zr4  1  0.766249  0.766194  0.745741  1
  Zr  Zr5  1  0.233806  0.000055  0.745741  1
  Zr  Zr6  1  0.999945  0.233751  0.745741  1
  Zr  Zr7  1  0.233806  0.233751  0.254259  1
  Zr  Zr8  1  0.766249  0.000055  0.254259  1
  Zr  Zr9  1  0.999945  0.766194  0.254259  1
  Sn  Sn10  1  0.396850  0.396423  0.750836  1
  Sn  Sn11  1  0.603577  0.000428  0.750836  1
  Sn  Sn12  1  0.999572  0.603150  0.750836  1
  Sn  Sn13  1  0.603577  0.603150  0.249164  1
  Sn  Sn14  1  0.396850  0.000428  0.249164  1
  Sn  Sn15  1  0.999572  0.396423  0.249164  1
  B  B16  1  0.000000  0.000000  0.500000  1
  H  H17  1  0.000000  0.000000  0.000000  1
