# generated using pymatgen
data_Dy3Tm7Sn5Bi
_symmetry_space_group_name_H-M   'P 1'
_cell_length_a   8.88346094
_cell_length_b   8.91885014
_cell_length_c   6.46107700
_cell_angle_alpha   90.00000000
_cell_angle_beta   90.00000000
_cell_angle_gamma   119.71572441
_symmetry_Int_Tables_number   1
_chemical_formula_structural   Dy3Tm7Sn5Bi
_chemical_formula_sum   'Dy3 Tm7 Sn5 Bi1'
_cell_volume   444.59395806
_cell_formula_units_Z   1
loop_
 _symmetry_equiv_pos_site_id
 _symmetry_equiv_pos_as_xyz
  1  'x, y, z'
loop_
 _atom_site_type_symbol
 _atom_site_label
 _atom_site_symmetry_multiplicity
 _atom_site_fract_x
 _atom_site_fract_y
 _atom_site_fract_z
 _atom_site_occupancy
  Dy  Dy0  1  0.765563  0.999667  0.750000  1
  Dy  Dy1  1  0.237091  0.243018  0.750000  1
  Dy  Dy2  1  0.236845  0.000010  0.250000  1
  Tm  Tm3  1  0.993965  0.757421  0.750000  1
  Tm  Tm4  1  0.000295  0.239175  0.250000  1
  Tm  Tm5  1  0.761566  0.761125  0.250000  1
  Tm  Tm6  1  0.332234  0.662855  0.498159  1
  Tm  Tm7  1  0.670700  0.337154  0.001883  1
  Tm  Tm8  1  0.670700  0.337154  0.498117  1
  Tm  Tm9  1  0.332234  0.662855  0.001841  1
  Sn  Sn10  1  0.394566  0.393833  0.250000  1
  Sn  Sn11  1  0.001084  0.605352  0.250000  1
  Sn  Sn12  1  0.999283  0.396817  0.750000  1
  Sn  Sn13  1  0.604801  0.604614  0.750000  1
  Sn  Sn14  1  0.606033  0.000154  0.250000  1
  Bi  Bi15  1  0.393041  0.998796  0.750000  1
