# generated using pymatgen
data_Y3Er4ThSb20
_symmetry_space_group_name_H-M   'P 1'
_cell_length_a   4.23904900
_cell_length_b   13.21060415
_cell_length_c   14.68569100
_cell_angle_alpha   78.00319710
_cell_angle_beta   90.00000000
_cell_angle_gamma   90.00000000
_symmetry_Int_Tables_number   1
_chemical_formula_structural   Y3Er4ThSb20
_chemical_formula_sum   'Y3 Er4 Th1 Sb20'
_cell_volume   804.44257310
_cell_formula_units_Z   1
loop_
 _symmetry_equiv_pos_site_id
 _symmetry_equiv_pos_as_xyz
  1  'x, y, z'
loop_
 _atom_site_type_symbol
 _atom_site_label
 _atom_site_symmetry_multiplicity
 _atom_site_fract_x
 _atom_site_fract_y
 _atom_site_fract_z
 _atom_site_occupancy
  Y  Y0  1  0.750000  0.327926  0.424446  1
  Y  Y1  1  0.250000  0.953150  0.356428  1
  Y  Y2  1  0.750000  0.049518  0.641277  1
  Er  Er3  1  0.250000  0.391980  0.773213  1
  Er  Er4  1  0.750000  0.604743  0.226423  1
  Er  Er5  1  0.250000  0.662428  0.857938  1
  Er  Er6  1  0.750000  0.337945  0.143939  1
  Th  Th7  1  0.250000  0.671247  0.573174  1
  Sb  Sb8  1  0.250000  0.144759  0.779644  1
  Sb  Sb9  1  0.750000  0.855218  0.220539  1
  Sb  Sb10  1  0.250000  0.140262  0.482135  1
  Sb  Sb11  1  0.750000  0.861556  0.516128  1
  Sb  Sb12  1  0.250000  0.153793  0.170224  1
  Sb  Sb13  1  0.750000  0.847476  0.831567  1
  Sb  Sb14  1  0.250000  0.420507  0.976312  1
  Sb  Sb15  1  0.750000  0.579816  0.023094  1
  Sb  Sb16  1  0.750000  0.030833  0.909868  1
  Sb  Sb17  1  0.250000  0.970572  0.091910  1
  Sb  Sb18  1  0.750000  0.139361  0.319894  1
  Sb  Sb19  1  0.250000  0.862797  0.684026  1
  Sb  Sb20  1  0.750000  0.279349  0.938841  1
  Sb  Sb21  1  0.250000  0.720963  0.061167  1
  Sb  Sb22  1  0.750000  0.285581  0.656690  1
  Sb  Sb23  1  0.250000  0.713739  0.342284  1
  Sb  Sb24  1  0.750000  0.575430  0.736933  1
  Sb  Sb25  1  0.250000  0.424130  0.263965  1
  Sb  Sb26  1  0.750000  0.569076  0.444201  1
  Sb  Sb27  1  0.250000  0.425843  0.553737  1
