# generated using pymatgen
data_Y5ErAl24Ir5Os3
_symmetry_space_group_name_H-M   'P 1'
_cell_length_a   8.78962576
_cell_length_b   8.78664630
_cell_length_c   9.57323616
_cell_angle_alpha   90.03274671
_cell_angle_beta   89.81154353
_cell_angle_gamma   119.40372981
_symmetry_Int_Tables_number   1
_chemical_formula_structural   Y5ErAl24Ir5Os3
_chemical_formula_sum   'Y5 Er1 Al24 Ir5 Os3'
_cell_volume   644.10765537
_cell_formula_units_Z   1
loop_
 _symmetry_equiv_pos_site_id
 _symmetry_equiv_pos_as_xyz
  1  'x, y, z'
loop_
 _atom_site_type_symbol
 _atom_site_label
 _atom_site_symmetry_multiplicity
 _atom_site_fract_x
 _atom_site_fract_y
 _atom_site_fract_z
 _atom_site_occupancy
  Y  Y0  1  0.810726  0.612909  0.749043  1
  Y  Y1  1  0.615199  0.809701  0.249879  1
  Y  Y2  1  0.384854  0.190118  0.750097  1
  Y  Y3  1  0.191238  0.806076  0.250313  1
  Y  Y4  1  0.808450  0.193409  0.749667  1
  Er  Er5  1  0.190307  0.390020  0.251385  1
  Al  Al6  1  0.333145  0.667345  0.030468  1
  Al  Al7  1  0.666718  0.332305  0.970335  1
  Al  Al8  1  0.668310  0.332934  0.528740  1
  Al  Al9  1  0.331879  0.666952  0.470615  1
  Al  Al10  1  0.163662  0.327473  0.574822  1
  Al  Al11  1  0.836264  0.672203  0.424254  1
  Al  Al12  1  0.672614  0.834778  0.575497  1
  Al  Al13  1  0.834475  0.672635  0.076236  1
  Al  Al14  1  0.326814  0.165164  0.423796  1
  Al  Al15  1  0.165374  0.327172  0.924803  1
  Al  Al16  1  0.163356  0.833765  0.576078  1
  Al  Al17  1  0.326484  0.165342  0.076837  1
  Al  Al18  1  0.837153  0.166099  0.423169  1
  Al  Al19  1  0.672886  0.834629  0.923885  1
  Al  Al20  1  0.835370  0.164102  0.077121  1
  Al  Al21  1  0.165106  0.835827  0.923522  1
  Al  Al22  1  0.560818  0.125285  0.249740  1
  Al  Al23  1  0.438989  0.874427  0.750230  1
  Al  Al24  1  0.873888  0.438753  0.250475  1
  Al  Al25  1  0.126161  0.560624  0.749309  1
  Al  Al26  1  0.561319  0.437832  0.249664  1
  Al  Al27  1  0.437964  0.561655  0.750305  1
  Al  Al28  1  0.999587  0.003924  0.250015  1
  Al  Al29  1  0.001736  0.998716  0.749984  1
  Ir  Ir30  1  0.499835  0.999788  0.000066  1
  Ir  Ir31  1  0.000266  0.499661  0.000475  1
  Ir  Ir32  1  0.499873  0.999852  0.499909  1
  Ir  Ir33  1  0.499513  0.499693  0.000361  1
  Ir  Ir34  1  0.499516  0.499667  0.499574  1
  Os  Os35  1  0.000398  0.499675  0.499331  1
  Os  Os36  1  0.999882  0.999779  0.999992  1
  Os  Os37  1  0.999870  0.999710  0.500009  1
