# generated using pymatgen
data_Nd16Ga6CoRu
_symmetry_space_group_name_H-M   'P 1'
_cell_length_a   10.41872300
_cell_length_b   10.41872343
_cell_length_c   7.19939300
_cell_angle_alpha   90.00000000
_cell_angle_beta   90.00000000
_cell_angle_gamma   120.00000181
_symmetry_Int_Tables_number   1
_chemical_formula_structural   Nd16Ga6CoRu
_chemical_formula_sum   'Nd16 Ga6 Co1 Ru1'
_cell_volume   676.79245196
_cell_formula_units_Z   1
loop_
 _symmetry_equiv_pos_site_id
 _symmetry_equiv_pos_as_xyz
  1  'x, y, z'
loop_
 _atom_site_type_symbol
 _atom_site_label
 _atom_site_symmetry_multiplicity
 _atom_site_fract_x
 _atom_site_fract_y
 _atom_site_fract_z
 _atom_site_occupancy
  Nd  Nd0  1  0.831390  0.662779  0.483841  1
  Nd  Nd1  1  0.337221  0.168610  0.483841  1
  Nd  Nd2  1  0.831390  0.168610  0.483841  1
  Nd  Nd3  1  0.171128  0.342257  0.986550  1
  Nd  Nd4  1  0.657743  0.828872  0.986550  1
  Nd  Nd5  1  0.171128  0.828872  0.986550  1
  Nd  Nd6  1  0.666667  0.333333  0.168303  1
  Nd  Nd7  1  0.333333  0.666667  0.679656  1
  Nd  Nd8  1  0.538647  0.077292  0.793590  1
  Nd  Nd9  1  0.922708  0.461353  0.793590  1
  Nd  Nd10  1  0.538647  0.461353  0.793590  1
  Nd  Nd11  1  0.460295  0.920591  0.294084  1
  Nd  Nd12  1  0.079409  0.539705  0.294084  1
  Nd  Nd13  1  0.460295  0.539705  0.294084  1
  Nd  Nd14  1  0.000000  0.000000  0.771621  1
  Nd  Nd15  1  0.000000  0.000000  0.266032  1
  Ga  Ga16  1  0.836959  0.673917  0.042692  1
  Ga  Ga17  1  0.326083  0.163041  0.042692  1
  Ga  Ga18  1  0.836959  0.163041  0.042692  1
  Ga  Ga19  1  0.165376  0.330753  0.546079  1
  Ga  Ga20  1  0.669247  0.834624  0.546079  1
  Ga  Ga21  1  0.165376  0.834624  0.546079  1
  Co  Co22  1  0.333333  0.666667  0.053322  1
  Ru  Ru23  1  0.666667  0.333333  0.546801  1
