# generated using pymatgen
data_Rb4Zr3S14
_symmetry_space_group_name_H-M   'P 1'
_cell_length_a   12.05130785
_cell_length_b   12.05130806
_cell_length_c   14.34543400
_cell_angle_alpha   68.77559769
_cell_angle_beta   68.77559731
_cell_angle_gamma   42.37303700
_symmetry_Int_Tables_number   1
_chemical_formula_structural   Rb4Zr3S14
_chemical_formula_sum   'Rb8 Zr6 S28'
_cell_volume   1293.98936507
_cell_formula_units_Z   2
loop_
 _symmetry_equiv_pos_site_id
 _symmetry_equiv_pos_as_xyz
  1  'x, y, z'
loop_
 _atom_site_type_symbol
 _atom_site_label
 _atom_site_symmetry_multiplicity
 _atom_site_fract_x
 _atom_site_fract_y
 _atom_site_fract_z
 _atom_site_occupancy
  Rb  Rb0  1  0.475485  0.126015  0.608707  1
  Rb  Rb1  1  0.171787  0.693732  0.640294  1
  Rb  Rb2  1  0.873985  0.524515  0.891293  1
  Rb  Rb3  1  0.306268  0.828213  0.859706  1
  Rb  Rb4  1  0.524515  0.873985  0.391293  1
  Rb  Rb5  1  0.828213  0.306268  0.359706  1
  Rb  Rb6  1  0.126015  0.475485  0.108707  1
  Rb  Rb7  1  0.693732  0.171787  0.140294  1
  Zr  Zr8  1  0.578733  0.085385  0.912915  1
  Zr  Zr9  1  0.263597  0.736403  0.250000  1
  Zr  Zr10  1  0.085385  0.578733  0.412915  1
  Zr  Zr11  1  0.914615  0.421267  0.587085  1
  Zr  Zr12  1  0.421267  0.914615  0.087085  1
  Zr  Zr13  1  0.736403  0.263597  0.750000  1
  S  S14  1  0.737857  0.071208  0.708932  1
  S  S15  1  0.565273  0.605673  0.133313  1
  S  S16  1  0.019090  0.841921  0.412820  1
  S  S17  1  0.298762  0.619700  0.110442  1
  S  S18  1  0.841921  0.019090  0.912820  1
  S  S19  1  0.434727  0.394327  0.866687  1
  S  S20  1  0.649862  0.683864  0.667430  1
  S  S21  1  0.316136  0.350138  0.832570  1
  S  S22  1  0.512732  0.928857  0.902379  1
  S  S23  1  0.605673  0.565273  0.633313  1
  S  S24  1  0.102799  0.181101  0.109652  1
  S  S25  1  0.487268  0.071143  0.097621  1
  S  S26  1  0.980910  0.158079  0.587180  1
  S  S27  1  0.928792  0.262143  0.791068  1
  S  S28  1  0.701238  0.380300  0.889558  1
  S  S29  1  0.181101  0.102799  0.609652  1
  S  S30  1  0.928858  0.512732  0.402379  1
  S  S31  1  0.683864  0.649862  0.167430  1
  S  S32  1  0.380300  0.701238  0.389558  1
  S  S33  1  0.818899  0.897201  0.390348  1
  S  S34  1  0.394327  0.434727  0.366687  1
  S  S35  1  0.619700  0.298762  0.610442  1
  S  S36  1  0.071142  0.487268  0.597621  1
  S  S37  1  0.158079  0.980910  0.087180  1
  S  S38  1  0.071208  0.737857  0.208932  1
  S  S39  1  0.350138  0.316136  0.332570  1
  S  S40  1  0.262143  0.928792  0.291068  1
  S  S41  1  0.897201  0.818899  0.890348  1
