# generated using pymatgen
data_Li2TbPrSi4
_symmetry_space_group_name_H-M   'P 1'
_cell_length_a   3.85151400
_cell_length_b   7.70711250
_cell_length_c   10.40404066
_cell_angle_alpha   89.62808458
_cell_angle_beta   90.00000000
_cell_angle_gamma   90.00000000
_symmetry_Int_Tables_number   1
_chemical_formula_structural   Li2TbPrSi4
_chemical_formula_sum   'Li4 Tb2 Pr2 Si8'
_cell_volume   308.82757439
_cell_formula_units_Z   2
loop_
 _symmetry_equiv_pos_site_id
 _symmetry_equiv_pos_as_xyz
  1  'x, y, z'
loop_
 _atom_site_type_symbol
 _atom_site_label
 _atom_site_symmetry_multiplicity
 _atom_site_fract_x
 _atom_site_fract_y
 _atom_site_fract_z
 _atom_site_occupancy
  Li  Li0  1  0.250000  0.995762  0.389392  1
  Li  Li1  1  0.750000  0.004238  0.610608  1
  Li  Li2  1  0.250000  0.491143  0.108062  1
  Li  Li3  1  0.750000  0.508857  0.891938  1
  Tb  Tb4  1  0.250000  0.133512  0.864741  1
  Tb  Tb5  1  0.750000  0.866488  0.135259  1
  Pr  Pr6  1  0.250000  0.639074  0.636677  1
  Pr  Pr7  1  0.750000  0.360926  0.363323  1
  Si  Si8  1  0.750000  0.265648  0.064373  1
  Si  Si9  1  0.250000  0.734352  0.935627  1
  Si  Si10  1  0.750000  0.777030  0.425296  1
  Si  Si11  1  0.250000  0.222970  0.574704  1
  Si  Si12  1  0.750000  0.842073  0.826148  1
  Si  Si13  1  0.250000  0.157927  0.173852  1
  Si  Si14  1  0.750000  0.331729  0.683216  1
  Si  Si15  1  0.250000  0.668271  0.316784  1
