# generated using pymatgen
data_Yb3HoTcOs7
_symmetry_space_group_name_H-M   'P 1'
_cell_length_a   5.33862100
_cell_length_b   5.33862040
_cell_length_c   8.66798000
_cell_angle_alpha   90.00000000
_cell_angle_beta   90.00000000
_cell_angle_gamma   119.99999754
_symmetry_Int_Tables_number   1
_chemical_formula_structural   Yb3HoTcOs7
_chemical_formula_sum   'Yb3 Ho1 Tc1 Os7'
_cell_volume   213.94723343
_cell_formula_units_Z   1
loop_
 _symmetry_equiv_pos_site_id
 _symmetry_equiv_pos_as_xyz
  1  'x, y, z'
loop_
 _atom_site_type_symbol
 _atom_site_label
 _atom_site_symmetry_multiplicity
 _atom_site_fract_x
 _atom_site_fract_y
 _atom_site_fract_z
 _atom_site_occupancy
  Yb  Yb0  1  0.666667  0.333333  0.570964  1
  Yb  Yb1  1  0.666667  0.333333  0.934775  1
  Yb  Yb2  1  0.333333  0.666667  0.060664  1
  Ho  Ho3  1  0.333333  0.666667  0.430576  1
  Tc  Tc4  1  0.000000  0.000000  0.500746  1
  Os  Os5  1  0.000000  0.000000  0.001658  1
  Os  Os6  1  0.826945  0.173055  0.250491  1
  Os  Os7  1  0.826945  0.653890  0.250491  1
  Os  Os8  1  0.346110  0.173055  0.250491  1
  Os  Os9  1  0.172270  0.827730  0.749715  1
  Os  Os10  1  0.172270  0.344539  0.749715  1
  Os  Os11  1  0.655461  0.827730  0.749715  1
