# generated using pymatgen
data_NiPd2PbO7
_symmetry_space_group_name_H-M   'P 1'
_cell_length_a   7.27364408
_cell_length_b   7.10911095
_cell_length_c   7.10911055
_cell_angle_alpha   58.93613477
_cell_angle_beta   59.23139196
_cell_angle_gamma   59.23139774
_symmetry_Int_Tables_number   1
_chemical_formula_structural   NiPd2PbO7
_chemical_formula_sum   'Ni2 Pd4 Pb2 O14'
_cell_volume   254.79525834
_cell_formula_units_Z   2
loop_
 _symmetry_equiv_pos_site_id
 _symmetry_equiv_pos_as_xyz
  1  'x, y, z'
loop_
 _atom_site_type_symbol
 _atom_site_label
 _atom_site_symmetry_multiplicity
 _atom_site_fract_x
 _atom_site_fract_y
 _atom_site_fract_z
 _atom_site_occupancy
  Ni  Ni0  1  0.625000  0.125000  0.625000  1
  Ni  Ni1  1  0.625000  0.625000  0.125000  1
  Pd  Pd2  1  0.625000  0.125000  0.125000  1
  Pd  Pd3  1  0.125000  0.625000  0.125000  1
  Pd  Pd4  1  0.125000  0.125000  0.625000  1
  Pd  Pd5  1  0.125000  0.125000  0.125000  1
  Pb  Pb6  1  0.125000  0.625000  0.625000  1
  Pb  Pb7  1  0.625000  0.625000  0.625000  1
  O  O8  1  0.787091  0.782988  0.212926  1
  O  O9  1  0.216994  0.212926  0.782988  1
  O  O10  1  0.787091  0.212926  0.782988  1
  O  O11  1  0.216994  0.782988  0.212926  1
  O  O12  1  0.215925  0.784075  0.784075  1
  O  O13  1  0.781495  0.218505  0.218505  1
  O  O14  1  0.462909  0.467012  0.037074  1
  O  O15  1  0.033006  0.037074  0.467012  1
  O  O16  1  0.462909  0.037074  0.467012  1
  O  O17  1  0.033006  0.467012  0.037074  1
  O  O18  1  0.034075  0.465925  0.465925  1
  O  O19  1  0.468505  0.031495  0.031495  1
  O  O20  1  0.508529  0.491471  0.491471  1
  O  O21  1  0.741471  0.758529  0.758529  1
