# generated using pymatgen
data_Zr10ZnBi3PPb3
_symmetry_space_group_name_H-M   'P 1'
_cell_length_a   8.80907903
_cell_length_b   8.80268809
_cell_length_c   5.97632502
_cell_angle_alpha   90.00508570
_cell_angle_beta   89.98982948
_cell_angle_gamma   120.02401575
_symmetry_Int_Tables_number   1
_chemical_formula_structural   Zr10ZnBi3PPb3
_chemical_formula_sum   'Zr10 Zn1 Bi3 P1 Pb3'
_cell_volume   401.24118479
_cell_formula_units_Z   1
loop_
 _symmetry_equiv_pos_site_id
 _symmetry_equiv_pos_as_xyz
  1  'x, y, z'
loop_
 _atom_site_type_symbol
 _atom_site_label
 _atom_site_symmetry_multiplicity
 _atom_site_fract_x
 _atom_site_fract_y
 _atom_site_fract_z
 _atom_site_occupancy
  Zr  Zr0  1  0.333027  0.666605  0.000471  1
  Zr  Zr1  1  0.667465  0.333216  0.499769  1
  Zr  Zr2  1  0.666423  0.333395  0.000471  1
  Zr  Zr3  1  0.334248  0.666784  0.499769  1
  Zr  Zr4  1  0.255154  0.000000  0.235655  1
  Zr  Zr5  1  0.254924  0.254545  0.764233  1
  Zr  Zr6  1  0.000379  0.745455  0.764233  1
  Zr  Zr7  1  0.000441  0.255713  0.235727  1
  Zr  Zr8  1  0.744728  0.744287  0.235727  1
  Zr  Zr9  1  0.744423  0.000000  0.764003  1
  Zn  Zn10  1  0.000309  0.000000  0.500161  1
  Bi  Bi11  1  0.606870  0.000000  0.254938  1
  Bi  Bi12  1  0.606631  0.605626  0.745362  1
  Bi  Bi13  1  0.001004  0.394374  0.745362  1
  P  P14  1  0.999905  0.000000  0.999857  1
  Pb  Pb15  1  0.000707  0.608923  0.254063  1
  Pb  Pb16  1  0.391784  0.391077  0.254063  1
  Pb  Pb17  1  0.391577  0.000000  0.746136  1
