# generated using pymatgen
data_Tm5Sc3(Ni4P3)4
_symmetry_space_group_name_H-M   'P 1'
_cell_length_a   12.28095100
_cell_length_b   12.28095214
_cell_length_c   3.77254500
_cell_angle_alpha   90.00000000
_cell_angle_beta   90.00000000
_cell_angle_gamma   120.00000501
_symmetry_Int_Tables_number   1
_chemical_formula_structural   Tm5Sc3(Ni4P3)4
_chemical_formula_sum   'Tm5 Sc3 Ni16 P12'
_cell_volume   492.75277204
_cell_formula_units_Z   1
loop_
 _symmetry_equiv_pos_site_id
 _symmetry_equiv_pos_as_xyz
  1  'x, y, z'
loop_
 _atom_site_type_symbol
 _atom_site_label
 _atom_site_symmetry_multiplicity
 _atom_site_fract_x
 _atom_site_fract_y
 _atom_site_fract_z
 _atom_site_occupancy
  Tm  Tm0  1  0.183790  0.183790  0.500000  1
  Tm  Tm1  1  0.816210  0.000000  0.500000  1
  Tm  Tm2  1  0.000000  0.816210  0.500000  1
  Tm  Tm3  1  0.333333  0.666667  0.000000  1
  Tm  Tm4  1  0.666667  0.333333  0.000000  1
  Sc  Sc5  1  0.562589  0.562589  0.000000  1
  Sc  Sc6  1  0.437411  0.000000  0.000000  1
  Sc  Sc7  1  0.000000  0.437411  0.000000  1
  Ni  Ni8  1  0.723727  0.723727  0.500000  1
  Ni  Ni9  1  0.276273  0.000000  0.500000  1
  Ni  Ni10  1  0.000000  0.276273  0.500000  1
  Ni  Ni11  1  0.185896  0.377473  0.000000  1
  Ni  Ni12  1  0.622527  0.808423  0.000000  1
  Ni  Ni13  1  0.191577  0.814104  0.000000  1
  Ni  Ni14  1  0.808423  0.622527  0.000000  1
  Ni  Ni15  1  0.814104  0.191577  0.000000  1
  Ni  Ni16  1  0.377473  0.185896  0.000000  1
  Ni  Ni17  1  0.360525  0.483850  0.500000  1
  Ni  Ni18  1  0.516150  0.876677  0.500000  1
  Ni  Ni19  1  0.123323  0.639475  0.500000  1
  Ni  Ni20  1  0.876677  0.516150  0.500000  1
  Ni  Ni21  1  0.639475  0.123323  0.500000  1
  Ni  Ni22  1  0.483850  0.360525  0.500000  1
  Ni  Ni23  1  0.000000  0.000000  0.000000  1
  P  P24  1  0.822550  0.822550  0.000000  1
  P  P25  1  0.177450  0.000000  0.000000  1
  P  P26  1  0.000000  0.177450  0.000000  1
  P  P27  1  0.170995  0.477387  0.500000  1
  P  P28  1  0.522613  0.693608  0.500000  1
  P  P29  1  0.306392  0.829005  0.500000  1
  P  P30  1  0.693608  0.522613  0.500000  1
  P  P31  1  0.829005  0.306392  0.500000  1
  P  P32  1  0.477387  0.170995  0.500000  1
  P  P33  1  0.354610  0.354610  0.000000  1
  P  P34  1  0.645390  0.000000  0.000000  1
  P  P35  1  0.000000  0.645390  0.000000  1
