# generated using pymatgen
data_Ta3Ag2TeS6
_symmetry_space_group_name_H-M   'P 1'
_cell_length_a   5.74042606
_cell_length_b   5.74042725
_cell_length_c   8.35168000
_cell_angle_alpha   90.00000000
_cell_angle_beta   90.00000000
_cell_angle_gamma   120.08312289
_symmetry_Int_Tables_number   1
_chemical_formula_structural   Ta3Ag2TeS6
_chemical_formula_sum   'Ta3 Ag2 Te1 S6'
_cell_volume   238.13786017
_cell_formula_units_Z   1
loop_
 _symmetry_equiv_pos_site_id
 _symmetry_equiv_pos_as_xyz
  1  'x, y, z'
loop_
 _atom_site_type_symbol
 _atom_site_label
 _atom_site_symmetry_multiplicity
 _atom_site_fract_x
 _atom_site_fract_y
 _atom_site_fract_z
 _atom_site_occupancy
  Ta  Ta0  1  0.695332  0.034202  0.500000  1
  Ta  Ta1  1  0.034202  0.695332  0.500000  1
  Ta  Ta2  1  0.371912  0.371912  0.500000  1
  Ag  Ag3  1  0.350712  0.667023  0.000000  1
  Ag  Ag4  1  0.667023  0.350712  0.000000  1
  Te  Te5  1  0.035913  0.035913  0.000000  1
  S  S6  1  0.699921  0.367060  0.690696  1
  S  S7  1  0.367060  0.699921  0.309304  1
  S  S8  1  0.699921  0.367060  0.309304  1
  S  S9  1  0.367060  0.699921  0.690696  1
  S  S10  1  0.033921  0.033921  0.317465  1
  S  S11  1  0.033921  0.033921  0.682535  1
