# generated using pymatgen
data_La16Tb3CdIr12
_symmetry_space_group_name_H-M   'P 1'
_cell_length_a   11.39127700
_cell_length_b   11.39127700
_cell_length_c   6.47762800
_cell_angle_alpha   90.00000000
_cell_angle_beta   90.00000000
_cell_angle_gamma   90.00000000
_symmetry_Int_Tables_number   1
_chemical_formula_structural   La16Tb3CdIr12
_chemical_formula_sum   'La16 Tb3 Cd1 Ir12'
_cell_volume   840.54472861
_cell_formula_units_Z   1
loop_
 _symmetry_equiv_pos_site_id
 _symmetry_equiv_pos_as_xyz
  1  'x, y, z'
loop_
 _atom_site_type_symbol
 _atom_site_label
 _atom_site_symmetry_multiplicity
 _atom_site_fract_x
 _atom_site_fract_y
 _atom_site_fract_z
 _atom_site_occupancy
  La  La0  1  0.277273  0.084868  0.390047  1
  La  La1  1  0.289071  0.911251  0.888399  1
  La  La2  1  0.710929  0.088749  0.888399  1
  La  La3  1  0.722727  0.915132  0.390047  1
  La  La4  1  0.589787  0.789643  0.890387  1
  La  La5  1  0.586045  0.209974  0.385440  1
  La  La6  1  0.413955  0.790026  0.385440  1
  La  La7  1  0.410213  0.210357  0.890387  1
  La  La8  1  0.209974  0.413955  0.614560  1
  La  La9  1  0.210357  0.589787  0.109613  1
  La  La10  1  0.789643  0.410213  0.109613  1
  La  La11  1  0.790026  0.586045  0.614560  1
  La  La12  1  0.911251  0.710929  0.111601  1
  La  La13  1  0.915132  0.277273  0.609953  1
  La  La14  1  0.084868  0.722727  0.609953  1
  La  La15  1  0.088749  0.289071  0.111601  1
  Tb  Tb16  1  0.000000  0.000000  0.000000  1
  Tb  Tb17  1  0.500000  0.500000  0.000000  1
  Tb  Tb18  1  0.500000  0.500000  0.500000  1
  Cd  Cd19  1  0.000000  0.000000  0.500000  1
  Ir  Ir20  1  0.848044  0.155193  0.237842  1
  Ir  Ir21  1  0.844807  0.848044  0.762158  1
  Ir  Ir22  1  0.155193  0.151956  0.762158  1
  Ir  Ir23  1  0.151956  0.844807  0.237842  1
  Ir  Ir24  1  0.650500  0.351352  0.746075  1
  Ir  Ir25  1  0.648648  0.650500  0.253925  1
  Ir  Ir26  1  0.351352  0.349500  0.253925  1
  Ir  Ir27  1  0.349500  0.648648  0.746075  1
  Ir  Ir28  1  0.500000  0.000000  0.120646  1
  Ir  Ir29  1  0.500000  0.000000  0.614351  1
  Ir  Ir30  1  0.000000  0.500000  0.879354  1
  Ir  Ir31  1  0.000000  0.500000  0.385649  1
