# generated using pymatgen
data_Rb3TlBr6
_symmetry_space_group_name_H-M   'P 1'
_cell_length_a   8.48245600
_cell_length_b   13.56851253
_cell_length_c   14.17794900
_cell_angle_alpha   71.94391799
_cell_angle_beta   90.00000000
_cell_angle_gamma   90.00000000
_symmetry_Int_Tables_number   1
_chemical_formula_structural   Rb3TlBr6
_chemical_formula_sum   'Rb12 Tl4 Br24'
_cell_volume   1551.44091077
_cell_formula_units_Z   4
loop_
 _symmetry_equiv_pos_site_id
 _symmetry_equiv_pos_as_xyz
  1  'x, y, z'
loop_
 _atom_site_type_symbol
 _atom_site_label
 _atom_site_symmetry_multiplicity
 _atom_site_fract_x
 _atom_site_fract_y
 _atom_site_fract_z
 _atom_site_occupancy
  Rb  Rb0  1  0.564333  0.263135  0.183061  1
  Rb  Rb1  1  0.064333  0.236865  0.816939  1
  Rb  Rb2  1  0.435667  0.736865  0.816939  1
  Rb  Rb3  1  0.935667  0.763135  0.183061  1
  Rb  Rb4  1  0.065530  0.115126  0.180507  1
  Rb  Rb5  1  0.565529  0.384874  0.819493  1
  Rb  Rb6  1  0.934470  0.884874  0.819493  1
  Rb  Rb7  1  0.434470  0.615126  0.180507  1
  Rb  Rb8  1  0.041345  0.358609  0.404008  1
  Rb  Rb9  1  0.541345  0.141391  0.595992  1
  Rb  Rb10  1  0.958655  0.641391  0.595992  1
  Rb  Rb11  1  0.458655  0.858609  0.404008  1
  Tl  Tl12  1  0.500000  0.500000  0.500000  1
  Tl  Tl13  1  0.000000  0.000000  0.500000  1
  Tl  Tl14  1  0.500000  0.000000  0.000000  1
  Tl  Tl15  1  0.000000  0.500000  0.000000  1
  Br  Br16  1  0.811609  0.151309  0.369955  1
  Br  Br17  1  0.311609  0.348691  0.630045  1
  Br  Br18  1  0.188391  0.848691  0.630045  1
  Br  Br19  1  0.688391  0.651309  0.369955  1
  Br  Br20  1  0.700649  0.006494  0.153030  1
  Br  Br21  1  0.200649  0.493506  0.846970  1
  Br  Br22  1  0.299351  0.993506  0.846970  1
  Br  Br23  1  0.799351  0.506494  0.153030  1
  Br  Br24  1  0.001467  0.123801  0.621527  1
  Br  Br25  1  0.501467  0.376199  0.378473  1
  Br  Br26  1  0.998533  0.876199  0.378473  1
  Br  Br27  1  0.498533  0.623801  0.621527  1
  Br  Br28  1  0.359172  0.189691  0.999413  1
  Br  Br29  1  0.859172  0.310309  0.000587  1
  Br  Br30  1  0.640828  0.810309  0.000587  1
  Br  Br31  1  0.140828  0.689691  0.999413  1
  Br  Br32  1  0.211390  0.393631  0.151322  1
  Br  Br33  1  0.711390  0.106369  0.848678  1
  Br  Br34  1  0.788610  0.606369  0.848678  1
  Br  Br35  1  0.288610  0.893631  0.151322  1
  Br  Br36  1  0.223877  0.601729  0.399783  1
  Br  Br37  1  0.723877  0.898271  0.600217  1
  Br  Br38  1  0.776123  0.398271  0.600217  1
  Br  Br39  1  0.276123  0.101729  0.399783  1
