# generated using pymatgen
data_DyHo(ZrSn)3
_symmetry_space_group_name_H-M   'P 1'
_cell_length_a   8.70678715
_cell_length_b   8.79478897
_cell_length_c   6.00974000
_cell_angle_alpha   90.00000000
_cell_angle_beta   90.00000000
_cell_angle_gamma   120.33491538
_symmetry_Int_Tables_number   1
_chemical_formula_structural   DyHo(ZrSn)3
_chemical_formula_sum   'Dy2 Ho2 Zr6 Sn6'
_cell_volume   397.18613612
_cell_formula_units_Z   2
loop_
 _symmetry_equiv_pos_site_id
 _symmetry_equiv_pos_as_xyz
  1  'x, y, z'
loop_
 _atom_site_type_symbol
 _atom_site_label
 _atom_site_symmetry_multiplicity
 _atom_site_fract_x
 _atom_site_fract_y
 _atom_site_fract_z
 _atom_site_occupancy
  Dy  Dy0  1  0.761473  0.761065  0.250000  1
  Dy  Dy1  1  0.761473  0.000408  0.750000  1
  Ho  Ho2  1  0.238626  0.238953  0.750000  1
  Ho  Ho3  1  0.238626  0.999673  0.250000  1
  Zr  Zr4  1  0.000109  0.746319  0.750000  1
  Zr  Zr5  1  0.000109  0.253790  0.250000  1
  Zr  Zr6  1  0.332950  0.666476  0.500000  1
  Zr  Zr7  1  0.666986  0.333492  0.000000  1
  Zr  Zr8  1  0.666986  0.333492  0.500000  1
  Zr  Zr9  1  0.332950  0.666476  0.000000  1
  Sn  Sn10  1  0.392680  0.995992  0.750000  1
  Sn  Sn11  1  0.392680  0.396690  0.250000  1
  Sn  Sn12  1  0.000147  0.600587  0.250000  1
  Sn  Sn13  1  0.000147  0.399560  0.750000  1
  Sn  Sn14  1  0.607029  0.602767  0.750000  1
  Sn  Sn15  1  0.607029  0.004261  0.250000  1
