# generated using pymatgen
data_YbNp7Se12
_symmetry_space_group_name_H-M   'P 1'
_cell_length_a   4.06722100
_cell_length_b   10.99759390
_cell_length_c   11.24462694
_cell_angle_alpha   90.36825782
_cell_angle_beta   90.00000000
_cell_angle_gamma   90.00000000
_symmetry_Int_Tables_number   1
_chemical_formula_structural   YbNp7Se12
_chemical_formula_sum   'Yb1 Np7 Se12'
_cell_volume   502.95778075
_cell_formula_units_Z   1
loop_
 _symmetry_equiv_pos_site_id
 _symmetry_equiv_pos_as_xyz
  1  'x, y, z'
loop_
 _atom_site_type_symbol
 _atom_site_label
 _atom_site_symmetry_multiplicity
 _atom_site_fract_x
 _atom_site_fract_y
 _atom_site_fract_z
 _atom_site_occupancy
  Yb  Yb0  1  0.250000  0.315585  0.992260  1
  Np  Np1  1  0.750000  0.684265  0.007144  1
  Np  Np2  1  0.750000  0.814786  0.507385  1
  Np  Np3  1  0.250000  0.183578  0.492124  1
  Np  Np4  1  0.250000  0.505676  0.308641  1
  Np  Np5  1  0.750000  0.492839  0.689047  1
  Np  Np6  1  0.750000  0.007284  0.190082  1
  Np  Np7  1  0.250000  0.994626  0.813215  1
  Se  Se8  1  0.250000  0.867845  0.050692  1
  Se  Se9  1  0.750000  0.125294  0.951227  1
  Se  Se10  1  0.750000  0.370217  0.449281  1
  Se  Se11  1  0.250000  0.630480  0.549299  1
  Se  Se12  1  0.250000  0.555677  0.875324  1
  Se  Se13  1  0.750000  0.448780  0.126211  1
  Se  Se14  1  0.750000  0.055490  0.624610  1
  Se  Se15  1  0.250000  0.944882  0.376717  1
  Se  Se16  1  0.250000  0.198844  0.230602  1
  Se  Se17  1  0.750000  0.798216  0.770165  1
  Se  Se18  1  0.750000  0.704424  0.271682  1
  Se  Se19  1  0.250000  0.301209  0.724296  1
