# generated using pymatgen
data_Ac2Yb(InAu)3
_symmetry_space_group_name_H-M   'P 1'
_cell_length_a   8.04844673
_cell_length_b   8.04844625
_cell_length_c   4.29426800
_cell_angle_alpha   90.00000000
_cell_angle_beta   90.00000000
_cell_angle_gamma   120.31144592
_symmetry_Int_Tables_number   1
_chemical_formula_structural   Ac2Yb(InAu)3
_chemical_formula_sum   'Ac2 Yb1 In3 Au3'
_cell_volume   240.14434471
_cell_formula_units_Z   1
loop_
 _symmetry_equiv_pos_site_id
 _symmetry_equiv_pos_as_xyz
  1  'x, y, z'
loop_
 _atom_site_type_symbol
 _atom_site_label
 _atom_site_symmetry_multiplicity
 _atom_site_fract_x
 _atom_site_fract_y
 _atom_site_fract_z
 _atom_site_occupancy
  Ac  Ac0  1  0.998098  0.586565  0.500000  1
  Ac  Ac1  1  0.586565  0.998098  0.500000  1
  Yb  Yb2  1  0.407466  0.407466  0.500000  1
  In  In3  1  0.013163  0.251204  0.000000  1
  In  In4  1  0.251204  0.013163  0.000000  1
  In  In5  1  0.744617  0.744617  0.000000  1
  Au  Au6  1  0.004868  0.004868  0.500000  1
  Au  Au7  1  0.655611  0.338407  0.000000  1
  Au  Au8  1  0.338407  0.655611  0.000000  1
