# generated using pymatgen
data_Hf9In14Co6Re
_symmetry_space_group_name_H-M   'P 1'
_cell_length_a   9.42475007
_cell_length_b   9.42475041
_cell_length_c   9.42475000
_cell_angle_alpha   60.00000145
_cell_angle_beta   60.00000023
_cell_angle_gamma   60.00000745
_symmetry_Int_Tables_number   1
_chemical_formula_structural   Hf9In14Co6Re
_chemical_formula_sum   'Hf9 In14 Co6 Re1'
_cell_volume   591.96301168
_cell_formula_units_Z   1
loop_
 _symmetry_equiv_pos_site_id
 _symmetry_equiv_pos_as_xyz
  1  'x, y, z'
loop_
 _atom_site_type_symbol
 _atom_site_label
 _atom_site_symmetry_multiplicity
 _atom_site_fract_x
 _atom_site_fract_y
 _atom_site_fract_z
 _atom_site_occupancy
  Hf  Hf0  1  0.120320  0.639041  0.120320  1
  Hf  Hf1  1  0.360959  0.879680  0.879680  1
  Hf  Hf2  1  0.879680  0.879680  0.879680  1
  Hf  Hf3  1  0.639041  0.120320  0.120320  1
  Hf  Hf4  1  0.500000  0.500000  0.500000  1
  Hf  Hf5  1  0.879680  0.879680  0.360959  1
  Hf  Hf6  1  0.120320  0.120320  0.120320  1
  Hf  Hf7  1  0.879680  0.360959  0.879680  1
  Hf  Hf8  1  0.120320  0.120320  0.639041  1
  In  In9  1  0.500000  0.842111  0.157889  1
  In  In10  1  0.500000  0.842111  0.500000  1
  In  In11  1  0.500000  0.157889  0.500000  1
  In  In12  1  0.500000  0.500000  0.842111  1
  In  In13  1  0.157889  0.500000  0.500000  1
  In  In14  1  0.842111  0.157889  0.500000  1
  In  In15  1  0.157889  0.842111  0.500000  1
  In  In16  1  0.500000  0.157889  0.842111  1
  In  In17  1  0.157889  0.500000  0.842111  1
  In  In18  1  0.500000  0.500000  0.157889  1
  In  In19  1  0.842111  0.500000  0.500000  1
  In  In20  1  0.842111  0.500000  0.157889  1
  In  In21  1  0.250000  0.250000  0.250000  1
  In  In22  1  0.750000  0.750000  0.750000  1
  Co  Co23  1  0.777618  0.777618  0.222382  1
  Co  Co24  1  0.222382  0.777618  0.222382  1
  Co  Co25  1  0.222382  0.777618  0.777618  1
  Co  Co26  1  0.222382  0.222382  0.777618  1
  Co  Co27  1  0.777618  0.222382  0.777618  1
  Co  Co28  1  0.777618  0.222382  0.222382  1
  Re  Re29  1  0.000000  0.000000  0.000000  1
