# generated using pymatgen
data_Dy3Y5(InRu)2
_symmetry_space_group_name_H-M   'P 1'
_cell_length_a   9.69235384
_cell_length_b   9.69235456
_cell_length_c   9.70997989
_cell_angle_alpha   59.56247403
_cell_angle_beta   59.56246917
_cell_angle_gamma   59.66421668
_symmetry_Int_Tables_number   1
_chemical_formula_structural   Dy3Y5(InRu)2
_chemical_formula_sum   'Dy6 Y10 In4 Ru4'
_cell_volume   639.08469133
_cell_formula_units_Z   2
loop_
 _symmetry_equiv_pos_site_id
 _symmetry_equiv_pos_as_xyz
  1  'x, y, z'
loop_
 _atom_site_type_symbol
 _atom_site_label
 _atom_site_symmetry_multiplicity
 _atom_site_fract_x
 _atom_site_fract_y
 _atom_site_fract_z
 _atom_site_occupancy
  Dy  Dy0  1  0.809079  0.191608  0.809207  1
  Dy  Dy1  1  0.191608  0.809079  0.809207  1
  Dy  Dy2  1  0.653824  0.653824  0.039821  1
  Dy  Dy3  1  0.650840  0.042171  0.653610  1
  Dy  Dy4  1  0.042171  0.650840  0.653610  1
  Dy  Dy5  1  0.649551  0.649551  0.648306  1
  Y  Y6  1  0.443410  0.443410  0.057968  1
  Y  Y7  1  0.059775  0.442523  0.059556  1
  Y  Y8  1  0.442523  0.059775  0.059556  1
  Y  Y9  1  0.058017  0.058017  0.444645  1
  Y  Y10  1  0.441652  0.059659  0.442537  1
  Y  Y11  1  0.059659  0.441652  0.442537  1
  Y  Y12  1  0.809276  0.809276  0.191849  1
  Y  Y13  1  0.192224  0.811083  0.193108  1
  Y  Y14  1  0.811083  0.192224  0.193108  1
  Y  Y15  1  0.191877  0.191877  0.812283  1
  In  In16  1  0.417154  0.417154  0.746622  1
  In  In17  1  0.418452  0.747205  0.416070  1
  In  In18  1  0.747205  0.418452  0.416070  1
  In  In19  1  0.417077  0.417077  0.417413  1
  Ru  Ru20  1  0.856057  0.856057  0.423543  1
  Ru  Ru21  1  0.853719  0.420978  0.855876  1
  Ru  Ru22  1  0.420978  0.853719  0.855876  1
  Ru  Ru23  1  0.862788  0.862788  0.857621  1
