# generated using pymatgen
data_Yb3In3HgIr2
_symmetry_space_group_name_H-M   'P 1'
_cell_length_a   7.64024800
_cell_length_b   7.64024762
_cell_length_c   4.13049800
_cell_angle_alpha   90.00000000
_cell_angle_beta   90.00000000
_cell_angle_gamma   119.99999298
_symmetry_Int_Tables_number   1
_chemical_formula_structural   Yb3In3HgIr2
_chemical_formula_sum   'Yb3 In3 Hg1 Ir2'
_cell_volume   208.80840158
_cell_formula_units_Z   1
loop_
 _symmetry_equiv_pos_site_id
 _symmetry_equiv_pos_as_xyz
  1  'x, y, z'
loop_
 _atom_site_type_symbol
 _atom_site_label
 _atom_site_symmetry_multiplicity
 _atom_site_fract_x
 _atom_site_fract_y
 _atom_site_fract_z
 _atom_site_occupancy
  Yb  Yb0  1  0.968821  0.580579  0.500000  1
  Yb  Yb1  1  0.611758  0.031179  0.500000  1
  Yb  Yb2  1  0.419421  0.388242  0.500000  1
  In  In3  1  0.982031  0.240083  0.000000  1
  In  In4  1  0.258053  0.017969  0.000000  1
  In  In5  1  0.759917  0.741947  0.000000  1
  Hg  Hg6  1  0.333333  0.666667  0.000000  1
  Ir  Ir7  1  0.000000  0.000000  0.500000  1
  Ir  Ir8  1  0.666667  0.333333  0.000000  1
