# generated using pymatgen
data_TbDy4Co19(Si5P)2
_symmetry_space_group_name_H-M   'P 1'
_cell_length_a   12.09360104
_cell_length_b   12.11578805
_cell_length_c   3.70833900
_cell_angle_alpha   90.00000000
_cell_angle_beta   90.00000000
_cell_angle_gamma   119.93066925
_symmetry_Int_Tables_number   1
_chemical_formula_structural   TbDy4Co19(Si5P)2
_chemical_formula_sum   'Tb1 Dy4 Co19 Si10 P2'
_cell_volume   470.89095557
_cell_formula_units_Z   1
loop_
 _symmetry_equiv_pos_site_id
 _symmetry_equiv_pos_as_xyz
  1  'x, y, z'
loop_
 _atom_site_type_symbol
 _atom_site_label
 _atom_site_symmetry_multiplicity
 _atom_site_fract_x
 _atom_site_fract_y
 _atom_site_fract_z
 _atom_site_occupancy
  Tb  Tb0  1  0.666527  0.333770  0.000000  1
  Dy  Dy1  1  0.332668  0.666143  0.000000  1
  Dy  Dy2  1  0.185278  0.000040  0.500000  1
  Dy  Dy3  1  0.000905  0.185875  0.500000  1
  Dy  Dy4  1  0.815077  0.814212  0.500000  1
  Co  Co5  1  0.197363  0.373609  0.000000  1
  Co  Co6  1  0.622563  0.819604  0.000000  1
  Co  Co7  1  0.176496  0.802945  0.000000  1
  Co  Co8  1  0.823906  0.626600  0.000000  1
  Co  Co9  1  0.803043  0.180284  0.000000  1
  Co  Co10  1  0.373334  0.196975  0.000000  1
  Co  Co11  1  0.559102  0.000010  0.000000  1
  Co  Co12  1  0.000716  0.559240  0.000000  1
  Co  Co13  1  0.441401  0.440703  0.000000  1
  Co  Co14  1  0.123527  0.479320  0.500000  1
  Co  Co15  1  0.520268  0.642763  0.500000  1
  Co  Co16  1  0.355538  0.876649  0.500000  1
  Co  Co17  1  0.644221  0.520911  0.500000  1
  Co  Co18  1  0.877786  0.357263  0.500000  1
  Co  Co19  1  0.478657  0.123108  0.500000  1
  Co  Co20  1  0.718591  0.999994  0.500000  1
  Co  Co21  1  0.999988  0.722285  0.500000  1
  Co  Co22  1  0.277676  0.277736  0.500000  1
  Co  Co23  1  0.004346  0.000002  0.000000  1
  Si  Si24  1  0.371255  0.000018  0.000000  1
  Si  Si25  1  0.000278  0.371426  0.000000  1
  Si  Si26  1  0.628895  0.628648  0.000000  1
  Si  Si27  1  0.317901  0.477734  0.500000  1
  Si  Si28  1  0.521517  0.838769  0.500000  1
  Si  Si29  1  0.160219  0.682115  0.500000  1
  Si  Si30  1  0.840563  0.522609  0.500000  1
  Si  Si31  1  0.682839  0.160902  0.500000  1
  Si  Si32  1  0.477598  0.317718  0.500000  1
  Si  Si33  1  0.817680  0.000004  0.000000  1
  P  P34  1  0.999991  0.817710  0.000000  1
  P  P35  1  0.182288  0.182304  0.000000  1
