# generated using pymatgen
data_Nd8Mg3Cd3Au20
_symmetry_space_group_name_H-M   'P 1'
_cell_length_a   8.73668049
_cell_length_b   8.73668121
_cell_length_c   10.47154200
_cell_angle_alpha   90.05121199
_cell_angle_beta   89.94878801
_cell_angle_gamma   107.72388191
_symmetry_Int_Tables_number   1
_chemical_formula_structural   Nd8Mg3Cd3Au20
_chemical_formula_sum   'Nd8 Mg3 Cd3 Au20'
_cell_volume   761.34957291
_cell_formula_units_Z   1
loop_
 _symmetry_equiv_pos_site_id
 _symmetry_equiv_pos_as_xyz
  1  'x, y, z'
loop_
 _atom_site_type_symbol
 _atom_site_label
 _atom_site_symmetry_multiplicity
 _atom_site_fract_x
 _atom_site_fract_y
 _atom_site_fract_z
 _atom_site_occupancy
  Nd  Nd0  1  0.702772  0.301112  0.997390  1
  Nd  Nd1  1  0.297494  0.700392  0.998674  1
  Nd  Nd2  1  0.801112  0.202772  0.502610  1
  Nd  Nd3  1  0.200392  0.797494  0.501326  1
  Nd  Nd4  1  0.300806  0.304007  0.205728  1
  Nd  Nd5  1  0.698254  0.698637  0.794736  1
  Nd  Nd6  1  0.198637  0.198254  0.705264  1
  Nd  Nd7  1  0.804007  0.800806  0.294272  1
  Mg  Mg8  1  0.516388  0.016388  0.250000  1
  Mg  Mg9  1  0.001372  0.001074  0.003075  1
  Mg  Mg10  1  0.501074  0.501372  0.496925  1
  Cd  Cd11  1  0.018787  0.518787  0.250000  1
  Cd  Cd12  1  0.981486  0.481486  0.750000  1
  Cd  Cd13  1  0.480062  0.980062  0.750000  1
  Au  Au14  1  0.096889  0.096211  0.404873  1
  Au  Au15  1  0.902565  0.903047  0.593980  1
  Au  Au16  1  0.403047  0.402565  0.906020  1
  Au  Au17  1  0.596211  0.596889  0.095127  1
  Au  Au18  1  0.880220  0.162213  0.208369  1
  Au  Au19  1  0.109667  0.837582  0.795257  1
  Au  Au20  1  0.607757  0.335675  0.704135  1
  Au  Au21  1  0.662213  0.380220  0.291631  1
  Au  Au22  1  0.390716  0.671046  0.292201  1
  Au  Au23  1  0.337582  0.609667  0.704743  1
  Au  Au24  1  0.835675  0.107757  0.795865  1
  Au  Au25  1  0.171046  0.890716  0.207799  1
  Au  Au26  1  0.930970  0.663295  0.020607  1
  Au  Au27  1  0.068315  0.337174  0.980792  1
  Au  Au28  1  0.568698  0.843814  0.515231  1
  Au  Au29  1  0.163295  0.430970  0.479393  1
  Au  Au30  1  0.433407  0.158094  0.475219  1
  Au  Au31  1  0.837174  0.568315  0.519208  1
  Au  Au32  1  0.343814  0.068698  0.984769  1
  Au  Au33  1  0.658094  0.933407  0.024781  1
