# generated using pymatgen
data_Sr4DyHo(MoO6)2
_symmetry_space_group_name_H-M   'P 1'
_cell_length_a   5.83698954
_cell_length_b   8.35022341
_cell_length_c   5.90757813
_cell_angle_alpha   89.97762353
_cell_angle_beta   90.01010656
_cell_angle_gamma   90.62866038
_symmetry_Int_Tables_number   1
_chemical_formula_structural   Sr4DyHo(MoO6)2
_chemical_formula_sum   'Sr4 Dy1 Ho1 Mo2 O12'
_cell_volume   287.91898455
_cell_formula_units_Z   1
loop_
 _symmetry_equiv_pos_site_id
 _symmetry_equiv_pos_as_xyz
  1  'x, y, z'
loop_
 _atom_site_type_symbol
 _atom_site_label
 _atom_site_symmetry_multiplicity
 _atom_site_fract_x
 _atom_site_fract_y
 _atom_site_fract_z
 _atom_site_occupancy
  Sr  Sr0  1  0.493953  0.251453  0.536948  1
  Sr  Sr1  1  0.006009  0.247666  0.036771  1
  Sr  Sr2  1  0.993994  0.752330  0.963232  1
  Sr  Sr3  1  0.506054  0.748547  0.463048  1
  Dy  Dy4  1  0.000002  0.499996  0.500003  1
  Ho  Ho5  1  0.499989  0.000001  0.999995  1
  Mo  Mo6  1  0.999978  0.000015  0.500008  1
  Mo  Mo7  1  0.500001  0.499982  0.999999  1
  O  O8  1  0.768957  0.537098  0.192641  1
  O  O9  1  0.231042  0.462925  0.807370  1
  O  O10  1  0.269016  0.036656  0.306144  1
  O  O11  1  0.730987  0.963326  0.693856  1
  O  O12  1  0.578688  0.262363  0.978692  1
  O  O13  1  0.920863  0.236756  0.478618  1
  O  O14  1  0.079150  0.763247  0.521372  1
  O  O15  1  0.421313  0.737632  0.021303  1
  O  O16  1  0.302276  0.455621  0.278373  1
  O  O17  1  0.801013  0.955836  0.221664  1
  O  O18  1  0.198988  0.044144  0.778323  1
  O  O19  1  0.697730  0.544405  0.721636  1
