# generated using pymatgen
data_Dy2Er4Al24Os6PdPt
_symmetry_space_group_name_H-M   'P 1'
_cell_length_a   8.79455100
_cell_length_b   8.83717578
_cell_length_c   9.55888700
_cell_angle_alpha   89.82112010
_cell_angle_beta   90.00000000
_cell_angle_gamma   119.84057649
_symmetry_Int_Tables_number   1
_chemical_formula_structural   Dy2Er4Al24Os6PdPt
_chemical_formula_sum   'Dy2 Er4 Al24 Os6 Pd1 Pt1'
_cell_volume   644.40328855
_cell_formula_units_Z   1
loop_
 _symmetry_equiv_pos_site_id
 _symmetry_equiv_pos_as_xyz
  1  'x, y, z'
loop_
 _atom_site_type_symbol
 _atom_site_label
 _atom_site_symmetry_multiplicity
 _atom_site_fract_x
 _atom_site_fract_y
 _atom_site_fract_z
 _atom_site_occupancy
  Dy  Dy0  1  0.192524  0.384468  0.252867  1
  Dy  Dy1  1  0.807476  0.615532  0.747133  1
  Er  Er2  1  0.611953  0.809252  0.253947  1
  Er  Er3  1  0.388047  0.190748  0.746053  1
  Er  Er4  1  0.197719  0.809710  0.253651  1
  Er  Er5  1  0.802281  0.190290  0.746349  1
  Al  Al6  1  0.335708  0.671473  0.027586  1
  Al  Al7  1  0.664292  0.328527  0.972414  1
  Al  Al8  1  0.666735  0.333343  0.522692  1
  Al  Al9  1  0.333265  0.666657  0.477308  1
  Al  Al10  1  0.163395  0.326910  0.575374  1
  Al  Al11  1  0.836605  0.673090  0.424626  1
  Al  Al12  1  0.672096  0.835444  0.576227  1
  Al  Al13  1  0.837937  0.676769  0.080085  1
  Al  Al14  1  0.327904  0.164556  0.423773  1
  Al  Al15  1  0.162063  0.323231  0.919915  1
  Al  Al16  1  0.163343  0.835361  0.575894  1
  Al  Al17  1  0.326171  0.158624  0.077719  1
  Al  Al18  1  0.836657  0.164639  0.424106  1
  Al  Al19  1  0.673829  0.841376  0.922281  1
  Al  Al20  1  0.832080  0.157759  0.078416  1
  Al  Al21  1  0.167920  0.842241  0.921584  1
  Al  Al22  1  0.561653  0.123641  0.248883  1
  Al  Al23  1  0.438347  0.876359  0.751117  1
  Al  Al24  1  0.875736  0.438604  0.251520  1
  Al  Al25  1  0.124264  0.561396  0.748480  1
  Al  Al26  1  0.562922  0.438120  0.251807  1
  Al  Al27  1  0.437078  0.561880  0.748193  1
  Al  Al28  1  0.000878  0.001363  0.250359  1
  Al  Al29  1  0.999122  0.998637  0.749641  1
  Os  Os30  1  0.500000  0.000000  0.000000  1
  Os  Os31  1  0.500000  0.000000  0.500000  1
  Os  Os32  1  0.000000  0.500000  0.500000  1
  Os  Os33  1  0.500000  0.500000  0.500000  1
  Os  Os34  1  0.000000  0.000000  0.000000  1
  Os  Os35  1  0.000000  0.000000  0.500000  1
  Pd  Pd36  1  0.000000  0.500000  0.000000  1
  Pt  Pt37  1  0.500000  0.500000  0.000000  1
