# generated using pymatgen
data_CaPr(Al5Ru)4
_symmetry_space_group_name_H-M   'P 1'
_cell_length_a   6.88769310
_cell_length_b   6.88769329
_cell_length_c   9.18899300
_cell_angle_alpha   90.00000000
_cell_angle_beta   90.00000000
_cell_angle_gamma   96.70884978
_symmetry_Int_Tables_number   1
_chemical_formula_structural   CaPr(Al5Ru)4
_chemical_formula_sum   'Ca1 Pr1 Al20 Ru4'
_cell_volume   432.94377492
_cell_formula_units_Z   1
loop_
 _symmetry_equiv_pos_site_id
 _symmetry_equiv_pos_as_xyz
  1  'x, y, z'
loop_
 _atom_site_type_symbol
 _atom_site_label
 _atom_site_symmetry_multiplicity
 _atom_site_fract_x
 _atom_site_fract_y
 _atom_site_fract_z
 _atom_site_occupancy
  Ca  Ca0  1  0.874823  0.125177  0.750000  1
  Pr  Pr1  1  0.122716  0.877284  0.250000  1
  Al  Al2  1  0.412242  0.139605  0.750000  1
  Al  Al3  1  0.138416  0.410071  0.250000  1
  Al  Al4  1  0.589929  0.861584  0.250000  1
  Al  Al5  1  0.860395  0.587758  0.750000  1
  Al  Al6  1  0.523391  0.780574  0.750000  1
  Al  Al7  1  0.778270  0.519161  0.250000  1
  Al  Al8  1  0.480839  0.221730  0.250000  1
  Al  Al9  1  0.219426  0.476609  0.750000  1
  Al  Al10  1  0.841398  0.158602  0.401516  1
  Al  Al11  1  0.160313  0.839687  0.601225  1
  Al  Al12  1  0.841398  0.158602  0.098484  1
  Al  Al13  1  0.160313  0.839687  0.898775  1
  Al  Al14  1  0.622887  0.377113  0.547936  1
  Al  Al15  1  0.378255  0.621745  0.450213  1
  Al  Al16  1  0.622887  0.377113  0.952064  1
  Al  Al17  1  0.378255  0.621745  0.049787  1
  Al  Al18  1  0.772913  0.774607  0.998621  1
  Al  Al19  1  0.772913  0.774607  0.501379  1
  Al  Al20  1  0.225393  0.227087  0.998621  1
  Al  Al21  1  0.225393  0.227087  0.501379  1
  Ru  Ru22  1  0.498864  0.000246  0.999779  1
  Ru  Ru23  1  0.999754  0.501136  0.999779  1
  Ru  Ru24  1  0.498864  0.000246  0.500221  1
  Ru  Ru25  1  0.999754  0.501136  0.500221  1
