# generated using pymatgen
data_Na14CaPb4
_symmetry_space_group_name_H-M   'P 1'
_cell_length_a   11.53223559
_cell_length_b   11.53381259
_cell_length_c   11.52595168
_cell_angle_alpha   109.48838052
_cell_angle_beta   109.39825991
_cell_angle_gamma   109.51043515
_symmetry_Int_Tables_number   1
_chemical_formula_structural   Na14CaPb4
_chemical_formula_sum   'Na28 Ca2 Pb8'
_cell_volume   1180.40167542
_cell_formula_units_Z   2
loop_
 _symmetry_equiv_pos_site_id
 _symmetry_equiv_pos_as_xyz
  1  'x, y, z'
loop_
 _atom_site_type_symbol
 _atom_site_label
 _atom_site_symmetry_multiplicity
 _atom_site_fract_x
 _atom_site_fract_y
 _atom_site_fract_z
 _atom_site_occupancy
  Na  Na0  1  0.751240  0.875725  0.125212  1
  Na  Na1  1  0.124393  0.750605  0.876106  1
  Na  Na2  1  0.373787  0.249395  0.625500  1
  Na  Na3  1  0.875514  0.124275  0.749487  1
  Na  Na4  1  0.079372  0.268246  0.109525  1
  Na  Na5  1  0.693022  0.032434  0.916828  1
  Na  Na6  1  0.882164  0.465867  0.153393  1
  Na  Na7  1  0.158299  0.890306  0.468913  1
  Na  Na8  1  0.340444  0.810863  0.730119  1
  Na  Na9  1  0.722851  0.337863  0.807184  1
  Na  Na10  1  0.031846  0.917609  0.693097  1
  Na  Na11  1  0.223660  0.306341  0.839829  1
  Na  Na12  1  0.191685  0.411149  0.534438  1
  Na  Na13  1  0.968070  0.383210  0.661331  1
  Na  Na14  1  0.307727  0.843807  0.221010  1
  Na  Na15  1  0.529581  0.189137  0.419257  1
  Na  Na16  1  0.384989  0.662137  0.969322  1
  Na  Na17  1  0.114238  0.082391  0.275488  1
  Na  Na18  1  0.267993  0.109694  0.078606  1
  Na  Na19  1  0.844707  0.220403  0.308176  1
  Na  Na20  1  0.416298  0.534133  0.187526  1
  Na  Na21  1  0.660588  0.967566  0.384392  1
  Na  Na22  1  0.624304  0.779597  0.587771  1
  Na  Na23  1  0.584858  0.616790  0.778120  1
  Na  Na24  1  0.780536  0.588851  0.623290  1
  Na  Na25  1  0.811127  0.731754  0.341279  1
  Na  Na26  1  0.917320  0.693659  0.033488  1
  Na  Na27  1  0.463920  0.156193  0.877203  1
  Ca  Ca28  1  0.624318  0.373422  0.248191  1
  Ca  Ca29  1  0.250896  0.626578  0.374769  1
  Pb  Pb30  1  0.418876  0.421961  0.412677  1
  Pb  Pb31  1  0.492917  0.989242  0.577568  1
  Pb  Pb32  1  0.583740  0.495724  0.005350  1
  Pb  Pb33  1  0.996915  0.578039  0.490716  1
  Pb  Pb34  1  0.088016  0.504276  0.009626  1
  Pb  Pb35  1  0.000885  0.085654  0.501271  1
  Pb  Pb36  1  0.503675  0.010758  0.088326  1
  Pb  Pb37  1  0.915231  0.914346  0.915617  1
