# generated using pymatgen
data_SrCePt2O7
_symmetry_space_group_name_H-M   'P 1'
_cell_length_a   7.43152661
_cell_length_b   7.49859210
_cell_length_c   7.43152477
_cell_angle_alpha   59.70101154
_cell_angle_beta   58.84079497
_cell_angle_gamma   59.70101643
_symmetry_Int_Tables_number   1
_chemical_formula_structural   SrCePt2O7
_chemical_formula_sum   'Sr2 Ce2 Pt4 O14'
_cell_volume   288.88666786
_cell_formula_units_Z   2
loop_
 _symmetry_equiv_pos_site_id
 _symmetry_equiv_pos_as_xyz
  1  'x, y, z'
loop_
 _atom_site_type_symbol
 _atom_site_label
 _atom_site_symmetry_multiplicity
 _atom_site_fract_x
 _atom_site_fract_y
 _atom_site_fract_z
 _atom_site_occupancy
  Sr  Sr0  1  0.625000  0.125000  0.125000  1
  Sr  Sr1  1  0.125000  0.125000  0.625000  1
  Ce  Ce2  1  0.125000  0.125000  0.125000  1
  Ce  Ce3  1  0.125000  0.625000  0.125000  1
  Pt  Pt4  1  0.625000  0.625000  0.125000  1
  Pt  Pt5  1  0.625000  0.625000  0.625000  1
  Pt  Pt6  1  0.625000  0.125000  0.625000  1
  Pt  Pt7  1  0.125000  0.625000  0.625000  1
  O  O8  1  0.721910  0.292300  0.287461  1
  O  O9  1  0.706153  0.293847  0.706153  1
  O  O10  1  0.022758  0.977242  0.022758  1
  O  O11  1  0.288479  0.711521  0.288479  1
  O  O12  1  0.721910  0.698328  0.287461  1
  O  O13  1  0.962539  0.551672  0.528090  1
  O  O14  1  0.287461  0.698328  0.721910  1
  O  O15  1  0.227242  0.272758  0.227242  1
  O  O16  1  0.961521  0.538479  0.961521  1
  O  O17  1  0.543847  0.956153  0.543847  1
  O  O18  1  0.528090  0.551672  0.962539  1
  O  O19  1  0.962539  0.957700  0.528090  1
  O  O20  1  0.528090  0.957700  0.962539  1
  O  O21  1  0.287461  0.292300  0.721910  1
