# generated using pymatgen
data_NbSb8Mo3Se4
_symmetry_space_group_name_H-M   'P 1'
_cell_length_a   6.66070900
_cell_length_b   6.65023675
_cell_length_c   18.78081794
_cell_angle_alpha   86.02526212
_cell_angle_beta   90.00000000
_cell_angle_gamma   90.00000000
_symmetry_Int_Tables_number   1
_chemical_formula_structural   NbSb8Mo3Se4
_chemical_formula_sum   'Nb2 Sb16 Mo6 Se8'
_cell_volume   829.90084468
_cell_formula_units_Z   2
loop_
 _symmetry_equiv_pos_site_id
 _symmetry_equiv_pos_as_xyz
  1  'x, y, z'
loop_
 _atom_site_type_symbol
 _atom_site_label
 _atom_site_symmetry_multiplicity
 _atom_site_fract_x
 _atom_site_fract_y
 _atom_site_fract_z
 _atom_site_occupancy
  Nb  Nb0  1  0.875301  0.668766  0.492997  1
  Nb  Nb1  1  0.375301  0.331234  0.007003  1
  Sb  Sb2  1  0.404280  0.201499  0.274452  1
  Sb  Sb3  1  0.904280  0.798501  0.225548  1
  Sb  Sb4  1  0.594757  0.798671  0.725661  1
  Sb  Sb5  1  0.094757  0.201329  0.774339  1
  Sb  Sb6  1  0.846401  0.206155  0.273695  1
  Sb  Sb7  1  0.346401  0.793845  0.226305  1
  Sb  Sb8  1  0.154811  0.797912  0.725830  1
  Sb  Sb9  1  0.654811  0.202088  0.774170  1
  Sb  Sb10  1  0.375925  0.074709  0.426839  1
  Sb  Sb11  1  0.875925  0.925291  0.073161  1
  Sb  Sb12  1  0.622698  0.927524  0.574289  1
  Sb  Sb13  1  0.122698  0.072476  0.925711  1
  Sb  Sb14  1  0.874239  0.080114  0.425406  1
  Sb  Sb15  1  0.374239  0.919886  0.074594  1
  Sb  Sb16  1  0.126938  0.927581  0.574455  1
  Sb  Sb17  1  0.626938  0.072419  0.925545  1
  Mo  Mo18  1  0.126965  0.329463  0.506344  1
  Mo  Mo19  1  0.626965  0.670537  0.993656  1
  Mo  Mo20  1  0.622918  0.329473  0.506585  1
  Mo  Mo21  1  0.122918  0.670527  0.993415  1
  Mo  Mo22  1  0.374886  0.669341  0.493633  1
  Mo  Mo23  1  0.874886  0.330659  0.006367  1
  Se  Se24  1  0.874984  0.401415  0.601212  1
  Se  Se25  1  0.374984  0.598585  0.898788  1
  Se  Se26  1  0.129427  0.586080  0.398349  1
  Se  Se27  1  0.629427  0.413920  0.101651  1
  Se  Se28  1  0.620794  0.586180  0.398481  1
  Se  Se29  1  0.120794  0.413820  0.101519  1
  Se  Se30  1  0.374675  0.413514  0.600147  1
  Se  Se31  1  0.874675  0.586486  0.899853  1
