# generated using pymatgen
data_Rb2Li14HfZr2O14
_symmetry_space_group_name_H-M   'P 1'
_cell_length_a   8.30153883
_cell_length_b   8.30153869
_cell_length_c   8.30153939
_cell_angle_alpha   127.52481641
_cell_angle_beta   123.42085945
_cell_angle_gamma   80.79951416
_symmetry_Int_Tables_number   1
_chemical_formula_structural   Rb2Li14HfZr2O14
_chemical_formula_sum   'Rb2 Li14 Hf1 Zr2 O14'
_cell_volume   365.13755846
_cell_formula_units_Z   1
loop_
 _symmetry_equiv_pos_site_id
 _symmetry_equiv_pos_as_xyz
  1  'x, y, z'
loop_
 _atom_site_type_symbol
 _atom_site_label
 _atom_site_symmetry_multiplicity
 _atom_site_fract_x
 _atom_site_fract_y
 _atom_site_fract_z
 _atom_site_occupancy
  Rb  Rb0  1  0.500000  0.771626  0.271626  1
  Rb  Rb1  1  0.500000  0.228374  0.728374  1
  Li  Li2  1  0.707093  0.136438  0.113965  1
  Li  Li3  1  0.977527  0.863562  0.570654  1
  Li  Li4  1  0.022473  0.593128  0.886035  1
  Li  Li5  1  0.292907  0.406872  0.429346  1
  Li  Li6  1  0.022473  0.136438  0.429346  1
  Li  Li7  1  0.845942  0.500000  0.345942  1
  Li  Li8  1  0.154058  0.500000  0.654058  1
  Li  Li9  1  0.413772  0.770377  0.643395  1
  Li  Li10  1  0.586228  0.229623  0.356605  1
  Li  Li11  1  0.873018  0.229623  0.643395  1
  Li  Li12  1  0.126982  0.770377  0.356605  1
  Li  Li13  1  0.707093  0.593128  0.570654  1
  Li  Li14  1  0.292907  0.863562  0.886035  1
  Li  Li15  1  0.977527  0.406872  0.113965  1
  Hf  Hf16  1  0.000000  0.000000  0.000000  1
  Zr  Zr17  1  0.271076  0.271076  0.000000  1
  Zr  Zr18  1  0.728924  0.728924  0.000000  1
  O  O19  1  0.052736  0.874263  0.178473  1
  O  O20  1  0.420348  0.630988  0.789360  1
  O  O21  1  0.841629  0.630988  0.210640  1
  O  O22  1  0.579652  0.369012  0.210640  1
  O  O23  1  0.158371  0.369012  0.789360  1
  O  O24  1  0.746327  0.032726  0.286399  1
  O  O25  1  0.253673  0.540073  0.286399  1
  O  O26  1  0.253673  0.967274  0.713601  1
  O  O27  1  0.746327  0.459927  0.713601  1
  O  O28  1  0.000000  0.714804  0.714804  1
  O  O29  1  0.000000  0.285196  0.285196  1
  O  O30  1  0.695791  0.874263  0.821527  1
  O  O31  1  0.304209  0.125737  0.178473  1
  O  O32  1  0.947264  0.125737  0.821527  1
