# generated using pymatgen
data_Cs2ErU(AgSe3)2
_symmetry_space_group_name_H-M   'P 1'
_cell_length_a   8.42334681
_cell_length_b   8.42334595
_cell_length_c   10.85392745
_cell_angle_alpha   89.17009043
_cell_angle_beta   89.17008921
_cell_angle_gamma   29.11105891
_symmetry_Int_Tables_number   1
_chemical_formula_structural   Cs2ErU(AgSe3)2
_chemical_formula_sum   'Cs2 Er1 U1 Ag2 Se6'
_cell_volume   374.62265430
_cell_formula_units_Z   1
loop_
 _symmetry_equiv_pos_site_id
 _symmetry_equiv_pos_as_xyz
  1  'x, y, z'
loop_
 _atom_site_type_symbol
 _atom_site_label
 _atom_site_symmetry_multiplicity
 _atom_site_fract_x
 _atom_site_fract_y
 _atom_site_fract_z
 _atom_site_occupancy
  Cs  Cs0  1  0.745997  0.745997  0.233974  1
  Cs  Cs1  1  0.254003  0.254003  0.766025  1
  Er  Er2  1  0.000000  0.000000  0.000000  1
  U  U3  1  0.000000  0.000000  0.500000  1
  Ag  Ag4  1  0.461348  0.461348  0.249003  1
  Ag  Ag5  1  0.538651  0.538651  0.750996  1
  Se  Se6  1  0.383736  0.383736  0.042260  1
  Se  Se7  1  0.613481  0.613481  0.536219  1
  Se  Se8  1  0.616264  0.616264  0.957740  1
  Se  Se9  1  0.386519  0.386519  0.463780  1
  Se  Se10  1  0.060602  0.060602  0.261079  1
  Se  Se11  1  0.939397  0.939397  0.738920  1
