# generated using pymatgen
data_Tb6ScMn2VC12
_symmetry_space_group_name_H-M   'P 1'
_cell_length_a   8.25139600
_cell_length_b   8.25139639
_cell_length_c   5.07948900
_cell_angle_alpha   90.00000000
_cell_angle_beta   90.00000000
_cell_angle_gamma   120.00000539
_symmetry_Int_Tables_number   1
_chemical_formula_structural   Tb6ScMn2VC12
_chemical_formula_sum   'Tb6 Sc1 Mn2 V1 C12'
_cell_volume   299.50599040
_cell_formula_units_Z   1
loop_
 _symmetry_equiv_pos_site_id
 _symmetry_equiv_pos_as_xyz
  1  'x, y, z'
loop_
 _atom_site_type_symbol
 _atom_site_label
 _atom_site_symmetry_multiplicity
 _atom_site_fract_x
 _atom_site_fract_y
 _atom_site_fract_z
 _atom_site_occupancy
  Tb  Tb0  1  0.618295  0.678283  0.749515  1
  Tb  Tb1  1  0.940012  0.618295  0.250485  1
  Tb  Tb2  1  0.678283  0.059988  0.250485  1
  Tb  Tb3  1  0.321717  0.940012  0.749515  1
  Tb  Tb4  1  0.059988  0.381705  0.749515  1
  Tb  Tb5  1  0.381705  0.321717  0.250485  1
  Sc  Sc6  1  0.000000  0.000000  0.500000  1
  Mn  Mn7  1  0.666667  0.333333  0.750136  1
  Mn  Mn8  1  0.333333  0.666667  0.249864  1
  V  V9  1  0.000000  0.000000  0.000000  1
  C  C10  1  0.964153  0.760038  0.763817  1
  C  C11  1  0.204115  0.964153  0.236183  1
  C  C12  1  0.760038  0.795885  0.236183  1
  C  C13  1  0.239962  0.204115  0.763817  1
  C  C14  1  0.795885  0.035847  0.763817  1
  C  C15  1  0.035847  0.239962  0.236183  1
  C  C16  1  0.861331  0.569709  0.756462  1
  C  C17  1  0.291621  0.861331  0.243538  1
  C  C18  1  0.569709  0.708379  0.243538  1
  C  C19  1  0.430291  0.291621  0.756462  1
  C  C20  1  0.138669  0.430291  0.243538  1
  C  C21  1  0.708379  0.138669  0.756462  1
