# generated using pymatgen
data_La2Nd14Cd4Pd3Ru
_symmetry_space_group_name_H-M   'P 1'
_cell_length_a   10.05944576
_cell_length_b   10.05944634
_cell_length_c   10.07595768
_cell_angle_alpha   59.54728288
_cell_angle_beta   59.54728264
_cell_angle_gamma   59.62028313
_symmetry_Int_Tables_number   1
_chemical_formula_structural   La2Nd14Cd4Pd3Ru
_chemical_formula_sum   'La2 Nd14 Cd4 Pd3 Ru1'
_cell_volume   713.95189643
_cell_formula_units_Z   1
loop_
 _symmetry_equiv_pos_site_id
 _symmetry_equiv_pos_as_xyz
  1  'x, y, z'
loop_
 _atom_site_type_symbol
 _atom_site_label
 _atom_site_symmetry_multiplicity
 _atom_site_fract_x
 _atom_site_fract_y
 _atom_site_fract_z
 _atom_site_occupancy
  La  La0  1  0.351673  0.351673  0.352517  1
  La  La1  1  0.346077  0.346077  0.951301  1
  Nd  Nd2  1  0.347982  0.948079  0.348662  1
  Nd  Nd3  1  0.948079  0.347982  0.348662  1
  Nd  Nd4  1  0.818194  0.188789  0.188620  1
  Nd  Nd5  1  0.189712  0.809368  0.808595  1
  Nd  Nd6  1  0.188789  0.818194  0.188620  1
  Nd  Nd7  1  0.809368  0.189712  0.808595  1
  Nd  Nd8  1  0.188395  0.188395  0.817715  1
  Nd  Nd9  1  0.808748  0.808748  0.189720  1
  Nd  Nd10  1  0.935143  0.565139  0.565251  1
  Nd  Nd11  1  0.559794  0.936173  0.936624  1
  Nd  Nd12  1  0.565139  0.935143  0.565251  1
  Nd  Nd13  1  0.936173  0.559794  0.936624  1
  Nd  Nd14  1  0.565613  0.565613  0.934760  1
  Nd  Nd15  1  0.936751  0.936751  0.559517  1
  Cd  Cd16  1  0.580378  0.580378  0.579202  1
  Cd  Cd17  1  0.580804  0.580804  0.257905  1
  Cd  Cd18  1  0.581305  0.257615  0.579861  1
  Cd  Cd19  1  0.257615  0.581305  0.579861  1
  Pd  Pd20  1  0.144704  0.144704  0.570266  1
  Pd  Pd21  1  0.144370  0.570971  0.144977  1
  Pd  Pd22  1  0.570971  0.144370  0.144977  1
  Ru  Ru23  1  0.144225  0.144225  0.141918  1
