# generated using pymatgen
data_Pr18Nd2(IrRh3)3
_symmetry_space_group_name_H-M   'P 1'
_cell_length_a   11.32480833
_cell_length_b   11.32455447
_cell_length_c   6.66044920
_cell_angle_alpha   89.97637211
_cell_angle_beta   89.98473282
_cell_angle_gamma   89.97711994
_symmetry_Int_Tables_number   1
_chemical_formula_structural   Pr18Nd2(IrRh3)3
_chemical_formula_sum   'Pr18 Nd2 Ir3 Rh9'
_cell_volume   854.19184026
_cell_formula_units_Z   1
loop_
 _symmetry_equiv_pos_site_id
 _symmetry_equiv_pos_as_xyz
  1  'x, y, z'
loop_
 _atom_site_type_symbol
 _atom_site_label
 _atom_site_symmetry_multiplicity
 _atom_site_fract_x
 _atom_site_fract_y
 _atom_site_fract_z
 _atom_site_occupancy
  Pr  Pr0  1  0.091019  0.290812  0.114935  1
  Pr  Pr1  1  0.791048  0.408983  0.115387  1
  Pr  Pr2  1  0.208295  0.590544  0.116284  1
  Pr  Pr3  1  0.908871  0.708998  0.115169  1
  Pr  Pr4  1  0.409426  0.791558  0.383921  1
  Pr  Pr5  1  0.591057  0.209049  0.384700  1
  Pr  Pr6  1  0.290884  0.091152  0.384956  1
  Pr  Pr7  1  0.709298  0.908957  0.385197  1
  Pr  Pr8  1  0.409600  0.208652  0.882953  1
  Pr  Pr9  1  0.708526  0.090573  0.882966  1
  Pr  Pr10  1  0.291103  0.910969  0.882986  1
  Pr  Pr11  1  0.591810  0.792023  0.883247  1
  Pr  Pr12  1  0.089048  0.709015  0.616799  1
  Pr  Pr13  1  0.909415  0.291334  0.616796  1
  Pr  Pr14  1  0.208126  0.408159  0.616539  1
  Pr  Pr15  1  0.791233  0.590437  0.616791  1
  Pr  Pr16  1  0.999932  0.999881  0.000711  1
  Pr  Pr17  1  0.500175  0.500049  0.000111  1
  Nd  Nd18  1  0.500098  0.499680  0.500055  1
  Nd  Nd19  1  0.000106  0.000075  0.499585  1
  Ir  Ir20  1  0.153472  0.153259  0.749254  1
  Ir  Ir21  1  0.846790  0.846502  0.749160  1
  Ir  Ir22  1  0.653330  0.346690  0.749208  1
  Rh  Rh23  1  0.154255  0.845723  0.250789  1
  Rh  Rh24  1  0.346422  0.346722  0.250950  1
  Rh  Rh25  1  0.653258  0.653573  0.250518  1
  Rh  Rh26  1  0.846191  0.153832  0.250731  1
  Rh  Rh27  1  0.346705  0.653296  0.749271  1
  Rh  Rh28  1  0.000356  0.500231  0.378789  1
  Rh  Rh29  1  0.499758  0.999658  0.121033  1
  Rh  Rh30  1  0.499695  0.999310  0.620141  1
  Rh  Rh31  1  0.000699  0.500302  0.880065  1
