# generated using pymatgen
data_Yb2Zn2SiAg
_symmetry_space_group_name_H-M   'P 1'
_cell_length_a   4.31120300
_cell_length_b   7.15209600
_cell_length_c   7.98037800
_cell_angle_alpha   90.00000000
_cell_angle_beta   90.00000000
_cell_angle_gamma   90.00000000
_symmetry_Int_Tables_number   1
_chemical_formula_structural   Yb2Zn2SiAg
_chemical_formula_sum   'Yb4 Zn4 Si2 Ag2'
_cell_volume   246.06807440
_cell_formula_units_Z   2
loop_
 _symmetry_equiv_pos_site_id
 _symmetry_equiv_pos_as_xyz
  1  'x, y, z'
loop_
 _atom_site_type_symbol
 _atom_site_label
 _atom_site_symmetry_multiplicity
 _atom_site_fract_x
 _atom_site_fract_y
 _atom_site_fract_z
 _atom_site_occupancy
  Yb  Yb0  1  0.750000  0.489041  0.806773  1
  Yb  Yb1  1  0.250000  0.013203  0.290496  1
  Yb  Yb2  1  0.750000  0.989041  0.693227  1
  Yb  Yb3  1  0.250000  0.513203  0.209504  1
  Zn  Zn4  1  0.250000  0.661581  0.591439  1
  Zn  Zn5  1  0.250000  0.161581  0.908561  1
  Zn  Zn6  1  0.750000  0.317921  0.437455  1
  Zn  Zn7  1  0.750000  0.817921  0.062545  1
  Si  Si8  1  0.250000  0.794951  0.898658  1
  Si  Si9  1  0.250000  0.294951  0.601342  1
  Ag  Ag10  1  0.750000  0.723302  0.394772  1
  Ag  Ag11  1  0.750000  0.223302  0.105228  1
