# generated using pymatgen
data_Ho3Th(Ga3Ir)6
_symmetry_space_group_name_H-M   'P 1'
_cell_length_a   7.62667178
_cell_length_b   7.62625489
_cell_length_c   9.48911900
_cell_angle_alpha   90.00000000
_cell_angle_beta   90.00000000
_cell_angle_gamma   119.89929233
_symmetry_Int_Tables_number   1
_chemical_formula_structural   Ho3Th(Ga3Ir)6
_chemical_formula_sum   'Ho3 Th1 Ga18 Ir6'
_cell_volume   478.45679297
_cell_formula_units_Z   1
loop_
 _symmetry_equiv_pos_site_id
 _symmetry_equiv_pos_as_xyz
  1  'x, y, z'
loop_
 _atom_site_type_symbol
 _atom_site_label
 _atom_site_symmetry_multiplicity
 _atom_site_fract_x
 _atom_site_fract_y
 _atom_site_fract_z
 _atom_site_occupancy
  Ho  Ho0  1  0.002865  0.331752  0.250000  1
  Ho  Ho1  1  0.669272  0.997115  0.750000  1
  Ho  Ho2  1  0.331140  0.002370  0.250000  1
  Th  Th3  1  0.996720  0.668426  0.750000  1
  Ga  Ga4  1  0.129068  0.131577  0.750000  1
  Ga  Ga5  1  0.873871  0.874823  0.250000  1
  Ga  Ga6  1  0.998270  0.328505  0.578263  1
  Ga  Ga7  1  0.001642  0.665790  0.414141  1
  Ga  Ga8  1  0.001642  0.665790  0.085859  1
  Ga  Ga9  1  0.339907  0.003851  0.921758  1
  Ga  Ga10  1  0.998270  0.328505  0.921737  1
  Ga  Ga11  1  0.666004  0.001915  0.081619  1
  Ga  Ga12  1  0.666004  0.001915  0.418381  1
  Ga  Ga13  1  0.339907  0.003851  0.578242  1
  Ga  Ga14  1  0.331475  0.331388  0.067126  1
  Ga  Ga15  1  0.663074  0.668474  0.937038  1
  Ga  Ga16  1  0.663074  0.668474  0.562962  1
  Ga  Ga17  1  0.331475  0.331388  0.432874  1
  Ga  Ga18  1  0.341977  0.545720  0.750000  1
  Ga  Ga19  1  0.659961  0.452110  0.250000  1
  Ga  Ga20  1  0.541474  0.336187  0.750000  1
  Ga  Ga21  1  0.452592  0.660817  0.250000  1
  Ir  Ir22  1  0.673155  0.330486  0.500509  1
  Ir  Ir23  1  0.326485  0.670910  0.500737  1
  Ir  Ir24  1  0.326485  0.670910  0.999263  1
  Ir  Ir25  1  0.673155  0.330486  0.999491  1
  Ir  Ir26  1  0.000522  0.998234  0.500670  1
  Ir  Ir27  1  0.000522  0.998234  0.999330  1
