# generated using pymatgen
data_Er9LuHg2(BiAu)2
_symmetry_space_group_name_H-M   'P 1'
_cell_length_a   8.65640056
_cell_length_b   8.65640175
_cell_length_c   8.70454331
_cell_angle_alpha   123.72845445
_cell_angle_beta   123.70407438
_cell_angle_gamma   83.31934441
_symmetry_Int_Tables_number   1
_chemical_formula_structural   Er9LuHg2(BiAu)2
_chemical_formula_sum   'Er9 Lu1 Hg2 Bi2 Au2'
_cell_volume   433.60642292
_cell_formula_units_Z   1
loop_
 _symmetry_equiv_pos_site_id
 _symmetry_equiv_pos_as_xyz
  1  'x, y, z'
loop_
 _atom_site_type_symbol
 _atom_site_label
 _atom_site_symmetry_multiplicity
 _atom_site_fract_x
 _atom_site_fract_y
 _atom_site_fract_z
 _atom_site_occupancy
  Er  Er0  1  0.500000  0.500000  0.000000  1
  Er  Er1  1  0.506654  0.006154  0.796699  1
  Er  Er2  1  0.209455  0.709954  0.203301  1
  Er  Er3  1  0.017000  0.198825  0.499500  1
  Er  Er4  1  0.699325  0.517500  0.500500  1
  Er  Er5  1  0.493346  0.993846  0.203301  1
  Er  Er6  1  0.790545  0.290046  0.796699  1
  Er  Er7  1  0.983000  0.801175  0.500500  1
  Er  Er8  1  0.300675  0.482500  0.499500  1
  Lu  Lu9  1  0.000000  0.000000  0.000000  1
  Hg  Hg10  1  0.140581  0.641065  0.781645  1
  Hg  Hg11  1  0.859419  0.358935  0.218355  1
  Bi  Bi12  1  0.249693  0.249693  0.000000  1
  Bi  Bi13  1  0.750307  0.750307  0.000000  1
  Au  Au14  1  0.638142  0.862258  0.500401  1
  Au  Au15  1  0.361858  0.137742  0.499599  1
