# generated using pymatgen
data_LiErB6Ir
_symmetry_space_group_name_H-M   'P 1'
_cell_length_a   3.50824600
_cell_length_b   8.80704400
_cell_length_c   11.19624700
_cell_angle_alpha   90.00000000
_cell_angle_beta   90.00000000
_cell_angle_gamma   90.00000000
_symmetry_Int_Tables_number   1
_chemical_formula_structural   LiErB6Ir
_chemical_formula_sum   'Li4 Er4 B24 Ir4'
_cell_volume   345.93354363
_cell_formula_units_Z   4
loop_
 _symmetry_equiv_pos_site_id
 _symmetry_equiv_pos_as_xyz
  1  'x, y, z'
loop_
 _atom_site_type_symbol
 _atom_site_label
 _atom_site_symmetry_multiplicity
 _atom_site_fract_x
 _atom_site_fract_y
 _atom_site_fract_z
 _atom_site_occupancy
  Li  Li0  1  0.500000  0.446213  0.122916  1
  Li  Li1  1  0.500000  0.553787  0.877084  1
  Li  Li2  1  0.500000  0.053787  0.622916  1
  Li  Li3  1  0.500000  0.946213  0.377084  1
  Er  Er4  1  0.500000  0.317130  0.414127  1
  Er  Er5  1  0.500000  0.682870  0.585873  1
  Er  Er6  1  0.500000  0.182870  0.914127  1
  Er  Er7  1  0.500000  0.817130  0.085873  1
  B  B8  1  0.000000  0.090790  0.475105  1
  B  B9  1  0.000000  0.909210  0.524895  1
  B  B10  1  0.000000  0.409210  0.975105  1
  B  B11  1  0.000000  0.590790  0.024895  1
  B  B12  1  0.000000  0.124684  0.318826  1
  B  B13  1  0.000000  0.875316  0.681174  1
  B  B14  1  0.000000  0.375316  0.818826  1
  B  B15  1  0.000000  0.624684  0.181174  1
  B  B16  1  0.000000  0.055652  0.067329  1
  B  B17  1  0.000000  0.944348  0.932671  1
  B  B18  1  0.000000  0.444348  0.567329  1
  B  B19  1  0.000000  0.555652  0.432671  1
  B  B20  1  0.000000  0.479428  0.285389  1
  B  B21  1  0.000000  0.520572  0.714611  1
  B  B22  1  0.000000  0.020572  0.785389  1
  B  B23  1  0.000000  0.979428  0.214611  1
  B  B24  1  0.000000  0.258409  0.081708  1
  B  B25  1  0.000000  0.741591  0.918292  1
  B  B26  1  0.000000  0.241591  0.581708  1
  B  B27  1  0.000000  0.758409  0.418292  1
  B  B28  1  0.000000  0.293778  0.235943  1
  B  B29  1  0.000000  0.706222  0.764057  1
  B  B30  1  0.000000  0.206222  0.735943  1
  B  B31  1  0.000000  0.793778  0.264057  1
  Ir  Ir32  1  0.500000  0.140484  0.181669  1
  Ir  Ir33  1  0.500000  0.859516  0.818331  1
  Ir  Ir34  1  0.500000  0.359516  0.681669  1
  Ir  Ir35  1  0.500000  0.640484  0.318331  1
