# generated using pymatgen
data_PrTh(Cd2Ir9)2
_symmetry_space_group_name_H-M   'P 1'
_cell_length_a   8.94628700
_cell_length_b   8.94628700
_cell_length_c   5.15393900
_cell_angle_alpha   90.00000000
_cell_angle_beta   90.00000000
_cell_angle_gamma   90.00000000
_symmetry_Int_Tables_number   1
_chemical_formula_structural   PrTh(Cd2Ir9)2
_chemical_formula_sum   'Pr1 Th1 Cd4 Ir18'
_cell_volume   412.50092510
_cell_formula_units_Z   1
loop_
 _symmetry_equiv_pos_site_id
 _symmetry_equiv_pos_as_xyz
  1  'x, y, z'
loop_
 _atom_site_type_symbol
 _atom_site_label
 _atom_site_symmetry_multiplicity
 _atom_site_fract_x
 _atom_site_fract_y
 _atom_site_fract_z
 _atom_site_occupancy
  Pr  Pr0  1  0.000000  0.000000  0.000000  1
  Th  Th1  1  0.500000  0.500000  0.000000  1
  Cd  Cd2  1  0.116083  0.617483  0.000000  1
  Cd  Cd3  1  0.883917  0.382517  0.000000  1
  Cd  Cd4  1  0.382517  0.116083  0.000000  1
  Cd  Cd5  1  0.617483  0.883917  0.000000  1
  Ir  Ir6  1  0.318212  0.817731  0.758231  1
  Ir  Ir7  1  0.681788  0.182269  0.758231  1
  Ir  Ir8  1  0.182269  0.318212  0.758231  1
  Ir  Ir9  1  0.817731  0.681788  0.758231  1
  Ir  Ir10  1  0.681788  0.182269  0.241769  1
  Ir  Ir11  1  0.318212  0.817731  0.241769  1
  Ir  Ir12  1  0.817731  0.681788  0.241769  1
  Ir  Ir13  1  0.182269  0.318212  0.241769  1
  Ir  Ir14  1  0.555756  0.703628  0.500000  1
  Ir  Ir15  1  0.444244  0.296372  0.500000  1
  Ir  Ir16  1  0.943857  0.204203  0.500000  1
  Ir  Ir17  1  0.056143  0.795797  0.500000  1
  Ir  Ir18  1  0.703628  0.444244  0.500000  1
  Ir  Ir19  1  0.296372  0.555756  0.500000  1
  Ir  Ir20  1  0.204203  0.056143  0.500000  1
  Ir  Ir21  1  0.795797  0.943857  0.500000  1
  Ir  Ir22  1  0.000000  0.500000  0.500000  1
  Ir  Ir23  1  0.500000  0.000000  0.500000  1
