# generated using pymatgen
data_HfMnCuIr3S8
_symmetry_space_group_name_H-M   'P 1'
_cell_length_a   6.94711852
_cell_length_b   6.94711843
_cell_length_c   6.94711867
_cell_angle_alpha   63.59229448
_cell_angle_beta   63.59229675
_cell_angle_gamma   63.59229633
_symmetry_Int_Tables_number   1
_chemical_formula_structural   HfMnCuIr3S8
_chemical_formula_sum   'Hf1 Mn1 Cu1 Ir3 S8'
_cell_volume   255.90162419
_cell_formula_units_Z   1
loop_
 _symmetry_equiv_pos_site_id
 _symmetry_equiv_pos_as_xyz
  1  'x, y, z'
loop_
 _atom_site_type_symbol
 _atom_site_label
 _atom_site_symmetry_multiplicity
 _atom_site_fract_x
 _atom_site_fract_y
 _atom_site_fract_z
 _atom_site_occupancy
  Hf  Hf0  1  0.601765  0.601765  0.601765  1
  Mn  Mn1  1  0.011858  0.011858  0.011858  1
  Cu  Cu2  1  0.249247  0.249247  0.249247  1
  Ir  Ir3  1  0.627382  0.627382  0.131149  1
  Ir  Ir4  1  0.131149  0.627382  0.627382  1
  Ir  Ir5  1  0.627382  0.131149  0.627382  1
  S  S6  1  0.364864  0.364864  0.867593  1
  S  S7  1  0.389918  0.389918  0.389918  1
  S  S8  1  0.865857  0.865857  0.865857  1
  S  S9  1  0.865490  0.865490  0.417140  1
  S  S10  1  0.364864  0.867593  0.364864  1
  S  S11  1  0.867593  0.364864  0.364864  1
  S  S12  1  0.417140  0.865490  0.865490  1
  S  S13  1  0.865490  0.417140  0.865490  1
