# generated using pymatgen
data_Hf4Ti2Al2CuMo3
_symmetry_space_group_name_H-M   'P 1'
_cell_length_a   5.31551353
_cell_length_b   5.31551265
_cell_length_c   8.64903100
_cell_angle_alpha   90.00000000
_cell_angle_beta   90.00000000
_cell_angle_gamma   118.96205592
_symmetry_Int_Tables_number   1
_chemical_formula_structural   Hf4Ti2Al2CuMo3
_chemical_formula_sum   'Hf4 Ti2 Al2 Cu1 Mo3'
_cell_volume   213.81412768
_cell_formula_units_Z   1
loop_
 _symmetry_equiv_pos_site_id
 _symmetry_equiv_pos_as_xyz
  1  'x, y, z'
loop_
 _atom_site_type_symbol
 _atom_site_label
 _atom_site_symmetry_multiplicity
 _atom_site_fract_x
 _atom_site_fract_y
 _atom_site_fract_z
 _atom_site_occupancy
  Hf  Hf0  1  0.332999  0.667001  0.191972  1
  Hf  Hf1  1  0.664384  0.335616  0.314929  1
  Hf  Hf2  1  0.664384  0.335616  0.685071  1
  Hf  Hf3  1  0.332999  0.667001  0.808028  1
  Ti  Ti4  1  0.995126  0.004874  0.242590  1
  Ti  Ti5  1  0.995126  0.004874  0.757410  1
  Al  Al6  1  0.834801  0.643656  0.000000  1
  Al  Al7  1  0.356344  0.165199  0.000000  1
  Cu  Cu8  1  0.833098  0.166902  0.000000  1
  Mo  Mo9  1  0.166430  0.341786  0.500000  1
  Mo  Mo10  1  0.658214  0.833570  0.500000  1
  Mo  Mo11  1  0.166186  0.833814  0.500000  1
