# generated using pymatgen
data_ScNb5FeSi7Ni15
_symmetry_space_group_name_H-M   'P 1'
_cell_length_a   7.97635884
_cell_length_b   7.97635819
_cell_length_c   7.98255222
_cell_angle_alpha   59.95238407
_cell_angle_beta   59.95238896
_cell_angle_gamma   60.11645179
_symmetry_Int_Tables_number   1
_chemical_formula_structural   ScNb5FeSi7Ni15
_chemical_formula_sum   'Sc1 Nb5 Fe1 Si7 Ni15'
_cell_volume   359.17275156
_cell_formula_units_Z   1
loop_
 _symmetry_equiv_pos_site_id
 _symmetry_equiv_pos_as_xyz
  1  'x, y, z'
loop_
 _atom_site_type_symbol
 _atom_site_label
 _atom_site_symmetry_multiplicity
 _atom_site_fract_x
 _atom_site_fract_y
 _atom_site_fract_z
 _atom_site_occupancy
  Sc  Sc0  1  0.797098  0.797098  0.201110  1
  Nb  Nb1  1  0.804078  0.204064  0.789383  1
  Nb  Nb2  1  0.206414  0.798502  0.198526  1
  Nb  Nb3  1  0.798502  0.206414  0.198526  1
  Nb  Nb4  1  0.204064  0.804078  0.789383  1
  Nb  Nb5  1  0.199625  0.199625  0.795124  1
  Fe  Fe6  1  0.161029  0.161029  0.516798  1
  Si  Si7  1  0.501750  0.501750  0.500003  1
  Si  Si8  1  0.502011  0.000846  0.499973  1
  Si  Si9  1  0.004215  0.498465  0.997066  1
  Si  Si10  1  0.998519  0.998519  0.499067  1
  Si  Si11  1  0.498465  0.004215  0.997066  1
  Si  Si12  1  0.000846  0.502011  0.499973  1
  Si  Si13  1  0.498909  0.498909  0.998912  1
  Ni  Ni14  1  0.494975  0.167092  0.170133  1
  Ni  Ni15  1  0.168120  0.168120  0.169672  1
  Ni  Ni16  1  0.506018  0.830149  0.834192  1
  Ni  Ni17  1  0.829882  0.829882  0.835377  1
  Ni  Ni18  1  0.832526  0.832526  0.500347  1
  Ni  Ni19  1  0.167092  0.494975  0.170133  1
  Ni  Ni20  1  0.617365  0.149162  0.616049  1
  Ni  Ni21  1  0.382953  0.382953  0.850727  1
  Ni  Ni22  1  0.854559  0.378479  0.383189  1
  Ni  Ni23  1  0.382224  0.382224  0.383797  1
  Ni  Ni24  1  0.149162  0.617365  0.616049  1
  Ni  Ni25  1  0.616428  0.616428  0.621339  1
  Ni  Ni26  1  0.614546  0.614546  0.150705  1
  Ni  Ni27  1  0.378479  0.854559  0.383189  1
  Ni  Ni28  1  0.830149  0.506018  0.834192  1
