# generated using pymatgen
data_Ho2Co5Si14Ir
_symmetry_space_group_name_H-M   'P 1'
_cell_length_a   7.70407402
_cell_length_b   7.69866189
_cell_length_c   7.69866146
_cell_angle_alpha   57.43420783
_cell_angle_beta   57.29308393
_cell_angle_gamma   57.29309052
_symmetry_Int_Tables_number   1
_chemical_formula_structural   Ho2Co5Si14Ir
_chemical_formula_sum   'Ho2 Co5 Si14 Ir1'
_cell_volume   303.10640953
_cell_formula_units_Z   1
loop_
 _symmetry_equiv_pos_site_id
 _symmetry_equiv_pos_as_xyz
  1  'x, y, z'
loop_
 _atom_site_type_symbol
 _atom_site_label
 _atom_site_symmetry_multiplicity
 _atom_site_fract_x
 _atom_site_fract_y
 _atom_site_fract_z
 _atom_site_occupancy
  Ho  Ho0  1  0.000720  0.998772  0.001249  1
  Ho  Ho1  1  0.499280  0.498751  0.501228  1
  Co  Co2  1  0.069932  0.428825  0.751791  1
  Co  Co3  1  0.250000  0.930375  0.569625  1
  Co  Co4  1  0.569648  0.250661  0.928659  1
  Co  Co5  1  0.930352  0.571341  0.249339  1
  Co  Co6  1  0.430068  0.748209  0.071175  1
  Si  Si7  1  0.750000  0.738694  0.761306  1
  Si  Si8  1  0.250000  0.250468  0.249532  1
  Si  Si9  1  0.856806  0.076000  0.670308  1
  Si  Si10  1  0.668281  0.849859  0.069397  1
  Si  Si11  1  0.073627  0.667962  0.848987  1
  Si  Si12  1  0.643194  0.829692  0.424000  1
  Si  Si13  1  0.426373  0.651013  0.832038  1
  Si  Si14  1  0.831719  0.430603  0.650141  1
  Si  Si15  1  0.165915  0.570780  0.351444  1
  Si  Si16  1  0.565591  0.358409  0.158270  1
  Si  Si17  1  0.339949  0.167125  0.577775  1
  Si  Si18  1  0.934409  0.341730  0.141591  1
  Si  Si19  1  0.334085  0.148556  0.929220  1
  Si  Si20  1  0.160051  0.922225  0.332875  1
  Ir  Ir21  1  0.750000  0.069948  0.430052  1
