# generated using pymatgen
data_BaN7
_symmetry_space_group_name_H-M   'P 1'
_cell_length_a   4.25373720
_cell_length_b   7.23473409
_cell_length_c   4.80524930
_cell_angle_alpha   97.33893736
_cell_angle_beta   96.30217556
_cell_angle_gamma   78.99835513
_symmetry_Int_Tables_number   1
_chemical_formula_structural   BaN7
_chemical_formula_sum   'Ba1 N7'
_cell_volume   143.41804227
_cell_formula_units_Z   1
loop_
 _symmetry_equiv_pos_site_id
 _symmetry_equiv_pos_as_xyz
  1  'x, y, z'
loop_
 _atom_site_type_symbol
 _atom_site_label
 _atom_site_symmetry_multiplicity
 _atom_site_fract_x
 _atom_site_fract_y
 _atom_site_fract_z
 _atom_site_occupancy
  Ba  Ba0  1  0.856816  0.784274  0.307459  1
  N  N1  1  0.556335  0.157197  0.252356  1
  N  N2  1  0.438502  0.823837  0.733765  1
  N  N3  1  0.975468  0.226956  0.754784  1
  N  N4  1  0.258306  0.816031  0.896013  1
  N  N5  1  0.505126  0.323752  0.270554  1
  N  N6  1  0.936124  0.384228  0.806067  1
  N  N7  1  0.454399  0.492435  0.289239  1
