# generated using pymatgen
data_Dy10SnHg7Pd4
_symmetry_space_group_name_H-M   'P 1'
_cell_length_a   3.63474400
_cell_length_b   7.94921566
_cell_length_c   18.11668900
_cell_angle_alpha   89.70042386
_cell_angle_beta   90.00000000
_cell_angle_gamma   90.00000000
_symmetry_Int_Tables_number   1
_chemical_formula_structural   Dy10SnHg7Pd4
_chemical_formula_sum   'Dy10 Sn1 Hg7 Pd4'
_cell_volume   523.44493318
_cell_formula_units_Z   1
loop_
 _symmetry_equiv_pos_site_id
 _symmetry_equiv_pos_as_xyz
  1  'x, y, z'
loop_
 _atom_site_type_symbol
 _atom_site_label
 _atom_site_symmetry_multiplicity
 _atom_site_fract_x
 _atom_site_fract_y
 _atom_site_fract_z
 _atom_site_occupancy
  Dy  Dy0  1  0.000000  0.497356  0.501132  1
  Dy  Dy1  1  0.000000  0.002271  0.998503  1
  Dy  Dy2  1  0.000000  0.733335  0.285602  1
  Dy  Dy3  1  0.000000  0.267292  0.713640  1
  Dy  Dy4  1  0.000000  0.758447  0.783032  1
  Dy  Dy5  1  0.000000  0.237205  0.215828  1
  Dy  Dy6  1  0.000000  0.616254  0.084796  1
  Dy  Dy7  1  0.000000  0.386622  0.916825  1
  Dy  Dy8  1  0.000000  0.886487  0.583945  1
  Dy  Dy9  1  0.000000  0.113577  0.415384  1
  Sn  Sn10  1  0.500000  0.082841  0.850206  1
  Hg  Hg11  1  0.500000  0.710776  0.934754  1
  Hg  Hg12  1  0.500000  0.291227  0.065419  1
  Hg  Hg13  1  0.500000  0.788065  0.435873  1
  Hg  Hg14  1  0.500000  0.209045  0.564911  1
  Hg  Hg15  1  0.500000  0.584447  0.647867  1
  Hg  Hg16  1  0.500000  0.418628  0.353019  1
  Hg  Hg17  1  0.500000  0.919451  0.147659  1
  Pd  Pd18  1  0.500000  0.526437  0.196801  1
  Pd  Pd19  1  0.500000  0.470562  0.803624  1
  Pd  Pd20  1  0.500000  0.976211  0.697651  1
  Pd  Pd21  1  0.500000  0.023465  0.303528  1
