# generated using pymatgen
data_Mg2MnNi9P7W2
_symmetry_space_group_name_H-M   'P 1'
_cell_length_a   3.56822600
_cell_length_b   9.21892243
_cell_length_c   9.17328467
_cell_angle_alpha   120.08324125
_cell_angle_beta   90.00000000
_cell_angle_gamma   90.00000000
_symmetry_Int_Tables_number   1
_chemical_formula_structural   Mg2MnNi9P7W2
_chemical_formula_sum   'Mg2 Mn1 Ni9 P7 W2'
_cell_volume   261.10976956
_cell_formula_units_Z   1
loop_
 _symmetry_equiv_pos_site_id
 _symmetry_equiv_pos_as_xyz
  1  'x, y, z'
loop_
 _atom_site_type_symbol
 _atom_site_label
 _atom_site_symmetry_multiplicity
 _atom_site_fract_x
 _atom_site_fract_y
 _atom_site_fract_z
 _atom_site_occupancy
  Mg  Mg0  1  0.000000  0.668179  0.336574  1
  Mg  Mg1  1  0.500000  0.334065  0.669998  1
  Mn  Mn2  1  0.500000  0.102101  0.876158  1
  Ni  Ni3  1  0.000000  0.557889  0.929657  1
  Ni  Ni4  1  0.000000  0.369546  0.439480  1
  Ni  Ni5  1  0.000000  0.071412  0.630354  1
  Ni  Ni6  1  0.500000  0.937282  0.383195  1
  Ni  Ni7  1  0.500000  0.441855  0.058877  1
  Ni  Ni8  1  0.500000  0.619251  0.553634  1
  Ni  Ni9  1  0.000000  0.870424  0.158955  1
  Ni  Ni10  1  0.000000  0.283675  0.124255  1
  Ni  Ni11  1  0.000000  0.846019  0.716887  1
  P  P12  1  0.500000  0.704224  0.120973  1
  P  P13  1  0.500000  0.412670  0.292756  1
  P  P14  1  0.500000  0.885437  0.591836  1
  P  P15  1  0.000000  0.002747  0.995654  1
  P  P16  1  0.000000  0.585554  0.701087  1
  P  P17  1  0.000000  0.116105  0.414992  1
  P  P18  1  0.000000  0.293536  0.883217  1
  W  W19  1  0.500000  0.779411  0.902333  1
  W  W20  1  0.500000  0.118617  0.219128  1
