# generated using pymatgen
data_ZrSc3Pt2O
_symmetry_space_group_name_H-M   'P 1'
_cell_length_a   8.80647966
_cell_length_b   8.80647940
_cell_length_c   8.80648000
_cell_angle_alpha   59.99999773
_cell_angle_beta   59.99999871
_cell_angle_gamma   59.99999600
_symmetry_Int_Tables_number   1
_chemical_formula_structural   ZrSc3Pt2O
_chemical_formula_sum   'Zr4 Sc12 Pt8 O4'
_cell_volume   482.93867915
_cell_formula_units_Z   4
loop_
 _symmetry_equiv_pos_site_id
 _symmetry_equiv_pos_as_xyz
  1  'x, y, z'
loop_
 _atom_site_type_symbol
 _atom_site_label
 _atom_site_symmetry_multiplicity
 _atom_site_fract_x
 _atom_site_fract_y
 _atom_site_fract_z
 _atom_site_occupancy
  Zr  Zr0  1  0.125000  0.625000  0.625000  1
  Zr  Zr1  1  0.625000  0.125000  0.625000  1
  Zr  Zr2  1  0.625000  0.625000  0.125000  1
  Zr  Zr3  1  0.625000  0.625000  0.625000  1
  Sc  Sc4  1  0.818974  0.818974  0.181026  1
  Sc  Sc5  1  0.181026  0.181026  0.818974  1
  Sc  Sc6  1  0.818974  0.181026  0.818974  1
  Sc  Sc7  1  0.181026  0.818974  0.181026  1
  Sc  Sc8  1  0.181026  0.818974  0.818974  1
  Sc  Sc9  1  0.818974  0.181026  0.181026  1
  Sc  Sc10  1  0.431026  0.431026  0.068974  1
  Sc  Sc11  1  0.068974  0.068974  0.431026  1
  Sc  Sc12  1  0.431026  0.068974  0.431026  1
  Sc  Sc13  1  0.068974  0.431026  0.068974  1
  Sc  Sc14  1  0.068974  0.431026  0.431026  1
  Sc  Sc15  1  0.431026  0.068974  0.068974  1
  Pt  Pt16  1  0.776027  0.407991  0.407991  1
  Pt  Pt17  1  0.407991  0.776027  0.407991  1
  Pt  Pt18  1  0.407991  0.407991  0.776027  1
  Pt  Pt19  1  0.407991  0.407991  0.407991  1
  Pt  Pt20  1  0.473973  0.842009  0.842009  1
  Pt  Pt21  1  0.842009  0.473973  0.842009  1
  Pt  Pt22  1  0.842009  0.842009  0.473973  1
  Pt  Pt23  1  0.842009  0.842009  0.842009  1
  O  O24  1  0.625000  0.125000  0.125000  1
  O  O25  1  0.125000  0.625000  0.125000  1
  O  O26  1  0.125000  0.125000  0.625000  1
  O  O27  1  0.125000  0.125000  0.125000  1
