# generated using pymatgen
data_Tc3(SCl)7
_symmetry_space_group_name_H-M   'P 1'
_cell_length_a   9.49745000
_cell_length_b   9.49745002
_cell_length_c   22.19459400
_cell_angle_alpha   90.00000000
_cell_angle_beta   90.00000000
_cell_angle_gamma   119.99999991
_symmetry_Int_Tables_number   1
_chemical_formula_structural   Tc3(SCl)7
_chemical_formula_sum   'Tc12 S28 Cl28'
_cell_volume   1733.77154095
_cell_formula_units_Z   4
loop_
 _symmetry_equiv_pos_site_id
 _symmetry_equiv_pos_as_xyz
  1  'x, y, z'
loop_
 _atom_site_type_symbol
 _atom_site_label
 _atom_site_symmetry_multiplicity
 _atom_site_fract_x
 _atom_site_fract_y
 _atom_site_fract_z
 _atom_site_occupancy
  Tc  Tc0  1  0.850343  0.028973  0.572389  1
  Tc  Tc1  1  0.178631  0.149657  0.572389  1
  Tc  Tc2  1  0.636100  0.482258  0.333727  1
  Tc  Tc3  1  0.149657  0.178631  0.072389  1
  Tc  Tc4  1  0.971027  0.821369  0.572389  1
  Tc  Tc5  1  0.028973  0.850343  0.072389  1
  Tc  Tc6  1  0.821369  0.971027  0.072389  1
  Tc  Tc7  1  0.517742  0.153843  0.333727  1
  Tc  Tc8  1  0.363900  0.846157  0.833727  1
  Tc  Tc9  1  0.846157  0.363900  0.333727  1
  Tc  Tc10  1  0.482258  0.636100  0.833727  1
  Tc  Tc11  1  0.153843  0.517742  0.833727  1
  S  S12  1  0.731154  0.678940  0.065776  1
  S  S13  1  0.066568  0.721532  0.840715  1
  S  S14  1  0.933432  0.654963  0.340715  1
  S  S15  1  0.297964  0.458978  0.760296  1
  S  S16  1  0.721532  0.066568  0.340715  1
  S  S17  1  0.173461  0.966059  0.646147  1
  S  S18  1  0.666667  0.333333  0.412056  1
  S  S19  1  0.033941  0.207403  0.646147  1
  S  S20  1  0.838986  0.541022  0.260296  1
  S  S21  1  0.966059  0.173461  0.146147  1
  S  S22  1  0.458978  0.297964  0.260296  1
  S  S23  1  0.321060  0.052213  0.065776  1
  S  S24  1  0.826539  0.792597  0.146147  1
  S  S25  1  0.000000  0.000000  0.994728  1
  S  S26  1  0.333333  0.666667  0.912056  1
  S  S27  1  0.345037  0.278468  0.340715  1
  S  S28  1  0.702036  0.161014  0.260296  1
  S  S29  1  0.278468  0.345037  0.840715  1
  S  S30  1  0.654963  0.933432  0.840715  1
  S  S31  1  0.678940  0.731154  0.565776  1
  S  S32  1  0.207403  0.033941  0.146147  1
  S  S33  1  0.541022  0.838986  0.760296  1
  S  S34  1  0.000000  0.000000  0.494728  1
  S  S35  1  0.161014  0.702036  0.760296  1
  S  S36  1  0.792597  0.826539  0.646147  1
  S  S37  1  0.268846  0.947787  0.565776  1
  S  S38  1  0.052213  0.321060  0.565776  1
  S  S39  1  0.947787  0.268846  0.065776  1
  Cl  Cl40  1  0.656046  0.958886  0.988332  1
  Cl  Cl41  1  0.661827  0.081590  0.625160  1
  Cl  Cl42  1  0.389768  0.025375  0.914233  1
  Cl  Cl43  1  0.610232  0.635609  0.414233  1
  Cl  Cl44  1  0.697159  0.041114  0.488332  1
  Cl  Cl45  1  0.580237  0.918410  0.125160  1
  Cl  Cl46  1  0.916985  0.330464  0.776733  1
  Cl  Cl47  1  0.413478  0.083015  0.776733  1
  Cl  Cl48  1  0.025375  0.389768  0.414233  1
  Cl  Cl49  1  0.000000  0.000000  0.737377  1
  Cl  Cl50  1  0.041114  0.697159  0.988332  1
  Cl  Cl51  1  0.330464  0.916985  0.276733  1
  Cl  Cl52  1  0.419763  0.338173  0.625160  1
  Cl  Cl53  1  0.635609  0.610232  0.914233  1
  Cl  Cl54  1  0.302841  0.343954  0.988332  1
  Cl  Cl55  1  0.586522  0.669536  0.276733  1
  Cl  Cl56  1  0.918410  0.580237  0.625160  1
  Cl  Cl57  1  0.666667  0.333333  0.168322  1
  Cl  Cl58  1  0.338173  0.419763  0.125160  1
  Cl  Cl59  1  0.000000  0.000000  0.237377  1
  Cl  Cl60  1  0.958886  0.656046  0.488332  1
  Cl  Cl61  1  0.364391  0.974625  0.414233  1
  Cl  Cl62  1  0.081590  0.661827  0.125160  1
  Cl  Cl63  1  0.343954  0.302841  0.488332  1
  Cl  Cl64  1  0.083015  0.413478  0.276733  1
  Cl  Cl65  1  0.974625  0.364391  0.914233  1
  Cl  Cl66  1  0.669536  0.586522  0.776733  1
  Cl  Cl67  1  0.333333  0.666667  0.668322  1
