# generated using pymatgen
data_Er2MgSi(PPd4)5
_symmetry_space_group_name_H-M   'P 1'
_cell_length_a   8.63960439
_cell_length_b   8.63960365
_cell_length_c   8.63974800
_cell_angle_alpha   59.99945495
_cell_angle_beta   59.99945780
_cell_angle_gamma   60.00109267
_symmetry_Int_Tables_number   1
_chemical_formula_structural   Er2MgSi(PPd4)5
_chemical_formula_sum   'Er2 Mg1 Si1 P5 Pd20'
_cell_volume   456.00937424
_cell_formula_units_Z   1
loop_
 _symmetry_equiv_pos_site_id
 _symmetry_equiv_pos_as_xyz
  1  'x, y, z'
loop_
 _atom_site_type_symbol
 _atom_site_label
 _atom_site_symmetry_multiplicity
 _atom_site_fract_x
 _atom_site_fract_y
 _atom_site_fract_z
 _atom_site_occupancy
  Er  Er0  1  0.250573  0.250573  0.249427  1
  Er  Er1  1  0.750573  0.750573  0.749427  1
  Mg  Mg2  1  0.998591  0.998591  0.001409  1
  Si  Si3  1  0.736180  0.736180  0.263820  1
  P  P4  1  0.736992  0.264860  0.263008  1
  P  P5  1  0.264860  0.736992  0.735140  1
  P  P6  1  0.264860  0.736992  0.263008  1
  P  P7  1  0.736992  0.264860  0.735140  1
  P  P8  1  0.262978  0.262978  0.737022  1
  Pd  Pd9  1  0.344169  0.999988  0.000012  1
  Pd  Pd10  1  0.655092  0.002020  0.997980  1
  Pd  Pd11  1  0.999988  0.344169  0.655831  1
  Pd  Pd12  1  0.002020  0.655092  0.344908  1
  Pd  Pd13  1  0.999988  0.344169  0.000012  1
  Pd  Pd14  1  0.655092  0.002020  0.344908  1
  Pd  Pd15  1  0.002020  0.655092  0.997980  1
  Pd  Pd16  1  0.344169  0.999988  0.655831  1
  Pd  Pd17  1  0.999056  0.999056  0.344363  1
  Pd  Pd18  1  0.999056  0.999056  0.657526  1
  Pd  Pd19  1  0.655637  0.342474  0.000944  1
  Pd  Pd20  1  0.342474  0.655637  0.000944  1
  Pd  Pd21  1  0.384222  0.384222  0.384494  1
  Pd  Pd22  1  0.615439  0.615439  0.617502  1
  Pd  Pd23  1  0.384222  0.384222  0.847065  1
  Pd  Pd24  1  0.382498  0.848381  0.384561  1
  Pd  Pd25  1  0.615439  0.615439  0.151619  1
  Pd  Pd26  1  0.615506  0.152935  0.615778  1
  Pd  Pd27  1  0.848381  0.382498  0.384561  1
  Pd  Pd28  1  0.152935  0.615506  0.615778  1
