# generated using pymatgen
data_Dy11In9IrAu3
_symmetry_space_group_name_H-M   'P 1'
_cell_length_a   13.25203000
_cell_length_b   13.26174290
_cell_length_c   3.65389100
_cell_angle_alpha   90.00000000
_cell_angle_beta   90.00000000
_cell_angle_gamma   110.51573280
_symmetry_Int_Tables_number   1
_chemical_formula_structural   Dy11In9IrAu3
_chemical_formula_sum   'Dy11 In9 Ir1 Au3'
_cell_volume   601.42520204
_cell_formula_units_Z   1
loop_
 _symmetry_equiv_pos_site_id
 _symmetry_equiv_pos_as_xyz
  1  'x, y, z'
loop_
 _atom_site_type_symbol
 _atom_site_label
 _atom_site_symmetry_multiplicity
 _atom_site_fract_x
 _atom_site_fract_y
 _atom_site_fract_z
 _atom_site_occupancy
  Dy  Dy0  1  0.068588  0.417563  0.000000  1
  Dy  Dy1  1  0.933109  0.584411  0.000000  1
  Dy  Dy2  1  0.413916  0.064707  0.000000  1
  Dy  Dy3  1  0.580940  0.923933  0.000000  1
  Dy  Dy4  1  0.632783  0.368758  0.000000  1
  Dy  Dy5  1  0.380281  0.639729  0.000000  1
  Dy  Dy6  1  0.841517  0.157063  0.000000  1
  Dy  Dy7  1  0.158609  0.841467  0.000000  1
  Dy  Dy8  1  0.997979  0.998803  0.000000  1
  Dy  Dy9  1  0.303576  0.304226  0.000000  1
  Dy  Dy10  1  0.686731  0.699097  0.000000  1
  In  In11  1  0.845606  0.365512  0.500000  1
  In  In12  1  0.156788  0.634882  0.500000  1
  In  In13  1  0.367156  0.842653  0.500000  1
  In  In14  1  0.633127  0.150724  0.500000  1
  In  In15  1  0.067437  0.213041  0.500000  1
  In  In16  1  0.930183  0.785050  0.500000  1
  In  In17  1  0.212973  0.067692  0.500000  1
  In  In18  1  0.782022  0.927778  0.500000  1
  In  In19  1  0.501619  0.503776  0.500000  1
  Ir  Ir20  1  0.549122  0.754470  0.500000  1
  Au  Au21  1  0.252198  0.454210  0.500000  1
  Au  Au22  1  0.750252  0.549460  0.500000  1
  Au  Au23  1  0.453489  0.250996  0.500000  1
