# generated using pymatgen
data_Zr12Ti5Pd7N4
_symmetry_space_group_name_H-M   'P 1'
_cell_length_a   8.71874778
_cell_length_b   8.74591391
_cell_length_c   8.71875000
_cell_angle_alpha   60.10269672
_cell_angle_beta   59.99999915
_cell_angle_gamma   60.10268827
_symmetry_Int_Tables_number   1
_chemical_formula_structural   Zr12Ti5Pd7N4
_chemical_formula_sum   'Zr12 Ti5 Pd7 N4'
_cell_volume   470.83734898
_cell_formula_units_Z   1
loop_
 _symmetry_equiv_pos_site_id
 _symmetry_equiv_pos_as_xyz
  1  'x, y, z'
loop_
 _atom_site_type_symbol
 _atom_site_label
 _atom_site_symmetry_multiplicity
 _atom_site_fract_x
 _atom_site_fract_y
 _atom_site_fract_z
 _atom_site_occupancy
  Zr  Zr0  1  0.814703  0.193228  0.177365  1
  Zr  Zr1  1  0.182699  0.817924  0.182699  1
  Zr  Zr2  1  0.816678  0.817924  0.182699  1
  Zr  Zr3  1  0.182699  0.817924  0.816678  1
  Zr  Zr4  1  0.814703  0.193228  0.814703  1
  Zr  Zr5  1  0.177365  0.193228  0.814703  1
  Zr  Zr6  1  0.434796  0.066057  0.064351  1
  Zr  Zr7  1  0.062803  0.434594  0.062803  1
  Zr  Zr8  1  0.439801  0.434594  0.062803  1
  Zr  Zr9  1  0.062803  0.434594  0.439801  1
  Zr  Zr10  1  0.434796  0.066057  0.434796  1
  Zr  Zr11  1  0.064351  0.066057  0.434796  1
  Ti  Ti12  1  0.831352  0.505944  0.831352  1
  Ti  Ti13  1  0.621328  0.625253  0.132091  1
  Ti  Ti14  1  0.621328  0.625253  0.621328  1
  Ti  Ti15  1  0.132091  0.625253  0.621328  1
  Ti  Ti16  1  0.627626  0.117122  0.627626  1
  Pd  Pd17  1  0.419039  0.409906  0.752016  1
  Pd  Pd18  1  0.419039  0.409906  0.419039  1
  Pd  Pd19  1  0.752016  0.409906  0.419039  1
  Pd  Pd20  1  0.415351  0.753947  0.415351  1
  Pd  Pd21  1  0.836035  0.828881  0.499051  1
  Pd  Pd22  1  0.836035  0.828881  0.836035  1
  Pd  Pd23  1  0.499051  0.828881  0.836035  1
  N  N24  1  0.126225  0.122510  0.625039  1
  N  N25  1  0.126225  0.122510  0.126225  1
  N  N26  1  0.625039  0.122510  0.126225  1
  N  N27  1  0.124024  0.627927  0.124024  1
