# generated using pymatgen
data_Sm4(Al8Pd3)3
_symmetry_space_group_name_H-M   'P 1'
_cell_length_a   7.52107371
_cell_length_b   7.57331183
_cell_length_c   13.34144780
_cell_angle_alpha   84.91990594
_cell_angle_beta   100.49021312
_cell_angle_gamma   119.55656276
_symmetry_Int_Tables_number   1
_chemical_formula_structural   Sm4(Al8Pd3)3
_chemical_formula_sum   'Sm4 Al24 Pd9'
_cell_volume   649.98295131
_cell_formula_units_Z   1
loop_
 _symmetry_equiv_pos_site_id
 _symmetry_equiv_pos_as_xyz
  1  'x, y, z'
loop_
 _atom_site_type_symbol
 _atom_site_label
 _atom_site_symmetry_multiplicity
 _atom_site_fract_x
 _atom_site_fract_y
 _atom_site_fract_z
 _atom_site_occupancy
  Sm  Sm0  1  0.437048  0.830133  0.809101  1
  Sm  Sm1  1  0.562952  0.169867  0.190899  1
  Sm  Sm2  1  0.769343  0.502539  0.809172  1
  Sm  Sm3  1  0.230657  0.497461  0.190828  1
  Al  Al4  1  0.479774  0.166382  0.945439  1
  Al  Al5  1  0.520226  0.833618  0.054561  1
  Al  Al6  1  0.021083  0.166676  0.559617  1
  Al  Al7  1  0.978917  0.833324  0.440383  1
  Al  Al8  1  0.355297  0.833271  0.557824  1
  Al  Al9  1  0.644703  0.166729  0.442176  1
  Al  Al10  1  0.619642  0.834575  0.330278  1
  Al  Al11  1  0.380358  0.165425  0.669722  1
  Al  Al12  1  0.056789  0.492695  0.669065  1
  Al  Al13  1  0.943211  0.507305  0.330935  1
  Al  Al14  1  0.732756  0.841127  0.668098  1
  Al  Al15  1  0.267244  0.158873  0.331902  1
  Al  Al16  1  0.147277  0.497734  0.946208  1
  Al  Al17  1  0.852723  0.502266  0.053792  1
  Al  Al18  1  0.818718  0.834248  0.955135  1
  Al  Al19  1  0.181282  0.165752  0.044865  1
  Al  Al20  1  0.312529  0.500224  0.441415  1
  Al  Al21  1  0.687471  0.499776  0.558585  1
  Al  Al22  1  0.102046  0.836164  0.183389  1
  Al  Al23  1  0.897954  0.163836  0.816611  1
  Al  Al24  1  0.305624  0.367617  0.815169  1
  Al  Al25  1  0.694376  0.632383  0.184831  1
  Al  Al26  1  0.103282  0.960681  0.815924  1
  Al  Al27  1  0.896718  0.039319  0.184076  1
  Pd  Pd28  1  0.386514  0.505671  0.636989  1
  Pd  Pd29  1  0.613486  0.494329  0.363011  1
  Pd  Pd30  1  0.171794  0.829203  0.999333  1
  Pd  Pd31  1  0.828206  0.170797  0.000667  1
  Pd  Pd32  1  0.293781  0.833709  0.362483  1
  Pd  Pd33  1  0.706219  0.166291  0.637517  1
  Pd  Pd34  1  0.048274  0.827296  0.636301  1
  Pd  Pd35  1  0.951726  0.172704  0.363699  1
  Pd  Pd36  1  0.500000  0.500000  0.000000  1
