# generated using pymatgen
data_DyY9IrRh3
_symmetry_space_group_name_H-M   'P 1'
_cell_length_a   6.49530796
_cell_length_b   7.21230384
_cell_length_c   8.65927552
_cell_angle_alpha   96.56413578
_cell_angle_beta   111.97832994
_cell_angle_gamma   89.95465810
_symmetry_Int_Tables_number   1
_chemical_formula_structural   DyY9IrRh3
_chemical_formula_sum   'Dy1 Y9 Ir1 Rh3'
_cell_volume   373.31848399
_cell_formula_units_Z   1
loop_
 _symmetry_equiv_pos_site_id
 _symmetry_equiv_pos_as_xyz
  1  'x, y, z'
loop_
 _atom_site_type_symbol
 _atom_site_label
 _atom_site_symmetry_multiplicity
 _atom_site_fract_x
 _atom_site_fract_y
 _atom_site_fract_z
 _atom_site_occupancy
  Dy  Dy0  1  0.571776  0.750972  0.999398  1
  Y  Y1  1  0.792757  0.083320  0.813276  1
  Y  Y2  1  0.978934  0.416182  0.187366  1
  Y  Y3  1  0.208404  0.916183  0.185313  1
  Y  Y4  1  0.021279  0.583632  0.812788  1
  Y  Y5  1  0.211253  0.183720  0.561543  1
  Y  Y6  1  0.649125  0.314807  0.437514  1
  Y  Y7  1  0.791112  0.815737  0.440456  1
  Y  Y8  1  0.349203  0.686536  0.563018  1
  Y  Y9  1  0.426227  0.249147  0.999837  1
  Ir  Ir10  1  0.177991  0.925482  0.777324  1
  Rh  Rh11  1  0.600049  0.427974  0.780170  1
  Rh  Rh12  1  0.821386  0.072181  0.221187  1
  Rh  Rh13  1  0.400502  0.574127  0.220812  1
