# generated using pymatgen
data_Tb4Nd8Cu3Si8Ni
_symmetry_space_group_name_H-M   'P 1'
_cell_length_a   4.24177000
_cell_length_b   11.82568147
_cell_length_c   11.45489816
_cell_angle_alpha   89.93617682
_cell_angle_beta   90.00000000
_cell_angle_gamma   90.00000000
_symmetry_Int_Tables_number   1
_chemical_formula_structural   Tb4Nd8Cu3Si8Ni
_chemical_formula_sum   'Tb4 Nd8 Cu3 Si8 Ni1'
_cell_volume   574.59819365
_cell_formula_units_Z   1
loop_
 _symmetry_equiv_pos_site_id
 _symmetry_equiv_pos_as_xyz
  1  'x, y, z'
loop_
 _atom_site_type_symbol
 _atom_site_label
 _atom_site_symmetry_multiplicity
 _atom_site_fract_x
 _atom_site_fract_y
 _atom_site_fract_z
 _atom_site_occupancy
  Tb  Tb0  1  0.250000  0.808108  0.711242  1
  Tb  Tb1  1  0.250000  0.692890  0.206680  1
  Tb  Tb2  1  0.750000  0.191685  0.292268  1
  Tb  Tb3  1  0.750000  0.307978  0.793974  1
  Nd  Nd4  1  0.250000  0.060193  0.880295  1
  Nd  Nd5  1  0.250000  0.436878  0.380844  1
  Nd  Nd6  1  0.750000  0.935153  0.115261  1
  Nd  Nd7  1  0.750000  0.562370  0.618546  1
  Nd  Nd8  1  0.250000  0.118794  0.561261  1
  Nd  Nd9  1  0.250000  0.381107  0.061933  1
  Nd  Nd10  1  0.750000  0.879559  0.438984  1
  Nd  Nd11  1  0.750000  0.624840  0.937676  1
  Cu  Cu12  1  0.250000  0.359920  0.633661  1
  Cu  Cu13  1  0.250000  0.137678  0.131740  1
  Cu  Cu14  1  0.750000  0.638894  0.366907  1
  Si  Si15  1  0.250000  0.814089  0.969719  1
  Si  Si16  1  0.250000  0.687228  0.471666  1
  Si  Si17  1  0.750000  0.189094  0.029068  1
  Si  Si18  1  0.750000  0.311547  0.528538  1
  Si  Si19  1  0.250000  0.485483  0.806084  1
  Si  Si20  1  0.250000  0.014493  0.304600  1
  Si  Si21  1  0.750000  0.515661  0.194392  1
  Si  Si22  1  0.750000  0.982563  0.696379  1
  Ni  Ni23  1  0.750000  0.863791  0.868279  1
