# generated using pymatgen
data_NdDy2Co8ReP6
_symmetry_space_group_name_H-M   'P 1'
_cell_length_a   3.73213700
_cell_length_b   10.52881200
_cell_length_c   12.25519800
_cell_angle_alpha   90.00000000
_cell_angle_beta   90.00000000
_cell_angle_gamma   90.00000000
_symmetry_Int_Tables_number   1
_chemical_formula_structural   NdDy2Co8ReP6
_chemical_formula_sum   'Nd2 Dy4 Co16 Re2 P12'
_cell_volume   481.56762343
_cell_formula_units_Z   2
loop_
 _symmetry_equiv_pos_site_id
 _symmetry_equiv_pos_as_xyz
  1  'x, y, z'
loop_
 _atom_site_type_symbol
 _atom_site_label
 _atom_site_symmetry_multiplicity
 _atom_site_fract_x
 _atom_site_fract_y
 _atom_site_fract_z
 _atom_site_occupancy
  Nd  Nd0  1  0.000000  0.500000  0.524075  1
  Nd  Nd1  1  0.500000  0.000000  0.475925  1
  Dy  Dy2  1  0.500000  0.817703  0.204692  1
  Dy  Dy3  1  0.500000  0.182297  0.204692  1
  Dy  Dy4  1  0.000000  0.682297  0.795308  1
  Dy  Dy5  1  0.000000  0.317703  0.795308  1
  Co  Co6  1  0.500000  0.500000  0.704803  1
  Co  Co7  1  0.000000  0.000000  0.295197  1
  Co  Co8  1  0.000000  0.500000  0.987637  1
  Co  Co9  1  0.500000  0.000000  0.012363  1
  Co  Co10  1  0.500000  0.332404  0.990095  1
  Co  Co11  1  0.500000  0.667596  0.990095  1
  Co  Co12  1  0.000000  0.167596  0.009905  1
  Co  Co13  1  0.000000  0.832404  0.009905  1
  Co  Co14  1  0.500000  0.296163  0.429428  1
  Co  Co15  1  0.500000  0.703837  0.429428  1
  Co  Co16  1  0.000000  0.203837  0.570572  1
  Co  Co17  1  0.000000  0.796163  0.570572  1
  Co  Co18  1  0.500000  0.879822  0.711502  1
  Co  Co19  1  0.500000  0.120178  0.711502  1
  Co  Co20  1  0.000000  0.620178  0.288498  1
  Co  Co21  1  0.000000  0.379822  0.288498  1
  Re  Re22  1  0.500000  0.500000  0.154081  1
  Re  Re23  1  0.000000  0.000000  0.845919  1
  P  P24  1  0.500000  0.500000  0.881268  1
  P  P25  1  0.000000  0.000000  0.118732  1
  P  P26  1  0.500000  0.500000  0.344972  1
  P  P27  1  0.000000  0.000000  0.655028  1
  P  P28  1  0.500000  0.308462  0.617414  1
  P  P29  1  0.500000  0.691538  0.617414  1
  P  P30  1  0.000000  0.191538  0.382586  1
  P  P31  1  0.000000  0.808462  0.382586  1
  P  P32  1  0.500000  0.845794  0.893558  1
  P  P33  1  0.500000  0.154206  0.893558  1
  P  P34  1  0.000000  0.654206  0.106442  1
  P  P35  1  0.000000  0.345794  0.106442  1
