# generated using pymatgen
data_Hf16Co4Mo3Pt
_symmetry_space_group_name_H-M   'P 1'
_cell_length_a   8.66960906
_cell_length_b   8.66960810
_cell_length_c   8.66960701
_cell_angle_alpha   59.87279787
_cell_angle_beta   59.87280294
_cell_angle_gamma   59.87279901
_symmetry_Int_Tables_number   1
_chemical_formula_structural   Hf16Co4Mo3Pt
_chemical_formula_sum   'Hf16 Co4 Mo3 Pt1'
_cell_volume   459.43925845
_cell_formula_units_Z   1
loop_
 _symmetry_equiv_pos_site_id
 _symmetry_equiv_pos_as_xyz
  1  'x, y, z'
loop_
 _atom_site_type_symbol
 _atom_site_label
 _atom_site_symmetry_multiplicity
 _atom_site_fract_x
 _atom_site_fract_y
 _atom_site_fract_z
 _atom_site_occupancy
  Hf  Hf0  1  0.048829  0.650639  0.650639  1
  Hf  Hf1  1  0.650639  0.048829  0.650639  1
  Hf  Hf2  1  0.650639  0.650639  0.048829  1
  Hf  Hf3  1  0.650216  0.650216  0.650216  1
  Hf  Hf4  1  0.796702  0.796702  0.204240  1
  Hf  Hf5  1  0.199521  0.199521  0.801731  1
  Hf  Hf6  1  0.796702  0.204240  0.796702  1
  Hf  Hf7  1  0.199521  0.801731  0.199521  1
  Hf  Hf8  1  0.204240  0.796702  0.796702  1
  Hf  Hf9  1  0.801731  0.199521  0.199521  1
  Hf  Hf10  1  0.435678  0.435678  0.060599  1
  Hf  Hf11  1  0.064582  0.064582  0.434758  1
  Hf  Hf12  1  0.435678  0.060599  0.435678  1
  Hf  Hf13  1  0.064582  0.434758  0.064582  1
  Hf  Hf14  1  0.060599  0.435678  0.435678  1
  Hf  Hf15  1  0.434758  0.064582  0.064582  1
  Co  Co16  1  0.420932  0.860972  0.860972  1
  Co  Co17  1  0.860972  0.420932  0.860972  1
  Co  Co18  1  0.860972  0.860972  0.420932  1
  Co  Co19  1  0.859879  0.859879  0.859879  1
  Mo  Mo20  1  0.750014  0.418074  0.418074  1
  Mo  Mo21  1  0.418074  0.750014  0.418074  1
  Mo  Mo22  1  0.418074  0.418074  0.750014  1
  Pt  Pt23  1  0.416466  0.416466  0.416466  1
