# generated using pymatgen
data_Hf8ScCoRe3W
_symmetry_space_group_name_H-M   'P 1'
_cell_length_a   8.65255024
_cell_length_b   8.62304638
_cell_length_c   8.43951600
_cell_angle_alpha   90.00000000
_cell_angle_beta   90.00000000
_cell_angle_gamma   119.88726787
_symmetry_Int_Tables_number   1
_chemical_formula_structural   Hf8ScCoRe3W
_chemical_formula_sum   'Hf16 Sc2 Co2 Re6 W2'
_cell_volume   545.94041688
_cell_formula_units_Z   2
loop_
 _symmetry_equiv_pos_site_id
 _symmetry_equiv_pos_as_xyz
  1  'x, y, z'
loop_
 _atom_site_type_symbol
 _atom_site_label
 _atom_site_symmetry_multiplicity
 _atom_site_fract_x
 _atom_site_fract_y
 _atom_site_fract_z
 _atom_site_occupancy
  Hf  Hf0  1  0.201029  0.800397  0.441119  1
  Hf  Hf1  1  0.201029  0.400634  0.441119  1
  Hf  Hf2  1  0.599111  0.799555  0.440417  1
  Hf  Hf3  1  0.799706  0.200370  0.559350  1
  Hf  Hf4  1  0.799706  0.599334  0.559350  1
  Hf  Hf5  1  0.400079  0.200039  0.559737  1
  Hf  Hf6  1  0.799706  0.200370  0.940650  1
  Hf  Hf7  1  0.799706  0.599334  0.940650  1
  Hf  Hf8  1  0.400079  0.200039  0.940263  1
  Hf  Hf9  1  0.201029  0.800397  0.058881  1
  Hf  Hf10  1  0.201029  0.400634  0.058881  1
  Hf  Hf11  1  0.599111  0.799555  0.059583  1
  Hf  Hf12  1  0.918083  0.459042  0.250000  1
  Hf  Hf13  1  0.458257  0.542404  0.750000  1
  Hf  Hf14  1  0.458257  0.915852  0.750000  1
  Hf  Hf15  1  0.084344  0.542171  0.750000  1
  Sc  Sc16  1  0.541902  0.458180  0.250000  1
  Sc  Sc17  1  0.541902  0.083722  0.250000  1
  Co  Co18  1  0.329642  0.664821  0.250000  1
  Co  Co19  1  0.666710  0.333354  0.750000  1
  Re  Re20  1  0.888988  0.112551  0.250000  1
  Re  Re21  1  0.888988  0.776438  0.250000  1
  Re  Re22  1  0.222315  0.111158  0.250000  1
  Re  Re23  1  0.110883  0.888273  0.750000  1
  Re  Re24  1  0.110883  0.222609  0.750000  1
  Re  Re25  1  0.777102  0.888551  0.750000  1
  W  W26  1  0.000214  0.000107  0.497056  1
  W  W27  1  0.000214  0.000107  0.002944  1
