# generated using pymatgen
data_Lu3Zn2GaC
_symmetry_space_group_name_H-M   'P 1'
_cell_length_a   8.96682405
_cell_length_b   8.97325221
_cell_length_c   8.97325427
_cell_angle_alpha   59.90619290
_cell_angle_beta   59.86815712
_cell_angle_gamma   59.86815887
_symmetry_Int_Tables_number   1
_chemical_formula_structural   Lu3Zn2GaC
_chemical_formula_sum   'Lu12 Zn8 Ga4 C4'
_cell_volume   509.15211677
_cell_formula_units_Z   4
loop_
 _symmetry_equiv_pos_site_id
 _symmetry_equiv_pos_as_xyz
  1  'x, y, z'
loop_
 _atom_site_type_symbol
 _atom_site_label
 _atom_site_symmetry_multiplicity
 _atom_site_fract_x
 _atom_site_fract_y
 _atom_site_fract_z
 _atom_site_occupancy
  Lu  Lu0  1  0.443852  0.444168  0.055929  1
  Lu  Lu1  1  0.055063  0.445335  0.055446  1
  Lu  Lu2  1  0.445068  0.055548  0.055548  1
  Lu  Lu3  1  0.055063  0.055446  0.445335  1
  Lu  Lu4  1  0.443852  0.055929  0.444168  1
  Lu  Lu5  1  0.055358  0.444659  0.444659  1
  Lu  Lu6  1  0.805483  0.805419  0.194238  1
  Lu  Lu7  1  0.195010  0.805012  0.194879  1
  Lu  Lu8  1  0.805465  0.194516  0.194516  1
  Lu  Lu9  1  0.195010  0.194879  0.805012  1
  Lu  Lu10  1  0.805483  0.194238  0.805419  1
  Lu  Lu11  1  0.194575  0.805010  0.805010  1
  Zn  Zn12  1  0.826871  0.831071  0.831071  1
  Zn  Zn13  1  0.425253  0.419776  0.734703  1
  Zn  Zn14  1  0.425253  0.734703  0.419776  1
  Zn  Zn15  1  0.733231  0.422100  0.422100  1
  Zn  Zn16  1  0.424720  0.420063  0.420063  1
  Zn  Zn17  1  0.624964  0.625042  0.126502  1
  Zn  Zn18  1  0.624964  0.126502  0.625042  1
  Zn  Zn19  1  0.623870  0.623937  0.623937  1
  Ga  Ga20  1  0.826961  0.832864  0.508655  1
  Ga  Ga21  1  0.826961  0.508655  0.832864  1
  Ga  Ga22  1  0.509549  0.830738  0.830738  1
  Ga  Ga23  1  0.128269  0.624686  0.624686  1
  C  C24  1  0.125076  0.125095  0.624376  1
  C  C25  1  0.125076  0.624376  0.125095  1
  C  C26  1  0.624447  0.125177  0.125177  1
  C  C27  1  0.125255  0.125056  0.125056  1
