# generated using pymatgen
data_Tb5Zr3(As3Pd4)4
_symmetry_space_group_name_H-M   'P 1'
_cell_length_a   13.57942000
_cell_length_b   13.57941990
_cell_length_c   4.11024600
_cell_angle_alpha   90.00000000
_cell_angle_beta   90.00000000
_cell_angle_gamma   120.00000511
_symmetry_Int_Tables_number   1
_chemical_formula_structural   Tb5Zr3(As3Pd4)4
_chemical_formula_sum   'Tb5 Zr3 As12 Pd16'
_cell_volume   656.38834863
_cell_formula_units_Z   1
loop_
 _symmetry_equiv_pos_site_id
 _symmetry_equiv_pos_as_xyz
  1  'x, y, z'
loop_
 _atom_site_type_symbol
 _atom_site_label
 _atom_site_symmetry_multiplicity
 _atom_site_fract_x
 _atom_site_fract_y
 _atom_site_fract_z
 _atom_site_occupancy
  Tb  Tb0  1  0.189413  0.189413  0.500000  1
  Tb  Tb1  1  0.810587  0.000000  0.500000  1
  Tb  Tb2  1  0.000000  0.810587  0.500000  1
  Tb  Tb3  1  0.333333  0.666667  0.000000  1
  Tb  Tb4  1  0.666667  0.333333  0.000000  1
  Zr  Zr5  1  0.556591  0.556591  0.000000  1
  Zr  Zr6  1  0.443409  0.000000  0.000000  1
  Zr  Zr7  1  0.000000  0.443409  0.000000  1
  As  As8  1  0.825965  0.825965  0.000000  1
  As  As9  1  0.174035  0.000000  0.000000  1
  As  As10  1  0.000000  0.174035  0.000000  1
  As  As11  1  0.166925  0.483288  0.500000  1
  As  As12  1  0.516712  0.683637  0.500000  1
  As  As13  1  0.316363  0.833075  0.500000  1
  As  As14  1  0.683637  0.516712  0.500000  1
  As  As15  1  0.833075  0.316363  0.500000  1
  As  As16  1  0.483288  0.166925  0.500000  1
  As  As17  1  0.358369  0.358369  0.000000  1
  As  As18  1  0.641631  0.000000  0.000000  1
  As  As19  1  0.000000  0.641631  0.000000  1
  Pd  Pd20  1  0.722050  0.722050  0.500000  1
  Pd  Pd21  1  0.277950  0.000000  0.500000  1
  Pd  Pd22  1  0.000000  0.277950  0.500000  1
  Pd  Pd23  1  0.181461  0.372386  0.000000  1
  Pd  Pd24  1  0.627614  0.809074  0.000000  1
  Pd  Pd25  1  0.190926  0.818539  0.000000  1
  Pd  Pd26  1  0.809074  0.627614  0.000000  1
  Pd  Pd27  1  0.818539  0.190926  0.000000  1
  Pd  Pd28  1  0.372386  0.181461  0.000000  1
  Pd  Pd29  1  0.356938  0.485211  0.500000  1
  Pd  Pd30  1  0.514789  0.871727  0.500000  1
  Pd  Pd31  1  0.128273  0.643062  0.500000  1
  Pd  Pd32  1  0.871727  0.514789  0.500000  1
  Pd  Pd33  1  0.643062  0.128273  0.500000  1
  Pd  Pd34  1  0.485211  0.356938  0.500000  1
  Pd  Pd35  1  0.000000  0.000000  0.000000  1
