# generated using pymatgen
data_Lu12Fe3Pd2
_symmetry_space_group_name_H-M   'P 1'
_cell_length_a   7.98826048
_cell_length_b   7.98826058
_cell_length_c   7.98826109
_cell_angle_alpha   108.70689538
_cell_angle_beta   108.70689404
_cell_angle_gamma   111.01093526
_symmetry_Int_Tables_number   1
_chemical_formula_structural   Lu12Fe3Pd2
_chemical_formula_sum   'Lu12 Fe3 Pd2'
_cell_volume   392.19204262
_cell_formula_units_Z   1
loop_
 _symmetry_equiv_pos_site_id
 _symmetry_equiv_pos_as_xyz
  1  'x, y, z'
loop_
 _atom_site_type_symbol
 _atom_site_label
 _atom_site_symmetry_multiplicity
 _atom_site_fract_x
 _atom_site_fract_y
 _atom_site_fract_z
 _atom_site_occupancy
  Lu  Lu0  1  0.311194  0.311194  0.622389  1
  Lu  Lu1  1  0.688806  0.688806  0.377611  1
  Lu  Lu2  1  0.688806  0.311194  0.000000  1
  Lu  Lu3  1  0.311194  0.688806  0.000000  1
  Lu  Lu4  1  0.186364  0.433958  0.247593  1
  Lu  Lu5  1  0.813636  0.566042  0.752407  1
  Lu  Lu6  1  0.186364  0.938770  0.752407  1
  Lu  Lu7  1  0.938770  0.186364  0.752407  1
  Lu  Lu8  1  0.813636  0.061230  0.247593  1
  Lu  Lu9  1  0.061230  0.813636  0.247593  1
  Lu  Lu10  1  0.433958  0.186364  0.247593  1
  Lu  Lu11  1  0.566042  0.813636  0.752407  1
  Fe  Fe12  1  0.376185  0.376185  0.000000  1
  Fe  Fe13  1  0.623815  0.623815  0.000000  1
  Fe  Fe14  1  0.000000  0.000000  0.000000  1
  Pd  Pd15  1  0.000000  0.500000  0.500000  1
  Pd  Pd16  1  0.500000  0.000000  0.500000  1
