# generated using pymatgen
data_Y4ZnPt3
_symmetry_space_group_name_H-M   'P 1'
_cell_length_a   4.56323200
_cell_length_b   5.59547359
_cell_length_c   7.14278233
_cell_angle_alpha   90.11043499
_cell_angle_beta   90.00000000
_cell_angle_gamma   90.00000000
_symmetry_Int_Tables_number   1
_chemical_formula_structural   Y4ZnPt3
_chemical_formula_sum   'Y4 Zn1 Pt3'
_cell_volume   182.37949480
_cell_formula_units_Z   1
loop_
 _symmetry_equiv_pos_site_id
 _symmetry_equiv_pos_as_xyz
  1  'x, y, z'
loop_
 _atom_site_type_symbol
 _atom_site_label
 _atom_site_symmetry_multiplicity
 _atom_site_fract_x
 _atom_site_fract_y
 _atom_site_fract_z
 _atom_site_occupancy
  Y  Y0  1  0.250000  0.640075  0.187411  1
  Y  Y1  1  0.750000  0.368315  0.806918  1
  Y  Y2  1  0.750000  0.139435  0.328388  1
  Y  Y3  1  0.250000  0.850058  0.678876  1
  Zn  Zn4  1  0.250000  0.134375  0.032058  1
  Pt  Pt5  1  0.750000  0.875599  0.969825  1
  Pt  Pt6  1  0.750000  0.654757  0.454814  1
  Pt  Pt7  1  0.250000  0.337386  0.541710  1
