# generated using pymatgen
data_TbDy2Mn8CoP6
_symmetry_space_group_name_H-M   'P 1'
_cell_length_a   3.64398200
_cell_length_b   10.85224000
_cell_length_c   12.63242000
_cell_angle_alpha   90.00000000
_cell_angle_beta   90.00000000
_cell_angle_gamma   90.00000000
_symmetry_Int_Tables_number   1
_chemical_formula_structural   TbDy2Mn8CoP6
_chemical_formula_sum   'Tb2 Dy4 Mn16 Co2 P12'
_cell_volume   499.55368777
_cell_formula_units_Z   2
loop_
 _symmetry_equiv_pos_site_id
 _symmetry_equiv_pos_as_xyz
  1  'x, y, z'
loop_
 _atom_site_type_symbol
 _atom_site_label
 _atom_site_symmetry_multiplicity
 _atom_site_fract_x
 _atom_site_fract_y
 _atom_site_fract_z
 _atom_site_occupancy
  Tb  Tb0  1  0.000000  0.500000  0.532147  1
  Tb  Tb1  1  0.500000  0.000000  0.467853  1
  Dy  Dy2  1  0.500000  0.822854  0.206549  1
  Dy  Dy3  1  0.500000  0.177146  0.206549  1
  Dy  Dy4  1  0.000000  0.677146  0.793451  1
  Dy  Dy5  1  0.000000  0.322854  0.793451  1
  Mn  Mn6  1  0.500000  0.500000  0.166331  1
  Mn  Mn7  1  0.000000  0.000000  0.833669  1
  Mn  Mn8  1  0.000000  0.500000  0.992664  1
  Mn  Mn9  1  0.500000  0.000000  0.007336  1
  Mn  Mn10  1  0.500000  0.332569  0.997485  1
  Mn  Mn11  1  0.500000  0.667431  0.997485  1
  Mn  Mn12  1  0.000000  0.167431  0.002515  1
  Mn  Mn13  1  0.000000  0.832569  0.002515  1
  Mn  Mn14  1  0.500000  0.297968  0.432288  1
  Mn  Mn15  1  0.500000  0.702032  0.432288  1
  Mn  Mn16  1  0.000000  0.202032  0.567712  1
  Mn  Mn17  1  0.000000  0.797968  0.567712  1
  Mn  Mn18  1  0.500000  0.881773  0.702683  1
  Mn  Mn19  1  0.500000  0.118227  0.702683  1
  Mn  Mn20  1  0.000000  0.618227  0.297317  1
  Mn  Mn21  1  0.000000  0.381773  0.297317  1
  Co  Co22  1  0.500000  0.500000  0.706189  1
  Co  Co23  1  0.000000  0.000000  0.293811  1
  P  P24  1  0.500000  0.500000  0.881654  1
  P  P25  1  0.000000  0.000000  0.118346  1
  P  P26  1  0.500000  0.500000  0.358979  1
  P  P27  1  0.000000  0.000000  0.641021  1
  P  P28  1  0.500000  0.317337  0.618833  1
  P  P29  1  0.500000  0.682663  0.618833  1
  P  P30  1  0.000000  0.182663  0.381167  1
  P  P31  1  0.000000  0.817337  0.381167  1
  P  P32  1  0.500000  0.845485  0.885160  1
  P  P33  1  0.500000  0.154515  0.885160  1
  P  P34  1  0.000000  0.654515  0.114840  1
  P  P35  1  0.000000  0.345485  0.114840  1
