# generated using pymatgen
data_Sc4CuSi(B2Rh5)2
_symmetry_space_group_name_H-M   'P 1'
_cell_length_a   9.29014700
_cell_length_b   3.07985700
_cell_length_c   9.29014700
_cell_angle_alpha   90.00000000
_cell_angle_beta   90.00000000
_cell_angle_gamma   90.00000000
_symmetry_Int_Tables_number   1
_chemical_formula_structural   Sc4CuSi(B2Rh5)2
_chemical_formula_sum   'Sc4 Cu1 Si1 B4 Rh10'
_cell_volume   265.81269847
_cell_formula_units_Z   1
loop_
 _symmetry_equiv_pos_site_id
 _symmetry_equiv_pos_as_xyz
  1  'x, y, z'
loop_
 _atom_site_type_symbol
 _atom_site_label
 _atom_site_symmetry_multiplicity
 _atom_site_fract_x
 _atom_site_fract_y
 _atom_site_fract_z
 _atom_site_occupancy
  Sc  Sc0  1  0.673744  0.000000  0.176709  1
  Sc  Sc1  1  0.176709  0.000000  0.326256  1
  Sc  Sc2  1  0.823291  0.000000  0.673744  1
  Sc  Sc3  1  0.326256  0.000000  0.823291  1
  Cu  Cu4  1  0.500001  0.000000  0.500001  1
  Si  Si5  1  0.000000  0.000000  0.000000  1
  B  B6  1  0.378776  0.000000  0.128681  1
  B  B7  1  0.871320  0.000000  0.378776  1
  B  B8  1  0.128681  0.000000  0.621224  1
  B  B9  1  0.621224  0.000000  0.871320  1
  Rh  Rh10  1  0.500001  0.499999  0.000000  1
  Rh  Rh11  1  0.211193  0.499999  0.067731  1
  Rh  Rh12  1  0.932269  0.499999  0.211193  1
  Rh  Rh13  1  0.426681  0.499999  0.283500  1
  Rh  Rh14  1  0.716500  0.499999  0.426681  1
  Rh  Rh15  1  0.000000  0.499999  0.500001  1
  Rh  Rh16  1  0.283500  0.499999  0.573320  1
  Rh  Rh17  1  0.573320  0.499999  0.716500  1
  Rh  Rh18  1  0.067731  0.499999  0.788807  1
  Rh  Rh19  1  0.788807  0.499999  0.932269  1
