# generated using pymatgen
data_ErNiB4Os3
_symmetry_space_group_name_H-M   'P 1'
_cell_length_a   7.52255480
_cell_length_b   7.21909004
_cell_length_c   4.01881200
_cell_angle_alpha   90.00000000
_cell_angle_beta   90.00000000
_cell_angle_gamma   87.27742860
_symmetry_Int_Tables_number   1
_chemical_formula_structural   ErNiB4Os3
_chemical_formula_sum   'Er2 Ni2 B8 Os6'
_cell_volume   217.99925934
_cell_formula_units_Z   2
loop_
 _symmetry_equiv_pos_site_id
 _symmetry_equiv_pos_as_xyz
  1  'x, y, z'
loop_
 _atom_site_type_symbol
 _atom_site_label
 _atom_site_symmetry_multiplicity
 _atom_site_fract_x
 _atom_site_fract_y
 _atom_site_fract_z
 _atom_site_occupancy
  Er  Er0  1  0.000000  0.000000  0.012203  1
  Er  Er1  1  0.500000  0.500000  0.625557  1
  Ni  Ni2  1  0.133228  0.382367  0.877652  1
  Ni  Ni3  1  0.866772  0.617633  0.877652  1
  B  B4  1  0.675118  0.782989  0.105521  1
  B  B5  1  0.324882  0.217011  0.105521  1
  B  B6  1  0.281344  0.835046  0.603146  1
  B  B7  1  0.718656  0.164954  0.603146  1
  B  B8  1  0.844462  0.689592  0.380340  1
  B  B9  1  0.155538  0.310408  0.380340  1
  B  B10  1  0.201544  0.670948  0.879438  1
  B  B11  1  0.798456  0.329052  0.879438  1
  Os  Os12  1  0.878354  0.368015  0.371963  1
  Os  Os13  1  0.121646  0.631985  0.371963  1
  Os  Os14  1  0.346364  0.116637  0.607598  1
  Os  Os15  1  0.653636  0.883363  0.607598  1
  Os  Os16  1  0.603871  0.151329  0.105463  1
  Os  Os17  1  0.396129  0.848671  0.105463  1
