# generated using pymatgen
data_CaCeDy(InRh)3
_symmetry_space_group_name_H-M   'P 1'
_cell_length_a   7.57240582
_cell_length_b   7.41929290
_cell_length_c   3.95131200
_cell_angle_alpha   90.00000000
_cell_angle_beta   90.00000000
_cell_angle_gamma   116.24184279
_symmetry_Int_Tables_number   1
_chemical_formula_structural   CaCeDy(InRh)3
_chemical_formula_sum   'Ca1 Ce1 Dy1 In3 Rh3'
_cell_volume   199.11273223
_cell_formula_units_Z   1
loop_
 _symmetry_equiv_pos_site_id
 _symmetry_equiv_pos_as_xyz
  1  'x, y, z'
loop_
 _atom_site_type_symbol
 _atom_site_label
 _atom_site_symmetry_multiplicity
 _atom_site_fract_x
 _atom_site_fract_y
 _atom_site_fract_z
 _atom_site_occupancy
  Ca  Ca0  1  0.997775  0.403510  0.500000  1
  Ce  Ce1  1  0.584377  0.582673  0.500000  1
  Dy  Dy2  1  0.402473  0.994350  0.500000  1
  In  In3  1  0.747072  0.011434  0.000000  1
  In  In4  1  0.007267  0.737016  0.000000  1
  In  In5  1  0.241502  0.244498  0.000000  1
  Rh  Rh6  1  0.373180  0.680071  0.000000  1
  Rh  Rh7  1  0.647916  0.355669  0.000000  1
  Rh  Rh8  1  0.998439  0.990781  0.500000  1
