# generated using pymatgen
data_Dy2Y3P12Ru6Rh13
_symmetry_space_group_name_H-M   'P 1'
_cell_length_a   12.64290255
_cell_length_b   12.65050092
_cell_length_c   3.93858300
_cell_angle_alpha   90.00000000
_cell_angle_beta   90.00000000
_cell_angle_gamma   120.09003441
_symmetry_Int_Tables_number   1
_chemical_formula_structural   Dy2Y3P12Ru6Rh13
_chemical_formula_sum   'Dy2 Y3 P12 Ru6 Rh13'
_cell_volume   545.04256425
_cell_formula_units_Z   1
loop_
 _symmetry_equiv_pos_site_id
 _symmetry_equiv_pos_as_xyz
  1  'x, y, z'
loop_
 _atom_site_type_symbol
 _atom_site_label
 _atom_site_symmetry_multiplicity
 _atom_site_fract_x
 _atom_site_fract_y
 _atom_site_fract_z
 _atom_site_occupancy
  Dy  Dy0  1  0.332655  0.667374  0.000000  1
  Dy  Dy1  1  0.999574  0.813436  0.500000  1
  Y  Y2  1  0.668551  0.332080  0.000000  1
  Y  Y3  1  0.814078  0.001250  0.500000  1
  Y  Y4  1  0.184857  0.186942  0.500000  1
  P  P5  1  0.635529  0.999634  0.000000  1
  P  P6  1  0.364800  0.365272  0.000000  1
  P  P7  1  0.000436  0.633367  0.000000  1
  P  P8  1  0.688140  0.519024  0.500000  1
  P  P9  1  0.832432  0.310084  0.500000  1
  P  P10  1  0.316395  0.834102  0.500000  1
  P  P11  1  0.518725  0.690885  0.500000  1
  P  P12  1  0.180713  0.999599  0.000000  1
  P  P13  1  0.818581  0.817899  0.000000  1
  P  P14  1  0.996565  0.179119  0.000000  1
  P  P15  1  0.478873  0.167581  0.500000  1
  P  P16  1  0.165151  0.480264  0.500000  1
  Ru  Ru17  1  0.513570  0.873858  0.500000  1
  Ru  Ru18  1  0.715236  0.714649  0.500000  1
  Ru  Ru19  1  0.000758  0.284914  0.500000  1
  Ru  Ru20  1  0.003615  0.452190  0.000000  1
  Ru  Ru21  1  0.818162  0.195431  0.000000  1
  Ru  Ru22  1  0.281842  0.999111  0.500000  1
  Rh  Rh23  1  0.623772  0.804358  0.000000  1
  Rh  Rh24  1  0.181820  0.375124  0.000000  1
  Rh  Rh25  1  0.375518  0.182013  0.000000  1
  Rh  Rh26  1  0.194940  0.817730  0.000000  1
  Rh  Rh27  1  0.804125  0.621239  0.000000  1
  Rh  Rh28  1  0.872722  0.509986  0.500000  1
  Rh  Rh29  1  0.491038  0.359914  0.500000  1
  Rh  Rh30  1  0.637584  0.129880  0.500000  1
  Rh  Rh31  1  0.129482  0.640636  0.500000  1
  Rh  Rh32  1  0.358610  0.492418  0.500000  1
  Rh  Rh33  1  0.999583  0.998689  0.000000  1
  Rh  Rh34  1  0.454270  0.002164  0.000000  1
  Rh  Rh35  1  0.547297  0.547788  0.000000  1
