# generated using pymatgen
data_Yb2Co9P7Ru3
_symmetry_space_group_name_H-M   'P 1'
_cell_length_a   8.98995937
_cell_length_b   9.10098263
_cell_length_c   3.64526300
_cell_angle_alpha   90.00000000
_cell_angle_beta   90.00000000
_cell_angle_gamma   119.28305507
_symmetry_Int_Tables_number   1
_chemical_formula_structural   Yb2Co9P7Ru3
_chemical_formula_sum   'Yb2 Co9 P7 Ru3'
_cell_volume   260.13447881
_cell_formula_units_Z   1
loop_
 _symmetry_equiv_pos_site_id
 _symmetry_equiv_pos_as_xyz
  1  'x, y, z'
loop_
 _atom_site_type_symbol
 _atom_site_label
 _atom_site_symmetry_multiplicity
 _atom_site_fract_x
 _atom_site_fract_y
 _atom_site_fract_z
 _atom_site_occupancy
  Yb  Yb0  1  0.671452  0.333542  0.500000  1
  Yb  Yb1  1  0.335525  0.670126  0.000000  1
  Co  Co2  1  0.727773  0.880506  0.000000  1
  Co  Co3  1  0.940644  0.378709  0.000000  1
  Co  Co4  1  0.151893  0.275792  0.000000  1
  Co  Co5  1  0.120133  0.840415  0.000000  1
  Co  Co6  1  0.433490  0.059280  0.000000  1
  Co  Co7  1  0.051586  0.616500  0.500000  1
  Co  Co8  1  0.562164  0.948442  0.500000  1
  Co  Co9  1  0.633893  0.570603  0.000000  1
  Co  Co10  1  0.864248  0.753801  0.500000  1
  P  P11  1  0.411739  0.294873  0.000000  1
  P  P12  1  0.290321  0.883265  0.500000  1
  P  P13  1  0.702290  0.110765  0.000000  1
  P  P14  1  0.603264  0.718211  0.500000  1
  P  P15  1  0.889429  0.594347  0.000000  1
  P  P16  1  0.112236  0.409802  0.500000  1
  P  P17  1  0.000700  0.998503  0.000000  1
  Ru  Ru18  1  0.210618  0.090258  0.500000  1
  Ru  Ru19  1  0.898182  0.132373  0.500000  1
  Ru  Ru20  1  0.388420  0.439889  0.500000  1
