# generated using pymatgen
data_Tm4Sc3AlIr4
_symmetry_space_group_name_H-M   'P 1'
_cell_length_a   4.29671900
_cell_length_b   6.99983732
_cell_length_c   8.34077441
_cell_angle_alpha   88.12437958
_cell_angle_beta   90.00000000
_cell_angle_gamma   90.00000000
_symmetry_Int_Tables_number   1
_chemical_formula_structural   Tm4Sc3AlIr4
_chemical_formula_sum   'Tm4 Sc3 Al1 Ir4'
_cell_volume   250.72551466
_cell_formula_units_Z   1
loop_
 _symmetry_equiv_pos_site_id
 _symmetry_equiv_pos_as_xyz
  1  'x, y, z'
loop_
 _atom_site_type_symbol
 _atom_site_label
 _atom_site_symmetry_multiplicity
 _atom_site_fract_x
 _atom_site_fract_y
 _atom_site_fract_z
 _atom_site_occupancy
  Tm  Tm0  1  0.250000  0.041266  0.668818  1
  Tm  Tm1  1  0.250000  0.518804  0.816946  1
  Tm  Tm2  1  0.750000  0.989941  0.338310  1
  Tm  Tm3  1  0.750000  0.465315  0.179126  1
  Sc  Sc4  1  0.250000  0.135896  0.070546  1
  Sc  Sc5  1  0.250000  0.638507  0.437660  1
  Sc  Sc6  1  0.750000  0.858871  0.933802  1
  Al  Al7  1  0.750000  0.361336  0.562118  1
  Ir  Ir8  1  0.250000  0.265520  0.385957  1
  Ir  Ir9  1  0.250000  0.746444  0.106412  1
  Ir  Ir10  1  0.750000  0.736814  0.617077  1
  Ir  Ir11  1  0.750000  0.241284  0.883229  1
