# generated using pymatgen
data_HoSi2Ni8Rh
_symmetry_space_group_name_H-M   'P 1'
_cell_length_a   7.63155155
_cell_length_b   7.62937315
_cell_length_c   7.62880994
_cell_angle_alpha   99.38884896
_cell_angle_beta   99.43545697
_cell_angle_gamma   132.30844671
_symmetry_Int_Tables_number   1
_chemical_formula_structural   HoSi2Ni8Rh
_chemical_formula_sum   'Ho2 Si4 Ni16 Rh2'
_cell_volume   300.40989917
_cell_formula_units_Z   2
loop_
 _symmetry_equiv_pos_site_id
 _symmetry_equiv_pos_as_xyz
  1  'x, y, z'
loop_
 _atom_site_type_symbol
 _atom_site_label
 _atom_site_symmetry_multiplicity
 _atom_site_fract_x
 _atom_site_fract_y
 _atom_site_fract_z
 _atom_site_occupancy
  Ho  Ho0  1  0.500004  0.499954  0.999893  1
  Ho  Ho1  1  0.749996  0.250046  0.500107  1
  Si  Si2  1  0.625000  0.875000  0.750000  1
  Si  Si3  1  0.125000  0.375000  0.250000  1
  Si  Si4  1  0.125000  0.875000  0.750000  1
  Si  Si5  1  0.125000  0.875000  0.250000  1
  Ni  Ni6  1  0.684696  0.014209  0.080782  1
  Ni  Ni7  1  0.684745  0.603926  0.670547  1
  Ni  Ni8  1  0.264253  0.434730  0.580818  1
  Ni  Ni9  1  0.264224  0.683442  0.829500  1
  Ni  Ni10  1  0.933407  0.014203  0.329524  1
  Ni  Ni11  1  0.933375  0.603908  0.919160  1
  Ni  Ni12  1  0.853912  0.434737  0.170502  1
  Ni  Ni13  1  0.853926  0.683437  0.419220  1
  Ni  Ni14  1  0.565304  0.735791  0.419218  1
  Ni  Ni15  1  0.565255  0.146074  0.829453  1
  Ni  Ni16  1  0.985747  0.315270  0.919182  1
  Ni  Ni17  1  0.985776  0.066558  0.670500  1
  Ni  Ni18  1  0.316593  0.735797  0.170476  1
  Ni  Ni19  1  0.316625  0.146092  0.580840  1
  Ni  Ni20  1  0.396088  0.315263  0.329498  1
  Ni  Ni21  1  0.396074  0.066563  0.080780  1
  Rh  Rh22  1  0.250008  0.750017  0.500014  1
  Rh  Rh23  1  0.999992  0.999983  0.999986  1
