# generated using pymatgen
data_Hf7Sc(InPt2)4
_symmetry_space_group_name_H-M   'P 1'
_cell_length_a   7.59989331
_cell_length_b   7.59989472
_cell_length_c   6.71382300
_cell_angle_alpha   90.00000000
_cell_angle_beta   90.00000000
_cell_angle_gamma   89.81165240
_symmetry_Int_Tables_number   1
_chemical_formula_structural   Hf7Sc(InPt2)4
_chemical_formula_sum   'Hf7 Sc1 In4 Pt8'
_cell_volume   387.77750533
_cell_formula_units_Z   1
loop_
 _symmetry_equiv_pos_site_id
 _symmetry_equiv_pos_as_xyz
  1  'x, y, z'
loop_
 _atom_site_type_symbol
 _atom_site_label
 _atom_site_symmetry_multiplicity
 _atom_site_fract_x
 _atom_site_fract_y
 _atom_site_fract_z
 _atom_site_occupancy
  Hf  Hf0  1  0.152311  0.152311  0.000000  1
  Hf  Hf1  1  0.848517  0.848517  0.000000  1
  Hf  Hf2  1  0.653953  0.349470  0.500000  1
  Hf  Hf3  1  0.349470  0.653953  0.500000  1
  Hf  Hf4  1  0.680156  0.318561  0.000000  1
  Hf  Hf5  1  0.318561  0.680156  0.000000  1
  Hf  Hf6  1  0.819425  0.819425  0.500000  1
  Sc  Sc7  1  0.181485  0.181485  0.500000  1
  In  In8  1  0.497365  0.000600  0.249721  1
  In  In9  1  0.497365  0.000600  0.750279  1
  In  In10  1  0.000600  0.497365  0.249721  1
  In  In11  1  0.000600  0.497365  0.750279  1
  Pt  Pt12  1  0.370507  0.370507  0.223064  1
  Pt  Pt13  1  0.631788  0.631788  0.778369  1
  Pt  Pt14  1  0.631788  0.631788  0.221631  1
  Pt  Pt15  1  0.867675  0.130124  0.723839  1
  Pt  Pt16  1  0.867675  0.130124  0.276161  1
  Pt  Pt17  1  0.370507  0.370507  0.776936  1
  Pt  Pt18  1  0.130124  0.867675  0.276161  1
  Pt  Pt19  1  0.130124  0.867675  0.723839  1
