# generated using pymatgen
data_Ta10Al3Si2As
_symmetry_space_group_name_H-M   'P 1'
_cell_length_a   6.67566058
_cell_length_b   7.62107482
_cell_length_c   6.67566100
_cell_angle_alpha   115.99918605
_cell_angle_beta   89.94966194
_cell_angle_gamma   115.99919264
_symmetry_Int_Tables_number   1
_chemical_formula_structural   Ta10Al3Si2As
_chemical_formula_sum   'Ta10 Al3 Si2 As1'
_cell_volume   266.56454309
_cell_formula_units_Z   1
loop_
 _symmetry_equiv_pos_site_id
 _symmetry_equiv_pos_as_xyz
  1  'x, y, z'
loop_
 _atom_site_type_symbol
 _atom_site_label
 _atom_site_symmetry_multiplicity
 _atom_site_fract_x
 _atom_site_fract_y
 _atom_site_fract_z
 _atom_site_occupancy
  Ta  Ta0  1  0.999088  0.000000  0.001495  1
  Ta  Ta1  1  0.501495  0.000000  0.499088  1
  Ta  Ta2  1  0.515890  0.697954  0.682058  1
  Ta  Ta3  1  0.182058  0.697954  0.015890  1
  Ta  Ta4  1  0.689241  0.699258  0.189241  1
  Ta  Ta5  1  0.009770  0.698384  0.509770  1
  Ta  Ta6  1  0.484105  0.302046  0.317936  1
  Ta  Ta7  1  0.817936  0.302046  0.984105  1
  Ta  Ta8  1  0.311387  0.301616  0.811387  1
  Ta  Ta9  1  0.989985  0.300742  0.489985  1
  Al  Al10  1  0.750908  0.500000  0.750908  1
  Al  Al11  1  0.250908  0.500000  0.250908  1
  Al  Al12  1  0.365499  0.000000  0.865499  1
  Si  Si13  1  0.870013  0.000000  0.631786  1
  Si  Si14  1  0.131786  0.000000  0.370013  1
  As  As15  1  0.629929  0.000000  0.129929  1
