# generated using pymatgen
data_Hf18Ta5Re3Ge2
_symmetry_space_group_name_H-M   'P 1'
_cell_length_a   8.69650011
_cell_length_b   8.76449457
_cell_length_c   8.82113100
_cell_angle_alpha   90.00000000
_cell_angle_beta   90.00000000
_cell_angle_gamma   120.25763869
_symmetry_Int_Tables_number   1
_chemical_formula_structural   Hf18Ta5Re3Ge2
_chemical_formula_sum   'Hf18 Ta5 Re3 Ge2'
_cell_volume   580.75496802
_cell_formula_units_Z   1
loop_
 _symmetry_equiv_pos_site_id
 _symmetry_equiv_pos_as_xyz
  1  'x, y, z'
loop_
 _atom_site_type_symbol
 _atom_site_label
 _atom_site_symmetry_multiplicity
 _atom_site_fract_x
 _atom_site_fract_y
 _atom_site_fract_z
 _atom_site_occupancy
  Hf  Hf0  1  0.197775  0.803021  0.454956  1
  Hf  Hf1  1  0.197774  0.394760  0.454966  1
  Hf  Hf2  1  0.608867  0.804431  0.457534  1
  Hf  Hf3  1  0.803365  0.196369  0.547816  1
  Hf  Hf4  1  0.803369  0.606992  0.547804  1
  Hf  Hf5  1  0.392815  0.196407  0.545645  1
  Hf  Hf6  1  0.803365  0.196369  0.952184  1
  Hf  Hf7  1  0.803369  0.606992  0.952196  1
  Hf  Hf8  1  0.392815  0.196407  0.954355  1
  Hf  Hf9  1  0.197775  0.803021  0.045044  1
  Hf  Hf10  1  0.197774  0.394760  0.045034  1
  Hf  Hf11  1  0.608867  0.804431  0.042466  1
  Hf  Hf12  1  0.538466  0.463241  0.250000  1
  Hf  Hf13  1  0.538472  0.075219  0.250000  1
  Hf  Hf14  1  0.924596  0.462292  0.250000  1
  Hf  Hf15  1  0.464404  0.540601  0.750000  1
  Hf  Hf16  1  0.464399  0.923812  0.750000  1
  Hf  Hf17  1  0.074851  0.537426  0.750000  1
  Ta  Ta18  1  0.889770  0.110521  0.250000  1
  Ta  Ta19  1  0.889763  0.779244  0.250000  1
  Ta  Ta20  1  0.221314  0.110654  0.250000  1
  Ta  Ta21  1  0.104406  0.886548  0.750000  1
  Ta  Ta22  1  0.104419  0.217866  0.750000  1
  Re  Re23  1  0.776717  0.888367  0.750000  1
  Re  Re24  1  0.999544  0.999770  0.499865  1
  Re  Re25  1  0.999544  0.999770  0.000135  1
  Ge  Ge26  1  0.334986  0.667483  0.250000  1
  Ge  Ge27  1  0.666422  0.333225  0.750000  1
