# generated using pymatgen
data_AsCl30
_symmetry_space_group_name_H-M   'P 1'
_cell_length_a   13.65446913
_cell_length_b   13.65446916
_cell_length_c   15.94271963
_cell_angle_alpha   83.74614670
_cell_angle_beta   83.74614670
_cell_angle_gamma   124.89417981
_symmetry_Int_Tables_number   1
_chemical_formula_structural   AsCl30
_chemical_formula_sum   'As1 Cl30'
_cell_volume   2369.44941241
_cell_formula_units_Z   1
loop_
 _symmetry_equiv_pos_site_id
 _symmetry_equiv_pos_as_xyz
  1  'x, y, z'
loop_
 _atom_site_type_symbol
 _atom_site_label
 _atom_site_symmetry_multiplicity
 _atom_site_fract_x
 _atom_site_fract_y
 _atom_site_fract_z
 _atom_site_occupancy
  As  As0  1  0.000000  0.000000  0.000000  1
  Cl  Cl1  1  0.946364  0.946364  0.150711  1
  Cl  Cl2  1  0.053636  0.053636  0.849289  1
  Cl  Cl3  1  0.059517  0.190837  0.005356  1
  Cl  Cl4  1  0.940483  0.809163  0.994644  1
  Cl  Cl5  1  0.190837  0.059517  0.005356  1
  Cl  Cl6  1  0.809163  0.940483  0.994644  1
  Cl  Cl7  1  0.203376  0.743015  0.064203  1
  Cl  Cl8  1  0.796624  0.256985  0.935797  1
  Cl  Cl9  1  0.700574  0.076984  0.263589  1
  Cl  Cl10  1  0.256985  0.796624  0.935797  1
  Cl  Cl11  1  0.299426  0.923016  0.736411  1
  Cl  Cl12  1  0.743015  0.203376  0.064203  1
  Cl  Cl13  1  0.977138  0.198093  0.782175  1
  Cl  Cl14  1  0.923016  0.299426  0.736411  1
  Cl  Cl15  1  0.022862  0.801907  0.217825  1
  Cl  Cl16  1  0.076984  0.700574  0.263589  1
  Cl  Cl17  1  0.801907  0.022862  0.217825  1
  Cl  Cl18  1  0.198093  0.977138  0.782175  1
  Cl  Cl19  1  0.464685  0.546820  0.259143  1
  Cl  Cl20  1  0.535315  0.453180  0.740857  1
  Cl  Cl21  1  0.508069  0.206124  0.450822  1
  Cl  Cl22  1  0.453180  0.535315  0.740857  1
  Cl  Cl23  1  0.491931  0.793876  0.549178  1
  Cl  Cl24  1  0.546820  0.464685  0.259143  1
  Cl  Cl25  1  0.240041  0.429114  0.544083  1
  Cl  Cl26  1  0.793876  0.491931  0.549178  1
  Cl  Cl27  1  0.759959  0.570886  0.455917  1
  Cl  Cl28  1  0.206124  0.508069  0.450822  1
  Cl  Cl29  1  0.570886  0.759959  0.455917  1
  Cl  Cl30  1  0.429114  0.240041  0.544083  1
