# generated using pymatgen
data_Eu2ZnPd2
_symmetry_space_group_name_H-M   'P 1'
_cell_length_a   5.82042920
_cell_length_b   5.82042931
_cell_length_c   8.12874638
_cell_angle_alpha   78.10542222
_cell_angle_beta   78.10542400
_cell_angle_gamma   59.64568433
_symmetry_Int_Tables_number   1
_chemical_formula_structural   Eu2ZnPd2
_chemical_formula_sum   'Eu4 Zn2 Pd4'
_cell_volume   230.82720133
_cell_formula_units_Z   2
loop_
 _symmetry_equiv_pos_site_id
 _symmetry_equiv_pos_as_xyz
  1  'x, y, z'
loop_
 _atom_site_type_symbol
 _atom_site_label
 _atom_site_symmetry_multiplicity
 _atom_site_fract_x
 _atom_site_fract_y
 _atom_site_fract_z
 _atom_site_occupancy
  Eu  Eu0  1  0.788892  0.509213  0.350129  1
  Eu  Eu1  1  0.490787  0.211108  0.149871  1
  Eu  Eu2  1  0.211108  0.490787  0.649871  1
  Eu  Eu3  1  0.509213  0.788892  0.850129  1
  Zn  Zn4  1  0.135426  0.864574  0.250000  1
  Zn  Zn5  1  0.864574  0.135426  0.750000  1
  Pd  Pd6  1  0.002765  0.737530  0.003700  1
  Pd  Pd7  1  0.262470  0.997235  0.496300  1
  Pd  Pd8  1  0.997235  0.262470  0.996300  1
  Pd  Pd9  1  0.737530  0.002765  0.503700  1
