# generated using pymatgen
data_LiEu16Cd3Ir4
_symmetry_space_group_name_H-M   'P 1'
_cell_length_a   10.19084865
_cell_length_b   10.19084934
_cell_length_c   10.19084791
_cell_angle_alpha   60.10072732
_cell_angle_beta   60.10072493
_cell_angle_gamma   60.10072995
_symmetry_Int_Tables_number   1
_chemical_formula_structural   LiEu16Cd3Ir4
_chemical_formula_sum   'Li1 Eu16 Cd3 Ir4'
_cell_volume   750.07745234
_cell_formula_units_Z   1
loop_
 _symmetry_equiv_pos_site_id
 _symmetry_equiv_pos_as_xyz
  1  'x, y, z'
loop_
 _atom_site_type_symbol
 _atom_site_label
 _atom_site_symmetry_multiplicity
 _atom_site_fract_x
 _atom_site_fract_y
 _atom_site_fract_z
 _atom_site_occupancy
  Li  Li0  1  0.570290  0.570290  0.570290  1
  Eu  Eu1  1  0.344813  0.344813  0.344813  1
  Eu  Eu2  1  0.341682  0.341682  0.973119  1
  Eu  Eu3  1  0.341682  0.973119  0.341682  1
  Eu  Eu4  1  0.973119  0.341682  0.341682  1
  Eu  Eu5  1  0.807512  0.193848  0.193848  1
  Eu  Eu6  1  0.189187  0.809498  0.809498  1
  Eu  Eu7  1  0.193848  0.807512  0.193848  1
  Eu  Eu8  1  0.809498  0.189187  0.809498  1
  Eu  Eu9  1  0.193848  0.193848  0.807512  1
  Eu  Eu10  1  0.809498  0.809498  0.189187  1
  Eu  Eu11  1  0.951699  0.549446  0.549446  1
  Eu  Eu12  1  0.553663  0.946603  0.946603  1
  Eu  Eu13  1  0.549446  0.951699  0.549446  1
  Eu  Eu14  1  0.946603  0.553663  0.946603  1
  Eu  Eu15  1  0.549446  0.549446  0.951699  1
  Eu  Eu16  1  0.946603  0.946603  0.553663  1
  Cd  Cd17  1  0.579618  0.579618  0.264736  1
  Cd  Cd18  1  0.579618  0.264736  0.579618  1
  Cd  Cd19  1  0.264736  0.579618  0.579618  1
  Ir  Ir20  1  0.137589  0.137589  0.137589  1
  Ir  Ir21  1  0.139352  0.139352  0.587300  1
  Ir  Ir22  1  0.139352  0.587300  0.139352  1
  Ir  Ir23  1  0.587300  0.139352  0.139352  1
