# generated using pymatgen
data_Zr4Mn3FeB16
_symmetry_space_group_name_H-M   'P 1'
_cell_length_a   3.28722600
_cell_length_b   5.78792731
_cell_length_c   11.19954059
_cell_angle_alpha   89.99976294
_cell_angle_beta   90.00000000
_cell_angle_gamma   90.00000000
_symmetry_Int_Tables_number   1
_chemical_formula_structural   Zr4Mn3FeB16
_chemical_formula_sum   'Zr4 Mn3 Fe1 B16'
_cell_volume   213.08498081
_cell_formula_units_Z   1
loop_
 _symmetry_equiv_pos_site_id
 _symmetry_equiv_pos_as_xyz
  1  'x, y, z'
loop_
 _atom_site_type_symbol
 _atom_site_label
 _atom_site_symmetry_multiplicity
 _atom_site_fract_x
 _atom_site_fract_y
 _atom_site_fract_z
 _atom_site_occupancy
  Zr  Zr0  1  0.000000  0.126413  0.650423  1
  Zr  Zr1  1  0.000000  0.873392  0.351054  1
  Zr  Zr2  1  0.000000  0.628098  0.849756  1
  Zr  Zr3  1  0.000000  0.372028  0.149488  1
  Mn  Mn4  1  0.000000  0.130391  0.911475  1
  Mn  Mn5  1  0.000000  0.869471  0.088661  1
  Mn  Mn6  1  0.000000  0.630913  0.589075  1
  Fe  Fe7  1  0.000000  0.367716  0.409614  1
  B  B8  1  0.500000  0.365269  0.968117  1
  B  B9  1  0.500000  0.635200  0.032221  1
  B  B10  1  0.500000  0.865187  0.531696  1
  B  B11  1  0.500000  0.135132  0.467934  1
  B  B12  1  0.500000  0.474066  0.692985  1
  B  B13  1  0.500000  0.526177  0.306838  1
  B  B14  1  0.500000  0.974268  0.807000  1
  B  B15  1  0.500000  0.026205  0.193200  1
  B  B16  1  0.500000  0.286163  0.813826  1
  B  B17  1  0.500000  0.713902  0.186011  1
  B  B18  1  0.500000  0.786348  0.685938  1
  B  B19  1  0.500000  0.213937  0.313954  1
  B  B20  1  0.500000  0.385889  0.547037  1
  B  B21  1  0.500000  0.613993  0.453104  1
  B  B22  1  0.500000  0.885745  0.953489  1
  B  B23  1  0.500000  0.114099  0.047104  1
