# generated using pymatgen
data_Pr10GeBi6Au
_symmetry_space_group_name_H-M   'P 1'
_cell_length_a   9.76083700
_cell_length_b   9.76083742
_cell_length_c   6.74703000
_cell_angle_alpha   90.00000000
_cell_angle_beta   90.00000000
_cell_angle_gamma   120.00000197
_symmetry_Int_Tables_number   1
_chemical_formula_structural   Pr10GeBi6Au
_chemical_formula_sum   'Pr10 Ge1 Bi6 Au1'
_cell_volume   556.69510646
_cell_formula_units_Z   1
loop_
 _symmetry_equiv_pos_site_id
 _symmetry_equiv_pos_as_xyz
  1  'x, y, z'
loop_
 _atom_site_type_symbol
 _atom_site_label
 _atom_site_symmetry_multiplicity
 _atom_site_fract_x
 _atom_site_fract_y
 _atom_site_fract_z
 _atom_site_occupancy
  Pr  Pr0  1  0.666667  0.333333  0.000000  1
  Pr  Pr1  1  0.333333  0.666667  0.000000  1
  Pr  Pr2  1  0.333333  0.666667  0.500000  1
  Pr  Pr3  1  0.666667  0.333333  0.500000  1
  Pr  Pr4  1  0.744330  0.744330  0.757432  1
  Pr  Pr5  1  0.255670  0.000000  0.757432  1
  Pr  Pr6  1  0.000000  0.255670  0.757432  1
  Pr  Pr7  1  0.255670  0.255670  0.242568  1
  Pr  Pr8  1  0.744330  0.000000  0.242568  1
  Pr  Pr9  1  0.000000  0.744330  0.242568  1
  Ge  Ge10  1  0.000000  0.000000  0.000000  1
  Bi  Bi11  1  0.387312  0.387312  0.749037  1
  Bi  Bi12  1  0.612688  0.000000  0.749037  1
  Bi  Bi13  1  0.000000  0.612688  0.749037  1
  Bi  Bi14  1  0.612688  0.612688  0.250963  1
  Bi  Bi15  1  0.387312  0.000000  0.250963  1
  Bi  Bi16  1  0.000000  0.387312  0.250963  1
  Au  Au17  1  0.000000  0.000000  0.500000  1
