# generated using pymatgen
data_Zn5GePd10
_symmetry_space_group_name_H-M   'P 1'
_cell_length_a   4.12861800
_cell_length_b   5.45455066
_cell_length_c   10.57075137
_cell_angle_alpha   90.17078994
_cell_angle_beta   90.00000000
_cell_angle_gamma   90.00000000
_symmetry_Int_Tables_number   1
_chemical_formula_structural   Zn5GePd10
_chemical_formula_sum   'Zn5 Ge1 Pd10'
_cell_volume   238.04968438
_cell_formula_units_Z   1
loop_
 _symmetry_equiv_pos_site_id
 _symmetry_equiv_pos_as_xyz
  1  'x, y, z'
loop_
 _atom_site_type_symbol
 _atom_site_label
 _atom_site_symmetry_multiplicity
 _atom_site_fract_x
 _atom_site_fract_y
 _atom_site_fract_z
 _atom_site_occupancy
  Zn  Zn0  1  0.000000  0.000000  0.000000  1
  Zn  Zn1  1  0.500000  0.151968  0.356859  1
  Zn  Zn2  1  0.500000  0.848032  0.643141  1
  Zn  Zn3  1  0.500000  0.666543  0.135493  1
  Zn  Zn4  1  0.500000  0.333457  0.864507  1
  Ge  Ge5  1  0.000000  0.500000  0.500000  1
  Pd  Pd6  1  0.500000  0.184564  0.110580  1
  Pd  Pd7  1  0.500000  0.815436  0.889420  1
  Pd  Pd8  1  0.500000  0.676861  0.394222  1
  Pd  Pd9  1  0.500000  0.323139  0.605778  1
  Pd  Pd10  1  0.000000  0.000000  0.500000  1
  Pd  Pd11  1  0.000000  0.500000  0.000000  1
  Pd  Pd12  1  0.000000  0.896636  0.236480  1
  Pd  Pd13  1  0.000000  0.103364  0.763520  1
  Pd  Pd14  1  0.000000  0.399634  0.267679  1
  Pd  Pd15  1  0.000000  0.600366  0.732321  1
