# generated using pymatgen
data_Y7(ZnTe)2
_symmetry_space_group_name_H-M   'P 1'
_cell_length_a   9.40700591
_cell_length_b   9.40711041
_cell_length_c   9.40711050
_cell_angle_alpha   154.97078190
_cell_angle_beta   68.10177565
_cell_angle_gamma   117.83118207
_symmetry_Int_Tables_number   1
_chemical_formula_structural   Y7(ZnTe)2
_chemical_formula_sum   'Y7 Zn2 Te2'
_cell_volume   308.65691428
_cell_formula_units_Z   1
loop_
 _symmetry_equiv_pos_site_id
 _symmetry_equiv_pos_as_xyz
  1  'x, y, z'
loop_
 _atom_site_type_symbol
 _atom_site_label
 _atom_site_symmetry_multiplicity
 _atom_site_fract_x
 _atom_site_fract_y
 _atom_site_fract_z
 _atom_site_occupancy
  Y  Y0  1  0.718817  0.579167  0.139650  1
  Y  Y1  1  0.128726  0.945215  0.183510  1
  Y  Y2  1  0.112125  0.737496  0.374628  1
  Y  Y3  1  0.825706  0.325702  0.500004  1
  Y  Y4  1  0.362851  0.737480  0.625370  1
  Y  Y5  1  0.761700  0.945207  0.816492  1
  Y  Y6  1  0.439503  0.579156  0.860346  1
  Zn  Zn7  1  0.506460  0.242817  0.263643  1
  Zn  Zn8  1  0.979175  0.242820  0.736354  1
  Te  Te9  1  0.084690  0.084690  0.000000  1
  Te  Te10  1  0.485599  0.985599  0.499999  1
