# generated using pymatgen
data_Dy6Y2Cd3SnAu8
_symmetry_space_group_name_H-M   'P 1'
_cell_length_a   8.01554146
_cell_length_b   8.01305746
_cell_length_c   7.38868100
_cell_angle_alpha   90.00000000
_cell_angle_beta   90.00000000
_cell_angle_gamma   90.14547898
_symmetry_Int_Tables_number   1
_chemical_formula_structural   Dy6Y2Cd3SnAu8
_chemical_formula_sum   'Dy6 Y2 Cd3 Sn1 Au8'
_cell_volume   474.56601984
_cell_formula_units_Z   1
loop_
 _symmetry_equiv_pos_site_id
 _symmetry_equiv_pos_as_xyz
  1  'x, y, z'
loop_
 _atom_site_type_symbol
 _atom_site_label
 _atom_site_symmetry_multiplicity
 _atom_site_fract_x
 _atom_site_fract_y
 _atom_site_fract_z
 _atom_site_occupancy
  Dy  Dy0  1  0.332498  0.344428  0.000078  1
  Dy  Dy1  1  0.667502  0.655572  0.000078  1
  Dy  Dy2  1  0.685430  0.674068  0.500073  1
  Dy  Dy3  1  0.314570  0.325932  0.500073  1
  Dy  Dy4  1  0.174060  0.814546  0.999926  1
  Dy  Dy5  1  0.825940  0.185454  0.999926  1
  Y  Y6  1  0.844274  0.167722  0.499943  1
  Y  Y7  1  0.155726  0.832278  0.499943  1
  Cd  Cd8  1  0.500000  0.000000  0.250003  1
  Cd  Cd9  1  0.000000  0.500000  0.749994  1
  Cd  Cd10  1  0.500000  0.000000  0.750018  1
  Sn  Sn11  1  0.000000  0.500000  0.249956  1
  Au  Au12  1  0.621118  0.365186  0.268601  1
  Au  Au13  1  0.378882  0.634814  0.268601  1
  Au  Au14  1  0.132647  0.125306  0.768505  1
  Au  Au15  1  0.867353  0.874694  0.768505  1
  Au  Au16  1  0.375123  0.632280  0.732277  1
  Au  Au17  1  0.624877  0.367720  0.732277  1
  Au  Au18  1  0.864876  0.878458  0.230612  1
  Au  Au19  1  0.135124  0.121542  0.230612  1
