# generated using pymatgen
data_Pr3GaPd3Au2
_symmetry_space_group_name_H-M   'P 1'
_cell_length_a   7.71112554
_cell_length_b   7.50465569
_cell_length_c   3.94437000
_cell_angle_alpha   90.00000000
_cell_angle_beta   90.00000000
_cell_angle_gamma   119.11816457
_symmetry_Int_Tables_number   1
_chemical_formula_structural   Pr3GaPd3Au2
_chemical_formula_sum   'Pr3 Ga1 Pd3 Au2'
_cell_volume   199.41038115
_cell_formula_units_Z   1
loop_
 _symmetry_equiv_pos_site_id
 _symmetry_equiv_pos_as_xyz
  1  'x, y, z'
loop_
 _atom_site_type_symbol
 _atom_site_label
 _atom_site_symmetry_multiplicity
 _atom_site_fract_x
 _atom_site_fract_y
 _atom_site_fract_z
 _atom_site_occupancy
  Pr  Pr0  1  0.402349  0.393420  0.500000  1
  Pr  Pr1  1  0.597651  0.991071  0.500000  1
  Pr  Pr2  1  0.000000  0.613553  0.500000  1
  Ga  Ga3  1  0.000000  0.257353  0.000000  1
  Pd  Pd4  1  0.684761  0.327925  0.000000  1
  Pd  Pd5  1  0.315239  0.643165  0.000000  1
  Pd  Pd6  1  0.000000  0.033945  0.500000  1
  Au  Au7  1  0.734836  0.737201  0.000000  1
  Au  Au8  1  0.265164  0.002366  0.000000  1
