# generated using pymatgen
data_LiY8HoS10
_symmetry_space_group_name_H-M   'P 1'
_cell_length_a   6.75634787
_cell_length_b   7.81177722
_cell_length_c   8.77162800
_cell_angle_alpha   103.15516328
_cell_angle_beta   97.19526524
_cell_angle_gamma   106.82081282
_symmetry_Int_Tables_number   1
_chemical_formula_structural   LiY8HoS10
_chemical_formula_sum   'Li1 Y8 Ho1 S10'
_cell_volume   422.35338456
_cell_formula_units_Z   1
loop_
 _symmetry_equiv_pos_site_id
 _symmetry_equiv_pos_as_xyz
  1  'x, y, z'
loop_
 _atom_site_type_symbol
 _atom_site_label
 _atom_site_symmetry_multiplicity
 _atom_site_fract_x
 _atom_site_fract_y
 _atom_site_fract_z
 _atom_site_occupancy
  Li  Li0  1  0.000000  0.500000  0.000000  1
  Y  Y1  1  0.799731  0.600261  0.599616  1
  Y  Y2  1  0.601247  0.200945  0.203982  1
  Y  Y3  1  0.398753  0.799055  0.796018  1
  Y  Y4  1  0.600238  0.702261  0.203448  1
  Y  Y5  1  0.200269  0.399739  0.400384  1
  Y  Y6  1  0.399762  0.297739  0.796552  1
  Y  Y7  1  0.201073  0.901022  0.403238  1
  Y  Y8  1  0.798927  0.098978  0.596762  1
  Ho  Ho9  1  0.000000  0.000000  0.000000  1
  S  S10  1  0.705998  0.648472  0.903898  1
  S  S11  1  0.500586  0.251093  0.499855  1
  S  S12  1  0.706740  0.156711  0.904034  1
  S  S13  1  0.293260  0.843289  0.095966  1
  S  S14  1  0.499414  0.748907  0.500145  1
  S  S15  1  0.096883  0.451080  0.707109  1
  S  S16  1  0.294002  0.351528  0.096102  1
  S  S17  1  0.902552  0.049845  0.297482  1
  S  S18  1  0.097448  0.950155  0.702518  1
  S  S19  1  0.903117  0.548920  0.292891  1
