# generated using pymatgen
data_SrPr2Nd(ZnSn)4
_symmetry_space_group_name_H-M   'P 1'
_cell_length_a   4.61788000
_cell_length_b   4.61788189
_cell_length_c   16.97643400
_cell_angle_alpha   90.00000000
_cell_angle_beta   90.00000000
_cell_angle_gamma   120.00000077
_symmetry_Int_Tables_number   1
_chemical_formula_structural   SrPr2Nd(ZnSn)4
_chemical_formula_sum   'Sr1 Pr2 Nd1 Zn4 Sn4'
_cell_volume   313.51805924
_cell_formula_units_Z   1
loop_
 _symmetry_equiv_pos_site_id
 _symmetry_equiv_pos_as_xyz
  1  'x, y, z'
loop_
 _atom_site_type_symbol
 _atom_site_label
 _atom_site_symmetry_multiplicity
 _atom_site_fract_x
 _atom_site_fract_y
 _atom_site_fract_z
 _atom_site_occupancy
  Sr  Sr0  1  0.000000  0.000000  0.500655  1
  Pr  Pr1  1  0.000000  0.000000  0.999166  1
  Pr  Pr2  1  0.000000  0.000000  0.246139  1
  Nd  Nd3  1  0.000000  0.000000  0.753712  1
  Zn  Zn4  1  0.333333  0.666667  0.337306  1
  Zn  Zn5  1  0.666667  0.333333  0.665068  1
  Zn  Zn6  1  0.666667  0.333333  0.842659  1
  Zn  Zn7  1  0.333333  0.666667  0.155067  1
  Sn  Sn8  1  0.333333  0.666667  0.886210  1
  Sn  Sn9  1  0.666667  0.333333  0.112730  1
  Sn  Sn10  1  0.666667  0.333333  0.374021  1
  Sn  Sn11  1  0.333333  0.666667  0.627269  1
