# generated using pymatgen
data_Tb2P7Ru11Pt
_symmetry_space_group_name_H-M   'P 1'
_cell_length_a   9.36633283
_cell_length_b   9.47386463
_cell_length_c   3.95403100
_cell_angle_alpha   90.00000000
_cell_angle_beta   90.00000000
_cell_angle_gamma   119.29047091
_symmetry_Int_Tables_number   1
_chemical_formula_structural   Tb2P7Ru11Pt
_chemical_formula_sum   'Tb2 P7 Ru11 Pt1'
_cell_volume   306.00487154
_cell_formula_units_Z   1
loop_
 _symmetry_equiv_pos_site_id
 _symmetry_equiv_pos_as_xyz
  1  'x, y, z'
loop_
 _atom_site_type_symbol
 _atom_site_label
 _atom_site_symmetry_multiplicity
 _atom_site_fract_x
 _atom_site_fract_y
 _atom_site_fract_z
 _atom_site_occupancy
  Tb  Tb0  1  0.670428  0.336546  0.500000  1
  Tb  Tb1  1  0.329191  0.659389  0.000000  1
  P  P2  1  0.598614  0.704066  0.500000  1
  P  P3  1  0.998001  0.000622  0.000000  1
  P  P4  1  0.271940  0.878492  0.500000  1
  P  P5  1  0.116687  0.400890  0.500000  1
  P  P6  1  0.888328  0.580701  0.000000  1
  P  P7  1  0.426135  0.309070  0.000000  1
  P  P8  1  0.705289  0.126474  0.000000  1
  Ru  Ru9  1  0.389181  0.437235  0.500000  1
  Ru  Ru10  1  0.909866  0.128060  0.500000  1
  Ru  Ru11  1  0.211042  0.086489  0.500000  1
  Ru  Ru12  1  0.876057  0.794003  0.500000  1
  Ru  Ru13  1  0.725070  0.893659  0.000000  1
  Ru  Ru14  1  0.111791  0.840079  0.000000  1
  Ru  Ru15  1  0.162417  0.268744  0.000000  1
  Ru  Ru16  1  0.433542  0.068141  0.000000  1
  Ru  Ru17  1  0.939545  0.366459  0.000000  1
  Ru  Ru18  1  0.640395  0.575097  0.000000  1
  Ru  Ru19  1  0.051344  0.609764  0.500000  1
  Pt  Pt20  1  0.545141  0.936016  0.500000  1
