# generated using pymatgen
data_Yb(GeRh2)2
_symmetry_space_group_name_H-M   'P 1'
_cell_length_a   4.17286600
_cell_length_b   9.17125600
_cell_length_c   11.47057800
_cell_angle_alpha   90.00000000
_cell_angle_beta   90.00000000
_cell_angle_gamma   90.00000000
_symmetry_Int_Tables_number   1
_chemical_formula_structural   Yb(GeRh2)2
_chemical_formula_sum   'Yb4 Ge8 Rh16'
_cell_volume   438.98386454
_cell_formula_units_Z   4
loop_
 _symmetry_equiv_pos_site_id
 _symmetry_equiv_pos_as_xyz
  1  'x, y, z'
loop_
 _atom_site_type_symbol
 _atom_site_label
 _atom_site_symmetry_multiplicity
 _atom_site_fract_x
 _atom_site_fract_y
 _atom_site_fract_z
 _atom_site_occupancy
  Yb  Yb0  1  0.250000  0.148287  0.826146  1
  Yb  Yb1  1  0.250000  0.351713  0.326146  1
  Yb  Yb2  1  0.750000  0.851713  0.173854  1
  Yb  Yb3  1  0.750000  0.648287  0.673854  1
  Ge  Ge4  1  0.250000  0.414773  0.637736  1
  Ge  Ge5  1  0.250000  0.085227  0.137736  1
  Ge  Ge6  1  0.750000  0.585227  0.362264  1
  Ge  Ge7  1  0.750000  0.914773  0.862264  1
  Ge  Ge8  1  0.250000  0.619010  0.062602  1
  Ge  Ge9  1  0.250000  0.880990  0.562602  1
  Ge  Ge10  1  0.750000  0.380990  0.937398  1
  Ge  Ge11  1  0.750000  0.119010  0.437398  1
  Rh  Rh12  1  0.250000  0.616021  0.498873  1
  Rh  Rh13  1  0.250000  0.883979  0.998873  1
  Rh  Rh14  1  0.750000  0.383979  0.501127  1
  Rh  Rh15  1  0.750000  0.116021  0.001127  1
  Rh  Rh16  1  0.250000  0.694795  0.271373  1
  Rh  Rh17  1  0.250000  0.805205  0.771373  1
  Rh  Rh18  1  0.750000  0.305205  0.728627  1
  Rh  Rh19  1  0.750000  0.194795  0.228627  1
  Rh  Rh20  1  0.250000  0.169773  0.560931  1
  Rh  Rh21  1  0.250000  0.330227  0.060931  1
  Rh  Rh22  1  0.750000  0.830227  0.439069  1
  Rh  Rh23  1  0.750000  0.669773  0.939069  1
  Rh  Rh24  1  0.250000  0.004672  0.343328  1
  Rh  Rh25  1  0.250000  0.495328  0.843328  1
  Rh  Rh26  1  0.750000  0.995328  0.656672  1
  Rh  Rh27  1  0.750000  0.504672  0.156672  1
