# generated using pymatgen
data_La6Cd2CO
_symmetry_space_group_name_H-M   'P 1'
_cell_length_a   7.27494150
_cell_length_b   7.27494182
_cell_length_c   7.27494200
_cell_angle_alpha   59.99999918
_cell_angle_beta   59.99999770
_cell_angle_gamma   59.99999732
_symmetry_Int_Tables_number   1
_chemical_formula_structural   La6Cd2CO
_chemical_formula_sum   'La6 Cd2 C1 O1'
_cell_volume   272.25354786
_cell_formula_units_Z   1
loop_
 _symmetry_equiv_pos_site_id
 _symmetry_equiv_pos_as_xyz
  1  'x, y, z'
loop_
 _atom_site_type_symbol
 _atom_site_label
 _atom_site_symmetry_multiplicity
 _atom_site_fract_x
 _atom_site_fract_y
 _atom_site_fract_z
 _atom_site_occupancy
  La  La0  1  0.748491  0.251509  0.251509  1
  La  La1  1  0.251509  0.748491  0.251509  1
  La  La2  1  0.748491  0.748491  0.251509  1
  La  La3  1  0.251509  0.251509  0.748491  1
  La  La4  1  0.748491  0.251509  0.748491  1
  La  La5  1  0.251509  0.748491  0.748491  1
  Cd  Cd6  1  0.250000  0.250000  0.250000  1
  Cd  Cd7  1  0.750000  0.750000  0.750000  1
  C  C8  1  0.500000  0.500000  0.500000  1
  O  O9  1  0.000000  0.000000  0.000000  1
