# generated using pymatgen
data_K2CdInF7
_symmetry_space_group_name_H-M   'P 1'
_cell_length_a   8.20069562
_cell_length_b   8.20069546
_cell_length_c   8.20069500
_cell_angle_alpha   120.82126765
_cell_angle_beta   117.24410906
_cell_angle_gamma   91.71087019
_symmetry_Int_Tables_number   1
_chemical_formula_structural   K2CdInF7
_chemical_formula_sum   'K4 Cd2 In2 F14'
_cell_volume   395.02159979
_cell_formula_units_Z   2
loop_
 _symmetry_equiv_pos_site_id
 _symmetry_equiv_pos_as_xyz
  1  'x, y, z'
loop_
 _atom_site_type_symbol
 _atom_site_label
 _atom_site_symmetry_multiplicity
 _atom_site_fract_x
 _atom_site_fract_y
 _atom_site_fract_z
 _atom_site_occupancy
  K  K0  1  0.500000  0.500000  0.000000  1
  K  K1  1  0.000000  0.000000  0.000000  1
  K  K2  1  0.000000  0.500000  0.000000  1
  K  K3  1  0.000000  0.000000  0.500000  1
  Cd  Cd4  1  0.500000  0.500000  0.500000  1
  Cd  Cd5  1  0.500000  0.000000  0.000000  1
  In  In6  1  0.000000  0.500000  0.500000  1
  In  In7  1  0.500000  0.000000  0.500000  1
  F  F8  1  0.871875  0.588974  0.282902  1
  F  F9  1  0.193927  0.911026  0.282902  1
  F  F10  1  0.177368  0.809079  0.758336  1
  F  F11  1  0.449257  0.690921  0.368289  1
  F  F12  1  0.449257  0.080968  0.758336  1
  F  F13  1  0.177368  0.419032  0.368289  1
  F  F14  1  0.822632  0.580968  0.631711  1
  F  F15  1  0.550743  0.919032  0.241664  1
  F  F16  1  0.550743  0.309079  0.631711  1
  F  F17  1  0.822632  0.190921  0.241664  1
  F  F18  1  0.388469  0.250000  0.138469  1
  F  F19  1  0.128125  0.411026  0.717098  1
  F  F20  1  0.806073  0.088974  0.717098  1
  F  F21  1  0.611531  0.750000  0.861531  1
