# generated using pymatgen
data_YbDy3(Ir2O7)2
_symmetry_space_group_name_H-M   'P 1'
_cell_length_a   7.22723068
_cell_length_b   7.22723027
_cell_length_c   7.24932714
_cell_angle_alpha   60.10078442
_cell_angle_beta   60.10078157
_cell_angle_gamma   59.99999266
_symmetry_Int_Tables_number   1
_chemical_formula_structural   YbDy3(Ir2O7)2
_chemical_formula_sum   'Yb1 Dy3 Ir4 O14'
_cell_volume   268.15529947
_cell_formula_units_Z   1
loop_
 _symmetry_equiv_pos_site_id
 _symmetry_equiv_pos_as_xyz
  1  'x, y, z'
loop_
 _atom_site_type_symbol
 _atom_site_label
 _atom_site_symmetry_multiplicity
 _atom_site_fract_x
 _atom_site_fract_y
 _atom_site_fract_z
 _atom_site_occupancy
  Yb  Yb0  1  0.125000  0.125000  0.625000  1
  Dy  Dy1  1  0.625000  0.125000  0.125000  1
  Dy  Dy2  1  0.125000  0.625000  0.125000  1
  Dy  Dy3  1  0.125000  0.125000  0.125000  1
  Ir  Ir4  1  0.125000  0.625000  0.625000  1
  Ir  Ir5  1  0.625000  0.125000  0.625000  1
  Ir  Ir6  1  0.625000  0.625000  0.125000  1
  Ir  Ir7  1  0.625000  0.625000  0.625000  1
  O  O8  1  0.710205  0.710205  0.289443  1
  O  O9  1  0.291698  0.291698  0.714910  1
  O  O10  1  0.701692  0.291698  0.714910  1
  O  O11  1  0.290147  0.710205  0.289443  1
  O  O12  1  0.291698  0.701692  0.714910  1
  O  O13  1  0.710205  0.290147  0.289443  1
  O  O14  1  0.539795  0.539795  0.960557  1
  O  O15  1  0.958302  0.958302  0.535090  1
  O  O16  1  0.548308  0.958302  0.535090  1
  O  O17  1  0.959853  0.539795  0.960557  1
  O  O18  1  0.958302  0.548308  0.535090  1
  O  O19  1  0.539795  0.959853  0.960557  1
  O  O20  1  0.251822  0.251822  0.244534  1
  O  O21  1  0.998178  0.998178  0.005466  1
