# generated using pymatgen
data_Dy19HoSi15Pt
_symmetry_space_group_name_H-M   'P 1'
_cell_length_a   7.45471493
_cell_length_b   7.69345497
_cell_length_c   14.62078011
_cell_angle_alpha   89.80385872
_cell_angle_beta   89.66825503
_cell_angle_gamma   90.19721277
_symmetry_Int_Tables_number   1
_chemical_formula_structural   Dy19HoSi15Pt
_chemical_formula_sum   'Dy19 Ho1 Si15 Pt1'
_cell_volume   838.51449651
_cell_formula_units_Z   1
loop_
 _symmetry_equiv_pos_site_id
 _symmetry_equiv_pos_as_xyz
  1  'x, y, z'
loop_
 _atom_site_type_symbol
 _atom_site_label
 _atom_site_symmetry_multiplicity
 _atom_site_fract_x
 _atom_site_fract_y
 _atom_site_fract_z
 _atom_site_occupancy
  Dy  Dy0  1  0.148564  0.511145  0.248110  1
  Dy  Dy1  1  0.847315  0.488276  0.755833  1
  Dy  Dy2  1  0.351818  0.011026  0.751276  1
  Dy  Dy3  1  0.973490  0.817219  0.098579  1
  Dy  Dy4  1  0.471331  0.683057  0.401339  1
  Dy  Dy5  1  0.528530  0.321624  0.900691  1
  Dy  Dy6  1  0.029500  0.183863  0.599210  1
  Dy  Dy7  1  0.029044  0.183067  0.900971  1
  Dy  Dy8  1  0.529786  0.317291  0.598660  1
  Dy  Dy9  1  0.473721  0.682269  0.099994  1
  Dy  Dy10  1  0.969445  0.816676  0.400408  1
  Dy  Dy11  1  0.681174  0.816311  0.880611  1
  Dy  Dy12  1  0.179847  0.681246  0.621779  1
  Dy  Dy13  1  0.818412  0.330079  0.120134  1
  Dy  Dy14  1  0.316831  0.178225  0.376502  1
  Dy  Dy15  1  0.320760  0.178631  0.123473  1
  Dy  Dy16  1  0.819019  0.319763  0.377345  1
  Dy  Dy17  1  0.178287  0.675443  0.877911  1
  Dy  Dy18  1  0.682382  0.819891  0.622542  1
  Ho  Ho19  1  0.648180  0.991914  0.249423  1
  Si  Si20  1  0.764766  0.629552  0.252160  1
  Si  Si21  1  0.266078  0.872876  0.250914  1
  Si  Si22  1  0.733634  0.124195  0.748769  1
  Si  Si23  1  0.233938  0.373662  0.746559  1
  Si  Si24  1  0.019955  0.104795  0.249229  1
  Si  Si25  1  0.523234  0.396458  0.251604  1
  Si  Si26  1  0.472858  0.605621  0.746768  1
  Si  Si27  1  0.977323  0.896262  0.748358  1
  Si  Si28  1  0.354518  0.971960  0.539873  1
  Si  Si29  1  0.646683  0.026891  0.042445  1
  Si  Si30  1  0.147212  0.470293  0.460130  1
  Si  Si31  1  0.156385  0.472125  0.041668  1
  Si  Si32  1  0.644577  0.028613  0.459422  1
  Si  Si33  1  0.353327  0.969298  0.961350  1
  Si  Si34  1  0.854805  0.528924  0.539189  1
  Pt  Pt35  1  0.853268  0.521459  0.956774  1
