# generated using pymatgen
data_Y6CoNi16P12Ru
_symmetry_space_group_name_H-M   'P 1'
_cell_length_a   3.78436800
_cell_length_b   10.55160000
_cell_length_c   12.37240200
_cell_angle_alpha   90.00000000
_cell_angle_beta   90.00000000
_cell_angle_gamma   90.00000000
_symmetry_Int_Tables_number   1
_chemical_formula_structural   Y6CoNi16P12Ru
_chemical_formula_sum   'Y6 Co1 Ni16 P12 Ru1'
_cell_volume   494.04408409
_cell_formula_units_Z   1
loop_
 _symmetry_equiv_pos_site_id
 _symmetry_equiv_pos_as_xyz
  1  'x, y, z'
loop_
 _atom_site_type_symbol
 _atom_site_label
 _atom_site_symmetry_multiplicity
 _atom_site_fract_x
 _atom_site_fract_y
 _atom_site_fract_z
 _atom_site_occupancy
  Y  Y0  1  0.000000  0.500000  0.523873  1
  Y  Y1  1  0.500000  0.000000  0.478956  1
  Y  Y2  1  0.500000  0.816360  0.205604  1
  Y  Y3  1  0.500000  0.183640  0.205604  1
  Y  Y4  1  0.000000  0.684546  0.793114  1
  Y  Y5  1  0.000000  0.315454  0.793114  1
  Co  Co6  1  0.000000  0.500000  0.985279  1
  Ni  Ni7  1  0.000000  0.000000  0.841126  1
  Ni  Ni8  1  0.500000  0.500000  0.703264  1
  Ni  Ni9  1  0.000000  0.000000  0.299368  1
  Ni  Ni10  1  0.500000  0.000000  0.015019  1
  Ni  Ni11  1  0.500000  0.330561  0.991008  1
  Ni  Ni12  1  0.500000  0.669439  0.991008  1
  Ni  Ni13  1  0.000000  0.167005  0.005369  1
  Ni  Ni14  1  0.000000  0.832995  0.005369  1
  Ni  Ni15  1  0.500000  0.301976  0.429287  1
  Ni  Ni16  1  0.500000  0.698024  0.429287  1
  Ni  Ni17  1  0.000000  0.198660  0.571192  1
  Ni  Ni18  1  0.000000  0.801340  0.571192  1
  Ni  Ni19  1  0.500000  0.879845  0.710393  1
  Ni  Ni20  1  0.500000  0.120155  0.710393  1
  Ni  Ni21  1  0.000000  0.620492  0.290079  1
  Ni  Ni22  1  0.000000  0.379508  0.290079  1
  P  P23  1  0.500000  0.500000  0.881214  1
  P  P24  1  0.000000  0.000000  0.122994  1
  P  P25  1  0.500000  0.500000  0.347174  1
  P  P26  1  0.000000  0.000000  0.655372  1
  P  P27  1  0.500000  0.312984  0.614956  1
  P  P28  1  0.500000  0.687016  0.614956  1
  P  P29  1  0.000000  0.186156  0.385769  1
  P  P30  1  0.000000  0.813844  0.385769  1
  P  P31  1  0.500000  0.849618  0.892029  1
  P  P32  1  0.500000  0.150382  0.892029  1
  P  P33  1  0.000000  0.651029  0.106753  1
  P  P34  1  0.000000  0.348971  0.106753  1
  Ru  Ru35  1  0.500000  0.500000  0.155257  1
