# generated using pymatgen
data_DyEr9(CoBi2)2
_symmetry_space_group_name_H-M   'P 1'
_cell_length_a   7.94409041
_cell_length_b   8.86128600
_cell_length_c   12.37611711
_cell_angle_alpha   90.00000000
_cell_angle_beta   90.12179349
_cell_angle_gamma   90.00000000
_symmetry_Int_Tables_number   1
_chemical_formula_structural   DyEr9(CoBi2)2
_chemical_formula_sum   'Dy2 Er18 Co4 Bi8'
_cell_volume   871.21302757
_cell_formula_units_Z   2
loop_
 _symmetry_equiv_pos_site_id
 _symmetry_equiv_pos_as_xyz
  1  'x, y, z'
loop_
 _atom_site_type_symbol
 _atom_site_label
 _atom_site_symmetry_multiplicity
 _atom_site_fract_x
 _atom_site_fract_y
 _atom_site_fract_z
 _atom_site_occupancy
  Dy  Dy0  1  0.654949  0.750000  0.700019  1
  Dy  Dy1  1  0.345051  0.250000  0.299981  1
  Er  Er2  1  0.153889  0.250000  0.801460  1
  Er  Er3  1  0.846111  0.750000  0.198540  1
  Er  Er4  1  0.119815  0.750000  0.814143  1
  Er  Er5  1  0.880185  0.250000  0.185857  1
  Er  Er6  1  0.619249  0.250000  0.685915  1
  Er  Er7  1  0.380751  0.750000  0.314085  1
  Er  Er8  1  0.553128  0.750000  0.997209  1
  Er  Er9  1  0.446872  0.250000  0.002791  1
  Er  Er10  1  0.052683  0.250000  0.502645  1
  Er  Er11  1  0.947317  0.750000  0.497355  1
  Er  Er12  1  0.826470  0.463316  0.935888  1
  Er  Er13  1  0.173530  0.536684  0.064112  1
  Er  Er14  1  0.326264  0.536285  0.563927  1
  Er  Er15  1  0.173530  0.963316  0.064112  1
  Er  Er16  1  0.673736  0.463715  0.436073  1
  Er  Er17  1  0.826470  0.036684  0.935888  1
  Er  Er18  1  0.673736  0.036285  0.436073  1
  Er  Er19  1  0.326264  0.963715  0.563927  1
  Co  Co20  1  0.936545  0.750000  0.992631  1
  Co  Co21  1  0.063455  0.250000  0.007369  1
  Co  Co22  1  0.436766  0.250000  0.507073  1
  Co  Co23  1  0.563234  0.750000  0.492927  1
  Bi  Bi24  1  0.933364  0.008224  0.673349  1
  Bi  Bi25  1  0.066636  0.991776  0.326651  1
  Bi  Bi26  1  0.431766  0.992856  0.826850  1
  Bi  Bi27  1  0.066636  0.508224  0.326651  1
  Bi  Bi28  1  0.568234  0.007144  0.173150  1
  Bi  Bi29  1  0.933364  0.491776  0.673349  1
  Bi  Bi30  1  0.568234  0.492856  0.173150  1
  Bi  Bi31  1  0.431766  0.507144  0.826850  1
