# generated using pymatgen
data_Yb7Tm13(SnSb)8
_symmetry_space_group_name_H-M   'P 1'
_cell_length_a   8.10819739
_cell_length_b   8.13812527
_cell_length_c   15.39996601
_cell_angle_alpha   89.85637790
_cell_angle_beta   90.09202348
_cell_angle_gamma   89.49447198
_symmetry_Int_Tables_number   1
_chemical_formula_structural   Yb7Tm13(SnSb)8
_chemical_formula_sum   'Yb7 Tm13 Sn8 Sb8'
_cell_volume   1016.13076636
_cell_formula_units_Z   1
loop_
 _symmetry_equiv_pos_site_id
 _symmetry_equiv_pos_as_xyz
  1  'x, y, z'
loop_
 _atom_site_type_symbol
 _atom_site_label
 _atom_site_symmetry_multiplicity
 _atom_site_fract_x
 _atom_site_fract_y
 _atom_site_fract_z
 _atom_site_occupancy
  Yb  Yb0  1  0.969709  0.823869  0.899464  1
  Yb  Yb1  1  0.529778  0.320994  0.097511  1
  Yb  Yb2  1  0.030853  0.174041  0.401760  1
  Yb  Yb3  1  0.530490  0.320272  0.401896  1
  Yb  Yb4  1  0.029914  0.179415  0.097536  1
  Yb  Yb5  1  0.467868  0.678042  0.900251  1
  Yb  Yb6  1  0.967831  0.823175  0.600215  1
  Tm  Tm7  1  0.627329  0.154885  0.621649  1
  Tm  Tm8  1  0.126212  0.346061  0.877357  1
  Tm  Tm9  1  0.374145  0.846355  0.120838  1
  Tm  Tm10  1  0.876400  0.654232  0.379572  1
  Tm  Tm11  1  0.374611  0.844252  0.378870  1
  Tm  Tm12  1  0.874311  0.654015  0.120819  1
  Tm  Tm13  1  0.627825  0.154145  0.876640  1
  Tm  Tm14  1  0.124511  0.344360  0.621937  1
  Tm  Tm15  1  0.465870  0.678269  0.603449  1
  Tm  Tm16  1  0.793355  0.498579  0.750416  1
  Tm  Tm17  1  0.292596  0.001793  0.749532  1
  Tm  Tm18  1  0.209209  0.500772  0.250097  1
  Tm  Tm19  1  0.707183  0.998184  0.249618  1
  Sn  Sn20  1  0.429764  0.374848  0.747535  1
  Sn  Sn21  1  0.931226  0.128719  0.749627  1
  Sn  Sn22  1  0.572682  0.627393  0.250243  1
  Sn  Sn23  1  0.070652  0.870995  0.250271  1
  Sn  Sn24  1  0.654976  0.851522  0.748329  1
  Sn  Sn25  1  0.162999  0.646089  0.748489  1
  Sn  Sn26  1  0.338384  0.144434  0.249977  1
  Sn  Sn27  1  0.839607  0.355662  0.250980  1
  Sb  Sb28  1  0.712118  0.956017  0.456515  1
  Sb  Sb29  1  0.214070  0.542301  0.044719  1
  Sb  Sb30  1  0.287503  0.042209  0.953941  1
  Sb  Sb31  1  0.778172  0.466747  0.546338  1
  Sb  Sb32  1  0.288263  0.035917  0.545898  1
  Sb  Sb33  1  0.785719  0.459686  0.954295  1
  Sb  Sb34  1  0.714525  0.959824  0.044710  1
  Sb  Sb35  1  0.219338  0.541928  0.458706  1
