# generated using pymatgen
data_La4TbTm5Si8
_symmetry_space_group_name_H-M   'P 1'
_cell_length_a   7.78540272
_cell_length_b   7.78488384
_cell_length_c   14.42811109
_cell_angle_alpha   90.05390309
_cell_angle_beta   89.84649143
_cell_angle_gamma   90.00214719
_symmetry_Int_Tables_number   1
_chemical_formula_structural   La4TbTm5Si8
_chemical_formula_sum   'La8 Tb2 Tm10 Si16'
_cell_volume   874.46200746
_cell_formula_units_Z   2
loop_
 _symmetry_equiv_pos_site_id
 _symmetry_equiv_pos_as_xyz
  1  'x, y, z'
loop_
 _atom_site_type_symbol
 _atom_site_label
 _atom_site_symmetry_multiplicity
 _atom_site_fract_x
 _atom_site_fract_y
 _atom_site_fract_z
 _atom_site_occupancy
  La  La0  1  0.990641  0.639965  0.043074  1
  La  La1  1  0.010326  0.359235  0.541112  1
  La  La2  1  0.639341  0.988682  0.956942  1
  La  La3  1  0.140524  0.509849  0.791190  1
  La  La4  1  0.859822  0.490070  0.292985  1
  La  La5  1  0.511360  0.140567  0.208558  1
  La  La6  1  0.488410  0.859509  0.707560  1
  La  La7  1  0.358406  0.011620  0.459110  1
  Tb  Tb8  1  0.509944  0.637413  0.126111  1
  Tb  Tb9  1  0.138020  0.990412  0.874150  1
  Tm  Tm10  1  0.362119  0.492559  0.374926  1
  Tm  Tm11  1  0.862952  0.008444  0.376585  1
  Tm  Tm12  1  0.991406  0.138408  0.125325  1
  Tm  Tm13  1  0.007483  0.861989  0.623946  1
  Tm  Tm14  1  0.638552  0.508558  0.874395  1
  Tm  Tm15  1  0.492094  0.362365  0.624597  1
  Tm  Tm16  1  0.682359  0.683678  0.500377  1
  Tm  Tm17  1  0.815545  0.183453  0.749296  1
  Tm  Tm18  1  0.183571  0.817752  0.250767  1
  Tm  Tm19  1  0.316486  0.315597  0.999677  1
  Si  Si20  1  0.066050  0.713301  0.437332  1
  Si  Si21  1  0.933594  0.287512  0.937305  1
  Si  Si22  1  0.712093  0.065545  0.562836  1
  Si  Si23  1  0.212338  0.432771  0.187975  1
  Si  Si24  1  0.786630  0.565312  0.686717  1
  Si  Si25  1  0.435922  0.214114  0.811591  1
  Si  Si26  1  0.566307  0.789462  0.314725  1
  Si  Si27  1  0.287397  0.935319  0.063511  1
  Si  Si28  1  0.843688  0.797228  0.805875  1
  Si  Si29  1  0.153608  0.202780  0.308997  1
  Si  Si30  1  0.801003  0.847474  0.194421  1
  Si  Si31  1  0.297486  0.653450  0.558208  1
  Si  Si32  1  0.703046  0.343674  0.056621  1
  Si  Si33  1  0.653112  0.298255  0.441690  1
  Si  Si34  1  0.346132  0.699281  0.942134  1
  Si  Si35  1  0.202235  0.154396  0.689381  1
