# generated using pymatgen
data_Rb2Na6Mn5Fe9(PO4)12
_symmetry_space_group_name_H-M   'P 1'
_cell_length_a   8.54277391
_cell_length_b   8.54277395
_cell_length_c   15.96481000
_cell_angle_alpha   72.24978022
_cell_angle_beta   72.24978015
_cell_angle_gamma   79.60330506
_symmetry_Int_Tables_number   1
_chemical_formula_structural   Rb2Na6Mn5Fe9(PO4)12
_chemical_formula_sum   'Rb2 Na6 Mn5 Fe9 P12 O48'
_cell_volume   1051.87578298
_cell_formula_units_Z   1
loop_
 _symmetry_equiv_pos_site_id
 _symmetry_equiv_pos_as_xyz
  1  'x, y, z'
loop_
 _atom_site_type_symbol
 _atom_site_label
 _atom_site_symmetry_multiplicity
 _atom_site_fract_x
 _atom_site_fract_y
 _atom_site_fract_z
 _atom_site_occupancy
  Rb  Rb0  1  0.253656  0.744266  0.750432  1
  Rb  Rb1  1  0.746344  0.255734  0.249568  1
  Na  Na2  1  0.717746  0.240539  0.521408  1
  Na  Na3  1  0.282254  0.759461  0.478592  1
  Na  Na4  1  0.761507  0.282095  0.978391  1
  Na  Na5  1  0.238493  0.717905  0.021609  1
  Na  Na6  1  0.500000  0.000000  0.000000  1
  Na  Na7  1  0.000000  0.500000  0.500000  1
  Mn  Mn8  1  0.689640  0.691779  0.858426  1
  Mn  Mn9  1  0.310360  0.308221  0.141574  1
  Mn  Mn10  1  0.306849  0.310362  0.641601  1
  Mn  Mn11  1  0.693151  0.689638  0.358399  1
  Mn  Mn12  1  0.500000  0.000000  0.500000  1
  Fe  Fe13  1  0.620071  0.379386  0.750439  1
  Fe  Fe14  1  0.379929  0.620614  0.249561  1
  Fe  Fe15  1  0.916431  0.082469  0.750734  1
  Fe  Fe16  1  0.083569  0.917531  0.249266  1
  Fe  Fe17  1  0.000000  0.500000  0.000000  1
  Fe  Fe18  1  0.774876  0.855933  0.126685  1
  Fe  Fe19  1  0.225124  0.144067  0.873315  1
  Fe  Fe20  1  0.145052  0.224595  0.374137  1
  Fe  Fe21  1  0.854948  0.775405  0.625863  1
  P  P22  1  0.561013  0.020396  0.727220  1
  P  P23  1  0.438987  0.979604  0.272780  1
  P  P24  1  0.978791  0.439207  0.772891  1
  P  P25  1  0.021209  0.560793  0.227109  1
  P  P26  1  0.906142  0.907972  0.929547  1
  P  P27  1  0.093858  0.092028  0.070453  1
  P  P28  1  0.089315  0.094045  0.571091  1
  P  P29  1  0.910685  0.905955  0.428909  1
  P  P30  1  0.588838  0.584859  0.580313  1
  P  P31  1  0.411162  0.415141  0.419687  1
  P  P32  1  0.411949  0.410721  0.920088  1
  P  P33  1  0.588051  0.589279  0.079912  1
  O  O34  1  0.489631  0.089694  0.642119  1
  O  O35  1  0.510369  0.910306  0.357881  1
  O  O36  1  0.908606  0.509854  0.858088  1
  O  O37  1  0.091394  0.490146  0.141912  1
  O  O38  1  0.313612  0.465794  0.508096  1
  O  O39  1  0.686388  0.534206  0.491904  1
  O  O40  1  0.534569  0.685521  0.992247  1
  O  O41  1  0.465431  0.314479  0.007753  1
  O  O42  1  0.951830  0.989550  0.138044  1
  O  O43  1  0.048170  0.010450  0.861956  1
  O  O44  1  0.014347  0.047017  0.361779  1
  O  O45  1  0.985653  0.952983  0.638221  1
  O  O46  1  0.480512  0.446965  0.650135  1
  O  O47  1  0.519488  0.553035  0.349865  1
  O  O48  1  0.545889  0.523309  0.849867  1
  O  O49  1  0.454111  0.476691  0.150133  1
  O  O50  1  0.476223  0.746795  0.561022  1
  O  O51  1  0.523777  0.253205  0.438978  1
  O  O52  1  0.246886  0.519537  0.940985  1
  O  O53  1  0.753114  0.480463  0.059015  1
  O  O54  1  0.662311  0.848776  0.725342  1
  O  O55  1  0.337689  0.151224  0.274658  1
  O  O56  1  0.150458  0.337809  0.775080  1
  O  O57  1  0.849542  0.662191  0.224920  1
  O  O58  1  0.681030  0.143892  0.722489  1
  O  O59  1  0.318970  0.856108  0.277511  1
  O  O60  1  0.855434  0.318921  0.777618  1
  O  O61  1  0.144566  0.681079  0.222382  1
  O  O62  1  0.775569  0.006291  0.991119  1
  O  O63  1  0.224431  0.993709  0.008881  1
  O  O64  1  0.993142  0.225976  0.508983  1
  O  O65  1  0.006858  0.774024  0.491017  1
  O  O66  1  0.421392  0.990450  0.816280  1
  O  O67  1  0.578608  0.009550  0.183720  1
  O  O68  1  0.009309  0.578864  0.683947  1
  O  O69  1  0.990691  0.421136  0.316053  1
  O  O70  1  0.245552  0.030144  0.506456  1
  O  O71  1  0.754448  0.969856  0.493544  1
  O  O72  1  0.968952  0.751469  0.994585  1
  O  O73  1  0.031048  0.248531  0.005415  1
  O  O74  1  0.826580  0.872737  0.861647  1
  O  O75  1  0.173420  0.127263  0.138353  1
  O  O76  1  0.125961  0.172607  0.639001  1
  O  O77  1  0.874039  0.827393  0.360999  1
  O  O78  1  0.411123  0.285267  0.867072  1
  O  O79  1  0.588877  0.714733  0.132928  1
  O  O80  1  0.714515  0.588099  0.632826  1
  O  O81  1  0.285485  0.411901  0.367174  1
