# generated using pymatgen
data_Er4TlPt
_symmetry_space_group_name_H-M   'P 1'
_cell_length_a   9.66791495
_cell_length_b   9.66222879
_cell_length_c   9.66788000
_cell_angle_alpha   59.91994686
_cell_angle_beta   59.95013802
_cell_angle_gamma   59.92040666
_symmetry_Int_Tables_number   1
_chemical_formula_structural   Er4TlPt
_chemical_formula_sum   'Er16 Tl4 Pt4'
_cell_volume   637.58460286
_cell_formula_units_Z   4
loop_
 _symmetry_equiv_pos_site_id
 _symmetry_equiv_pos_as_xyz
  1  'x, y, z'
loop_
 _atom_site_type_symbol
 _atom_site_label
 _atom_site_symmetry_multiplicity
 _atom_site_fract_x
 _atom_site_fract_y
 _atom_site_fract_z
 _atom_site_occupancy
  Er  Er0  1  0.059903  0.059774  0.438684  1
  Er  Er1  1  0.648724  0.055349  0.648649  1
  Er  Er2  1  0.189473  0.807888  0.189403  1
  Er  Er3  1  0.436518  0.063559  0.436645  1
  Er  Er4  1  0.189557  0.189484  0.807709  1
  Er  Er5  1  0.651498  0.651037  0.651150  1
  Er  Er6  1  0.055380  0.648657  0.648760  1
  Er  Er7  1  0.438517  0.059890  0.059954  1
  Er  Er8  1  0.648697  0.648698  0.055584  1
  Er  Er9  1  0.187820  0.811391  0.811355  1
  Er  Er10  1  0.811228  0.188061  0.811277  1
  Er  Er11  1  0.807574  0.189568  0.189594  1
  Er  Er12  1  0.811299  0.811493  0.187721  1
  Er  Er13  1  0.063682  0.436822  0.436399  1
  Er  Er14  1  0.436410  0.436838  0.063637  1
  Er  Er15  1  0.059740  0.438699  0.059842  1
  Tl  Tl16  1  0.758121  0.414871  0.414939  1
  Tl  Tl17  1  0.415035  0.414821  0.758074  1
  Tl  Tl18  1  0.414843  0.757820  0.415010  1
  Tl  Tl19  1  0.412535  0.412224  0.412406  1
  Pt  Pt20  1  0.428318  0.859049  0.859184  1
  Pt  Pt21  1  0.859404  0.859215  0.428150  1
  Pt  Pt22  1  0.859308  0.428268  0.859566  1
  Pt  Pt23  1  0.856418  0.856525  0.856310  1
