# generated using pymatgen
data_ErBi3Ir3RhO14
_symmetry_space_group_name_H-M   'P 1'
_cell_length_a   7.31441849
_cell_length_b   7.34014372
_cell_length_c   7.34014300
_cell_angle_alpha   59.99999873
_cell_angle_beta   59.88358706
_cell_angle_gamma   59.88359054
_symmetry_Int_Tables_number   1
_chemical_formula_structural   ErBi3Ir3RhO14
_chemical_formula_sum   'Er1 Bi3 Ir3 Rh1 O14'
_cell_volume   278.16819789
_cell_formula_units_Z   1
loop_
 _symmetry_equiv_pos_site_id
 _symmetry_equiv_pos_as_xyz
  1  'x, y, z'
loop_
 _atom_site_type_symbol
 _atom_site_label
 _atom_site_symmetry_multiplicity
 _atom_site_fract_x
 _atom_site_fract_y
 _atom_site_fract_z
 _atom_site_occupancy
  Er  Er0  1  0.625000  0.125000  0.125000  1
  Bi  Bi1  1  0.125000  0.125000  0.125000  1
  Bi  Bi2  1  0.125000  0.625000  0.125000  1
  Bi  Bi3  1  0.125000  0.125000  0.625000  1
  Ir  Ir4  1  0.625000  0.625000  0.625000  1
  Ir  Ir5  1  0.625000  0.625000  0.125000  1
  Ir  Ir6  1  0.625000  0.125000  0.625000  1
  Rh  Rh7  1  0.125000  0.625000  0.625000  1
  O  O8  1  0.261823  0.246059  0.246059  1
  O  O9  1  0.295282  0.707898  0.288922  1
  O  O10  1  0.954718  0.961078  0.542102  1
  O  O11  1  0.549733  0.959560  0.531146  1
  O  O12  1  0.700267  0.718854  0.290440  1
  O  O13  1  0.954718  0.542102  0.542102  1
  O  O14  1  0.700267  0.290440  0.718854  1
  O  O15  1  0.295282  0.288922  0.707898  1
  O  O16  1  0.700267  0.290440  0.290440  1
  O  O17  1  0.295282  0.707898  0.707898  1
  O  O18  1  0.954718  0.542102  0.961078  1
  O  O19  1  0.549733  0.531146  0.959560  1
  O  O20  1  0.988177  0.003941  0.003941  1
  O  O21  1  0.549733  0.959560  0.959560  1
