# generated using pymatgen
data_Tb3Er2RuRh
_symmetry_space_group_name_H-M   'P 1'
_cell_length_a   6.37562700
_cell_length_b   7.25169371
_cell_length_c   8.51979216
_cell_angle_alpha   96.73913725
_cell_angle_beta   111.97274071
_cell_angle_gamma   89.99999768
_symmetry_Int_Tables_number   1
_chemical_formula_structural   Tb3Er2RuRh
_chemical_formula_sum   'Tb6 Er4 Ru2 Rh2'
_cell_volume   362.35596381
_cell_formula_units_Z   2
loop_
 _symmetry_equiv_pos_site_id
 _symmetry_equiv_pos_as_xyz
  1  'x, y, z'
loop_
 _atom_site_type_symbol
 _atom_site_label
 _atom_site_symmetry_multiplicity
 _atom_site_fract_x
 _atom_site_fract_y
 _atom_site_fract_z
 _atom_site_occupancy
  Tb  Tb0  1  0.792180  0.581481  0.811743  1
  Tb  Tb1  1  0.980437  0.918519  0.188257  1
  Tb  Tb2  1  0.210356  0.414163  0.185779  1
  Tb  Tb3  1  0.024578  0.085837  0.814221  1
  Tb  Tb4  1  0.207373  0.683903  0.565722  1
  Tb  Tb5  1  0.641651  0.816097  0.434278  1
  Er  Er6  1  0.792464  0.312197  0.436041  1
  Er  Er7  1  0.356423  0.187803  0.563959  1
  Er  Er8  1  0.420720  0.750000  0.000000  1
  Er  Er9  1  0.577225  0.250000  0.000000  1
  Ru  Ru10  1  0.399103  0.075204  0.220800  1
  Ru  Ru11  1  0.178304  0.424796  0.779200  1
  Rh  Rh12  1  0.599452  0.925317  0.779716  1
  Rh  Rh13  1  0.819735  0.574683  0.220284  1
