# generated using pymatgen
data_Na2Li4Mg(CrN3)2
_symmetry_space_group_name_H-M   'P 1'
_cell_length_a   5.71835628
_cell_length_b   5.71835717
_cell_length_c   5.75373974
_cell_angle_alpha   87.86259882
_cell_angle_beta   87.86260422
_cell_angle_gamma   119.72551083
_symmetry_Int_Tables_number   1
_chemical_formula_structural   Na2Li4Mg(CrN3)2
_chemical_formula_sum   'Na2 Li4 Mg1 Cr2 N6'
_cell_volume   162.93574473
_cell_formula_units_Z   1
loop_
 _symmetry_equiv_pos_site_id
 _symmetry_equiv_pos_as_xyz
  1  'x, y, z'
loop_
 _atom_site_type_symbol
 _atom_site_label
 _atom_site_symmetry_multiplicity
 _atom_site_fract_x
 _atom_site_fract_y
 _atom_site_fract_z
 _atom_site_occupancy
  Na  Na0  1  0.328303  0.671697  0.000000  1
  Na  Na1  1  0.671697  0.328303  0.000000  1
  Li  Li2  1  0.992050  0.335892  0.360604  1
  Li  Li3  1  0.335892  0.992050  0.360604  1
  Li  Li4  1  0.007950  0.664108  0.639396  1
  Li  Li5  1  0.664108  0.007950  0.639396  1
  Mg  Mg6  1  0.000000  0.000000  0.000000  1
  Cr  Cr7  1  0.323701  0.323701  0.633462  1
  Cr  Cr8  1  0.676299  0.676299  0.366538  1
  N  N9  1  0.644841  0.644841  0.691247  1
  N  N10  1  0.355159  0.355159  0.308753  1
  N  N11  1  0.031777  0.319289  0.737289  1
  N  N12  1  0.319289  0.031777  0.737289  1
  N  N13  1  0.968223  0.680711  0.262711  1
  N  N14  1  0.680711  0.968223  0.262711  1
