# generated using pymatgen
data_YHo3Tm4(WO6)4
_symmetry_space_group_name_H-M   'P 1'
_cell_length_a   5.36959100
_cell_length_b   7.66181145
_cell_length_c   11.38557161
_cell_angle_alpha   75.48038248
_cell_angle_beta   90.00000000
_cell_angle_gamma   90.00000000
_symmetry_Int_Tables_number   1
_chemical_formula_structural   YHo3Tm4(WO6)4
_chemical_formula_sum   'Y1 Ho3 Tm4 W4 O24'
_cell_volume   453.45126148
_cell_formula_units_Z   1
loop_
 _symmetry_equiv_pos_site_id
 _symmetry_equiv_pos_as_xyz
  1  'x, y, z'
loop_
 _atom_site_type_symbol
 _atom_site_label
 _atom_site_symmetry_multiplicity
 _atom_site_fract_x
 _atom_site_fract_y
 _atom_site_fract_z
 _atom_site_occupancy
  Y  Y0  1  0.684166  0.500000  0.250000  1
  Ho  Ho1  1  0.259722  0.000000  0.750000  1
  Ho  Ho2  1  0.741384  0.000000  0.250000  1
  Ho  Ho3  1  0.315747  0.500000  0.750000  1
  Tm  Tm4  1  0.183978  0.794826  0.078031  1
  Tm  Tm5  1  0.183978  0.205174  0.421969  1
  Tm  Tm6  1  0.816367  0.205649  0.921354  1
  Tm  Tm7  1  0.816367  0.794351  0.578646  1
  W  W8  1  0.744471  0.723696  0.885208  1
  W  W9  1  0.255464  0.724200  0.385860  1
  W  W10  1  0.744471  0.276304  0.614792  1
  W  W11  1  0.255464  0.275800  0.114140  1
  O  O12  1  0.852954  0.365011  0.451401  1
  O  O13  1  0.463950  0.846236  0.931622  1
  O  O14  1  0.852954  0.634989  0.048599  1
  O  O15  1  0.019588  0.289129  0.729396  1
  O  O16  1  0.981113  0.286821  0.229775  1
  O  O17  1  0.148738  0.364336  0.950209  1
  O  O18  1  0.639671  0.488546  0.885834  1
  O  O19  1  0.536865  0.154084  0.068235  1
  O  O20  1  0.148738  0.635664  0.549791  1
  O  O21  1  0.019588  0.710871  0.770604  1
  O  O22  1  0.456464  0.207716  0.273950  1
  O  O23  1  0.044001  0.940865  0.397122  1
  O  O24  1  0.463950  0.153764  0.568378  1
  O  O25  1  0.981113  0.713179  0.270225  1
  O  O26  1  0.955482  0.058727  0.604209  1
  O  O27  1  0.542672  0.208537  0.774064  1
  O  O28  1  0.542672  0.791463  0.725936  1
  O  O29  1  0.044001  0.059135  0.102878  1
  O  O30  1  0.639671  0.511454  0.614166  1
  O  O31  1  0.357715  0.511450  0.113416  1
  O  O32  1  0.456464  0.792284  0.226050  1
  O  O33  1  0.357715  0.488550  0.386584  1
  O  O34  1  0.536865  0.845916  0.431765  1
  O  O35  1  0.955482  0.941273  0.895791  1
