# generated using pymatgen
data_Zr8Ti2Ga5Sb
_symmetry_space_group_name_H-M   'P 1'
_cell_length_a   8.12732407
_cell_length_b   8.12732355
_cell_length_c   5.61636085
_cell_angle_alpha   89.96864588
_cell_angle_beta   89.96863881
_cell_angle_gamma   120.18419669
_symmetry_Int_Tables_number   1
_chemical_formula_structural   Zr8Ti2Ga5Sb
_chemical_formula_sum   'Zr8 Ti2 Ga5 Sb1'
_cell_volume   320.67966030
_cell_formula_units_Z   1
loop_
 _symmetry_equiv_pos_site_id
 _symmetry_equiv_pos_as_xyz
  1  'x, y, z'
loop_
 _atom_site_type_symbol
 _atom_site_label
 _atom_site_symmetry_multiplicity
 _atom_site_fract_x
 _atom_site_fract_y
 _atom_site_fract_z
 _atom_site_occupancy
  Zr  Zr0  1  0.329523  0.672522  0.496048  1
  Zr  Zr1  1  0.672522  0.329523  0.496048  1
  Zr  Zr2  1  0.765264  0.765264  0.750573  1
  Zr  Zr3  1  0.243090  0.990993  0.750659  1
  Zr  Zr4  1  0.990993  0.243090  0.750659  1
  Zr  Zr5  1  0.241194  0.241194  0.253511  1
  Zr  Zr6  1  0.754594  0.001043  0.248691  1
  Zr  Zr7  1  0.001043  0.754594  0.248691  1
  Ti  Ti8  1  0.671836  0.329980  0.001996  1
  Ti  Ti9  1  0.329980  0.671836  0.001996  1
  Ga  Ga10  1  0.602474  0.996822  0.761576  1
  Ga  Ga11  1  0.996822  0.602474  0.761576  1
  Ga  Ga12  1  0.605893  0.605893  0.242056  1
  Ga  Ga13  1  0.395434  0.002330  0.237477  1
  Ga  Ga14  1  0.002330  0.395434  0.237477  1
  Sb  Sb15  1  0.397008  0.397008  0.760966  1
