# generated using pymatgen
data_Sr12Zn12Te7WO48
_symmetry_space_group_name_H-M   'P 1'
_cell_length_a   11.29309515
_cell_length_b   11.29309452
_cell_length_c   11.29309451
_cell_angle_alpha   109.51635865
_cell_angle_beta   109.51636112
_cell_angle_gamma   109.51636659
_symmetry_Int_Tables_number   1
_chemical_formula_structural   Sr12Zn12Te7WO48
_chemical_formula_sum   'Sr12 Zn12 Te7 W1 O48'
_cell_volume   1106.85071200
_cell_formula_units_Z   1
loop_
 _symmetry_equiv_pos_site_id
 _symmetry_equiv_pos_as_xyz
  1  'x, y, z'
loop_
 _atom_site_type_symbol
 _atom_site_label
 _atom_site_symmetry_multiplicity
 _atom_site_fract_x
 _atom_site_fract_y
 _atom_site_fract_z
 _atom_site_occupancy
  Sr  Sr0  1  0.374992  0.749976  0.124968  1
  Sr  Sr1  1  0.251415  0.375963  0.126694  1
  Sr  Sr2  1  0.875031  0.625007  0.250023  1
  Sr  Sr3  1  0.375963  0.126694  0.251415  1
  Sr  Sr4  1  0.126695  0.251415  0.375963  1
  Sr  Sr5  1  0.749976  0.124968  0.374992  1
  Sr  Sr6  1  0.873307  0.748585  0.624038  1
  Sr  Sr7  1  0.250023  0.875031  0.625007  1
  Sr  Sr8  1  0.124968  0.374992  0.749976  1
  Sr  Sr9  1  0.624038  0.873307  0.748585  1
  Sr  Sr10  1  0.625007  0.250023  0.875031  1
  Sr  Sr11  1  0.748585  0.624038  0.873307  1
  Zn  Zn12  1  0.749909  0.874958  0.124790  1
  Zn  Zn13  1  0.875210  0.250091  0.125043  1
  Zn  Zn14  1  0.623609  0.373539  0.247374  1
  Zn  Zn15  1  0.125042  0.875211  0.250091  1
  Zn  Zn16  1  0.626462  0.752625  0.376392  1
  Zn  Zn17  1  0.247374  0.623608  0.373539  1
  Zn  Zn18  1  0.373539  0.247374  0.623608  1
  Zn  Zn19  1  0.752626  0.376391  0.626462  1
  Zn  Zn20  1  0.874958  0.124790  0.749908  1
  Zn  Zn21  1  0.376392  0.626462  0.752625  1
  Zn  Zn22  1  0.124790  0.749908  0.874958  1
  Zn  Zn23  1  0.250091  0.125043  0.875210  1
  Te  Te24  1  0.000000  0.000000  0.000000  1
  Te  Te25  1  0.500000  0.000000  0.000000  1
  Te  Te26  1  0.000000  0.500000  0.000000  1
  Te  Te27  1  0.500000  0.500000  0.000000  1
  Te  Te28  1  0.000000  0.000000  0.500000  1
  Te  Te29  1  0.500000  0.000000  0.500000  1
  Te  Te30  1  0.000000  0.500000  0.500000  1
  W  W31  1  0.500000  0.500000  0.500000  1
  O  O32  1  0.330518  0.906691  0.018270  1
  O  O33  1  0.187870  0.111982  0.018544  1
  O  O34  1  0.687710  0.669545  0.075801  1
  O  O35  1  0.888854  0.406614  0.076329  1
  O  O36  1  0.981728  0.669482  0.093309  1
  O  O37  1  0.611786  0.423951  0.092728  1
  O  O38  1  0.593386  0.923671  0.111146  1
  O  O39  1  0.018544  0.187870  0.111982  1
  O  O40  1  0.187908  0.576524  0.169323  1
  O  O41  1  0.482785  0.593703  0.170340  1
  O  O42  1  0.576524  0.169323  0.187908  1
  O  O43  1  0.111982  0.018544  0.187870  1
  O  O44  1  0.330454  0.924199  0.312289  1
  O  O45  1  0.484889  0.389809  0.314224  1
  O  O46  1  0.906690  0.018271  0.330517  1
  O  O47  1  0.924199  0.312289  0.330454  1
  O  O48  1  0.576049  0.907272  0.388214  1
  O  O49  1  0.314224  0.484889  0.389809  1
  O  O50  1  0.829661  0.517215  0.406296  1
  O  O51  1  0.076328  0.888854  0.406614  1
  O  O52  1  0.830677  0.812092  0.423475  1
  O  O53  1  0.092728  0.611786  0.423951  1
  O  O54  1  0.593704  0.170340  0.482784  1
  O  O55  1  0.389809  0.314224  0.484889  1
  O  O56  1  0.610191  0.685775  0.515111  1
  O  O57  1  0.406296  0.829660  0.517216  1
  O  O58  1  0.169323  0.187907  0.576524  1
  O  O59  1  0.907272  0.388214  0.576049  1
  O  O60  1  0.923672  0.111146  0.593386  1
  O  O61  1  0.170339  0.482785  0.593704  1
  O  O62  1  0.685775  0.515111  0.610191  1
  O  O63  1  0.423951  0.092728  0.611786  1
  O  O64  1  0.093309  0.981728  0.669482  1
  O  O65  1  0.075801  0.687710  0.669545  1
  O  O66  1  0.515111  0.610191  0.685776  1
  O  O67  1  0.669545  0.075801  0.687710  1
  O  O68  1  0.888018  0.981456  0.812130  1
  O  O69  1  0.423475  0.830678  0.812092  1
  O  O70  1  0.517215  0.406297  0.829660  1
  O  O71  1  0.812092  0.423476  0.830677  1
  O  O72  1  0.981456  0.812130  0.888018  1
  O  O73  1  0.406614  0.076329  0.888854  1
  O  O74  1  0.018271  0.330517  0.906691  1
  O  O75  1  0.388214  0.576049  0.907272  1
  O  O76  1  0.111146  0.593386  0.923671  1
  O  O77  1  0.312289  0.330454  0.924199  1
  O  O78  1  0.669482  0.093309  0.981728  1
  O  O79  1  0.812130  0.888018  0.981456  1
