# generated using pymatgen
data_Ho10AsPb6
_symmetry_space_group_name_H-M   'P 1'
_cell_length_a   6.53576200
_cell_length_b   9.06078105
_cell_length_c   9.06082500
_cell_angle_alpha   119.99984281
_cell_angle_beta   89.99979837
_cell_angle_gamma   90.00042331
_symmetry_Int_Tables_number   1
_chemical_formula_structural   Ho10AsPb6
_chemical_formula_sum   'Ho10 As1 Pb6'
_cell_volume   464.68743270
_cell_formula_units_Z   1
loop_
 _symmetry_equiv_pos_site_id
 _symmetry_equiv_pos_as_xyz
  1  'x, y, z'
loop_
 _atom_site_type_symbol
 _atom_site_label
 _atom_site_symmetry_multiplicity
 _atom_site_fract_x
 _atom_site_fract_y
 _atom_site_fract_z
 _atom_site_occupancy
  Ho  Ho0  1  0.500002  0.333334  0.666669  1
  Ho  Ho1  1  0.500002  0.666664  0.333331  1
  Ho  Ho2  1  0.000001  0.666668  0.333338  1
  Ho  Ho3  1  0.000001  0.333331  0.666662  1
  Ho  Ho4  1  0.750400  0.249046  0.000000  1
  Ho  Ho5  1  0.750366  0.750924  0.750938  1
  Ho  Ho6  1  0.750366  0.999987  0.249062  1
  Ho  Ho7  1  0.249598  0.750952  0.000000  1
  Ho  Ho8  1  0.249635  0.249076  0.249063  1
  Ho  Ho9  1  0.249635  0.000013  0.750937  1
  As  As10  1  0.500000  0.999999  0.000000  1
  Pb  Pb11  1  0.749432  0.607413  0.000000  1
  Pb  Pb12  1  0.749436  0.392665  0.392592  1
  Pb  Pb13  1  0.749436  0.000075  0.607408  1
  Pb  Pb14  1  0.250571  0.392589  0.000000  1
  Pb  Pb15  1  0.250561  0.607337  0.607407  1
  Pb  Pb16  1  0.250561  0.999930  0.392593  1
