# generated using pymatgen
data_Sr2NdGd3(Si3O10)2
_symmetry_space_group_name_H-M   'P 1'
_cell_length_a   6.91177310
_cell_length_b   7.05535380
_cell_length_c   9.47690407
_cell_angle_alpha   72.79193509
_cell_angle_beta   86.17076611
_cell_angle_gamma   87.90867939
_symmetry_Int_Tables_number   1
_chemical_formula_structural   Sr2NdGd3(Si3O10)2
_chemical_formula_sum   'Sr2 Nd1 Gd3 Si6 O20'
_cell_volume   440.40087532
_cell_formula_units_Z   1
loop_
 _symmetry_equiv_pos_site_id
 _symmetry_equiv_pos_as_xyz
  1  'x, y, z'
loop_
 _atom_site_type_symbol
 _atom_site_label
 _atom_site_symmetry_multiplicity
 _atom_site_fract_x
 _atom_site_fract_y
 _atom_site_fract_z
 _atom_site_occupancy
  Sr  Sr0  1  0.600541  0.907137  0.818776  1
  Sr  Sr1  1  0.398297  0.091956  0.181494  1
  Nd  Nd2  1  0.859213  0.245314  0.488298  1
  Gd  Gd3  1  0.143922  0.752420  0.510146  1
  Gd  Gd4  1  0.840107  0.741200  0.187848  1
  Gd  Gd5  1  0.161406  0.262164  0.810872  1
  Si  Si6  1  0.325982  0.274966  0.456158  1
  Si  Si7  1  0.673616  0.722938  0.544696  1
  Si  Si8  1  0.332765  0.640717  0.169309  1
  Si  Si9  1  0.666658  0.358378  0.831517  1
  Si  Si10  1  0.876318  0.257785  0.122167  1
  Si  Si11  1  0.123561  0.744862  0.875913  1
  O  O12  1  0.525728  0.209184  0.535589  1
  O  O13  1  0.469731  0.786530  0.469096  1
  O  O14  1  0.821598  0.606503  0.453079  1
  O  O15  1  0.177598  0.396768  0.544184  1
  O  O16  1  0.815523  0.893040  0.570306  1
  O  O17  1  0.187009  0.101034  0.431599  1
  O  O18  1  0.618624  0.582005  0.720355  1
  O  O19  1  0.380439  0.415690  0.279871  1
  O  O20  1  0.526386  0.775077  0.118416  1
  O  O21  1  0.473270  0.223940  0.882955  1
  O  O22  1  0.829497  0.241594  0.752077  1
  O  O23  1  0.171591  0.757436  0.251052  1
  O  O24  1  0.253720  0.613311  0.016412  1
  O  O25  1  0.744671  0.388720  0.983403  1
  O  O26  1  0.913085  0.795766  0.945529  1
  O  O27  1  0.086065  0.203911  0.053066  1
  O  O28  1  0.763355  0.052805  0.209997  1
  O  O29  1  0.236317  0.950621  0.791191  1
  O  O30  1  0.882987  0.398833  0.232137  1
  O  O31  1  0.120420  0.607396  0.762492  1
