# generated using pymatgen
data_GaOsCl8
_symmetry_space_group_name_H-M   'P 1'
_cell_length_a   9.91617656
_cell_length_b   9.91617502
_cell_length_c   8.82417700
_cell_angle_alpha   90.00000000
_cell_angle_beta   90.00000000
_cell_angle_gamma   128.39982352
_symmetry_Int_Tables_number   1
_chemical_formula_structural   GaOsCl8
_chemical_formula_sum   'Ga2 Os2 Cl16'
_cell_volume   680.00158673
_cell_formula_units_Z   2
loop_
 _symmetry_equiv_pos_site_id
 _symmetry_equiv_pos_as_xyz
  1  'x, y, z'
loop_
 _atom_site_type_symbol
 _atom_site_label
 _atom_site_symmetry_multiplicity
 _atom_site_fract_x
 _atom_site_fract_y
 _atom_site_fract_z
 _atom_site_occupancy
  Ga  Ga0  1  0.317165  0.682835  0.750000  1
  Ga  Ga1  1  0.682835  0.317165  0.250000  1
  Os  Os2  1  0.878449  0.121551  0.250000  1
  Os  Os3  1  0.121551  0.878449  0.750000  1
  Cl  Cl4  1  0.377644  0.622356  0.541707  1
  Cl  Cl5  1  0.622356  0.377644  0.458293  1
  Cl  Cl6  1  0.416225  0.964873  0.750000  1
  Cl  Cl7  1  0.964873  0.416225  0.250000  1
  Cl  Cl8  1  0.583775  0.035127  0.250000  1
  Cl  Cl9  1  0.035127  0.583775  0.750000  1
  Cl  Cl10  1  0.233607  0.156271  0.750000  1
  Cl  Cl11  1  0.156271  0.233607  0.250000  1
  Cl  Cl12  1  0.766393  0.843729  0.250000  1
  Cl  Cl13  1  0.843729  0.766393  0.750000  1
  Cl  Cl14  1  0.129516  0.870484  0.490810  1
  Cl  Cl15  1  0.870484  0.129516  0.509190  1
  Cl  Cl16  1  0.870484  0.129516  0.990810  1
  Cl  Cl17  1  0.129516  0.870484  0.009190  1
  Cl  Cl18  1  0.377644  0.622356  0.958293  1
  Cl  Cl19  1  0.622356  0.377644  0.041707  1
