# generated using pymatgen
data_BaTlPt4
_symmetry_space_group_name_H-M   'P 1'
_cell_length_a   5.59732966
_cell_length_b   5.59732932
_cell_length_c   5.59732800
_cell_angle_alpha   59.99998414
_cell_angle_beta   59.99998615
_cell_angle_gamma   59.99997510
_symmetry_Int_Tables_number   1
_chemical_formula_structural   BaTlPt4
_chemical_formula_sum   'Ba1 Tl1 Pt4'
_cell_volume   124.00161022
_cell_formula_units_Z   1
loop_
 _symmetry_equiv_pos_site_id
 _symmetry_equiv_pos_as_xyz
  1  'x, y, z'
loop_
 _atom_site_type_symbol
 _atom_site_label
 _atom_site_symmetry_multiplicity
 _atom_site_fract_x
 _atom_site_fract_y
 _atom_site_fract_z
 _atom_site_occupancy
  Ba  Ba0  1  0.750000  0.750000  0.750000  1
  Tl  Tl1  1  0.500000  0.500000  0.500000  1
  Pt  Pt2  1  0.125761  0.125761  0.125761  1
  Pt  Pt3  1  0.622717  0.125761  0.125761  1
  Pt  Pt4  1  0.125761  0.622717  0.125761  1
  Pt  Pt5  1  0.125761  0.125761  0.622717  1
