# generated using pymatgen
data_Hf6ZnCoTe
_symmetry_space_group_name_H-M   'P 1'
_cell_length_a   3.46243700
_cell_length_b   7.75583057
_cell_length_c   7.75607100
_cell_angle_alpha   120.00048460
_cell_angle_beta   90.00000000
_cell_angle_gamma   90.00000000
_symmetry_Int_Tables_number   1
_chemical_formula_structural   Hf6ZnCoTe
_chemical_formula_sum   'Hf6 Zn1 Co1 Te1'
_cell_volume   180.37671779
_cell_formula_units_Z   1
loop_
 _symmetry_equiv_pos_site_id
 _symmetry_equiv_pos_as_xyz
  1  'x, y, z'
loop_
 _atom_site_type_symbol
 _atom_site_label
 _atom_site_symmetry_multiplicity
 _atom_site_fract_x
 _atom_site_fract_y
 _atom_site_fract_z
 _atom_site_occupancy
  Hf  Hf0  1  0.500000  0.603628  0.005854  1
  Hf  Hf1  1  0.500000  0.402209  0.396357  1
  Hf  Hf2  1  0.500000  0.994125  0.597803  1
  Hf  Hf3  1  0.000000  0.246965  0.007084  1
  Hf  Hf4  1  0.000000  0.760101  0.753033  1
  Hf  Hf5  1  0.000000  0.992910  0.239872  1
  Zn  Zn6  1  0.000000  0.666658  0.333332  1
  Co  Co7  1  0.500000  0.999986  0.000006  1
  Te  Te8  1  0.000000  0.333318  0.666660  1
