# generated using pymatgen
data_Nd16In4Os3Pd
_symmetry_space_group_name_H-M   'P 1'
_cell_length_a   9.94588070
_cell_length_b   10.02036821
_cell_length_c   10.02036800
_cell_angle_alpha   60.00000068
_cell_angle_beta   59.75194643
_cell_angle_gamma   59.75194575
_symmetry_Int_Tables_number   1
_chemical_formula_structural   Nd16In4Os3Pd
_chemical_formula_sum   'Nd16 In4 Os3 Pd1'
_cell_volume   703.48861042
_cell_formula_units_Z   1
loop_
 _symmetry_equiv_pos_site_id
 _symmetry_equiv_pos_as_xyz
  1  'x, y, z'
loop_
 _atom_site_type_symbol
 _atom_site_label
 _atom_site_symmetry_multiplicity
 _atom_site_fract_x
 _atom_site_fract_y
 _atom_site_fract_z
 _atom_site_occupancy
  Nd  Nd0  1  0.343625  0.350902  0.350902  1
  Nd  Nd1  1  0.343625  0.350902  0.954570  1
  Nd  Nd2  1  0.343625  0.954570  0.350902  1
  Nd  Nd3  1  0.964283  0.345239  0.345239  1
  Nd  Nd4  1  0.814801  0.192507  0.192507  1
  Nd  Nd5  1  0.190251  0.808322  0.808322  1
  Nd  Nd6  1  0.190251  0.808322  0.193104  1
  Nd  Nd7  1  0.814801  0.192507  0.800185  1
  Nd  Nd8  1  0.190251  0.193104  0.808322  1
  Nd  Nd9  1  0.814801  0.800185  0.192507  1
  Nd  Nd10  1  0.939617  0.559048  0.559048  1
  Nd  Nd11  1  0.553967  0.940398  0.940398  1
  Nd  Nd12  1  0.553967  0.940398  0.565237  1
  Nd  Nd13  1  0.939617  0.559048  0.942288  1
  Nd  Nd14  1  0.553967  0.565237  0.940398  1
  Nd  Nd15  1  0.939617  0.942288  0.559048  1
  In  In16  1  0.581520  0.580039  0.580039  1
  In  In17  1  0.581520  0.580039  0.258405  1
  In  In18  1  0.581520  0.258405  0.580039  1
  In  In19  1  0.256397  0.581202  0.581202  1
  Os  Os20  1  0.143200  0.137971  0.137971  1
  Os  Os21  1  0.143200  0.137971  0.580858  1
  Os  Os22  1  0.143200  0.580858  0.137971  1
  Pd  Pd23  1  0.578382  0.140539  0.140539  1
