# generated using pymatgen
data_Ho12InCo4Ru
_symmetry_space_group_name_H-M   'P 1'
_cell_length_a   8.26550979
_cell_length_b   8.26550860
_cell_length_c   8.26550970
_cell_angle_alpha   111.27983260
_cell_angle_beta   110.77067366
_cell_angle_gamma   106.40637900
_symmetry_Int_Tables_number   1
_chemical_formula_structural   Ho12InCo4Ru
_chemical_formula_sum   'Ho12 In1 Co4 Ru1'
_cell_volume   433.76175962
_cell_formula_units_Z   1
loop_
 _symmetry_equiv_pos_site_id
 _symmetry_equiv_pos_as_xyz
  1  'x, y, z'
loop_
 _atom_site_type_symbol
 _atom_site_label
 _atom_site_symmetry_multiplicity
 _atom_site_fract_x
 _atom_site_fract_y
 _atom_site_fract_z
 _atom_site_occupancy
  Ho  Ho0  1  0.314237  0.620237  0.305999  1
  Ho  Ho1  1  0.685763  0.379763  0.694001  1
  Ho  Ho2  1  0.314237  0.008237  0.694001  1
  Ho  Ho3  1  0.685763  0.991763  0.305999  1
  Ho  Ho4  1  0.183193  0.283879  0.467072  1
  Ho  Ho5  1  0.816807  0.716121  0.532928  1
  Ho  Ho6  1  0.183193  0.716121  0.899314  1
  Ho  Ho7  1  0.816807  0.283879  0.100686  1
  Ho  Ho8  1  0.411813  0.218463  0.193350  1
  Ho  Ho9  1  0.588187  0.781537  0.806650  1
  Ho  Ho10  1  0.025112  0.218463  0.806650  1
  Ho  Ho11  1  0.974888  0.781537  0.193350  1
  In  In12  1  0.500000  0.500000  0.000000  1
  Co  Co13  1  0.111548  0.611548  0.500000  1
  Co  Co14  1  0.888452  0.388452  0.500000  1
  Co  Co15  1  0.376784  0.000000  0.376784  1
  Co  Co16  1  0.623216  0.000000  0.623216  1
  Ru  Ru17  1  0.000000  0.000000  0.000000  1
