# generated using pymatgen
data_Tm4B12RuW
_symmetry_space_group_name_H-M   'P 1'
_cell_length_a   3.59928300
_cell_length_b   9.15950354
_cell_length_c   11.55184403
_cell_angle_alpha   89.75178018
_cell_angle_beta   90.00000000
_cell_angle_gamma   90.00000000
_symmetry_Int_Tables_number   1
_chemical_formula_structural   Tm4B12RuW
_chemical_formula_sum   'Tm8 B24 Ru2 W2'
_cell_volume   380.83352383
_cell_formula_units_Z   2
loop_
 _symmetry_equiv_pos_site_id
 _symmetry_equiv_pos_as_xyz
  1  'x, y, z'
loop_
 _atom_site_type_symbol
 _atom_site_label
 _atom_site_symmetry_multiplicity
 _atom_site_fract_x
 _atom_site_fract_y
 _atom_site_fract_z
 _atom_site_occupancy
  Tm  Tm0  1  0.000000  0.321678  0.414304  1
  Tm  Tm1  1  0.000000  0.678322  0.585696  1
  Tm  Tm2  1  0.000000  0.821320  0.086178  1
  Tm  Tm3  1  0.000000  0.178680  0.913822  1
  Tm  Tm4  1  0.000000  0.945408  0.371070  1
  Tm  Tm5  1  0.000000  0.054592  0.628930  1
  Tm  Tm6  1  0.000000  0.441942  0.127391  1
  Tm  Tm7  1  0.000000  0.558058  0.872609  1
  B  B8  1  0.500000  0.551194  0.434693  1
  B  B9  1  0.500000  0.448806  0.565307  1
  B  B10  1  0.500000  0.053936  0.066210  1
  B  B11  1  0.500000  0.946064  0.933790  1
  B  B12  1  0.500000  0.751758  0.421803  1
  B  B13  1  0.500000  0.248242  0.578197  1
  B  B14  1  0.500000  0.248703  0.080209  1
  B  B15  1  0.500000  0.751297  0.919791  1
  B  B16  1  0.500000  0.796634  0.262636  1
  B  B17  1  0.500000  0.203366  0.737364  1
  B  B18  1  0.500000  0.290534  0.233689  1
  B  B19  1  0.500000  0.709466  0.766311  1
  B  B20  1  0.500000  0.631901  0.181283  1
  B  B21  1  0.500000  0.368099  0.818717  1
  B  B22  1  0.500000  0.130805  0.313889  1
  B  B23  1  0.500000  0.869195  0.686111  1
  B  B24  1  0.500000  0.983035  0.211472  1
  B  B25  1  0.500000  0.016965  0.788528  1
  B  B26  1  0.500000  0.477044  0.286259  1
  B  B27  1  0.500000  0.522956  0.713741  1
  B  B28  1  0.500000  0.604539  0.027922  1
  B  B29  1  0.500000  0.395461  0.972078  1
  B  B30  1  0.500000  0.103560  0.470623  1
  B  B31  1  0.500000  0.896440  0.529377  1
  Ru  Ru32  1  0.000000  0.137727  0.178053  1
  Ru  Ru33  1  0.000000  0.862273  0.821947  1
  W  W34  1  0.000000  0.638766  0.319274  1
  W  W35  1  0.000000  0.361234  0.680726  1
