# generated using pymatgen
data_Tb5Dy3Pd4
_symmetry_space_group_name_H-M   'P 1'
_cell_length_a   4.87534600
_cell_length_b   7.10133734
_cell_length_c   8.78089900
_cell_angle_alpha   89.95351847
_cell_angle_beta   90.00000000
_cell_angle_gamma   90.00000000
_symmetry_Int_Tables_number   1
_chemical_formula_structural   Tb5Dy3Pd4
_chemical_formula_sum   'Tb5 Dy3 Pd4'
_cell_volume   304.00758904
_cell_formula_units_Z   1
loop_
 _symmetry_equiv_pos_site_id
 _symmetry_equiv_pos_as_xyz
  1  'x, y, z'
loop_
 _atom_site_type_symbol
 _atom_site_label
 _atom_site_symmetry_multiplicity
 _atom_site_fract_x
 _atom_site_fract_y
 _atom_site_fract_z
 _atom_site_occupancy
  Tb  Tb0  1  0.250000  0.485217  0.172837  1
  Tb  Tb1  1  0.750000  0.514399  0.826644  1
  Tb  Tb2  1  0.250000  0.986443  0.326961  1
  Tb  Tb3  1  0.750000  0.014502  0.673938  1
  Tb  Tb4  1  0.750000  0.646400  0.419398  1
  Dy  Dy5  1  0.250000  0.353722  0.580341  1
  Dy  Dy6  1  0.750000  0.146062  0.079767  1
  Dy  Dy7  1  0.250000  0.854146  0.920230  1
  Pd  Pd8  1  0.250000  0.258033  0.907671  1
  Pd  Pd9  1  0.750000  0.741960  0.090948  1
  Pd  Pd10  1  0.250000  0.758686  0.593367  1
  Pd  Pd11  1  0.750000  0.240428  0.407898  1
