# generated using pymatgen
data_LiYCo(PRh)3
_symmetry_space_group_name_H-M   'P 1'
_cell_length_a   3.83711100
_cell_length_b   10.68547700
_cell_length_c   12.52728700
_cell_angle_alpha   90.00000000
_cell_angle_beta   90.00000000
_cell_angle_gamma   90.00000000
_symmetry_Int_Tables_number   1
_chemical_formula_structural   LiYCo(PRh)3
_chemical_formula_sum   'Li4 Y4 Co4 P12 Rh12'
_cell_volume   513.63582086
_cell_formula_units_Z   4
loop_
 _symmetry_equiv_pos_site_id
 _symmetry_equiv_pos_as_xyz
  1  'x, y, z'
loop_
 _atom_site_type_symbol
 _atom_site_label
 _atom_site_symmetry_multiplicity
 _atom_site_fract_x
 _atom_site_fract_y
 _atom_site_fract_z
 _atom_site_occupancy
  Li  Li0  1  0.250000  0.793968  0.488382  1
  Li  Li1  1  0.750000  0.206032  0.511618  1
  Li  Li2  1  0.750000  0.293968  0.011618  1
  Li  Li3  1  0.250000  0.706032  0.988382  1
  Y  Y4  1  0.250000  0.920955  0.207673  1
  Y  Y5  1  0.750000  0.079045  0.792327  1
  Y  Y6  1  0.750000  0.420955  0.292327  1
  Y  Y7  1  0.250000  0.579045  0.707673  1
  Co  Co8  1  0.250000  0.034700  0.435739  1
  Co  Co9  1  0.750000  0.965300  0.564261  1
  Co  Co10  1  0.750000  0.534700  0.064261  1
  Co  Co11  1  0.250000  0.465300  0.935739  1
  P  P12  1  0.250000  0.072694  0.608300  1
  P  P13  1  0.750000  0.927306  0.391700  1
  P  P14  1  0.750000  0.572694  0.891700  1
  P  P15  1  0.250000  0.427306  0.108300  1
  P  P16  1  0.250000  0.230640  0.364250  1
  P  P17  1  0.750000  0.769360  0.635750  1
  P  P18  1  0.750000  0.730640  0.135750  1
  P  P19  1  0.250000  0.269360  0.864250  1
  P  P20  1  0.250000  0.899375  0.888787  1
  P  P21  1  0.750000  0.100625  0.111213  1
  P  P22  1  0.750000  0.399375  0.611213  1
  P  P23  1  0.250000  0.600625  0.388787  1
  Rh  Rh24  1  0.250000  0.095761  0.978728  1
  Rh  Rh25  1  0.750000  0.904239  0.021272  1
  Rh  Rh26  1  0.750000  0.595761  0.521272  1
  Rh  Rh27  1  0.250000  0.404239  0.478728  1
  Rh  Rh28  1  0.250000  0.274600  0.673295  1
  Rh  Rh29  1  0.750000  0.725400  0.326705  1
  Rh  Rh30  1  0.750000  0.774600  0.826705  1
  Rh  Rh31  1  0.250000  0.225400  0.173295  1
  Rh  Rh32  1  0.250000  0.620684  0.194468  1
  Rh  Rh33  1  0.750000  0.379316  0.805532  1
  Rh  Rh34  1  0.750000  0.120684  0.305532  1
  Rh  Rh35  1  0.250000  0.879316  0.694468  1
