# generated using pymatgen
data_Sm3MnCo7NiP6
_symmetry_space_group_name_H-M   'P 1'
_cell_length_a   3.73877000
_cell_length_b   10.61964500
_cell_length_c   12.35961100
_cell_angle_alpha   90.00000000
_cell_angle_beta   90.00000000
_cell_angle_gamma   90.00000000
_symmetry_Int_Tables_number   1
_chemical_formula_structural   Sm3MnCo7NiP6
_chemical_formula_sum   'Sm6 Mn2 Co14 Ni2 P12'
_cell_volume   490.73106427
_cell_formula_units_Z   2
loop_
 _symmetry_equiv_pos_site_id
 _symmetry_equiv_pos_as_xyz
  1  'x, y, z'
loop_
 _atom_site_type_symbol
 _atom_site_label
 _atom_site_symmetry_multiplicity
 _atom_site_fract_x
 _atom_site_fract_y
 _atom_site_fract_z
 _atom_site_occupancy
  Sm  Sm0  1  0.000000  0.500000  0.520597  1
  Sm  Sm1  1  0.500000  0.000000  0.479403  1
  Sm  Sm2  1  0.500000  0.816101  0.204548  1
  Sm  Sm3  1  0.500000  0.183899  0.204548  1
  Sm  Sm4  1  0.000000  0.683899  0.795452  1
  Sm  Sm5  1  0.000000  0.316101  0.795452  1
  Mn  Mn6  1  0.500000  0.500000  0.153607  1
  Mn  Mn7  1  0.000000  0.000000  0.846393  1
  Co  Co8  1  0.000000  0.500000  0.986673  1
  Co  Co9  1  0.500000  0.000000  0.013327  1
  Co  Co10  1  0.500000  0.333134  0.995415  1
  Co  Co11  1  0.500000  0.666866  0.995415  1
  Co  Co12  1  0.000000  0.166866  0.004585  1
  Co  Co13  1  0.000000  0.833134  0.004585  1
  Co  Co14  1  0.500000  0.297579  0.430724  1
  Co  Co15  1  0.500000  0.702421  0.430724  1
  Co  Co16  1  0.000000  0.202421  0.569276  1
  Co  Co17  1  0.000000  0.797579  0.569276  1
  Co  Co18  1  0.500000  0.879726  0.709949  1
  Co  Co19  1  0.500000  0.120274  0.709949  1
  Co  Co20  1  0.000000  0.620274  0.290051  1
  Co  Co21  1  0.000000  0.379726  0.290051  1
  Ni  Ni22  1  0.500000  0.500000  0.703103  1
  Ni  Ni23  1  0.000000  0.000000  0.296897  1
  P  P24  1  0.500000  0.500000  0.885619  1
  P  P25  1  0.000000  0.000000  0.114381  1
  P  P26  1  0.500000  0.500000  0.343709  1
  P  P27  1  0.000000  0.000000  0.656291  1
  P  P28  1  0.500000  0.306541  0.614118  1
  P  P29  1  0.500000  0.693459  0.614118  1
  P  P30  1  0.000000  0.193459  0.385882  1
  P  P31  1  0.000000  0.806541  0.385882  1
  P  P32  1  0.500000  0.846938  0.895117  1
  P  P33  1  0.500000  0.153062  0.895117  1
  P  P34  1  0.000000  0.653062  0.104883  1
  P  P35  1  0.000000  0.346938  0.104883  1
