# generated using pymatgen
data_Y3Ho7Sn5Bi
_symmetry_space_group_name_H-M   'P 1'
_cell_length_a   8.98688600
_cell_length_b   8.98268857
_cell_length_c   6.50270100
_cell_angle_alpha   90.00000000
_cell_angle_beta   90.00000000
_cell_angle_gamma   120.01545134
_symmetry_Int_Tables_number   1
_chemical_formula_structural   Y3Ho7Sn5Bi
_chemical_formula_sum   'Y3 Ho7 Sn5 Bi1'
_cell_volume   454.54025638
_cell_formula_units_Z   1
loop_
 _symmetry_equiv_pos_site_id
 _symmetry_equiv_pos_as_xyz
  1  'x, y, z'
loop_
 _atom_site_type_symbol
 _atom_site_label
 _atom_site_symmetry_multiplicity
 _atom_site_fract_x
 _atom_site_fract_y
 _atom_site_fract_z
 _atom_site_occupancy
  Y  Y0  1  0.994682  0.757407  0.750000  1
  Y  Y1  1  0.764385  0.000000  0.750000  1
  Y  Y2  1  0.237275  0.242593  0.750000  1
  Ho  Ho3  1  0.000410  0.239176  0.250000  1
  Ho  Ho4  1  0.761234  0.760824  0.250000  1
  Ho  Ho5  1  0.237650  0.000000  0.250000  1
  Ho  Ho6  1  0.332593  0.662688  0.498721  1
  Ho  Ho7  1  0.669906  0.337312  0.001279  1
  Ho  Ho8  1  0.669906  0.337312  0.498721  1
  Ho  Ho9  1  0.332593  0.662688  0.001279  1
  Sn  Sn10  1  0.395389  0.394079  0.250000  1
  Sn  Sn11  1  0.001309  0.605921  0.250000  1
  Sn  Sn12  1  0.999646  0.395932  0.750000  1
  Sn  Sn13  1  0.603714  0.604068  0.750000  1
  Sn  Sn14  1  0.605371  0.000000  0.250000  1
  Bi  Bi15  1  0.393935  0.000000  0.750000  1
