# generated using pymatgen
data_Y4Ho2Al24Os5Pt3
_symmetry_space_group_name_H-M   'P 1'
_cell_length_a   8.81406962
_cell_length_b   8.83431552
_cell_length_c   9.54569894
_cell_angle_alpha   90.10508838
_cell_angle_beta   89.74447861
_cell_angle_gamma   119.54236224
_symmetry_Int_Tables_number   1
_chemical_formula_structural   Y4Ho2Al24Os5Pt3
_chemical_formula_sum   'Y4 Ho2 Al24 Os5 Pt3'
_cell_volume   646.64765686
_cell_formula_units_Z   1
loop_
 _symmetry_equiv_pos_site_id
 _symmetry_equiv_pos_as_xyz
  1  'x, y, z'
loop_
 _atom_site_type_symbol
 _atom_site_label
 _atom_site_symmetry_multiplicity
 _atom_site_fract_x
 _atom_site_fract_y
 _atom_site_fract_z
 _atom_site_occupancy
  Y  Y0  1  0.187983  0.383639  0.250778  1
  Y  Y1  1  0.812017  0.616361  0.749222  1
  Y  Y2  1  0.613589  0.813665  0.251964  1
  Y  Y3  1  0.386411  0.186335  0.748036  1
  Ho  Ho4  1  0.195320  0.809024  0.251480  1
  Ho  Ho5  1  0.804680  0.190976  0.748520  1
  Al  Al6  1  0.335246  0.671410  0.029527  1
  Al  Al7  1  0.664754  0.328590  0.970473  1
  Al  Al8  1  0.669373  0.331236  0.527803  1
  Al  Al9  1  0.330627  0.668764  0.472197  1
  Al  Al10  1  0.157999  0.325586  0.575209  1
  Al  Al11  1  0.842001  0.674414  0.424791  1
  Al  Al12  1  0.673451  0.840926  0.575663  1
  Al  Al13  1  0.836969  0.676148  0.078169  1
  Al  Al14  1  0.326549  0.159074  0.424337  1
  Al  Al15  1  0.163031  0.323852  0.921831  1
  Al  Al16  1  0.163928  0.834997  0.575958  1
  Al  Al17  1  0.325672  0.158592  0.076483  1
  Al  Al18  1  0.836072  0.165003  0.424042  1
  Al  Al19  1  0.674328  0.841408  0.923517  1
  Al  Al20  1  0.831631  0.159288  0.077357  1
  Al  Al21  1  0.168369  0.840712  0.922643  1
  Al  Al22  1  0.560348  0.124594  0.249784  1
  Al  Al23  1  0.439652  0.875406  0.750216  1
  Al  Al24  1  0.874141  0.438224  0.252717  1
  Al  Al25  1  0.125859  0.561776  0.747283  1
  Al  Al26  1  0.562738  0.436607  0.249681  1
  Al  Al27  1  0.437262  0.563393  0.750319  1
  Al  Al28  1  0.999081  0.002294  0.250211  1
  Al  Al29  1  0.000919  0.997706  0.749789  1
  Os  Os30  1  0.500000  0.000000  0.000000  1
  Os  Os31  1  0.500000  0.000000  0.500000  1
  Os  Os32  1  0.000000  0.500000  0.500000  1
  Os  Os33  1  0.000000  0.000000  0.000000  1
  Os  Os34  1  0.000000  0.000000  0.500000  1
  Pt  Pt35  1  0.000000  0.500000  0.000000  1
  Pt  Pt36  1  0.500000  0.500000  0.000000  1
  Pt  Pt37  1  0.500000  0.500000  0.500000  1
