# generated using pymatgen
data_Ca2Sb2PdPt
_symmetry_space_group_name_H-M   'P 1'
_cell_length_a   4.65721600
_cell_length_b   7.43022700
_cell_length_c   7.96428900
_cell_angle_alpha   90.00000000
_cell_angle_beta   90.00000000
_cell_angle_gamma   90.00000000
_symmetry_Int_Tables_number   1
_chemical_formula_structural   Ca2Sb2PdPt
_chemical_formula_sum   'Ca4 Sb4 Pd2 Pt2'
_cell_volume   275.59762696
_cell_formula_units_Z   2
loop_
 _symmetry_equiv_pos_site_id
 _symmetry_equiv_pos_as_xyz
  1  'x, y, z'
loop_
 _atom_site_type_symbol
 _atom_site_label
 _atom_site_symmetry_multiplicity
 _atom_site_fract_x
 _atom_site_fract_y
 _atom_site_fract_z
 _atom_site_occupancy
  Ca  Ca0  1  0.750000  0.991333  0.698330  1
  Ca  Ca1  1  0.250000  0.005605  0.301015  1
  Ca  Ca2  1  0.750000  0.491333  0.801670  1
  Ca  Ca3  1  0.250000  0.505605  0.198985  1
  Sb  Sb4  1  0.750000  0.309516  0.407340  1
  Sb  Sb5  1  0.250000  0.189757  0.909269  1
  Sb  Sb6  1  0.250000  0.689757  0.590731  1
  Sb  Sb7  1  0.750000  0.809516  0.092660  1
  Pd  Pd8  1  0.250000  0.809277  0.916120  1
  Pd  Pd9  1  0.250000  0.309277  0.583880  1
  Pt  Pt10  1  0.750000  0.694512  0.417638  1
  Pt  Pt11  1  0.750000  0.194512  0.082362  1
