# generated using pymatgen
data_Tb6Tm4Si5As
_symmetry_space_group_name_H-M   'P 1'
_cell_length_a   8.43796600
_cell_length_b   8.44969131
_cell_length_c   6.27104900
_cell_angle_alpha   90.00000000
_cell_angle_beta   90.00000000
_cell_angle_gamma   119.95410715
_symmetry_Int_Tables_number   1
_chemical_formula_structural   Tb6Tm4Si5As
_chemical_formula_sum   'Tb6 Tm4 Si5 As1'
_cell_volume   387.39150459
_cell_formula_units_Z   1
loop_
 _symmetry_equiv_pos_site_id
 _symmetry_equiv_pos_as_xyz
  1  'x, y, z'
loop_
 _atom_site_type_symbol
 _atom_site_label
 _atom_site_symmetry_multiplicity
 _atom_site_fract_x
 _atom_site_fract_y
 _atom_site_fract_z
 _atom_site_occupancy
  Tb  Tb0  1  0.996479  0.752197  0.750000  1
  Tb  Tb1  1  0.000333  0.245471  0.250000  1
  Tb  Tb2  1  0.754862  0.754529  0.250000  1
  Tb  Tb3  1  0.756619  0.000000  0.750000  1
  Tb  Tb4  1  0.244282  0.247803  0.750000  1
  Tb  Tb5  1  0.244678  0.000000  0.250000  1
  Tm  Tm6  1  0.332969  0.663928  0.498451  1
  Tm  Tm7  1  0.669042  0.336072  0.001549  1
  Tm  Tm8  1  0.669042  0.336072  0.498451  1
  Tm  Tm9  1  0.332969  0.663928  0.001549  1
  Si  Si10  1  0.394873  0.393863  0.250000  1
  Si  Si11  1  0.001010  0.606137  0.250000  1
  Si  Si12  1  0.999677  0.394578  0.750000  1
  Si  Si13  1  0.605099  0.605422  0.750000  1
  Si  Si14  1  0.606169  0.000000  0.250000  1
  As  As15  1  0.391896  0.000000  0.750000  1
