# generated using pymatgen
data_Er4InPd10Pt
_symmetry_space_group_name_H-M   'P 1'
_cell_length_a   4.19535400
_cell_length_b   5.81699276
_cell_length_c   11.62293861
_cell_angle_alpha   86.73725513
_cell_angle_beta   90.00000000
_cell_angle_gamma   90.00000000
_symmetry_Int_Tables_number   1
_chemical_formula_structural   Er4InPd10Pt
_chemical_formula_sum   'Er4 In1 Pd10 Pt1'
_cell_volume   283.19040359
_cell_formula_units_Z   1
loop_
 _symmetry_equiv_pos_site_id
 _symmetry_equiv_pos_as_xyz
  1  'x, y, z'
loop_
 _atom_site_type_symbol
 _atom_site_label
 _atom_site_symmetry_multiplicity
 _atom_site_fract_x
 _atom_site_fract_y
 _atom_site_fract_z
 _atom_site_occupancy
  Er  Er0  1  0.500000  0.759458  0.376963  1
  Er  Er1  1  0.500000  0.708580  0.859785  1
  Er  Er2  1  0.500000  0.291420  0.140215  1
  Er  Er3  1  0.500000  0.240542  0.623037  1
  In  In4  1  0.000000  0.000000  0.000000  1
  Pd  Pd5  1  0.000000  0.020238  0.250263  1
  Pd  Pd6  1  0.000000  0.979762  0.749737  1
  Pd  Pd7  1  0.000000  0.500000  0.500000  1
  Pd  Pd8  1  0.000000  0.525193  0.250532  1
  Pd  Pd9  1  0.000000  0.474807  0.749468  1
  Pd  Pd10  1  0.500000  0.258974  0.377743  1
  Pd  Pd11  1  0.500000  0.219235  0.882606  1
  Pd  Pd12  1  0.500000  0.780765  0.117394  1
  Pd  Pd13  1  0.500000  0.741026  0.622257  1
  Pd  Pd14  1  0.000000  0.000000  0.500000  1
  Pt  Pt15  1  0.000000  0.500000  0.000000  1
