# generated using pymatgen
data_BaIn7(GaIr)2
_symmetry_space_group_name_H-M   'P 1'
_cell_length_a   8.73823981
_cell_length_b   8.73823842
_cell_length_c   4.37152700
_cell_angle_alpha   90.00000000
_cell_angle_beta   90.00000000
_cell_angle_gamma   120.88024252
_symmetry_Int_Tables_number   1
_chemical_formula_structural   BaIn7(GaIr)2
_chemical_formula_sum   'Ba1 In7 Ga2 Ir2'
_cell_volume   286.47765178
_cell_formula_units_Z   1
loop_
 _symmetry_equiv_pos_site_id
 _symmetry_equiv_pos_as_xyz
  1  'x, y, z'
loop_
 _atom_site_type_symbol
 _atom_site_label
 _atom_site_symmetry_multiplicity
 _atom_site_fract_x
 _atom_site_fract_y
 _atom_site_fract_z
 _atom_site_occupancy
  Ba  Ba0  1  0.000000  0.000000  0.000000  1
  In  In1  1  0.586833  0.799077  0.500000  1
  In  In2  1  0.204625  0.795375  0.500000  1
  In  In3  1  0.200923  0.413167  0.500000  1
  In  In4  1  0.799077  0.586833  0.500000  1
  In  In5  1  0.795375  0.204625  0.500000  1
  In  In6  1  0.413167  0.200923  0.500000  1
  In  In7  1  0.500000  0.500000  0.000000  1
  Ga  Ga8  1  0.000000  0.500000  0.000000  1
  Ga  Ga9  1  0.500000  0.000000  0.000000  1
  Ir  Ir10  1  0.326108  0.673892  0.000000  1
  Ir  Ir11  1  0.673892  0.326108  0.000000  1
