# generated using pymatgen
data_Dy5Ho11Cd4Os3Pt
_symmetry_space_group_name_H-M   'P 1'
_cell_length_a   9.61275012
_cell_length_b   9.69671990
_cell_length_c   9.69672057
_cell_angle_alpha   59.65749844
_cell_angle_beta   59.33028436
_cell_angle_gamma   59.33028623
_symmetry_Int_Tables_number   1
_chemical_formula_structural   Dy5Ho11Cd4Os3Pt
_chemical_formula_sum   'Dy5 Ho11 Cd4 Os3 Pt1'
_cell_volume   630.95386542
_cell_formula_units_Z   1
loop_
 _symmetry_equiv_pos_site_id
 _symmetry_equiv_pos_as_xyz
  1  'x, y, z'
loop_
 _atom_site_type_symbol
 _atom_site_label
 _atom_site_symmetry_multiplicity
 _atom_site_fract_x
 _atom_site_fract_y
 _atom_site_fract_z
 _atom_site_occupancy
  Dy  Dy0  1  0.803885  0.190133  0.190133  1
  Dy  Dy1  1  0.803313  0.190073  0.816405  1
  Dy  Dy2  1  0.187406  0.810397  0.190209  1
  Dy  Dy3  1  0.803313  0.816405  0.190073  1
  Dy  Dy4  1  0.187406  0.190209  0.810397  1
  Ho  Ho5  1  0.597176  0.600513  0.600513  1
  Ho  Ho6  1  0.597572  0.600769  0.203639  1
  Ho  Ho7  1  0.597572  0.203639  0.600769  1
  Ho  Ho8  1  0.217124  0.594612  0.594612  1
  Ho  Ho9  1  0.063328  0.439945  0.439945  1
  Ho  Ho10  1  0.434166  0.060980  0.060980  1
  Ho  Ho11  1  0.436564  0.060669  0.440813  1
  Ho  Ho12  1  0.063782  0.439738  0.054774  1
  Ho  Ho13  1  0.436564  0.440813  0.060669  1
  Ho  Ho14  1  0.063782  0.054774  0.439738  1
  Ho  Ho15  1  0.187493  0.810446  0.810446  1
  Cd  Cd16  1  0.830514  0.829524  0.829524  1
  Cd  Cd17  1  0.830590  0.829943  0.508706  1
  Cd  Cd18  1  0.830590  0.508706  0.829943  1
  Cd  Cd19  1  0.504945  0.831324  0.831324  1
  Os  Os20  1  0.397863  0.386939  0.386939  1
  Os  Os21  1  0.398774  0.388569  0.828791  1
  Os  Os22  1  0.398774  0.828791  0.388569  1
  Pt  Pt23  1  0.827504  0.392094  0.392094  1
