# generated using pymatgen
data_InSnPO5
_symmetry_space_group_name_H-M   'P 1'
_cell_length_a   5.47533713
_cell_length_b   6.78613949
_cell_length_c   7.15579867
_cell_angle_alpha   111.59561458
_cell_angle_beta   107.60160940
_cell_angle_gamma   96.23704384
_symmetry_Int_Tables_number   1
_chemical_formula_structural   InSnPO5
_chemical_formula_sum   'In2 Sn2 P2 O10'
_cell_volume   228.27423288
_cell_formula_units_Z   2
loop_
 _symmetry_equiv_pos_site_id
 _symmetry_equiv_pos_as_xyz
  1  'x, y, z'
loop_
 _atom_site_type_symbol
 _atom_site_label
 _atom_site_symmetry_multiplicity
 _atom_site_fract_x
 _atom_site_fract_y
 _atom_site_fract_z
 _atom_site_occupancy
  In  In0  1  0.163915  0.633086  0.274477  1
  In  In1  1  0.836085  0.366914  0.725523  1
  Sn  Sn2  1  0.592872  0.773001  0.037935  1
  Sn  Sn3  1  0.407128  0.226999  0.962064  1
  P  P4  1  0.170763  0.186461  0.393371  1
  P  P5  1  0.829237  0.813539  0.606629  1
  O  O6  1  0.405064  0.231460  0.605986  1
  O  O7  1  0.594936  0.768540  0.394014  1
  O  O8  1  0.923334  0.245113  0.440386  1
  O  O9  1  0.076666  0.754887  0.559614  1
  O  O10  1  0.255132  0.327597  0.283061  1
  O  O11  1  0.744868  0.672403  0.716939  1
  O  O12  1  0.097921  0.939740  0.234780  1
  O  O13  1  0.902079  0.060260  0.765220  1
  O  O14  1  0.236773  0.500743  0.967031  1
  O  O15  1  0.763227  0.499257  0.032969  1
