# generated using pymatgen
data_Th3(U2Se5)4
_symmetry_space_group_name_H-M   'P 1'
_cell_length_a   10.83093831
_cell_length_b   10.83121404
_cell_length_c   6.75275709
_cell_angle_alpha   89.89643252
_cell_angle_beta   89.92684549
_cell_angle_gamma   90.20485115
_symmetry_Int_Tables_number   1
_chemical_formula_structural   Th3(U2Se5)4
_chemical_formula_sum   'Th3 U8 Se20'
_cell_volume   792.17385564
_cell_formula_units_Z   1
loop_
 _symmetry_equiv_pos_site_id
 _symmetry_equiv_pos_as_xyz
  1  'x, y, z'
loop_
 _atom_site_type_symbol
 _atom_site_label
 _atom_site_symmetry_multiplicity
 _atom_site_fract_x
 _atom_site_fract_y
 _atom_site_fract_z
 _atom_site_occupancy
  Th  Th0  1  0.837658  0.650768  0.250241  1
  Th  Th1  1  0.842314  0.346331  0.749375  1
  Th  Th2  1  0.158691  0.652841  0.751003  1
  U  U3  1  0.163737  0.346837  0.249856  1
  U  U4  1  0.648598  0.844861  0.750723  1
  U  U5  1  0.647369  0.159095  0.250430  1
  U  U6  1  0.351702  0.840889  0.250954  1
  U  U7  1  0.350446  0.156973  0.750991  1
  U  U8  1  0.497983  0.499407  0.638662  1
  U  U9  1  0.000453  0.001059  0.860926  1
  U  U10  1  0.001308  0.002059  0.359265  1
  Se  Se11  1  0.293416  0.589056  0.384534  1
  Se  Se12  1  0.291094  0.410480  0.878123  1
  Se  Se13  1  0.708495  0.588394  0.874226  1
  Se  Se14  1  0.706093  0.410737  0.384991  1
  Se  Se15  1  0.585880  0.289412  0.878899  1
  Se  Se16  1  0.587025  0.710277  0.390815  1
  Se  Se17  1  0.410601  0.289795  0.390147  1
  Se  Se18  1  0.414425  0.710785  0.878787  1
  Se  Se19  1  0.208220  0.914996  0.614683  1
  Se  Se20  1  0.209271  0.088289  0.115779  1
  Se  Se21  1  0.790980  0.913725  0.115438  1
  Se  Se22  1  0.791999  0.084944  0.614606  1
  Se  Se23  1  0.911450  0.207284  0.121152  1
  Se  Se24  1  0.912233  0.793596  0.617912  1
  Se  Se25  1  0.088295  0.207232  0.616872  1
  Se  Se26  1  0.088080  0.793111  0.120972  1
  Se  Se27  1  0.002217  0.499138  0.496766  1
  Se  Se28  1  0.001308  0.497654  0.004841  1
  Se  Se29  1  0.499620  0.000155  0.001427  1
  Se  Se30  1  0.499039  0.999819  0.500608  1
