# generated using pymatgen
data_Tm7Sc3(In2Sb)2
_symmetry_space_group_name_H-M   'P 1'
_cell_length_a   8.77350320
_cell_length_b   8.79819275
_cell_length_c   6.27716021
_cell_angle_alpha   89.92466534
_cell_angle_beta   90.08960610
_cell_angle_gamma   119.84018137
_symmetry_Int_Tables_number   1
_chemical_formula_structural   Tm7Sc3(In2Sb)2
_chemical_formula_sum   'Tm7 Sc3 In4 Sb2'
_cell_volume   420.29758660
_cell_formula_units_Z   1
loop_
 _symmetry_equiv_pos_site_id
 _symmetry_equiv_pos_as_xyz
  1  'x, y, z'
loop_
 _atom_site_type_symbol
 _atom_site_label
 _atom_site_symmetry_multiplicity
 _atom_site_fract_x
 _atom_site_fract_y
 _atom_site_fract_z
 _atom_site_occupancy
  Tm  Tm0  1  0.330982  0.664986  0.496083  1
  Tm  Tm1  1  0.235003  0.999114  0.248963  1
  Tm  Tm2  1  0.763660  0.999914  0.751346  1
  Tm  Tm3  1  0.000258  0.237195  0.249345  1
  Tm  Tm4  1  0.762717  0.762381  0.249360  1
  Tm  Tm5  1  0.238530  0.234969  0.751147  1
  Tm  Tm6  1  0.004303  0.765483  0.751654  1
  Sc  Sc7  1  0.331486  0.664352  0.003792  1
  Sc  Sc8  1  0.666624  0.335679  0.494623  1
  Sc  Sc9  1  0.667470  0.336189  0.004528  1
  In  In10  1  0.597046  0.004185  0.244372  1
  In  In11  1  0.408936  0.003348  0.755460  1
  In  In12  1  0.994596  0.598250  0.245147  1
  In  In13  1  0.399245  0.397409  0.245049  1
  Sb  Sb14  1  0.604345  0.601301  0.754377  1
  Sb  Sb15  1  0.994801  0.395244  0.754754  1
