# generated using pymatgen
data_Lu3ScGa4Ir
_symmetry_space_group_name_H-M   'P 1'
_cell_length_a   7.01235300
_cell_length_b   6.99864472
_cell_length_c   4.28209900
_cell_angle_alpha   90.00000000
_cell_angle_beta   90.00000000
_cell_angle_gamma   120.06480988
_symmetry_Int_Tables_number   1
_chemical_formula_structural   Lu3ScGa4Ir
_chemical_formula_sum   'Lu3 Sc1 Ga4 Ir1'
_cell_volume   181.87837239
_cell_formula_units_Z   1
loop_
 _symmetry_equiv_pos_site_id
 _symmetry_equiv_pos_as_xyz
  1  'x, y, z'
loop_
 _atom_site_type_symbol
 _atom_site_label
 _atom_site_symmetry_multiplicity
 _atom_site_fract_x
 _atom_site_fract_y
 _atom_site_fract_z
 _atom_site_occupancy
  Lu  Lu0  1  0.593862  0.000000  0.500000  1
  Lu  Lu1  1  0.420619  0.421880  0.500000  1
  Lu  Lu2  1  0.998739  0.578120  0.500000  1
  Sc  Sc3  1  0.220569  0.000000  0.000000  1
  Ga  Ga4  1  0.007663  0.250892  0.000000  1
  Ga  Ga5  1  0.669046  0.330014  0.000000  1
  Ga  Ga6  1  0.339031  0.669986  0.000000  1
  Ga  Ga7  1  0.756771  0.749108  0.000000  1
  Ir  Ir8  1  0.993700  0.000000  0.500000  1
