# generated using pymatgen
data_Ho8CuTe3
_symmetry_space_group_name_H-M   'P 1'
_cell_length_a   4.01779900
_cell_length_b   11.51361657
_cell_length_c   21.67025537
_cell_angle_alpha   89.55681416
_cell_angle_beta   90.00000000
_cell_angle_gamma   90.00000000
_symmetry_Int_Tables_number   1
_chemical_formula_structural   Ho8CuTe3
_chemical_formula_sum   'Ho24 Cu3 Te9'
_cell_volume   1002.42296059
_cell_formula_units_Z   3
loop_
 _symmetry_equiv_pos_site_id
 _symmetry_equiv_pos_as_xyz
  1  'x, y, z'
loop_
 _atom_site_type_symbol
 _atom_site_label
 _atom_site_symmetry_multiplicity
 _atom_site_fract_x
 _atom_site_fract_y
 _atom_site_fract_z
 _atom_site_occupancy
  Ho  Ho0  1  0.500000  0.119547  0.025294  1
  Ho  Ho1  1  0.500000  0.375291  0.523433  1
  Ho  Ho2  1  0.000000  0.881075  0.975451  1
  Ho  Ho3  1  0.000000  0.607865  0.464630  1
  Ho  Ho4  1  0.500000  0.612765  0.991999  1
  Ho  Ho5  1  0.500000  0.887061  0.487962  1
  Ho  Ho6  1  0.000000  0.388195  0.009244  1
  Ho  Ho7  1  0.000000  0.111238  0.511615  1
  Ho  Ho8  1  0.500000  0.037266  0.847444  1
  Ho  Ho9  1  0.500000  0.461321  0.345080  1
  Ho  Ho10  1  0.000000  0.962536  0.152868  1
  Ho  Ho11  1  0.000000  0.529667  0.659978  1
  Ho  Ho12  1  0.500000  0.074722  0.646264  1
  Ho  Ho13  1  0.500000  0.429992  0.143412  1
  Ho  Ho14  1  0.000000  0.930105  0.355821  1
  Ho  Ho15  1  0.000000  0.571099  0.857833  1
  Ho  Ho16  1  0.500000  0.749577  0.735214  1
  Ho  Ho17  1  0.500000  0.752005  0.232481  1
  Ho  Ho18  1  0.000000  0.251960  0.265750  1
  Ho  Ho19  1  0.000000  0.248389  0.767495  1
  Ho  Ho20  1  0.500000  0.316286  0.892626  1
  Ho  Ho21  1  0.500000  0.176989  0.391394  1
  Ho  Ho22  1  0.000000  0.682561  0.108817  1
  Ho  Ho23  1  0.000000  0.839027  0.610178  1
  Cu  Cu24  1  0.500000  0.855471  0.075684  1
  Cu  Cu25  1  0.000000  0.355127  0.423636  1
  Cu  Cu26  1  0.000000  0.144535  0.924869  1
  Te  Te27  1  0.500000  0.035519  0.260311  1
  Te  Te28  1  0.500000  0.462844  0.763286  1
  Te  Te29  1  0.000000  0.965905  0.741007  1
  Te  Te30  1  0.000000  0.535955  0.238565  1
  Te  Te31  1  0.500000  0.775350  0.875854  1
  Te  Te32  1  0.500000  0.725402  0.373158  1
  Te  Te33  1  0.000000  0.225372  0.125002  1
  Te  Te34  1  0.000000  0.278497  0.624702  1
  Te  Te35  1  0.500000  0.643485  0.571644  1
