# generated using pymatgen
data_Dy4FeTc7
_symmetry_space_group_name_H-M   'P 1'
_cell_length_a   5.41828323
_cell_length_b   5.41828346
_cell_length_c   8.82434700
_cell_angle_alpha   90.00000000
_cell_angle_beta   90.00000000
_cell_angle_gamma   121.77641951
_symmetry_Int_Tables_number   1
_chemical_formula_structural   Dy4FeTc7
_chemical_formula_sum   'Dy4 Fe1 Tc7'
_cell_volume   220.23222577
_cell_formula_units_Z   1
loop_
 _symmetry_equiv_pos_site_id
 _symmetry_equiv_pos_as_xyz
  1  'x, y, z'
loop_
 _atom_site_type_symbol
 _atom_site_label
 _atom_site_symmetry_multiplicity
 _atom_site_fract_x
 _atom_site_fract_y
 _atom_site_fract_z
 _atom_site_occupancy
  Dy  Dy0  1  0.334682  0.665318  0.436780  1
  Dy  Dy1  1  0.666391  0.333609  0.561622  1
  Dy  Dy2  1  0.666391  0.333609  0.938378  1
  Dy  Dy3  1  0.334682  0.665318  0.063220  1
  Fe  Fe4  1  0.828414  0.171586  0.250000  1
  Tc  Tc5  1  0.002770  0.997230  0.492239  1
  Tc  Tc6  1  0.002770  0.997230  0.007761  1
  Tc  Tc7  1  0.824033  0.658650  0.250000  1
  Tc  Tc8  1  0.341350  0.175967  0.250000  1
  Tc  Tc9  1  0.169000  0.831000  0.750000  1
  Tc  Tc10  1  0.169981  0.340462  0.750000  1
  Tc  Tc11  1  0.659538  0.830019  0.750000  1
