# generated using pymatgen
data_Nd4HgB4Rh9
_symmetry_space_group_name_H-M   'P 1'
_cell_length_a   5.60068500
_cell_length_b   5.60068620
_cell_length_c   21.38108900
_cell_angle_alpha   90.00000000
_cell_angle_beta   90.00000000
_cell_angle_gamma   119.99917193
_symmetry_Int_Tables_number   1
_chemical_formula_structural   Nd4HgB4Rh9
_chemical_formula_sum   'Nd8 Hg2 B8 Rh18'
_cell_volume   580.82655584
_cell_formula_units_Z   2
loop_
 _symmetry_equiv_pos_site_id
 _symmetry_equiv_pos_as_xyz
  1  'x, y, z'
loop_
 _atom_site_type_symbol
 _atom_site_label
 _atom_site_symmetry_multiplicity
 _atom_site_fract_x
 _atom_site_fract_y
 _atom_site_fract_z
 _atom_site_occupancy
  Nd  Nd0  1  0.666669  0.333331  0.525079  1
  Nd  Nd1  1  0.333331  0.666669  0.474921  1
  Nd  Nd2  1  0.333331  0.666669  0.025079  1
  Nd  Nd3  1  0.666669  0.333331  0.974921  1
  Nd  Nd4  1  0.666741  0.333259  0.675653  1
  Nd  Nd5  1  0.333259  0.666741  0.324347  1
  Nd  Nd6  1  0.333259  0.666741  0.175653  1
  Nd  Nd7  1  0.666741  0.333259  0.824347  1
  Hg  Hg8  1  0.000000  0.000000  0.500000  1
  Hg  Hg9  1  0.000000  0.000000  0.000000  1
  B  B10  1  0.000079  0.999921  0.676277  1
  B  B11  1  0.999921  0.000079  0.323723  1
  B  B12  1  0.999921  0.000079  0.176277  1
  B  B13  1  0.000079  0.999921  0.823723  1
  B  B14  1  0.666607  0.333393  0.324012  1
  B  B15  1  0.333393  0.666607  0.675988  1
  B  B16  1  0.333393  0.666607  0.824012  1
  B  B17  1  0.666607  0.333393  0.175988  1
  Rh  Rh18  1  0.166592  0.332956  0.750000  1
  Rh  Rh19  1  0.166559  0.833441  0.750000  1
  Rh  Rh20  1  0.667044  0.833408  0.750000  1
  Rh  Rh21  1  0.833408  0.667044  0.250000  1
  Rh  Rh22  1  0.833441  0.166559  0.250000  1
  Rh  Rh23  1  0.332956  0.166592  0.250000  1
  Rh  Rh24  1  0.167267  0.334332  0.610553  1
  Rh  Rh25  1  0.167255  0.832745  0.610570  1
  Rh  Rh26  1  0.665668  0.832733  0.610553  1
  Rh  Rh27  1  0.832733  0.665668  0.389447  1
  Rh  Rh28  1  0.832745  0.167255  0.389430  1
  Rh  Rh29  1  0.334332  0.167267  0.389447  1
  Rh  Rh30  1  0.832733  0.665668  0.110553  1
  Rh  Rh31  1  0.832745  0.167255  0.110570  1
  Rh  Rh32  1  0.334332  0.167267  0.110553  1
  Rh  Rh33  1  0.167267  0.334332  0.889447  1
  Rh  Rh34  1  0.167255  0.832745  0.889430  1
  Rh  Rh35  1  0.665668  0.832733  0.889447  1
