# generated using pymatgen
data_Pr5(In2Rh)2
_symmetry_space_group_name_H-M   'P 1'
_cell_length_a   3.84591300
_cell_length_b   8.26449300
_cell_length_c   18.77715700
_cell_angle_alpha   90.00000000
_cell_angle_beta   90.00000000
_cell_angle_gamma   90.00000000
_symmetry_Int_Tables_number   1
_chemical_formula_structural   Pr5(In2Rh)2
_chemical_formula_sum   'Pr10 In8 Rh4'
_cell_volume   596.82294225
_cell_formula_units_Z   2
loop_
 _symmetry_equiv_pos_site_id
 _symmetry_equiv_pos_as_xyz
  1  'x, y, z'
loop_
 _atom_site_type_symbol
 _atom_site_label
 _atom_site_symmetry_multiplicity
 _atom_site_fract_x
 _atom_site_fract_y
 _atom_site_fract_z
 _atom_site_occupancy
  Pr  Pr0  1  0.000000  0.116320  0.411836  1
  Pr  Pr1  1  0.000000  0.883680  0.588164  1
  Pr  Pr2  1  0.000000  0.383680  0.911836  1
  Pr  Pr3  1  0.000000  0.616320  0.088164  1
  Pr  Pr4  1  0.000000  0.246080  0.221311  1
  Pr  Pr5  1  0.000000  0.753920  0.778689  1
  Pr  Pr6  1  0.000000  0.253920  0.721311  1
  Pr  Pr7  1  0.000000  0.746080  0.278689  1
  Pr  Pr8  1  0.000000  0.000000  0.000000  1
  Pr  Pr9  1  0.000000  0.500000  0.500000  1
  In  In10  1  0.500000  0.433932  0.349190  1
  In  In11  1  0.500000  0.566068  0.650810  1
  In  In12  1  0.500000  0.066068  0.849190  1
  In  In13  1  0.500000  0.933932  0.150810  1
  In  In14  1  0.500000  0.290636  0.070242  1
  In  In15  1  0.500000  0.709364  0.929758  1
  In  In16  1  0.500000  0.209364  0.570242  1
  In  In17  1  0.500000  0.790636  0.429758  1
  Rh  Rh18  1  0.500000  0.012626  0.305687  1
  Rh  Rh19  1  0.500000  0.987374  0.694313  1
  Rh  Rh20  1  0.500000  0.487374  0.805687  1
  Rh  Rh21  1  0.500000  0.512626  0.194313  1
