# generated using pymatgen
data_Ce2Pr(ZnPt)4
_symmetry_space_group_name_H-M   'P 1'
_cell_length_a   8.34011776
_cell_length_b   8.34011753
_cell_length_c   8.34011783
_cell_angle_alpha   151.98145459
_cell_angle_beta   125.11177450
_cell_angle_gamma   62.74387229
_symmetry_Int_Tables_number   1
_chemical_formula_structural   Ce2Pr(ZnPt)4
_chemical_formula_sum   'Ce2 Pr1 Zn4 Pt4'
_cell_volume   221.04644033
_cell_formula_units_Z   1
loop_
 _symmetry_equiv_pos_site_id
 _symmetry_equiv_pos_as_xyz
  1  'x, y, z'
loop_
 _atom_site_type_symbol
 _atom_site_label
 _atom_site_symmetry_multiplicity
 _atom_site_fract_x
 _atom_site_fract_y
 _atom_site_fract_z
 _atom_site_occupancy
  Ce  Ce0  1  0.874005  0.874005  0.000000  1
  Ce  Ce1  1  0.125995  0.125995  0.000000  1
  Pr  Pr2  1  0.500000  0.000000  0.500000  1
  Zn  Zn3  1  0.476746  0.674301  0.802445  1
  Zn  Zn4  1  0.871856  0.674301  0.197555  1
  Zn  Zn5  1  0.128144  0.325699  0.802445  1
  Zn  Zn6  1  0.523254  0.325699  0.197555  1
  Pt  Pt7  1  0.277232  0.777232  0.500000  1
  Pt  Pt8  1  0.722768  0.222768  0.500000  1
  Pt  Pt9  1  0.809630  0.500000  0.309630  1
  Pt  Pt10  1  0.190370  0.500000  0.690370  1
