# generated using pymatgen
data_Y2Si4Tc7W
_symmetry_space_group_name_H-M   'P 1'
_cell_length_a   7.05016639
_cell_length_b   7.68415907
_cell_length_c   4.18491200
_cell_angle_alpha   90.00000000
_cell_angle_beta   90.00000000
_cell_angle_gamma   89.85808432
_symmetry_Int_Tables_number   1
_chemical_formula_structural   Y2Si4Tc7W
_chemical_formula_sum   'Y2 Si4 Tc7 W1'
_cell_volume   226.71523836
_cell_formula_units_Z   1
loop_
 _symmetry_equiv_pos_site_id
 _symmetry_equiv_pos_as_xyz
  1  'x, y, z'
loop_
 _atom_site_type_symbol
 _atom_site_label
 _atom_site_symmetry_multiplicity
 _atom_site_fract_x
 _atom_site_fract_y
 _atom_site_fract_z
 _atom_site_occupancy
  Y  Y0  1  0.499968  0.497608  0.000000  1
  Y  Y1  1  0.999535  0.998943  0.500000  1
  Si  Si2  1  0.225933  0.805379  0.000000  1
  Si  Si3  1  0.777397  0.196756  0.000000  1
  Si  Si4  1  0.726711  0.690070  0.500000  1
  Si  Si5  1  0.274456  0.305620  0.500000  1
  Tc  Tc6  1  0.153869  0.606849  0.500000  1
  Tc  Tc7  1  0.083221  0.343444  0.000000  1
  Tc  Tc8  1  0.916472  0.658552  0.000000  1
  Tc  Tc9  1  0.419195  0.841178  0.500000  1
  Tc  Tc10  1  0.583560  0.162458  0.500000  1
  Tc  Tc11  1  0.342390  0.108717  0.000000  1
  Tc  Tc12  1  0.849513  0.391709  0.500000  1
  W  W13  1  0.647783  0.892714  0.000000  1
