# generated using pymatgen
data_Y3Pa3Ni20P13
_symmetry_space_group_name_H-M   'P 1'
_cell_length_a   12.66613500
_cell_length_b   12.66613553
_cell_length_c   3.78212900
_cell_angle_alpha   90.00000000
_cell_angle_beta   90.00000000
_cell_angle_gamma   120.00000123
_symmetry_Int_Tables_number   1
_chemical_formula_structural   Y3Pa3Ni20P13
_chemical_formula_sum   'Y3 Pa3 Ni20 P13'
_cell_volume   525.47880933
_cell_formula_units_Z   1
loop_
 _symmetry_equiv_pos_site_id
 _symmetry_equiv_pos_as_xyz
  1  'x, y, z'
loop_
 _atom_site_type_symbol
 _atom_site_label
 _atom_site_symmetry_multiplicity
 _atom_site_fract_x
 _atom_site_fract_y
 _atom_site_fract_z
 _atom_site_occupancy
  Y  Y0  1  0.530775  0.813055  0.000000  1
  Y  Y1  1  0.282280  0.469225  0.000000  1
  Y  Y2  1  0.186945  0.717720  0.000000  1
  Pa  Pa3  1  0.812391  0.279763  0.500000  1
  Pa  Pa4  1  0.467373  0.187609  0.500000  1
  Pa  Pa5  1  0.720237  0.532627  0.500000  1
  Ni  Ni6  1  0.804591  0.912899  0.000000  1
  Ni  Ni7  1  0.108307  0.195409  0.000000  1
  Ni  Ni8  1  0.087101  0.891693  0.000000  1
  Ni  Ni9  1  0.333333  0.666667  0.500000  1
  Ni  Ni10  1  0.930207  0.081615  0.500000  1
  Ni  Ni11  1  0.151408  0.069793  0.500000  1
  Ni  Ni12  1  0.918385  0.848592  0.500000  1
  Ni  Ni13  1  0.666667  0.333333  0.000000  1
  Ni  Ni14  1  0.563300  0.586215  0.000000  1
  Ni  Ni15  1  0.022916  0.436700  0.000000  1
  Ni  Ni16  1  0.413785  0.977084  0.000000  1
  Ni  Ni17  1  0.681961  0.753167  0.500000  1
  Ni  Ni18  1  0.071207  0.318039  0.500000  1
  Ni  Ni19  1  0.246833  0.928793  0.500000  1
  Ni  Ni20  1  0.977217  0.564146  0.500000  1
  Ni  Ni21  1  0.586929  0.022783  0.500000  1
  Ni  Ni22  1  0.435854  0.413071  0.500000  1
  Ni  Ni23  1  0.758166  0.081418  0.000000  1
  Ni  Ni24  1  0.323254  0.241834  0.000000  1
  Ni  Ni25  1  0.918582  0.676746  0.000000  1
  P  P26  1  0.476573  0.613796  0.500000  1
  P  P27  1  0.137223  0.523427  0.500000  1
  P  P28  1  0.386204  0.862777  0.500000  1
  P  P29  1  0.723361  0.955172  0.500000  1
  P  P30  1  0.231811  0.276639  0.500000  1
  P  P31  1  0.044828  0.768189  0.500000  1
  P  P32  1  0.865822  0.476719  0.000000  1
  P  P33  1  0.610897  0.134178  0.000000  1
  P  P34  1  0.523281  0.389103  0.000000  1
  P  P35  1  0.956022  0.233443  0.000000  1
  P  P36  1  0.277422  0.043978  0.000000  1
  P  P37  1  0.766557  0.722578  0.000000  1
  P  P38  1  0.000000  0.000000  0.000000  1
