# generated using pymatgen
data_HfNb(CoP)3
_symmetry_space_group_name_H-M   'P 1'
_cell_length_a   3.57397600
_cell_length_b   9.79234700
_cell_length_c   12.08631100
_cell_angle_alpha   90.00000000
_cell_angle_beta   90.00000000
_cell_angle_gamma   90.00000000
_symmetry_Int_Tables_number   1
_chemical_formula_structural   HfNb(CoP)3
_chemical_formula_sum   'Hf4 Nb4 Co12 P12'
_cell_volume   422.99203693
_cell_formula_units_Z   4
loop_
 _symmetry_equiv_pos_site_id
 _symmetry_equiv_pos_as_xyz
  1  'x, y, z'
loop_
 _atom_site_type_symbol
 _atom_site_label
 _atom_site_symmetry_multiplicity
 _atom_site_fract_x
 _atom_site_fract_y
 _atom_site_fract_z
 _atom_site_occupancy
  Hf  Hf0  1  0.250000  0.425615  0.708765  1
  Hf  Hf1  1  0.250000  0.074385  0.208765  1
  Hf  Hf2  1  0.750000  0.574385  0.291235  1
  Hf  Hf3  1  0.750000  0.925615  0.791235  1
  Nb  Nb4  1  0.250000  0.338911  0.995016  1
  Nb  Nb5  1  0.250000  0.161089  0.495016  1
  Nb  Nb6  1  0.750000  0.661089  0.004984  1
  Nb  Nb7  1  0.750000  0.838911  0.504984  1
  Co  Co8  1  0.250000  0.902706  0.978970  1
  Co  Co9  1  0.250000  0.597294  0.478970  1
  Co  Co10  1  0.750000  0.097294  0.021030  1
  Co  Co11  1  0.750000  0.402706  0.521030  1
  Co  Co12  1  0.250000  0.132286  0.717194  1
  Co  Co13  1  0.250000  0.367714  0.217194  1
  Co  Co14  1  0.750000  0.867714  0.282806  1
  Co  Co15  1  0.750000  0.632286  0.782806  1
  Co  Co16  1  0.250000  0.769219  0.164385  1
  Co  Co17  1  0.250000  0.730781  0.664385  1
  Co  Co18  1  0.750000  0.230781  0.835615  1
  Co  Co19  1  0.750000  0.269219  0.335615  1
  P  P20  1  0.250000  0.105600  0.898704  1
  P  P21  1  0.250000  0.394400  0.398704  1
  P  P22  1  0.750000  0.894400  0.101296  1
  P  P23  1  0.750000  0.605600  0.601296  1
  P  P24  1  0.250000  0.730846  0.853540  1
  P  P25  1  0.250000  0.769154  0.353540  1
  P  P26  1  0.750000  0.269154  0.146460  1
  P  P27  1  0.750000  0.230846  0.646460  1
  P  P28  1  0.250000  0.552022  0.123375  1
  P  P29  1  0.250000  0.947978  0.623375  1
  P  P30  1  0.750000  0.447978  0.876625  1
  P  P31  1  0.750000  0.052022  0.376625  1
