# generated using pymatgen
data_Ho4Si4Ir2OsRh
_symmetry_space_group_name_H-M   'P 1'
_cell_length_a   4.27270100
_cell_length_b   6.88929015
_cell_length_c   7.31079758
_cell_angle_alpha   89.82553636
_cell_angle_beta   90.00000000
_cell_angle_gamma   90.00000000
_symmetry_Int_Tables_number   1
_chemical_formula_structural   Ho4Si4Ir2OsRh
_chemical_formula_sum   'Ho4 Si4 Ir2 Os1 Rh1'
_cell_volume   215.19873999
_cell_formula_units_Z   1
loop_
 _symmetry_equiv_pos_site_id
 _symmetry_equiv_pos_as_xyz
  1  'x, y, z'
loop_
 _atom_site_type_symbol
 _atom_site_label
 _atom_site_symmetry_multiplicity
 _atom_site_fract_x
 _atom_site_fract_y
 _atom_site_fract_z
 _atom_site_occupancy
  Ho  Ho0  1  0.250000  0.495301  0.688362  1
  Ho  Ho1  1  0.750000  0.506987  0.312247  1
  Ho  Ho2  1  0.250000  0.997136  0.814206  1
  Ho  Ho3  1  0.750000  0.003272  0.185490  1
  Si  Si4  1  0.250000  0.298310  0.110071  1
  Si  Si5  1  0.750000  0.701362  0.883467  1
  Si  Si6  1  0.250000  0.799823  0.399159  1
  Si  Si7  1  0.750000  0.199409  0.607666  1
  Ir  Ir8  1  0.250000  0.157717  0.431699  1
  Ir  Ir9  1  0.750000  0.341760  0.933492  1
  Os  Os10  1  0.750000  0.844147  0.566878  1
  Rh  Rh11  1  0.250000  0.654777  0.067264  1
