# generated using pymatgen
data_Nd2PtPbAu
_symmetry_space_group_name_H-M   'P 1'
_cell_length_a   3.73135700
_cell_length_b   8.30476403
_cell_length_c   8.30476285
_cell_angle_alpha   89.66052372
_cell_angle_beta   90.00000000
_cell_angle_gamma   90.00000000
_symmetry_Int_Tables_number   1
_chemical_formula_structural   Nd2PtPbAu
_chemical_formula_sum   'Nd4 Pt2 Pb2 Au2'
_cell_volume   257.34380152
_cell_formula_units_Z   2
loop_
 _symmetry_equiv_pos_site_id
 _symmetry_equiv_pos_as_xyz
  1  'x, y, z'
loop_
 _atom_site_type_symbol
 _atom_site_label
 _atom_site_symmetry_multiplicity
 _atom_site_fract_x
 _atom_site_fract_y
 _atom_site_fract_z
 _atom_site_occupancy
  Nd  Nd0  1  0.500000  0.161534  0.661534  1
  Nd  Nd1  1  0.500000  0.838466  0.338466  1
  Nd  Nd2  1  0.500000  0.320881  0.179119  1
  Nd  Nd3  1  0.500000  0.679119  0.820881  1
  Pt  Pt4  1  0.000000  0.874769  0.625231  1
  Pt  Pt5  1  0.000000  0.125231  0.374769  1
  Pb  Pb6  1  0.000000  0.000000  0.000000  1
  Pb  Pb7  1  0.000000  0.500000  0.500000  1
  Au  Au8  1  0.000000  0.624759  0.124759  1
  Au  Au9  1  0.000000  0.375241  0.875241  1
