# generated using pymatgen
data_Y12InCo4Au
_symmetry_space_group_name_H-M   'P 1'
_cell_length_a   8.44421338
_cell_length_b   8.44421387
_cell_length_c   8.44421432
_cell_angle_alpha   111.01830287
_cell_angle_beta   110.37330764
_cell_angle_gamma   107.04954516
_symmetry_Int_Tables_number   1
_chemical_formula_structural   Y12InCo4Au
_chemical_formula_sum   'Y12 In1 Co4 Au1'
_cell_volume   462.87335229
_cell_formula_units_Z   1
loop_
 _symmetry_equiv_pos_site_id
 _symmetry_equiv_pos_as_xyz
  1  'x, y, z'
loop_
 _atom_site_type_symbol
 _atom_site_label
 _atom_site_symmetry_multiplicity
 _atom_site_fract_x
 _atom_site_fract_y
 _atom_site_fract_z
 _atom_site_occupancy
  Y  Y0  1  0.423114  0.219086  0.204028  1
  Y  Y1  1  0.576886  0.780914  0.795972  1
  Y  Y2  1  0.015058  0.219086  0.795972  1
  Y  Y3  1  0.984942  0.780914  0.204028  1
  Y  Y4  1  0.186112  0.293306  0.479418  1
  Y  Y5  1  0.813888  0.706694  0.520582  1
  Y  Y6  1  0.186112  0.706694  0.892804  1
  Y  Y7  1  0.813888  0.293306  0.107196  1
  Y  Y8  1  0.316056  0.620794  0.304738  1
  Y  Y9  1  0.683944  0.379206  0.695262  1
  Y  Y10  1  0.316056  0.011319  0.695262  1
  Y  Y11  1  0.683944  0.988681  0.304738  1
  In  In12  1  0.500000  0.500000  0.000000  1
  Co  Co13  1  0.381614  0.000000  0.381614  1
  Co  Co14  1  0.618386  0.000000  0.618386  1
  Co  Co15  1  0.110601  0.610601  0.500000  1
  Co  Co16  1  0.889399  0.389399  0.500000  1
  Au  Au17  1  0.000000  0.000000  0.000000  1
