# generated using pymatgen
data_Hf6Sc8Ga8Ir7
_symmetry_space_group_name_H-M   'P 1'
_cell_length_a   9.04401014
_cell_length_b   9.04401036
_cell_length_c   9.04401000
_cell_angle_alpha   59.99999400
_cell_angle_beta   59.99999321
_cell_angle_gamma   59.99999415
_symmetry_Int_Tables_number   1
_chemical_formula_structural   Hf6Sc8Ga8Ir7
_chemical_formula_sum   'Hf6 Sc8 Ga8 Ir7'
_cell_volume   523.07994170
_cell_formula_units_Z   1
loop_
 _symmetry_equiv_pos_site_id
 _symmetry_equiv_pos_as_xyz
  1  'x, y, z'
loop_
 _atom_site_type_symbol
 _atom_site_label
 _atom_site_symmetry_multiplicity
 _atom_site_fract_x
 _atom_site_fract_y
 _atom_site_fract_z
 _atom_site_occupancy
  Hf  Hf0  1  0.677549  0.677549  0.322451  1
  Hf  Hf1  1  0.322451  0.677549  0.322451  1
  Hf  Hf2  1  0.677549  0.322451  0.322451  1
  Hf  Hf3  1  0.322451  0.322451  0.677549  1
  Hf  Hf4  1  0.677549  0.322451  0.677549  1
  Hf  Hf5  1  0.322451  0.677549  0.677549  1
  Sc  Sc6  1  0.875018  0.875018  0.374944  1
  Sc  Sc7  1  0.875018  0.374944  0.875018  1
  Sc  Sc8  1  0.374944  0.875018  0.875018  1
  Sc  Sc9  1  0.875018  0.875018  0.875018  1
  Sc  Sc10  1  0.124982  0.124982  0.625056  1
  Sc  Sc11  1  0.124982  0.625056  0.124982  1
  Sc  Sc12  1  0.625056  0.124982  0.124982  1
  Sc  Sc13  1  0.124982  0.124982  0.124982  1
  Ga  Ga14  1  0.656437  0.656437  0.030689  1
  Ga  Ga15  1  0.656437  0.030689  0.656437  1
  Ga  Ga16  1  0.030689  0.656437  0.656437  1
  Ga  Ga17  1  0.656437  0.656437  0.656437  1
  Ga  Ga18  1  0.343563  0.343563  0.969311  1
  Ga  Ga19  1  0.343563  0.969311  0.343563  1
  Ga  Ga20  1  0.969311  0.343563  0.343563  1
  Ga  Ga21  1  0.343563  0.343563  0.343563  1
  Ir  Ir22  1  0.000000  0.000000  0.000000  1
  Ir  Ir23  1  0.000000  0.000000  0.500000  1
  Ir  Ir24  1  0.500000  0.000000  0.500000  1
  Ir  Ir25  1  0.000000  0.500000  0.500000  1
  Ir  Ir26  1  0.500000  0.500000  0.000000  1
  Ir  Ir27  1  0.000000  0.500000  0.000000  1
  Ir  Ir28  1  0.500000  0.000000  0.000000  1
