# generated using pymatgen
data_Dy16MgHg3PtRh3
_symmetry_space_group_name_H-M   'P 1'
_cell_length_a   9.62577270
_cell_length_b   9.62309380
_cell_length_c   9.63855000
_cell_angle_alpha   59.94686140
_cell_angle_beta   59.95608695
_cell_angle_gamma   59.99405254
_symmetry_Int_Tables_number   1
_chemical_formula_structural   Dy16MgHg3PtRh3
_chemical_formula_sum   'Dy16 Mg1 Hg3 Pt1 Rh3'
_cell_volume   630.82456403
_cell_formula_units_Z   1
loop_
 _symmetry_equiv_pos_site_id
 _symmetry_equiv_pos_as_xyz
  1  'x, y, z'
loop_
 _atom_site_type_symbol
 _atom_site_label
 _atom_site_symmetry_multiplicity
 _atom_site_fract_x
 _atom_site_fract_y
 _atom_site_fract_z
 _atom_site_occupancy
  Dy  Dy0  1  0.063946  0.437384  0.434969  1
  Dy  Dy1  1  0.648542  0.047916  0.651772  1
  Dy  Dy2  1  0.813682  0.810582  0.187869  1
  Dy  Dy3  1  0.437014  0.063595  0.064439  1
  Dy  Dy4  1  0.436037  0.436433  0.063766  1
  Dy  Dy5  1  0.194942  0.188329  0.808364  1
  Dy  Dy6  1  0.813364  0.185945  0.190625  1
  Dy  Dy7  1  0.063946  0.437384  0.063702  1
  Dy  Dy8  1  0.437014  0.063595  0.434953  1
  Dy  Dy9  1  0.061937  0.646426  0.645819  1
  Dy  Dy10  1  0.191104  0.810347  0.808894  1
  Dy  Dy11  1  0.647172  0.652741  0.048916  1
  Dy  Dy12  1  0.191104  0.810347  0.189654  1
  Dy  Dy13  1  0.064332  0.062681  0.436494  1
  Dy  Dy14  1  0.813364  0.185945  0.810066  1
  Dy  Dy15  1  0.647172  0.652741  0.651173  1
  Mg  Mg16  1  0.716139  0.428664  0.427598  1
  Hg  Hg17  1  0.417646  0.412972  0.756923  1
  Hg  Hg18  1  0.417646  0.412972  0.412459  1
  Hg  Hg19  1  0.417726  0.758664  0.411805  1
  Pt  Pt20  1  0.858866  0.429056  0.856039  1
  Rh  Rh21  1  0.427706  0.856266  0.858014  1
  Rh  Rh22  1  0.859799  0.854508  0.429082  1
  Rh  Rh23  1  0.859799  0.854508  0.856609  1
