# generated using pymatgen
data_CeEu5(BN2)6
_symmetry_space_group_name_H-M   'P 1'
_cell_length_a   7.32509380
_cell_length_b   7.32509349
_cell_length_c   7.31167563
_cell_angle_alpha   110.45562582
_cell_angle_beta   110.45562059
_cell_angle_gamma   110.19398001
_symmetry_Int_Tables_number   1
_chemical_formula_structural   CeEu5(BN2)6
_chemical_formula_sum   'Ce1 Eu5 B6 N12'
_cell_volume   291.54569320
_cell_formula_units_Z   1
loop_
 _symmetry_equiv_pos_site_id
 _symmetry_equiv_pos_as_xyz
  1  'x, y, z'
loop_
 _atom_site_type_symbol
 _atom_site_label
 _atom_site_symmetry_multiplicity
 _atom_site_fract_x
 _atom_site_fract_y
 _atom_site_fract_z
 _atom_site_occupancy
  Ce  Ce0  1  0.300557  0.199443  0.750000  1
  Eu  Eu1  1  0.755822  0.301682  0.206815  1
  Eu  Eu2  1  0.198318  0.744178  0.293185  1
  Eu  Eu3  1  0.250503  0.704726  0.803270  1
  Eu  Eu4  1  0.795274  0.249497  0.696730  1
  Eu  Eu5  1  0.699855  0.800145  0.250000  1
  B  B6  1  0.625822  0.874178  0.750000  1
  B  B7  1  0.743601  0.627505  0.866818  1
  B  B8  1  0.872495  0.756399  0.633182  1
  B  B9  1  0.247973  0.364666  0.125399  1
  B  B10  1  0.135334  0.252027  0.374601  1
  B  B11  1  0.374055  0.125945  0.250000  1
  N  N12  1  0.871539  0.628461  0.750000  1
  N  N13  1  0.747950  0.876187  0.628014  1
  N  N14  1  0.623813  0.752050  0.871986  1
  N  N15  1  0.263230  0.134606  0.383701  1
  N  N16  1  0.365394  0.236770  0.116299  1
  N  N17  1  0.128844  0.371156  0.250000  1
  N  N18  1  0.502817  0.997183  0.750000  1
  N  N19  1  0.735295  0.499438  0.983887  1
  N  N20  1  0.000562  0.764705  0.516113  1
  N  N21  1  0.249549  0.483956  0.000982  1
  N  N22  1  0.016044  0.250451  0.499018  1
  N  N23  1  0.495354  0.004646  0.250000  1
