# generated using pymatgen
data_TbPa(SiPt)2
_symmetry_space_group_name_H-M   'P 1'
_cell_length_a   4.31803100
_cell_length_b   7.24962100
_cell_length_c   7.39400500
_cell_angle_alpha   90.00000000
_cell_angle_beta   90.00000000
_cell_angle_gamma   90.00000000
_symmetry_Int_Tables_number   1
_chemical_formula_structural   TbPa(SiPt)2
_chemical_formula_sum   'Tb2 Pa2 Si4 Pt4'
_cell_volume   231.46258479
_cell_formula_units_Z   2
loop_
 _symmetry_equiv_pos_site_id
 _symmetry_equiv_pos_as_xyz
  1  'x, y, z'
loop_
 _atom_site_type_symbol
 _atom_site_label
 _atom_site_symmetry_multiplicity
 _atom_site_fract_x
 _atom_site_fract_y
 _atom_site_fract_z
 _atom_site_occupancy
  Tb  Tb0  1  0.750000  0.003149  0.211760  1
  Tb  Tb1  1  0.750000  0.503149  0.288240  1
  Pa  Pa2  1  0.250000  0.997764  0.794869  1
  Pa  Pa3  1  0.250000  0.497764  0.705131  1
  Si  Si4  1  0.250000  0.776686  0.410223  1
  Si  Si5  1  0.250000  0.276686  0.089777  1
  Si  Si6  1  0.750000  0.188401  0.586975  1
  Si  Si7  1  0.750000  0.688401  0.913025  1
  Pt  Pt8  1  0.250000  0.229008  0.426197  1
  Pt  Pt9  1  0.250000  0.729008  0.073803  1
  Pt  Pt10  1  0.750000  0.804992  0.589789  1
  Pt  Pt11  1  0.750000  0.304992  0.910211  1
