# generated using pymatgen
data_Tb3TmAl18ZnRh5
_symmetry_space_group_name_H-M   'P 1'
_cell_length_a   7.58574675
_cell_length_b   7.58748273
_cell_length_c   9.46380895
_cell_angle_alpha   89.95594316
_cell_angle_beta   90.01665790
_cell_angle_gamma   119.47011889
_symmetry_Int_Tables_number   1
_chemical_formula_structural   Tb3TmAl18ZnRh5
_chemical_formula_sum   'Tb3 Tm1 Al18 Zn1 Rh5'
_cell_volume   474.22749727
_cell_formula_units_Z   1
loop_
 _symmetry_equiv_pos_site_id
 _symmetry_equiv_pos_as_xyz
  1  'x, y, z'
loop_
 _atom_site_type_symbol
 _atom_site_label
 _atom_site_symmetry_multiplicity
 _atom_site_fract_x
 _atom_site_fract_y
 _atom_site_fract_z
 _atom_site_occupancy
  Tb  Tb0  1  0.995195  0.675777  0.248792  1
  Tb  Tb1  1  0.004805  0.324139  0.751358  1
  Tb  Tb2  1  0.675144  0.995152  0.248725  1
  Tm  Tm3  1  0.324346  0.004657  0.750546  1
  Al  Al4  1  0.135785  0.135496  0.257504  1
  Al  Al5  1  0.865599  0.864923  0.742876  1
  Al  Al6  1  0.002586  0.344994  0.078678  1
  Al  Al7  1  0.998557  0.656493  0.920218  1
  Al  Al8  1  0.001725  0.665286  0.573113  1
  Al  Al9  1  0.335746  0.999370  0.429074  1
  Al  Al10  1  0.999312  0.335621  0.428143  1
  Al  Al11  1  0.663436  0.000589  0.572942  1
  Al  Al12  1  0.653999  0.997587  0.919990  1
  Al  Al13  1  0.344481  0.002500  0.077579  1
  Al  Al14  1  0.333129  0.332317  0.551629  1
  Al  Al15  1  0.666980  0.666927  0.449858  1
  Al  Al16  1  0.657446  0.657390  0.056606  1
  Al  Al17  1  0.342284  0.341304  0.941970  1
  Al  Al18  1  0.338790  0.551168  0.251574  1
  Al  Al19  1  0.660257  0.447652  0.748437  1
  Al  Al20  1  0.551089  0.338592  0.251523  1
  Al  Al21  1  0.448738  0.662068  0.748459  1
  Zn  Zn22  1  0.000019  0.999903  0.999930  1
  Rh  Rh23  1  0.671547  0.327974  0.999382  1
  Rh  Rh24  1  0.328393  0.672026  0.999384  1
  Rh  Rh25  1  0.328508  0.671340  0.500420  1
  Rh  Rh26  1  0.671292  0.328508  0.500666  1
  Rh  Rh27  1  0.000813  0.000248  0.500624  1
