# generated using pymatgen
data_TbDy4Tm3Au4
_symmetry_space_group_name_H-M   'P 1'
_cell_length_a   4.90908600
_cell_length_b   7.13473775
_cell_length_c   8.90165191
_cell_angle_alpha   90.09181424
_cell_angle_beta   90.00000000
_cell_angle_gamma   90.00000000
_symmetry_Int_Tables_number   1
_chemical_formula_structural   TbDy4Tm3Au4
_chemical_formula_sum   'Tb1 Dy4 Tm3 Au4'
_cell_volume   311.78032472
_cell_formula_units_Z   1
loop_
 _symmetry_equiv_pos_site_id
 _symmetry_equiv_pos_as_xyz
  1  'x, y, z'
loop_
 _atom_site_type_symbol
 _atom_site_label
 _atom_site_symmetry_multiplicity
 _atom_site_fract_x
 _atom_site_fract_y
 _atom_site_fract_z
 _atom_site_occupancy
  Tb  Tb0  1  0.250000  0.987483  0.323534  1
  Dy  Dy1  1  0.750000  0.647913  0.419424  1
  Dy  Dy2  1  0.250000  0.484960  0.176166  1
  Dy  Dy3  1  0.750000  0.514341  0.823460  1
  Dy  Dy4  1  0.750000  0.015012  0.677522  1
  Tm  Tm5  1  0.250000  0.851940  0.920861  1
  Tm  Tm6  1  0.250000  0.352448  0.580699  1
  Tm  Tm7  1  0.750000  0.148429  0.078583  1
  Au  Au8  1  0.250000  0.253007  0.899781  1
  Au  Au9  1  0.250000  0.754094  0.602982  1
  Au  Au10  1  0.750000  0.746932  0.097008  1
  Au  Au11  1  0.750000  0.243440  0.399981  1
