# generated using pymatgen
data_Pr2URu2
_symmetry_space_group_name_H-M   'P 1'
_cell_length_a   6.16408118
_cell_length_b   6.16408177
_cell_length_c   6.16408145
_cell_angle_alpha   140.62988938
_cell_angle_beta   122.36898251
_cell_angle_gamma   72.03510226
_symmetry_Int_Tables_number   1
_chemical_formula_structural   Pr2URu2
_chemical_formula_sum   'Pr2 U1 Ru2'
_cell_volume   123.02715873
_cell_formula_units_Z   1
loop_
 _symmetry_equiv_pos_site_id
 _symmetry_equiv_pos_as_xyz
  1  'x, y, z'
loop_
 _atom_site_type_symbol
 _atom_site_label
 _atom_site_symmetry_multiplicity
 _atom_site_fract_x
 _atom_site_fract_y
 _atom_site_fract_z
 _atom_site_occupancy
  Pr  Pr0  1  0.695815  0.195815  0.500000  1
  Pr  Pr1  1  0.304185  0.804184  0.500000  1
  U  U2  1  0.000000  0.000000  0.000000  1
  Ru  Ru3  1  0.762792  0.500000  0.262792  1
  Ru  Ru4  1  0.237208  0.500000  0.737207  1
