# generated using pymatgen
data_Dy5Er6TmNi4
_symmetry_space_group_name_H-M   'P 1'
_cell_length_a   6.32390964
_cell_length_b   6.80002722
_cell_length_c   9.48280925
_cell_angle_alpha   89.98275070
_cell_angle_beta   90.04106232
_cell_angle_gamma   90.02339940
_symmetry_Int_Tables_number   1
_chemical_formula_structural   Dy5Er6TmNi4
_chemical_formula_sum   'Dy5 Er6 Tm1 Ni4'
_cell_volume   407.78679150
_cell_formula_units_Z   1
loop_
 _symmetry_equiv_pos_site_id
 _symmetry_equiv_pos_as_xyz
  1  'x, y, z'
loop_
 _atom_site_type_symbol
 _atom_site_label
 _atom_site_symmetry_multiplicity
 _atom_site_fract_x
 _atom_site_fract_y
 _atom_site_fract_z
 _atom_site_occupancy
  Dy  Dy0  1  0.179393  0.178331  0.434626  1
  Dy  Dy1  1  0.861413  0.532259  0.249826  1
  Dy  Dy2  1  0.638281  0.031806  0.249595  1
  Dy  Dy3  1  0.138058  0.468041  0.750182  1
  Dy  Dy4  1  0.361773  0.967747  0.750286  1
  Er  Er5  1  0.678918  0.321917  0.566206  1
  Er  Er6  1  0.820865  0.821599  0.934155  1
  Er  Er7  1  0.679033  0.321835  0.934126  1
  Er  Er8  1  0.820645  0.821665  0.565991  1
  Er  Er9  1  0.321195  0.678238  0.434077  1
  Er  Er10  1  0.179213  0.178316  0.065440  1
  Tm  Tm11  1  0.320911  0.678213  0.065942  1
  Ni  Ni12  1  0.056229  0.891432  0.249594  1
  Ni  Ni13  1  0.444203  0.392580  0.249662  1
  Ni  Ni14  1  0.943562  0.108024  0.750315  1
  Ni  Ni15  1  0.556308  0.607996  0.749977  1
