# generated using pymatgen
data_Tb3ZnCd2HgAu2
_symmetry_space_group_name_H-M   'P 1'
_cell_length_a   7.89658800
_cell_length_b   7.86987515
_cell_length_c   3.82481800
_cell_angle_alpha   90.00000000
_cell_angle_beta   90.00000000
_cell_angle_gamma   120.11234676
_symmetry_Int_Tables_number   1
_chemical_formula_structural   Tb3ZnCd2HgAu2
_chemical_formula_sum   'Tb3 Zn1 Cd2 Hg1 Au2'
_cell_volume   205.61555110
_cell_formula_units_Z   1
loop_
 _symmetry_equiv_pos_site_id
 _symmetry_equiv_pos_as_xyz
  1  'x, y, z'
loop_
 _atom_site_type_symbol
 _atom_site_label
 _atom_site_symmetry_multiplicity
 _atom_site_fract_x
 _atom_site_fract_y
 _atom_site_fract_z
 _atom_site_occupancy
  Tb  Tb0  1  0.584676  0.000000  0.000000  1
  Tb  Tb1  1  0.004430  0.594824  0.000000  1
  Tb  Tb2  1  0.409606  0.405176  0.000000  1
  Zn  Zn3  1  0.996680  0.000000  0.000000  1
  Cd  Cd4  1  0.997190  0.254443  0.500000  1
  Cd  Cd5  1  0.742747  0.745557  0.500000  1
  Hg  Hg6  1  0.257059  0.000000  0.500000  1
  Au  Au7  1  0.334452  0.661293  0.500000  1
  Au  Au8  1  0.673160  0.338707  0.500000  1
