# generated using pymatgen
data_La5Tm3(SiI6)2
_symmetry_space_group_name_H-M   'P 1'
_cell_length_a   4.35641200
_cell_length_b   14.33323697
_cell_length_c   15.15489925
_cell_angle_alpha   89.32067148
_cell_angle_beta   90.00000000
_cell_angle_gamma   90.00000000
_symmetry_Int_Tables_number   1
_chemical_formula_structural   La5Tm3(SiI6)2
_chemical_formula_sum   'La5 Tm3 Si2 I12'
_cell_volume   946.22790950
_cell_formula_units_Z   1
loop_
 _symmetry_equiv_pos_site_id
 _symmetry_equiv_pos_as_xyz
  1  'x, y, z'
loop_
 _atom_site_type_symbol
 _atom_site_label
 _atom_site_symmetry_multiplicity
 _atom_site_fract_x
 _atom_site_fract_y
 _atom_site_fract_z
 _atom_site_occupancy
  La  La0  1  0.500000  0.116251  0.339432  1
  La  La1  1  0.500000  0.876454  0.656257  1
  La  La2  1  0.500000  0.619802  0.157387  1
  La  La3  1  0.500000  0.384436  0.846365  1
  La  La4  1  0.000000  0.110336  0.575170  1
  Tm  Tm5  1  0.000000  0.891533  0.426992  1
  Tm  Tm6  1  0.000000  0.605252  0.930299  1
  Tm  Tm7  1  0.000000  0.396288  0.071708  1
  Si  Si8  1  0.500000  0.994968  0.496897  1
  Si  Si9  1  0.500000  0.501512  0.002120  1
  I  I10  1  0.500000  0.260285  0.158633  1
  I  I11  1  0.500000  0.738951  0.840965  1
  I  I12  1  0.500000  0.757158  0.339255  1
  I  I13  1  0.500000  0.257325  0.663833  1
  I  I14  1  0.000000  0.263752  0.413253  1
  I  I15  1  0.000000  0.736048  0.572791  1
  I  I16  1  0.000000  0.761351  0.071936  1
  I  I17  1  0.000000  0.240449  0.928659  1
  I  I18  1  0.000000  0.988069  0.240188  1
  I  I19  1  0.000000  0.997186  0.766181  1
  I  I20  1  0.000000  0.489181  0.256964  1
  I  I21  1  0.000000  0.513411  0.744715  1
