# generated using pymatgen
data_YbWF6
_symmetry_space_group_name_H-M   'P 1'
_cell_length_a   5.98110382
_cell_length_b   5.98110474
_cell_length_c   5.98110501
_cell_angle_alpha   56.61088804
_cell_angle_beta   56.61088699
_cell_angle_gamma   56.61088821
_symmetry_Int_Tables_number   1
_chemical_formula_structural   YbWF6
_chemical_formula_sum   'Yb1 W1 F6'
_cell_volume   139.45111153
_cell_formula_units_Z   1
loop_
 _symmetry_equiv_pos_site_id
 _symmetry_equiv_pos_as_xyz
  1  'x, y, z'
loop_
 _atom_site_type_symbol
 _atom_site_label
 _atom_site_symmetry_multiplicity
 _atom_site_fract_x
 _atom_site_fract_y
 _atom_site_fract_z
 _atom_site_occupancy
  Yb  Yb0  1  0.500000  0.500000  0.500000  1
  W  W1  1  0.000000  0.000000  0.000000  1
  F  F2  1  0.672336  0.854370  0.231630  1
  F  F3  1  0.854370  0.231630  0.672336  1
  F  F4  1  0.768370  0.327664  0.145630  1
  F  F5  1  0.145630  0.768370  0.327664  1
  F  F6  1  0.327664  0.145630  0.768370  1
  F  F7  1  0.231630  0.672336  0.854370  1
