# generated using pymatgen
data_Tb2HoZn3Ge2Pd
_symmetry_space_group_name_H-M   'P 1'
_cell_length_a   6.90371316
_cell_length_b   6.92704976
_cell_length_c   4.30722900
_cell_angle_alpha   90.00000000
_cell_angle_beta   90.00000000
_cell_angle_gamma   120.11189196
_symmetry_Int_Tables_number   1
_chemical_formula_structural   Tb2HoZn3Ge2Pd
_chemical_formula_sum   'Tb2 Ho1 Zn3 Ge2 Pd1'
_cell_volume   178.18406789
_cell_formula_units_Z   1
loop_
 _symmetry_equiv_pos_site_id
 _symmetry_equiv_pos_as_xyz
  1  'x, y, z'
loop_
 _atom_site_type_symbol
 _atom_site_label
 _atom_site_symmetry_multiplicity
 _atom_site_fract_x
 _atom_site_fract_y
 _atom_site_fract_z
 _atom_site_occupancy
  Tb  Tb0  1  0.414517  0.414472  0.000000  1
  Tb  Tb1  1  0.585483  0.999955  0.000000  1
  Ho  Ho2  1  0.000000  0.585595  0.000000  1
  Zn  Zn3  1  0.764896  0.764082  0.500000  1
  Zn  Zn4  1  0.235104  0.999185  0.500000  1
  Zn  Zn5  1  0.000000  0.236128  0.500000  1
  Ge  Ge6  1  0.668040  0.334528  0.500000  1
  Ge  Ge7  1  0.331960  0.666489  0.500000  1
  Pd  Pd8  1  0.000000  0.999565  0.000000  1
