# generated using pymatgen
data_TbZr2F11
_symmetry_space_group_name_H-M   'P 1'
_cell_length_a   8.35493746
_cell_length_b   8.35493711
_cell_length_c   8.35493801
_cell_angle_alpha   123.89753732
_cell_angle_beta   106.17768727
_cell_angle_gamma   99.42017871
_symmetry_Int_Tables_number   1
_chemical_formula_structural   TbZr2F11
_chemical_formula_sum   'Tb2 Zr4 F22'
_cell_volume   426.05859044
_cell_formula_units_Z   2
loop_
 _symmetry_equiv_pos_site_id
 _symmetry_equiv_pos_as_xyz
  1  'x, y, z'
loop_
 _atom_site_type_symbol
 _atom_site_label
 _atom_site_symmetry_multiplicity
 _atom_site_fract_x
 _atom_site_fract_y
 _atom_site_fract_z
 _atom_site_occupancy
  Tb  Tb0  1  0.250000  0.750000  0.500000  1
  Tb  Tb1  1  0.750000  0.250000  0.500000  1
  Zr  Zr2  1  0.181432  0.136924  0.318356  1
  Zr  Zr3  1  0.818568  0.863076  0.681644  1
  Zr  Zr4  1  0.681432  0.363076  0.044507  1
  Zr  Zr5  1  0.318568  0.636924  0.955493  1
  F  F6  1  0.207844  0.403254  0.345200  1
  F  F7  1  0.792156  0.596746  0.654800  1
  F  F8  1  0.058055  0.862644  0.654800  1
  F  F9  1  0.441945  0.096746  0.804589  1
  F  F10  1  0.941945  0.137356  0.345200  1
  F  F11  1  0.558055  0.903254  0.195411  1
  F  F12  1  0.292156  0.637356  0.195411  1
  F  F13  1  0.707844  0.362644  0.804589  1
  F  F14  1  0.000000  0.000000  0.000000  1
  F  F15  1  0.500000  0.500000  0.000000  1
  F  F16  1  0.282480  0.371190  0.653670  1
  F  F17  1  0.717520  0.628810  0.346330  1
  F  F18  1  0.782480  0.128810  0.911290  1
  F  F19  1  0.217520  0.871190  0.088710  1
  F  F20  1  0.459555  0.239038  0.419801  1
  F  F21  1  0.540445  0.760962  0.580199  1
  F  F22  1  0.819237  0.039754  0.580199  1
  F  F23  1  0.680763  0.260962  0.220517  1
  F  F24  1  0.180763  0.960246  0.419801  1
  F  F25  1  0.319237  0.739038  0.779483  1
  F  F26  1  0.040445  0.460246  0.779483  1
  F  F27  1  0.959555  0.539754  0.220517  1
