# generated using pymatgen
data_Yb3(PRh)2
_symmetry_space_group_name_H-M   'P 1'
_cell_length_a   5.43788100
_cell_length_b   7.68622300
_cell_length_c   12.95126300
_cell_angle_alpha   90.00000000
_cell_angle_beta   90.00000000
_cell_angle_gamma   90.00000000
_symmetry_Int_Tables_number   1
_chemical_formula_structural   Yb3(PRh)2
_chemical_formula_sum   'Yb12 P8 Rh8'
_cell_volume   541.32090919
_cell_formula_units_Z   4
loop_
 _symmetry_equiv_pos_site_id
 _symmetry_equiv_pos_as_xyz
  1  'x, y, z'
loop_
 _atom_site_type_symbol
 _atom_site_label
 _atom_site_symmetry_multiplicity
 _atom_site_fract_x
 _atom_site_fract_y
 _atom_site_fract_z
 _atom_site_occupancy
  Yb  Yb0  1  0.638619  0.249428  0.250000  1
  Yb  Yb1  1  0.361381  0.750572  0.750000  1
  Yb  Yb2  1  0.361381  0.749428  0.250000  1
  Yb  Yb3  1  0.638619  0.250572  0.750000  1
  Yb  Yb4  1  0.139661  0.390176  0.102835  1
  Yb  Yb5  1  0.860339  0.609824  0.897165  1
  Yb  Yb6  1  0.860339  0.609824  0.602835  1
  Yb  Yb7  1  0.860339  0.890176  0.397165  1
  Yb  Yb8  1  0.139661  0.390176  0.397165  1
  Yb  Yb9  1  0.139661  0.109824  0.602835  1
  Yb  Yb10  1  0.139661  0.109824  0.897165  1
  Yb  Yb11  1  0.860339  0.890176  0.102835  1
  P  P12  1  0.149974  0.100320  0.250000  1
  P  P13  1  0.850026  0.899680  0.750000  1
  P  P14  1  0.850026  0.600320  0.250000  1
  P  P15  1  0.149974  0.399680  0.750000  1
  P  P16  1  0.606675  0.250000  0.000000  1
  P  P17  1  0.393325  0.750000  0.000000  1
  P  P18  1  0.393325  0.750000  0.500000  1
  P  P19  1  0.606675  0.250000  0.500000  1
  Rh  Rh20  1  0.366982  0.026912  0.088528  1
  Rh  Rh21  1  0.633018  0.973088  0.911472  1
  Rh  Rh22  1  0.633018  0.973088  0.588528  1
  Rh  Rh23  1  0.633018  0.526912  0.411472  1
  Rh  Rh24  1  0.366982  0.026912  0.411472  1
  Rh  Rh25  1  0.366982  0.473088  0.588528  1
  Rh  Rh26  1  0.366982  0.473088  0.911472  1
  Rh  Rh27  1  0.633018  0.526912  0.088528  1
