# generated using pymatgen
data_Li28Yb2Si7Ge
_symmetry_space_group_name_H-M   'P 1'
_cell_length_a   9.40648221
_cell_length_b   9.41134421
_cell_length_c   9.40751021
_cell_angle_alpha   110.02595368
_cell_angle_beta   109.98504630
_cell_angle_gamma   108.37662013
_symmetry_Int_Tables_number   1
_chemical_formula_structural   Li28Yb2Si7Ge
_chemical_formula_sum   'Li28 Yb2 Si7 Ge1'
_cell_volume   641.18563202
_cell_formula_units_Z   1
loop_
 _symmetry_equiv_pos_site_id
 _symmetry_equiv_pos_as_xyz
  1  'x, y, z'
loop_
 _atom_site_type_symbol
 _atom_site_label
 _atom_site_symmetry_multiplicity
 _atom_site_fract_x
 _atom_site_fract_y
 _atom_site_fract_z
 _atom_site_occupancy
  Li  Li0  1  0.066689  0.542225  0.278792  1
  Li  Li1  1  0.263714  0.788952  0.720922  1
  Li  Li2  1  0.182347  0.961068  0.974514  1
  Li  Li3  1  0.985145  0.206338  0.024464  1
  Li  Li4  1  0.038858  0.013827  0.221442  1
  Li  Li5  1  0.792317  0.817450  0.778589  1
  Li  Li6  1  0.458744  0.737140  0.526658  1
  Li  Li7  1  0.211211  0.932531  0.474583  1
  Li  Li8  1  0.724095  0.337695  0.062924  1
  Li  Li9  1  0.974375  0.411455  0.885275  1
  Li  Li10  1  0.274948  0.662098  0.935611  1
  Li  Li11  1  0.525709  0.088482  0.113647  1
  Li  Li12  1  0.696224  0.867877  0.088396  1
  Li  Li13  1  0.471072  0.882964  0.329157  1
  Li  Li14  1  0.553180  0.141665  0.671793  1
  Li  Li15  1  0.779454  0.608142  0.911700  1
  Li  Li16  1  0.857545  0.529952  0.411238  1
  Li  Li17  1  0.392375  0.302131  0.171750  1
  Li  Li18  1  0.131260  0.218588  0.826728  1
  Li  Li19  1  0.118360  0.446753  0.588716  1
  Li  Li20  1  0.910756  0.024640  0.436328  1
  Li  Li21  1  0.339324  0.275922  0.614211  1
  Li  Li22  1  0.587973  0.474602  0.563359  1
  Li  Li23  1  0.664195  0.726598  0.387598  1
  Li  Li24  1  0.006315  0.875042  0.630777  1
  Li  Li25  1  0.244125  0.374448  0.369873  1
  Li  Li26  1  0.124273  0.756498  0.130473  1
  Li  Li27  1  0.624680  0.994118  0.869468  1
  Yb  Yb28  1  0.499775  0.500191  0.000607  1
  Yb  Yb29  1  0.749981  0.250282  0.500076  1
  Si  Si30  1  0.370455  0.119448  0.830612  1
  Si  Si31  1  0.960770  0.630574  0.750584  1
  Si  Si32  1  0.879606  0.209956  0.249222  1
  Si  Si33  1  0.369362  0.120218  0.330508  1
  Si  Si34  1  0.789963  0.039440  0.669787  1
  Si  Si35  1  0.460064  0.629577  0.749552  1
  Si  Si36  1  0.880411  0.710914  0.250680  1
  Ge  Ge37  1  0.290351  0.540194  0.169391  1
