# generated using pymatgen
data_RbScCr2O8
_symmetry_space_group_name_H-M   'P 1'
_cell_length_a   5.64035200
_cell_length_b   5.64035190
_cell_length_c   7.83341800
_cell_angle_alpha   90.00000000
_cell_angle_beta   90.00000000
_cell_angle_gamma   120.00000060
_symmetry_Int_Tables_number   1
_chemical_formula_structural   RbScCr2O8
_chemical_formula_sum   'Rb1 Sc1 Cr2 O8'
_cell_volume   215.82131723
_cell_formula_units_Z   1
loop_
 _symmetry_equiv_pos_site_id
 _symmetry_equiv_pos_as_xyz
  1  'x, y, z'
loop_
 _atom_site_type_symbol
 _atom_site_label
 _atom_site_symmetry_multiplicity
 _atom_site_fract_x
 _atom_site_fract_y
 _atom_site_fract_z
 _atom_site_occupancy
  Rb  Rb0  1  0.000000  0.000000  0.500000  1
  Sc  Sc1  1  0.000000  0.000000  0.000000  1
  Cr  Cr2  1  0.666667  0.333334  0.232241  1
  Cr  Cr3  1  0.333333  0.666666  0.767759  1
  O  O4  1  0.341789  0.170895  0.163043  1
  O  O5  1  0.829106  0.170895  0.163043  1
  O  O6  1  0.829105  0.658210  0.163043  1
  O  O7  1  0.666667  0.333334  0.439417  1
  O  O8  1  0.333333  0.666666  0.560583  1
  O  O9  1  0.170895  0.341790  0.836956  1
  O  O10  1  0.170894  0.829104  0.836956  1
  O  O11  1  0.658211  0.829104  0.836956  1
