# generated using pymatgen
data_Pr3Nd3Ho2(CdIr)2
_symmetry_space_group_name_H-M   'P 1'
_cell_length_a   9.91413905
_cell_length_b   9.89734055
_cell_length_c   9.89734028
_cell_angle_alpha   60.11232288
_cell_angle_beta   59.94383476
_cell_angle_gamma   59.94383847
_symmetry_Int_Tables_number   1
_chemical_formula_structural   Pr3Nd3Ho2(CdIr)2
_chemical_formula_sum   'Pr6 Nd6 Ho4 Cd4 Ir4'
_cell_volume   686.71179085
_cell_formula_units_Z   2
loop_
 _symmetry_equiv_pos_site_id
 _symmetry_equiv_pos_as_xyz
  1  'x, y, z'
loop_
 _atom_site_type_symbol
 _atom_site_label
 _atom_site_symmetry_multiplicity
 _atom_site_fract_x
 _atom_site_fract_y
 _atom_site_fract_z
 _atom_site_occupancy
  Pr  Pr0  1  0.939958  0.560042  0.560042  1
  Pr  Pr1  1  0.560042  0.939958  0.939958  1
  Pr  Pr2  1  0.559760  0.940240  0.559760  1
  Pr  Pr3  1  0.940240  0.559760  0.940240  1
  Pr  Pr4  1  0.559760  0.559760  0.940240  1
  Pr  Pr5  1  0.940240  0.940240  0.559760  1
  Nd  Nd6  1  0.346904  0.350603  0.350603  1
  Nd  Nd7  1  0.350603  0.346904  0.951890  1
  Nd  Nd8  1  0.350603  0.951890  0.346904  1
  Nd  Nd9  1  0.951890  0.350603  0.350603  1
  Nd  Nd10  1  0.814109  0.185891  0.185891  1
  Nd  Nd11  1  0.185891  0.814109  0.814109  1
  Ho  Ho12  1  0.187966  0.812034  0.187966  1
  Ho  Ho13  1  0.812034  0.187966  0.812034  1
  Ho  Ho14  1  0.187966  0.187966  0.812034  1
  Ho  Ho15  1  0.812034  0.812034  0.187966  1
  Cd  Cd16  1  0.580735  0.579097  0.579097  1
  Cd  Cd17  1  0.579097  0.580735  0.261069  1
  Cd  Cd18  1  0.579097  0.261069  0.580735  1
  Cd  Cd19  1  0.261069  0.579097  0.579097  1
  Ir  Ir20  1  0.144031  0.137979  0.137979  1
  Ir  Ir21  1  0.137979  0.144031  0.580012  1
  Ir  Ir22  1  0.137979  0.580012  0.144031  1
  Ir  Ir23  1  0.580012  0.137979  0.137979  1
