# generated using pymatgen
data_Sr2Li3TmPt3
_symmetry_space_group_name_H-M   'P 1'
_cell_length_a   7.42159304
_cell_length_b   7.44310669
_cell_length_c   4.15357000
_cell_angle_alpha   90.00000000
_cell_angle_beta   90.00000000
_cell_angle_gamma   120.09590913
_symmetry_Int_Tables_number   1
_chemical_formula_structural   Sr2Li3TmPt3
_chemical_formula_sum   'Sr2 Li3 Tm1 Pt3'
_cell_volume   198.51028516
_cell_formula_units_Z   1
loop_
 _symmetry_equiv_pos_site_id
 _symmetry_equiv_pos_as_xyz
  1  'x, y, z'
loop_
 _atom_site_type_symbol
 _atom_site_label
 _atom_site_symmetry_multiplicity
 _atom_site_fract_x
 _atom_site_fract_y
 _atom_site_fract_z
 _atom_site_occupancy
  Sr  Sr0  1  0.414925  0.417434  0.000000  1
  Sr  Sr1  1  0.585075  0.002510  0.000000  1
  Li  Li2  1  0.776950  0.764250  0.500000  1
  Li  Li3  1  0.223050  0.987301  0.500000  1
  Li  Li4  1  0.000000  0.233596  0.500000  1
  Tm  Tm5  1  0.000000  0.597174  0.000000  1
  Pt  Pt6  1  0.000000  0.975688  0.000000  1
  Pt  Pt7  1  0.712503  0.367273  0.500000  1
  Pt  Pt8  1  0.287497  0.654771  0.500000  1
