# generated using pymatgen
data_Er4Al24Pt8Rh
_symmetry_space_group_name_H-M   'P 1'
_cell_length_a   7.50544717
_cell_length_b   7.50560899
_cell_length_c   13.13647719
_cell_angle_alpha   84.55695990
_cell_angle_beta   100.88459242
_cell_angle_gamma   119.78733474
_symmetry_Int_Tables_number   1
_chemical_formula_structural   Er4Al24Pt8Rh
_chemical_formula_sum   'Er4 Al24 Pt8 Rh1'
_cell_volume   630.68734857
_cell_formula_units_Z   1
loop_
 _symmetry_equiv_pos_site_id
 _symmetry_equiv_pos_as_xyz
  1  'x, y, z'
loop_
 _atom_site_type_symbol
 _atom_site_label
 _atom_site_symmetry_multiplicity
 _atom_site_fract_x
 _atom_site_fract_y
 _atom_site_fract_z
 _atom_site_occupancy
  Er  Er0  1  0.732806  0.998712  0.191498  1
  Er  Er1  1  0.267194  0.001288  0.808502  1
  Er  Er2  1  0.062256  0.668715  0.191545  1
  Er  Er3  1  0.937744  0.331285  0.808455  1
  Al  Al4  1  0.810350  0.871190  0.817799  1
  Al  Al5  1  0.189650  0.128810  0.182201  1
  Al  Al6  1  0.982344  0.669630  0.944984  1
  Al  Al7  1  0.017656  0.330370  0.055016  1
  Al  Al8  1  0.398071  0.663763  0.816876  1
  Al  Al9  1  0.601929  0.336237  0.183124  1
  Al  Al10  1  0.882450  0.665107  0.671706  1
  Al  Al11  1  0.117550  0.334893  0.328294  1
  Al  Al12  1  0.602832  0.457961  0.816463  1
  Al  Al13  1  0.397168  0.542039  0.183537  1
  Al  Al14  1  0.229983  0.339447  0.669881  1
  Al  Al15  1  0.770017  0.660553  0.330119  1
  Al  Al16  1  0.853022  0.333164  0.558921  1
  Al  Al17  1  0.185726  0.999290  0.558933  1
  Al  Al18  1  0.814274  0.000710  0.441067  1
  Al  Al19  1  0.348688  0.998970  0.055052  1
  Al  Al20  1  0.651312  0.001030  0.944948  1
  Al  Al21  1  0.556315  0.993044  0.671820  1
  Al  Al22  1  0.443685  0.006956  0.328180  1
  Al  Al23  1  0.521103  0.667717  0.561819  1
  Al  Al24  1  0.478897  0.332283  0.438181  1
  Al  Al25  1  0.687810  0.672442  0.046264  1
  Al  Al26  1  0.312190  0.327558  0.953736  1
  Al  Al27  1  0.146978  0.666836  0.441079  1
  Pt  Pt28  1  0.328452  0.671599  0.000080  1
  Pt  Pt29  1  0.545923  0.324589  0.637212  1
  Pt  Pt30  1  0.454077  0.675411  0.362788  1
  Pt  Pt31  1  0.887739  0.007993  0.638675  1
  Pt  Pt32  1  0.112261  0.992007  0.361325  1
  Pt  Pt33  1  0.671548  0.328401  0.999920  1
  Pt  Pt34  1  0.203891  0.666715  0.638582  1
  Pt  Pt35  1  0.796109  0.333285  0.361418  1
  Rh  Rh36  1  0.000000  0.000000  0.000000  1
