# generated using pymatgen
data_Ho3Al12Os3Pt
_symmetry_space_group_name_H-M   'P 1'
_cell_length_a   8.79083200
_cell_length_b   8.84353779
_cell_length_c   9.56515321
_cell_angle_alpha   89.93118332
_cell_angle_beta   90.00000000
_cell_angle_gamma   119.80304617
_symmetry_Int_Tables_number   1
_chemical_formula_structural   Ho3Al12Os3Pt
_chemical_formula_sum   'Ho6 Al24 Os6 Pt2'
_cell_volume   645.26285165
_cell_formula_units_Z   2
loop_
 _symmetry_equiv_pos_site_id
 _symmetry_equiv_pos_as_xyz
  1  'x, y, z'
loop_
 _atom_site_type_symbol
 _atom_site_label
 _atom_site_symmetry_multiplicity
 _atom_site_fract_x
 _atom_site_fract_y
 _atom_site_fract_z
 _atom_site_occupancy
  Ho  Ho0  1  0.192880  0.385760  0.253275  1
  Ho  Ho1  1  0.807120  0.614240  0.746725  1
  Ho  Ho2  1  0.611818  0.808946  0.252999  1
  Ho  Ho3  1  0.388182  0.191054  0.747001  1
  Ho  Ho4  1  0.197128  0.808946  0.252999  1
  Ho  Ho5  1  0.802872  0.191054  0.747001  1
  Al  Al6  1  0.335668  0.671336  0.025651  1
  Al  Al7  1  0.664332  0.328664  0.974349  1
  Al  Al8  1  0.666590  0.333178  0.522863  1
  Al  Al9  1  0.333410  0.666822  0.477137  1
  Al  Al10  1  0.163573  0.327146  0.575120  1
  Al  Al11  1  0.836427  0.672854  0.424880  1
  Al  Al12  1  0.672053  0.835357  0.576068  1
  Al  Al13  1  0.838233  0.676467  0.079141  1
  Al  Al14  1  0.327947  0.164643  0.423932  1
  Al  Al15  1  0.161767  0.323533  0.920859  1
  Al  Al16  1  0.163304  0.835357  0.576068  1
  Al  Al17  1  0.325781  0.158397  0.078562  1
  Al  Al18  1  0.836696  0.164643  0.423932  1
  Al  Al19  1  0.674219  0.841603  0.921438  1
  Al  Al20  1  0.832616  0.158397  0.078562  1
  Al  Al21  1  0.167384  0.841603  0.921438  1
  Al  Al22  1  0.561592  0.123184  0.249009  1
  Al  Al23  1  0.438408  0.876816  0.750991  1
  Al  Al24  1  0.875143  0.437502  0.251824  1
  Al  Al25  1  0.124857  0.562498  0.748176  1
  Al  Al26  1  0.562358  0.437502  0.251824  1
  Al  Al27  1  0.437642  0.562498  0.748176  1
  Al  Al28  1  0.001355  0.002711  0.250329  1
  Al  Al29  1  0.998645  0.997289  0.749671  1
  Os  Os30  1  0.500000  0.000000  0.000000  1
  Os  Os31  1  0.500000  0.000000  0.500000  1
  Os  Os32  1  0.000000  0.500000  0.500000  1
  Os  Os33  1  0.500000  0.500000  0.500000  1
  Os  Os34  1  0.000000  0.000000  0.000000  1
  Os  Os35  1  0.000000  0.000000  0.500000  1
  Pt  Pt36  1  0.000000  0.500000  0.000000  1
  Pt  Pt37  1  0.500000  0.500000  0.000000  1
