# generated using pymatgen
data_Er5CoPd2
_symmetry_space_group_name_H-M   'P 1'
_cell_length_a   7.70031800
_cell_length_b   8.26237300
_cell_length_c   11.76520700
_cell_angle_alpha   90.00000000
_cell_angle_beta   90.00000000
_cell_angle_gamma   90.00000000
_symmetry_Int_Tables_number   1
_chemical_formula_structural   Er5CoPd2
_chemical_formula_sum   'Er20 Co4 Pd8'
_cell_volume   748.53658296
_cell_formula_units_Z   4
loop_
 _symmetry_equiv_pos_site_id
 _symmetry_equiv_pos_as_xyz
  1  'x, y, z'
loop_
 _atom_site_type_symbol
 _atom_site_label
 _atom_site_symmetry_multiplicity
 _atom_site_fract_x
 _atom_site_fract_y
 _atom_site_fract_z
 _atom_site_occupancy
  Er  Er0  1  0.162908  0.750000  0.217372  1
  Er  Er1  1  0.662908  0.250000  0.282628  1
  Er  Er2  1  0.837092  0.250000  0.782628  1
  Er  Er3  1  0.337092  0.750000  0.717372  1
  Er  Er4  1  0.459387  0.750000  0.004222  1
  Er  Er5  1  0.959387  0.250000  0.495778  1
  Er  Er6  1  0.540613  0.250000  0.995778  1
  Er  Er7  1  0.040613  0.750000  0.504222  1
  Er  Er8  1  0.631131  0.750000  0.307951  1
  Er  Er9  1  0.131131  0.250000  0.192049  1
  Er  Er10  1  0.368869  0.250000  0.692049  1
  Er  Er11  1  0.868869  0.750000  0.807951  1
  Er  Er12  1  0.828043  0.965203  0.081823  1
  Er  Er13  1  0.328043  0.034797  0.418177  1
  Er  Er14  1  0.171957  0.465203  0.918177  1
  Er  Er15  1  0.671957  0.534797  0.581823  1
  Er  Er16  1  0.171957  0.034797  0.918177  1
  Er  Er17  1  0.671957  0.965203  0.581823  1
  Er  Er18  1  0.828043  0.534797  0.081823  1
  Er  Er19  1  0.328043  0.465203  0.418177  1
  Co  Co20  1  0.431732  0.750000  0.496829  1
  Co  Co21  1  0.931732  0.250000  0.003171  1
  Co  Co22  1  0.568268  0.250000  0.503171  1
  Co  Co23  1  0.068268  0.750000  0.996829  1
  Pd  Pd24  1  0.934172  0.984906  0.332010  1
  Pd  Pd25  1  0.434172  0.015094  0.167990  1
  Pd  Pd26  1  0.065828  0.484906  0.667990  1
  Pd  Pd27  1  0.565828  0.515094  0.832010  1
  Pd  Pd28  1  0.065828  0.015094  0.667990  1
  Pd  Pd29  1  0.565828  0.984906  0.832010  1
  Pd  Pd30  1  0.934172  0.515094  0.332010  1
  Pd  Pd31  1  0.434172  0.484906  0.167990  1
