# generated using pymatgen
data_Tb3Tm8In9Ir4
_symmetry_space_group_name_H-M   'P 1'
_cell_length_a   3.69119600
_cell_length_b   12.98127769
_cell_length_c   12.98127816
_cell_angle_alpha   111.25697376
_cell_angle_beta   90.00000000
_cell_angle_gamma   90.00000000
_symmetry_Int_Tables_number   1
_chemical_formula_structural   Tb3Tm8In9Ir4
_chemical_formula_sum   'Tb3 Tm8 In9 Ir4'
_cell_volume   579.69695915
_cell_formula_units_Z   1
loop_
 _symmetry_equiv_pos_site_id
 _symmetry_equiv_pos_as_xyz
  1  'x, y, z'
loop_
 _atom_site_type_symbol
 _atom_site_label
 _atom_site_symmetry_multiplicity
 _atom_site_fract_x
 _atom_site_fract_y
 _atom_site_fract_z
 _atom_site_occupancy
  Tb  Tb0  1  0.000000  0.686959  0.686959  1
  Tb  Tb1  1  0.000000  0.313041  0.313041  1
  Tb  Tb2  1  0.000000  0.000000  0.000000  1
  Tm  Tm3  1  0.000000  0.920684  0.581038  1
  Tm  Tm4  1  0.000000  0.079316  0.418962  1
  Tm  Tm5  1  0.000000  0.581038  0.920684  1
  Tm  Tm6  1  0.000000  0.418962  0.079316  1
  Tm  Tm7  1  0.000000  0.160648  0.839352  1
  Tm  Tm8  1  0.000000  0.839352  0.160648  1
  Tm  Tm9  1  0.000000  0.374647  0.625353  1
  Tm  Tm10  1  0.000000  0.625353  0.374647  1
  In  In11  1  0.500000  0.156042  0.632075  1
  In  In12  1  0.500000  0.843958  0.367925  1
  In  In13  1  0.500000  0.632075  0.156042  1
  In  In14  1  0.500000  0.367925  0.843958  1
  In  In15  1  0.500000  0.925841  0.780638  1
  In  In16  1  0.500000  0.074159  0.219362  1
  In  In17  1  0.500000  0.780638  0.925841  1
  In  In18  1  0.500000  0.219362  0.074159  1
  In  In19  1  0.500000  0.500000  0.500000  1
  Ir  Ir20  1  0.500000  0.754915  0.547579  1
  Ir  Ir21  1  0.500000  0.245085  0.452421  1
  Ir  Ir22  1  0.500000  0.547579  0.754915  1
  Ir  Ir23  1  0.500000  0.452421  0.245085  1
