# generated using pymatgen
data_Pr9Nd(Pb3O)2
_symmetry_space_group_name_H-M   'P 1'
_cell_length_a   9.44504730
_cell_length_b   9.44504649
_cell_length_c   9.43822000
_cell_angle_alpha   126.29364749
_cell_angle_beta   126.29364390
_cell_angle_gamma   79.39557520
_symmetry_Int_Tables_number   1
_chemical_formula_structural   Pr9Nd(Pb3O)2
_chemical_formula_sum   'Pr9 Nd1 Pb6 O2'
_cell_volume   528.73180542
_cell_formula_units_Z   1
loop_
 _symmetry_equiv_pos_site_id
 _symmetry_equiv_pos_as_xyz
  1  'x, y, z'
loop_
 _atom_site_type_symbol
 _atom_site_label
 _atom_site_symmetry_multiplicity
 _atom_site_fract_x
 _atom_site_fract_y
 _atom_site_fract_z
 _atom_site_occupancy
  Pr  Pr0  1  0.499300  0.305226  0.499596  1
  Pr  Pr1  1  0.805226  0.999300  0.499596  1
  Pr  Pr2  1  0.999488  0.499488  0.194095  1
  Pr  Pr3  1  0.305478  0.805478  0.806277  1
  Pr  Pr4  1  0.502906  0.696778  0.500248  1
  Pr  Pr5  1  0.196778  0.002906  0.500248  1
  Pr  Pr6  1  0.002697  0.502697  0.806076  1
  Pr  Pr7  1  0.502626  0.502372  0.000238  1
  Pr  Pr8  1  0.002372  0.002626  0.000238  1
  Nd  Nd9  1  0.698312  0.198312  0.196281  1
  Pb  Pb10  1  0.142030  0.359033  0.499696  1
  Pb  Pb11  1  0.859033  0.642030  0.499696  1
  Pb  Pb12  1  0.642693  0.142693  0.784075  1
  Pb  Pb13  1  0.359334  0.859334  0.216758  1
  Pb  Pb14  1  0.751258  0.752212  0.000028  1
  Pb  Pb15  1  0.252212  0.251258  0.000028  1
  O  O16  1  0.750210  0.250210  0.496809  1
  O  O17  1  0.250887  0.750887  0.500016  1
