# generated using pymatgen
data_Dy2YIn3NiAu2
_symmetry_space_group_name_H-M   'P 1'
_cell_length_a   7.84085831
_cell_length_b   7.84085907
_cell_length_c   3.73261200
_cell_angle_alpha   90.00000000
_cell_angle_beta   90.00000000
_cell_angle_gamma   120.03242076
_symmetry_Int_Tables_number   1
_chemical_formula_structural   Dy2YIn3NiAu2
_chemical_formula_sum   'Dy2 Y1 In3 Ni1 Au2'
_cell_volume   198.66838442
_cell_formula_units_Z   1
loop_
 _symmetry_equiv_pos_site_id
 _symmetry_equiv_pos_as_xyz
  1  'x, y, z'
loop_
 _atom_site_type_symbol
 _atom_site_label
 _atom_site_symmetry_multiplicity
 _atom_site_fract_x
 _atom_site_fract_y
 _atom_site_fract_z
 _atom_site_occupancy
  Dy  Dy0  1  0.000173  0.598264  0.500000  1
  Dy  Dy1  1  0.598264  0.000173  0.500000  1
  Y  Y2  1  0.401391  0.401391  0.500000  1
  In  In3  1  0.999834  0.247894  0.000000  1
  In  In4  1  0.247894  0.999834  0.000000  1
  In  In5  1  0.751951  0.751951  0.000000  1
  Ni  Ni6  1  0.999775  0.999775  0.500000  1
  Au  Au7  1  0.667465  0.333254  0.000000  1
  Au  Au8  1  0.333254  0.667465  0.000000  1
