# generated using pymatgen
data_Ho2TmMg3Si2Au
_symmetry_space_group_name_H-M   'P 1'
_cell_length_a   7.19705168
_cell_length_b   7.19705203
_cell_length_c   4.27746100
_cell_angle_alpha   90.00000000
_cell_angle_beta   90.00000000
_cell_angle_gamma   119.85608847
_symmetry_Int_Tables_number   1
_chemical_formula_structural   Ho2TmMg3Si2Au
_chemical_formula_sum   'Ho2 Tm1 Mg3 Si2 Au1'
_cell_volume   192.15598692
_cell_formula_units_Z   1
loop_
 _symmetry_equiv_pos_site_id
 _symmetry_equiv_pos_as_xyz
  1  'x, y, z'
loop_
 _atom_site_type_symbol
 _atom_site_label
 _atom_site_symmetry_multiplicity
 _atom_site_fract_x
 _atom_site_fract_y
 _atom_site_fract_z
 _atom_site_occupancy
  Ho  Ho0  1  0.582003  0.999531  0.000000  1
  Ho  Ho1  1  0.999531  0.582003  0.000000  1
  Tm  Tm2  1  0.417250  0.417250  0.000000  1
  Mg  Mg3  1  0.247472  0.000351  0.500000  1
  Mg  Mg4  1  0.000351  0.247472  0.500000  1
  Mg  Mg5  1  0.752317  0.752317  0.500000  1
  Si  Si6  1  0.333772  0.666231  0.500000  1
  Si  Si7  1  0.666231  0.333772  0.500000  1
  Au  Au8  1  0.001073  0.001073  0.000000  1
