# generated using pymatgen
data_Tb5Sn3Ge
_symmetry_space_group_name_H-M   'P 1'
_cell_length_a   9.29289500
_cell_length_b   9.29289649
_cell_length_c   6.52466900
_cell_angle_alpha   90.00000000
_cell_angle_beta   90.00000000
_cell_angle_gamma   120.00000537
_symmetry_Int_Tables_number   1
_chemical_formula_structural   Tb5Sn3Ge
_chemical_formula_sum   'Tb10 Sn6 Ge2'
_cell_volume   487.96786505
_cell_formula_units_Z   2
loop_
 _symmetry_equiv_pos_site_id
 _symmetry_equiv_pos_as_xyz
  1  'x, y, z'
loop_
 _atom_site_type_symbol
 _atom_site_label
 _atom_site_symmetry_multiplicity
 _atom_site_fract_x
 _atom_site_fract_y
 _atom_site_fract_z
 _atom_site_occupancy
  Tb  Tb0  1  0.666667  0.333333  0.000000  1
  Tb  Tb1  1  0.333333  0.666667  0.000000  1
  Tb  Tb2  1  0.333333  0.666667  0.500000  1
  Tb  Tb3  1  0.666667  0.333333  0.500000  1
  Tb  Tb4  1  0.745732  0.745732  0.750000  1
  Tb  Tb5  1  0.254268  0.000000  0.750000  1
  Tb  Tb6  1  0.000000  0.254268  0.750000  1
  Tb  Tb7  1  0.254268  0.254268  0.250000  1
  Tb  Tb8  1  0.745732  0.000000  0.250000  1
  Tb  Tb9  1  0.000000  0.745732  0.250000  1
  Sn  Sn10  1  0.391763  0.391763  0.750000  1
  Sn  Sn11  1  0.608237  0.000000  0.750000  1
  Sn  Sn12  1  0.000000  0.608237  0.750000  1
  Sn  Sn13  1  0.608237  0.608237  0.250000  1
  Sn  Sn14  1  0.391763  0.000000  0.250000  1
  Sn  Sn15  1  0.000000  0.391763  0.250000  1
  Ge  Ge16  1  0.000000  0.000000  0.000000  1
  Ge  Ge17  1  0.000000  0.000000  0.500000  1
