# generated using pymatgen
data_Sm4P3Se
_symmetry_space_group_name_H-M   'P 1'
_cell_length_a   7.14320953
_cell_length_b   7.14320810
_cell_length_c   7.13827000
_cell_angle_alpha   80.27857937
_cell_angle_beta   80.27858134
_cell_angle_gamma   33.57795966
_symmetry_Int_Tables_number   1
_chemical_formula_structural   Sm4P3Se
_chemical_formula_sum   'Sm4 P3 Se1'
_cell_volume   198.28881372
_cell_formula_units_Z   1
loop_
 _symmetry_equiv_pos_site_id
 _symmetry_equiv_pos_as_xyz
  1  'x, y, z'
loop_
 _atom_site_type_symbol
 _atom_site_label
 _atom_site_symmetry_multiplicity
 _atom_site_fract_x
 _atom_site_fract_y
 _atom_site_fract_z
 _atom_site_occupancy
  Sm  Sm0  1  0.248357  0.248357  0.259161  1
  Sm  Sm1  1  0.501596  0.501596  0.490847  1
  Sm  Sm2  1  0.743745  0.743745  0.742280  1
  Sm  Sm3  1  0.006326  0.006326  0.007641  1
  P  P4  1  0.626718  0.626718  0.122826  1
  P  P5  1  0.874983  0.874983  0.374993  1
  P  P6  1  0.123305  0.123305  0.627110  1
  Se  Se7  1  0.374971  0.374971  0.875141  1
