# generated using pymatgen
data_LiUF6
_symmetry_space_group_name_H-M   'P 1'
_cell_length_a   5.77831435
_cell_length_b   5.77831379
_cell_length_c   5.77831393
_cell_angle_alpha   55.62480417
_cell_angle_beta   55.62480460
_cell_angle_gamma   55.62480788
_symmetry_Int_Tables_number   1
_chemical_formula_structural   LiUF6
_chemical_formula_sum   'Li1 U1 F6'
_cell_volume   122.57230561
_cell_formula_units_Z   1
loop_
 _symmetry_equiv_pos_site_id
 _symmetry_equiv_pos_as_xyz
  1  'x, y, z'
loop_
 _atom_site_type_symbol
 _atom_site_label
 _atom_site_symmetry_multiplicity
 _atom_site_fract_x
 _atom_site_fract_y
 _atom_site_fract_z
 _atom_site_occupancy
  Li  Li0  1  0.500000  0.500000  0.500000  1
  U  U1  1  0.000000  0.000000  0.000000  1
  F  F2  1  0.129788  0.745707  0.373406  1
  F  F3  1  0.745707  0.373406  0.129788  1
  F  F4  1  0.373406  0.129788  0.745707  1
  F  F5  1  0.254293  0.626594  0.870212  1
  F  F6  1  0.626594  0.870212  0.254293  1
  F  F7  1  0.870212  0.254293  0.626594  1
