# generated using pymatgen
data_CsSmTe3O8
_symmetry_space_group_name_H-M   'P 1'
_cell_length_a   6.21505258
_cell_length_b   8.05094628
_cell_length_c   11.89402026
_cell_angle_alpha   101.10474892
_cell_angle_beta   89.19120472
_cell_angle_gamma   109.95433205
_symmetry_Int_Tables_number   1
_chemical_formula_structural   CsSmTe3O8
_chemical_formula_sum   'Cs2 Sm2 Te6 O16'
_cell_volume   548.07818490
_cell_formula_units_Z   2
loop_
 _symmetry_equiv_pos_site_id
 _symmetry_equiv_pos_as_xyz
  1  'x, y, z'
loop_
 _atom_site_type_symbol
 _atom_site_label
 _atom_site_symmetry_multiplicity
 _atom_site_fract_x
 _atom_site_fract_y
 _atom_site_fract_z
 _atom_site_occupancy
  Cs  Cs0  1  0.821834  0.112940  0.166129  1
  Cs  Cs1  1  0.178166  0.887060  0.833871  1
  Sm  Sm2  1  0.500000  0.500000  0.000000  1
  Sm  Sm3  1  0.000000  0.500000  0.500000  1
  Te  Te4  1  0.210556  0.994050  0.422113  1
  Te  Te5  1  0.789444  0.005950  0.577887  1
  Te  Te6  1  0.083727  0.691099  0.156507  1
  Te  Te7  1  0.916273  0.308901  0.843493  1
  Te  Te8  1  0.509332  0.518509  0.334223  1
  Te  Te9  1  0.490668  0.481491  0.665777  1
  O  O10  1  0.184244  0.755360  0.426289  1
  O  O11  1  0.815756  0.244640  0.573711  1
  O  O12  1  0.225247  0.936206  0.240568  1
  O  O13  1  0.774753  0.063794  0.759432  1
  O  O14  1  0.891033  0.961801  0.400663  1
  O  O15  1  0.108967  0.038199  0.599337  1
  O  O16  1  0.291917  0.700730  0.039401  1
  O  O17  1  0.708083  0.299270  0.960599  1
  O  O18  1  0.846503  0.726418  0.078429  1
  O  O19  1  0.153497  0.273582  0.921571  1
  O  O20  1  0.409208  0.430711  0.177969  1
  O  O21  1  0.590792  0.569289  0.822031  1
  O  O22  1  0.252343  0.370570  0.400509  1
  O  O23  1  0.747657  0.629430  0.599491  1
  O  O24  1  0.722201  0.401120  0.345409  1
  O  O25  1  0.277799  0.598880  0.654591  1
