# generated using pymatgen
data_Dy8LuZrIr6
_symmetry_space_group_name_H-M   'P 1'
_cell_length_a   10.86448400
_cell_length_b   10.86448400
_cell_length_c   6.30356100
_cell_angle_alpha   90.00000000
_cell_angle_beta   90.00000000
_cell_angle_gamma   90.00000000
_symmetry_Int_Tables_number   1
_chemical_formula_structural   Dy8LuZrIr6
_chemical_formula_sum   'Dy16 Lu2 Zr2 Ir12'
_cell_volume   744.05350910
_cell_formula_units_Z   2
loop_
 _symmetry_equiv_pos_site_id
 _symmetry_equiv_pos_as_xyz
  1  'x, y, z'
loop_
 _atom_site_type_symbol
 _atom_site_label
 _atom_site_symmetry_multiplicity
 _atom_site_fract_x
 _atom_site_fract_y
 _atom_site_fract_z
 _atom_site_occupancy
  Dy  Dy0  1  0.289059  0.086669  0.376203  1
  Dy  Dy1  1  0.289059  0.913331  0.876203  1
  Dy  Dy2  1  0.710941  0.086669  0.876203  1
  Dy  Dy3  1  0.710941  0.913331  0.376203  1
  Dy  Dy4  1  0.587736  0.792192  0.876351  1
  Dy  Dy5  1  0.587736  0.207808  0.376351  1
  Dy  Dy6  1  0.412264  0.792192  0.376351  1
  Dy  Dy7  1  0.412264  0.207808  0.876351  1
  Dy  Dy8  1  0.207808  0.412264  0.623649  1
  Dy  Dy9  1  0.207808  0.587736  0.123649  1
  Dy  Dy10  1  0.792192  0.412264  0.123649  1
  Dy  Dy11  1  0.792192  0.587736  0.623649  1
  Dy  Dy12  1  0.913331  0.710941  0.123797  1
  Dy  Dy13  1  0.913331  0.289059  0.623797  1
  Dy  Dy14  1  0.086669  0.710941  0.623797  1
  Dy  Dy15  1  0.086669  0.289059  0.123797  1
  Lu  Lu16  1  0.500000  0.500000  0.000000  1
  Lu  Lu17  1  0.500000  0.500000  0.500000  1
  Zr  Zr18  1  0.000000  0.000000  0.500000  1
  Zr  Zr19  1  0.000000  0.000000  0.000000  1
  Ir  Ir20  1  0.855933  0.144067  0.250000  1
  Ir  Ir21  1  0.855933  0.855933  0.750000  1
  Ir  Ir22  1  0.144067  0.144067  0.750000  1
  Ir  Ir23  1  0.144067  0.855933  0.250000  1
  Ir  Ir24  1  0.652907  0.347093  0.750000  1
  Ir  Ir25  1  0.652907  0.652907  0.250000  1
  Ir  Ir26  1  0.347093  0.347093  0.250000  1
  Ir  Ir27  1  0.347093  0.652907  0.750000  1
  Ir  Ir28  1  0.500000  0.000000  0.123907  1
  Ir  Ir29  1  0.500000  0.000000  0.623907  1
  Ir  Ir30  1  0.000000  0.500000  0.876093  1
  Ir  Ir31  1  0.000000  0.500000  0.376093  1
