# generated using pymatgen
data_Sc3Si2GeOs3
_symmetry_space_group_name_H-M   'P 1'
_cell_length_a   6.94890600
_cell_length_b   6.94890639
_cell_length_c   3.38661400
_cell_angle_alpha   90.00000000
_cell_angle_beta   90.00000000
_cell_angle_gamma   120.00000765
_symmetry_Int_Tables_number   1
_chemical_formula_structural   Sc3Si2GeOs3
_chemical_formula_sum   'Sc3 Si2 Ge1 Os3'
_cell_volume   141.62150193
_cell_formula_units_Z   1
loop_
 _symmetry_equiv_pos_site_id
 _symmetry_equiv_pos_as_xyz
  1  'x, y, z'
loop_
 _atom_site_type_symbol
 _atom_site_label
 _atom_site_symmetry_multiplicity
 _atom_site_fract_x
 _atom_site_fract_y
 _atom_site_fract_z
 _atom_site_occupancy
  Sc  Sc0  1  0.403443  0.399152  0.500000  1
  Sc  Sc1  1  0.600848  0.004292  0.500000  1
  Sc  Sc2  1  0.995708  0.596557  0.500000  1
  Si  Si3  1  0.666667  0.333333  0.000000  1
  Si  Si4  1  0.000000  0.000000  0.500000  1
  Ge  Ge5  1  0.333333  0.666667  0.000000  1
  Os  Os6  1  0.750020  0.745209  0.000000  1
  Os  Os7  1  0.254791  0.004810  0.000000  1
  Os  Os8  1  0.995190  0.249980  0.000000  1
