# generated using pymatgen
data_Lu4Al18RuRh4Au
_symmetry_space_group_name_H-M   'P 1'
_cell_length_a   7.55585290
_cell_length_b   7.55581275
_cell_length_c   9.41839459
_cell_angle_alpha   90.02492910
_cell_angle_beta   90.02567840
_cell_angle_gamma   119.48267790
_symmetry_Int_Tables_number   1
_chemical_formula_structural   Lu4Al18RuRh4Au
_chemical_formula_sum   'Lu4 Al18 Ru1 Rh4 Au1'
_cell_volume   468.07175012
_cell_formula_units_Z   1
loop_
 _symmetry_equiv_pos_site_id
 _symmetry_equiv_pos_as_xyz
  1  'x, y, z'
loop_
 _atom_site_type_symbol
 _atom_site_label
 _atom_site_symmetry_multiplicity
 _atom_site_fract_x
 _atom_site_fract_y
 _atom_site_fract_z
 _atom_site_occupancy
  Lu  Lu0  1  0.995768  0.674007  0.250404  1
  Lu  Lu1  1  0.003466  0.325168  0.749408  1
  Lu  Lu2  1  0.674821  0.996535  0.250589  1
  Lu  Lu3  1  0.326017  0.004237  0.749601  1
  Al  Al4  1  0.134691  0.135283  0.256817  1
  Al  Al5  1  0.864714  0.865304  0.743179  1
  Al  Al6  1  0.000056  0.344562  0.079681  1
  Al  Al7  1  0.997640  0.653551  0.920735  1
  Al  Al8  1  0.000797  0.664058  0.575695  1
  Al  Al9  1  0.335938  0.999200  0.424306  1
  Al  Al10  1  0.999133  0.336815  0.424605  1
  Al  Al11  1  0.663181  0.000861  0.575391  1
  Al  Al12  1  0.655439  0.999947  0.920321  1
  Al  Al13  1  0.346449  0.002363  0.079262  1
  Al  Al14  1  0.332618  0.333069  0.552813  1
  Al  Al15  1  0.666927  0.667381  0.447186  1
  Al  Al16  1  0.659415  0.656984  0.056701  1
  Al  Al17  1  0.343018  0.340584  0.943297  1
  Al  Al18  1  0.338779  0.552894  0.250956  1
  Al  Al19  1  0.660931  0.446664  0.749863  1
  Al  Al20  1  0.553333  0.339068  0.250137  1
  Al  Al21  1  0.447102  0.661217  0.749049  1
  Ru  Ru22  1  0.672513  0.327513  0.000004  1
  Rh  Rh23  1  0.327887  0.672100  0.000002  1
  Rh  Rh24  1  0.327610  0.672381  0.500005  1
  Rh  Rh25  1  0.672075  0.327922  0.499998  1
  Rh  Rh26  1  0.999742  0.000261  0.499998  1
  Au  Au27  1  0.999940  0.000069  0.999997  1
