# generated using pymatgen
data_Pr5Sm5(Sn5Pd2)4
_symmetry_space_group_name_H-M   'P 1'
_cell_length_a   14.30094800
_cell_length_b   14.30094800
_cell_length_c   4.64877900
_cell_angle_alpha   90.00000000
_cell_angle_beta   90.00000000
_cell_angle_gamma   90.00000000
_symmetry_Int_Tables_number   1
_chemical_formula_structural   Pr5Sm5(Sn5Pd2)4
_chemical_formula_sum   'Pr5 Sm5 Sn20 Pd8'
_cell_volume   950.75486330
_cell_formula_units_Z   1
loop_
 _symmetry_equiv_pos_site_id
 _symmetry_equiv_pos_as_xyz
  1  'x, y, z'
loop_
 _atom_site_type_symbol
 _atom_site_label
 _atom_site_symmetry_multiplicity
 _atom_site_fract_x
 _atom_site_fract_y
 _atom_site_fract_z
 _atom_site_occupancy
  Pr  Pr0  1  0.000000  0.000000  0.000000  1
  Pr  Pr1  1  0.891158  0.391275  0.500000  1
  Pr  Pr2  1  0.108842  0.608725  0.500000  1
  Pr  Pr3  1  0.391275  0.108842  0.500000  1
  Pr  Pr4  1  0.608725  0.891158  0.500000  1
  Sm  Sm5  1  0.500000  0.500000  0.000000  1
  Sm  Sm6  1  0.678832  0.178946  0.500000  1
  Sm  Sm7  1  0.321168  0.821054  0.500000  1
  Sm  Sm8  1  0.178946  0.321168  0.500000  1
  Sm  Sm9  1  0.821054  0.678832  0.500000  1
  Sn  Sn10  1  0.569528  0.069562  0.000000  1
  Sn  Sn11  1  0.430472  0.930438  0.000000  1
  Sn  Sn12  1  0.069562  0.430472  0.000000  1
  Sn  Sn13  1  0.930438  0.569528  0.000000  1
  Sn  Sn14  1  0.654689  0.699651  0.000000  1
  Sn  Sn15  1  0.345311  0.300349  0.000000  1
  Sn  Sn16  1  0.154764  0.800224  0.000000  1
  Sn  Sn17  1  0.845236  0.199776  0.000000  1
  Sn  Sn18  1  0.300349  0.654689  0.000000  1
  Sn  Sn19  1  0.699651  0.345311  0.000000  1
  Sn  Sn20  1  0.199776  0.154764  0.000000  1
  Sn  Sn21  1  0.800224  0.845236  0.000000  1
  Sn  Sn22  1  0.661128  0.502498  0.500000  1
  Sn  Sn23  1  0.338872  0.497502  0.500000  1
  Sn  Sn24  1  0.162247  0.997548  0.500000  1
  Sn  Sn25  1  0.837753  0.002452  0.500000  1
  Sn  Sn26  1  0.497502  0.661128  0.500000  1
  Sn  Sn27  1  0.502498  0.338872  0.500000  1
  Sn  Sn28  1  0.002452  0.162247  0.500000  1
  Sn  Sn29  1  0.997548  0.837753  0.500000  1
  Pd  Pd30  1  0.745573  0.529922  0.000000  1
  Pd  Pd31  1  0.254427  0.470078  0.000000  1
  Pd  Pd32  1  0.245992  0.970004  0.000000  1
  Pd  Pd33  1  0.754008  0.029996  0.000000  1
  Pd  Pd34  1  0.470078  0.745573  0.000000  1
  Pd  Pd35  1  0.529922  0.254427  0.000000  1
  Pd  Pd36  1  0.029996  0.245992  0.000000  1
  Pd  Pd37  1  0.970004  0.754008  0.000000  1
