# generated using pymatgen
data_Pa4Mn2Ge6Rh5
_symmetry_space_group_name_H-M   'P 1'
_cell_length_a   7.26186236
_cell_length_b   7.26186183
_cell_length_c   7.25443990
_cell_angle_alpha   109.23239123
_cell_angle_beta   109.23239409
_cell_angle_gamma   109.99098810
_symmetry_Int_Tables_number   1
_chemical_formula_structural   Pa4Mn2Ge6Rh5
_chemical_formula_sum   'Pa4 Mn2 Ge6 Rh5'
_cell_volume   294.32896822
_cell_formula_units_Z   1
loop_
 _symmetry_equiv_pos_site_id
 _symmetry_equiv_pos_as_xyz
  1  'x, y, z'
loop_
 _atom_site_type_symbol
 _atom_site_label
 _atom_site_symmetry_multiplicity
 _atom_site_fract_x
 _atom_site_fract_y
 _atom_site_fract_z
 _atom_site_occupancy
  Pa  Pa0  1  0.505170  0.494830  0.500000  1
  Pa  Pa1  1  0.982388  0.494785  0.000000  1
  Pa  Pa2  1  0.505215  0.017612  0.000000  1
  Pa  Pa3  1  0.005170  0.994830  0.500000  1
  Mn  Mn4  1  0.751344  0.498793  0.250136  1
  Mn  Mn5  1  0.501207  0.248656  0.749864  1
  Ge  Ge6  1  0.683668  0.001837  0.685505  1
  Ge  Ge7  1  0.681531  0.676910  0.000000  1
  Ge  Ge8  1  0.323090  0.318469  0.000000  1
  Ge  Ge9  1  0.998382  0.683663  0.682045  1
  Ge  Ge10  1  0.998163  0.316332  0.314495  1
  Ge  Ge11  1  0.316337  0.001618  0.317955  1
  Rh  Rh12  1  0.749776  0.250224  0.500000  1
  Rh  Rh13  1  0.249776  0.750224  0.500000  1
  Rh  Rh14  1  0.249489  0.499518  0.749007  1
  Rh  Rh15  1  0.500482  0.750511  0.250993  1
  Rh  Rh16  1  0.998812  0.001188  0.000000  1
