# generated using pymatgen
data_Tb6NiCl10
_symmetry_space_group_name_H-M   'P 1'
_cell_length_a   7.08998883
_cell_length_b   8.84257672
_cell_length_c   8.87415218
_cell_angle_alpha   109.67915695
_cell_angle_beta   96.97839813
_cell_angle_gamma   106.74975683
_symmetry_Int_Tables_number   1
_chemical_formula_structural   Tb6NiCl10
_chemical_formula_sum   'Tb6 Ni1 Cl10'
_cell_volume   486.67456790
_cell_formula_units_Z   1
loop_
 _symmetry_equiv_pos_site_id
 _symmetry_equiv_pos_as_xyz
  1  'x, y, z'
loop_
 _atom_site_type_symbol
 _atom_site_label
 _atom_site_symmetry_multiplicity
 _atom_site_fract_x
 _atom_site_fract_y
 _atom_site_fract_z
 _atom_site_occupancy
  Tb  Tb0  1  0.867973  0.144579  0.191779  1
  Tb  Tb1  1  0.132027  0.855421  0.808221  1
  Tb  Tb2  1  0.523625  0.692699  0.895910  1
  Tb  Tb3  1  0.476375  0.307301  0.104090  1
  Tb  Tb4  1  0.633799  0.050476  0.754038  1
  Tb  Tb5  1  0.366201  0.949524  0.245962  1
  Ni  Ni6  1  0.500000  0.000000  0.000000  1
  Cl  Cl7  1  0.746781  0.080508  0.455427  1
  Cl  Cl8  1  0.253219  0.919492  0.544573  1
  Cl  Cl9  1  0.948463  0.827146  0.076109  1
  Cl  Cl10  1  0.051537  0.172854  0.923891  1
  Cl  Cl11  1  0.295061  0.258284  0.351653  1
  Cl  Cl12  1  0.704939  0.741716  0.648347  1
  Cl  Cl13  1  0.590281  0.369546  0.836771  1
  Cl  Cl14  1  0.409719  0.630454  0.163229  1
  Cl  Cl15  1  0.862458  0.462967  0.279242  1
  Cl  Cl16  1  0.137542  0.537033  0.720758  1
