# generated using pymatgen
data_Sr5Sn2BiF
_symmetry_space_group_name_H-M   'P 1'
_cell_length_a   10.05242228
_cell_length_b   10.05242226
_cell_length_c   10.05236892
_cell_angle_alpha   128.65488241
_cell_angle_beta   128.65488113
_cell_angle_gamma   75.56695036
_symmetry_Int_Tables_number   1
_chemical_formula_structural   Sr5Sn2BiF
_chemical_formula_sum   'Sr10 Sn4 Bi2 F2'
_cell_volume   602.71399608
_cell_formula_units_Z   2
loop_
 _symmetry_equiv_pos_site_id
 _symmetry_equiv_pos_as_xyz
  1  'x, y, z'
loop_
 _atom_site_type_symbol
 _atom_site_label
 _atom_site_symmetry_multiplicity
 _atom_site_fract_x
 _atom_site_fract_y
 _atom_site_fract_z
 _atom_site_occupancy
  Sr  Sr0  1  0.500000  0.500000  0.000000  1
  Sr  Sr1  1  0.000000  0.000000  0.000000  1
  Sr  Sr2  1  0.511586  0.011586  0.816787  1
  Sr  Sr3  1  0.194800  0.694800  0.183212  1
  Sr  Sr4  1  0.011588  0.194799  0.500000  1
  Sr  Sr5  1  0.694799  0.511588  0.500000  1
  Sr  Sr6  1  0.488414  0.988414  0.183213  1
  Sr  Sr7  1  0.805200  0.305200  0.816788  1
  Sr  Sr8  1  0.988412  0.805201  0.500000  1
  Sr  Sr9  1  0.305201  0.488412  0.500000  1
  Sn  Sn10  1  0.872977  0.372977  0.245955  1
  Sn  Sn11  1  0.127023  0.627023  0.754046  1
  Sn  Sn12  1  0.372976  0.127024  0.500000  1
  Sn  Sn13  1  0.627024  0.872976  0.500000  1
  Bi  Bi14  1  0.250000  0.250000  0.000000  1
  Bi  Bi15  1  0.750000  0.750000  0.000000  1
  F  F16  1  0.250001  0.750001  0.500000  1
  F  F17  1  0.749999  0.249999  0.500000  1
