# generated using pymatgen
data_TaNb3(SnPt)5
_symmetry_space_group_name_H-M   'P 1'
_cell_length_a   6.29053363
_cell_length_b   7.67298330
_cell_length_c   7.67407011
_cell_angle_alpha   80.31637968
_cell_angle_beta   114.20447241
_cell_angle_gamma   114.18658919
_symmetry_Int_Tables_number   1
_chemical_formula_structural   TaNb3(SnPt)5
_chemical_formula_sum   'Ta1 Nb3 Sn5 Pt5'
_cell_volume   308.18534908
_cell_formula_units_Z   1
loop_
 _symmetry_equiv_pos_site_id
 _symmetry_equiv_pos_as_xyz
  1  'x, y, z'
loop_
 _atom_site_type_symbol
 _atom_site_label
 _atom_site_symmetry_multiplicity
 _atom_site_fract_x
 _atom_site_fract_y
 _atom_site_fract_z
 _atom_site_occupancy
  Ta  Ta0  1  0.595726  0.399869  0.797496  1
  Nb  Nb1  1  0.398430  0.600253  0.202368  1
  Nb  Nb2  1  0.803913  0.202173  0.399742  1
  Nb  Nb3  1  0.201872  0.797808  0.600006  1
  Sn  Sn4  1  0.499915  0.999913  0.000054  1
  Sn  Sn5  1  0.903368  0.633753  0.192871  1
  Sn  Sn6  1  0.289181  0.192516  0.366133  1
  Sn  Sn7  1  0.730485  0.807612  0.633607  1
  Sn  Sn8  1  0.077012  0.366227  0.807411  1
  Pt  Pt9  1  0.938254  0.323313  0.105783  1
  Pt  Pt10  1  0.383198  0.892817  0.323044  1
  Pt  Pt11  1  0.749304  0.499517  0.501405  1
  Pt  Pt12  1  0.169276  0.108520  0.677706  1
  Pt  Pt13  1  0.510060  0.675707  0.892375  1
