# generated using pymatgen
data_TmLu2In3Cu2Pt
_symmetry_space_group_name_H-M   'P 1'
_cell_length_a   7.67290000
_cell_length_b   7.66326558
_cell_length_c   3.64198400
_cell_angle_alpha   90.00000000
_cell_angle_beta   90.00000000
_cell_angle_gamma   120.03975463
_symmetry_Int_Tables_number   1
_chemical_formula_structural   TmLu2In3Cu2Pt
_chemical_formula_sum   'Tm1 Lu2 In3 Cu2 Pt1'
_cell_volume   185.38217156
_cell_formula_units_Z   1
loop_
 _symmetry_equiv_pos_site_id
 _symmetry_equiv_pos_as_xyz
  1  'x, y, z'
loop_
 _atom_site_type_symbol
 _atom_site_label
 _atom_site_symmetry_multiplicity
 _atom_site_fract_x
 _atom_site_fract_y
 _atom_site_fract_z
 _atom_site_occupancy
  Tm  Tm0  1  0.009673  0.599881  0.500000  1
  Lu  Lu1  1  0.589605  0.989461  0.500000  1
  Lu  Lu2  1  0.400068  0.410483  0.500000  1
  In  In3  1  0.989926  0.255443  0.000000  1
  In  In4  1  0.266004  0.010298  0.000000  1
  In  In5  1  0.743910  0.734309  0.000000  1
  Cu  Cu6  1  0.000055  0.000079  0.500000  1
  Cu  Cu7  1  0.666250  0.333011  0.000000  1
  Pt  Pt8  1  0.334507  0.667035  0.000000  1
