# generated using pymatgen
data_Tb5ZnIn4Rh
_symmetry_space_group_name_H-M   'P 1'
_cell_length_a   8.20672094
_cell_length_b   18.37277482
_cell_length_c   3.64126300
_cell_angle_alpha   90.00000000
_cell_angle_beta   90.00000000
_cell_angle_gamma   89.44638917
_symmetry_Int_Tables_number   1
_chemical_formula_structural   Tb5ZnIn4Rh
_chemical_formula_sum   'Tb10 Zn2 In8 Rh2'
_cell_volume   549.00486501
_cell_formula_units_Z   2
loop_
 _symmetry_equiv_pos_site_id
 _symmetry_equiv_pos_as_xyz
  1  'x, y, z'
loop_
 _atom_site_type_symbol
 _atom_site_label
 _atom_site_symmetry_multiplicity
 _atom_site_fract_x
 _atom_site_fract_y
 _atom_site_fract_z
 _atom_site_occupancy
  Tb  Tb0  1  0.500000  0.500000  0.000000  1
  Tb  Tb1  1  0.000000  0.000000  0.000000  1
  Tb  Tb2  1  0.721852  0.277147  0.000000  1
  Tb  Tb3  1  0.278148  0.722853  0.000000  1
  Tb  Tb4  1  0.738996  0.782204  0.000000  1
  Tb  Tb5  1  0.261004  0.217796  0.000000  1
  Tb  Tb6  1  0.616160  0.084933  0.000000  1
  Tb  Tb7  1  0.383840  0.915067  0.000000  1
  Tb  Tb8  1  0.878837  0.580017  0.000000  1
  Tb  Tb9  1  0.121163  0.419983  0.000000  1
  Zn  Zn10  1  0.978294  0.698794  0.500000  1
  Zn  Zn11  1  0.021706  0.301206  0.500000  1
  In  In12  1  0.706181  0.932031  0.500000  1
  In  In13  1  0.293819  0.067969  0.500000  1
  In  In14  1  0.792578  0.429861  0.500000  1
  In  In15  1  0.207422  0.570139  0.500000  1
  In  In16  1  0.576494  0.648413  0.500000  1
  In  In17  1  0.423506  0.351587  0.500000  1
  In  In18  1  0.921443  0.149869  0.500000  1
  In  In19  1  0.078557  0.850131  0.500000  1
  Rh  Rh20  1  0.523819  0.195915  0.500000  1
  Rh  Rh21  1  0.476181  0.804085  0.500000  1
