# generated using pymatgen
data_YbHo5In3
_symmetry_space_group_name_H-M   'P 1'
_cell_length_a   9.30157500
_cell_length_b   9.30157554
_cell_length_c   6.73737600
_cell_angle_alpha   90.00000000
_cell_angle_beta   90.00000000
_cell_angle_gamma   120.00000876
_symmetry_Int_Tables_number   1
_chemical_formula_structural   YbHo5In3
_chemical_formula_sum   'Yb2 Ho10 In6'
_cell_volume   504.81748407
_cell_formula_units_Z   2
loop_
 _symmetry_equiv_pos_site_id
 _symmetry_equiv_pos_as_xyz
  1  'x, y, z'
loop_
 _atom_site_type_symbol
 _atom_site_label
 _atom_site_symmetry_multiplicity
 _atom_site_fract_x
 _atom_site_fract_y
 _atom_site_fract_z
 _atom_site_occupancy
  Yb  Yb0  1  0.000000  0.000000  0.500000  1
  Yb  Yb1  1  0.000000  0.000000  0.000000  1
  Ho  Ho2  1  0.667032  0.667032  0.250000  1
  Ho  Ho3  1  0.000000  0.667032  0.750000  1
  Ho  Ho4  1  0.667032  0.000000  0.750000  1
  Ho  Ho5  1  0.333333  0.666667  0.500000  1
  Ho  Ho6  1  0.332968  0.332968  0.750000  1
  Ho  Ho7  1  0.000000  0.332968  0.250000  1
  Ho  Ho8  1  0.666667  0.333333  0.500000  1
  Ho  Ho9  1  0.332968  0.000000  0.250000  1
  Ho  Ho10  1  0.333333  0.666667  0.000000  1
  Ho  Ho11  1  0.666667  0.333333  0.000000  1
  In  In12  1  0.333896  0.000000  0.750000  1
  In  In13  1  0.000000  0.666104  0.250000  1
  In  In14  1  0.666104  0.000000  0.250000  1
  In  In15  1  0.000000  0.333896  0.750000  1
  In  In16  1  0.333896  0.333896  0.250000  1
  In  In17  1  0.666104  0.666104  0.750000  1
