# generated using pymatgen
data_SrHoBO4
_symmetry_space_group_name_H-M   'P 1'
_cell_length_a   3.66355100
_cell_length_b   9.72956800
_cell_length_c   10.96344200
_cell_angle_alpha   90.00000000
_cell_angle_beta   90.00000000
_cell_angle_gamma   90.00000000
_symmetry_Int_Tables_number   1
_chemical_formula_structural   SrHoBO4
_chemical_formula_sum   'Sr4 Ho4 B4 O16'
_cell_volume   390.78935289
_cell_formula_units_Z   4
loop_
 _symmetry_equiv_pos_site_id
 _symmetry_equiv_pos_as_xyz
  1  'x, y, z'
loop_
 _atom_site_type_symbol
 _atom_site_label
 _atom_site_symmetry_multiplicity
 _atom_site_fract_x
 _atom_site_fract_y
 _atom_site_fract_z
 _atom_site_occupancy
  Sr  Sr0  1  0.250000  0.658748  0.083697  1
  Sr  Sr1  1  0.750000  0.341252  0.916303  1
  Sr  Sr2  1  0.750000  0.158748  0.416303  1
  Sr  Sr3  1  0.250000  0.841252  0.583697  1
  Ho  Ho4  1  0.250000  0.080455  0.110491  1
  Ho  Ho5  1  0.750000  0.919545  0.889509  1
  Ho  Ho6  1  0.750000  0.580455  0.389509  1
  Ho  Ho7  1  0.250000  0.419545  0.610491  1
  B  B8  1  0.250000  0.362871  0.204481  1
  B  B9  1  0.750000  0.637129  0.795519  1
  B  B10  1  0.750000  0.862871  0.295519  1
  B  B11  1  0.250000  0.137129  0.704481  1
  O  O12  1  0.250000  0.489040  0.263718  1
  O  O13  1  0.750000  0.510960  0.736282  1
  O  O14  1  0.750000  0.989040  0.236282  1
  O  O15  1  0.250000  0.010960  0.763718  1
  O  O16  1  0.250000  0.239559  0.269340  1
  O  O17  1  0.750000  0.760441  0.730660  1
  O  O18  1  0.750000  0.739559  0.230660  1
  O  O19  1  0.250000  0.260441  0.769340  1
  O  O20  1  0.250000  0.357614  0.076823  1
  O  O21  1  0.750000  0.642386  0.923177  1
  O  O22  1  0.750000  0.857614  0.423177  1
  O  O23  1  0.250000  0.142386  0.576823  1
  O  O24  1  0.250000  0.612751  0.499594  1
  O  O25  1  0.750000  0.387249  0.500406  1
  O  O26  1  0.750000  0.112751  0.000406  1
  O  O27  1  0.250000  0.887249  0.999594  1
