# generated using pymatgen
data_Hf8Fe7Si14Pd
_symmetry_space_group_name_H-M   'P 1'
_cell_length_a   9.46442998
_cell_length_b   9.46443055
_cell_length_c   9.47184950
_cell_angle_alpha   94.13173242
_cell_angle_beta   94.13172910
_cell_angle_gamma   148.45943340
_symmetry_Int_Tables_number   1
_chemical_formula_structural   Hf8Fe7Si14Pd
_chemical_formula_sum   'Hf8 Fe7 Si14 Pd1'
_cell_volume   427.94354630
_cell_formula_units_Z   1
loop_
 _symmetry_equiv_pos_site_id
 _symmetry_equiv_pos_as_xyz
  1  'x, y, z'
loop_
 _atom_site_type_symbol
 _atom_site_label
 _atom_site_symmetry_multiplicity
 _atom_site_fract_x
 _atom_site_fract_y
 _atom_site_fract_z
 _atom_site_occupancy
  Hf  Hf0  1  0.697961  0.501891  0.194197  1
  Hf  Hf1  1  0.494400  0.692644  0.196763  1
  Hf  Hf2  1  0.498109  0.302039  0.805803  1
  Hf  Hf3  1  0.307356  0.505600  0.803237  1
  Hf  Hf4  1  0.863264  0.864629  0.724521  1
  Hf  Hf5  1  0.138792  0.861208  0.000000  1
  Hf  Hf6  1  0.861712  0.138288  0.000000  1
  Hf  Hf7  1  0.135371  0.136736  0.275479  1
  Fe  Fe8  1  0.907529  0.402283  0.804913  1
  Fe  Fe9  1  0.597717  0.092471  0.195087  1
  Fe  Fe10  1  0.100912  0.605078  0.210625  1
  Fe  Fe11  1  0.600278  0.399722  0.500000  1
  Fe  Fe12  1  0.394922  0.899088  0.789375  1
  Fe  Fe13  1  0.902844  0.097156  0.500000  1
  Fe  Fe14  1  0.391436  0.608564  0.500000  1
  Si  Si15  1  0.749836  0.750347  0.000313  1
  Si  Si16  1  0.249653  0.250164  0.999687  1
  Si  Si17  1  0.080610  0.490906  0.592806  1
  Si  Si18  1  0.551170  0.135515  0.598425  1
  Si  Si19  1  0.509094  0.919390  0.407194  1
  Si  Si20  1  0.864485  0.448830  0.401575  1
  Si  Si21  1  0.707385  0.007470  0.699840  1
  Si  Si22  1  0.984260  0.681430  0.706061  1
  Si  Si23  1  0.685627  0.691959  0.418550  1
  Si  Si24  1  0.290202  0.709798  0.000000  1
  Si  Si25  1  0.318570  0.015740  0.293939  1
  Si  Si26  1  0.710425  0.289575  0.000000  1
  Si  Si27  1  0.308041  0.314373  0.581450  1
  Si  Si28  1  0.992530  0.292615  0.300160  1
  Pd  Pd29  1  0.105512  0.894488  0.500000  1
