# generated using pymatgen
data_CaNd4Er2CoBr12
_symmetry_space_group_name_H-M   'P 1'
_cell_length_a   9.23368624
_cell_length_b   9.30622917
_cell_length_c   9.30776300
_cell_angle_alpha   106.79983189
_cell_angle_beta   106.99259285
_cell_angle_gamma   106.70000491
_symmetry_Int_Tables_number   1
_chemical_formula_structural   CaNd4Er2CoBr12
_chemical_formula_sum   'Ca1 Nd4 Er2 Co1 Br12'
_cell_volume   669.14764984
_cell_formula_units_Z   1
loop_
 _symmetry_equiv_pos_site_id
 _symmetry_equiv_pos_as_xyz
  1  'x, y, z'
loop_
 _atom_site_type_symbol
 _atom_site_label
 _atom_site_symmetry_multiplicity
 _atom_site_fract_x
 _atom_site_fract_y
 _atom_site_fract_z
 _atom_site_occupancy
  Ca  Ca0  1  0.498874  0.500780  0.500034  1
  Nd  Nd1  1  0.305239  0.025139  0.103272  1
  Nd  Nd2  1  0.975820  0.898547  0.682927  1
  Nd  Nd3  1  0.895234  0.682697  0.974440  1
  Nd  Nd4  1  0.697763  0.976454  0.902619  1
  Er  Er5  1  0.026689  0.105045  0.308546  1
  Er  Er6  1  0.102851  0.307662  0.026526  1
  Co  Co7  1  0.002280  0.001382  0.001931  1
  Br  Br8  1  0.151871  0.450879  0.372593  1
  Br  Br9  1  0.452025  0.383467  0.156146  1
  Br  Br10  1  0.372348  0.160589  0.462600  1
  Br  Br11  1  0.839467  0.537659  0.615683  1
  Br  Br12  1  0.535523  0.616534  0.838344  1
  Br  Br13  1  0.615007  0.839317  0.538028  1
  Br  Br14  1  0.691285  0.076194  0.234172  1
  Br  Br15  1  0.074452  0.231549  0.683029  1
  Br  Br16  1  0.225796  0.671484  0.073127  1
  Br  Br17  1  0.322169  0.927645  0.775809  1
  Br  Br18  1  0.930289  0.787461  0.320605  1
  Br  Br19  1  0.785019  0.319515  0.929569  1
