# generated using pymatgen
data_Nd9Y(Si2Sn)2
_symmetry_space_group_name_H-M   'P 1'
_cell_length_a   9.16659832
_cell_length_b   9.16659833
_cell_length_c   9.16659700
_cell_angle_alpha   128.98835290
_cell_angle_beta   128.98833686
_cell_angle_gamma   75.02931868
_symmetry_Int_Tables_number   1
_chemical_formula_structural   Nd9Y(Si2Sn)2
_chemical_formula_sum   'Nd9 Y1 Si4 Sn2'
_cell_volume   453.12684871
_cell_formula_units_Z   1
loop_
 _symmetry_equiv_pos_site_id
 _symmetry_equiv_pos_as_xyz
  1  'x, y, z'
loop_
 _atom_site_type_symbol
 _atom_site_label
 _atom_site_symmetry_multiplicity
 _atom_site_fract_x
 _atom_site_fract_y
 _atom_site_fract_z
 _atom_site_occupancy
  Nd  Nd0  1  0.535791  0.036157  0.850309  1
  Nd  Nd1  1  0.185849  0.685482  0.149691  1
  Nd  Nd2  1  0.036157  0.185849  0.500367  1
  Nd  Nd3  1  0.685482  0.535791  0.499633  1
  Nd  Nd4  1  0.464209  0.963843  0.149691  1
  Nd  Nd5  1  0.814151  0.314518  0.850309  1
  Nd  Nd6  1  0.963843  0.814151  0.499633  1
  Nd  Nd7  1  0.314518  0.464209  0.500367  1
  Nd  Nd8  1  0.000000  0.000000  0.000000  1
  Y  Y9  1  0.500000  0.500000  0.000000  1
  Si  Si10  1  0.879598  0.383518  0.263115  1
  Si  Si11  1  0.120402  0.616482  0.736885  1
  Si  Si12  1  0.383518  0.120402  0.503921  1
  Si  Si13  1  0.616482  0.879598  0.496079  1
  Sn  Sn14  1  0.251131  0.251131  0.000000  1
  Sn  Sn15  1  0.748869  0.748869  0.000000  1
