# generated using pymatgen
data_YbEr3(Ir2O7)2
_symmetry_space_group_name_H-M   'P 1'
_cell_length_a   7.22712340
_cell_length_b   7.19837921
_cell_length_c   7.19837900
_cell_angle_alpha   59.99999639
_cell_angle_beta   60.13147629
_cell_angle_gamma   60.13147536
_symmetry_Int_Tables_number   1
_chemical_formula_structural   YbEr3(Ir2O7)2
_chemical_formula_sum   'Yb1 Er3 Ir4 O14'
_cell_volume   265.32617301
_cell_formula_units_Z   1
loop_
 _symmetry_equiv_pos_site_id
 _symmetry_equiv_pos_as_xyz
  1  'x, y, z'
loop_
 _atom_site_type_symbol
 _atom_site_label
 _atom_site_symmetry_multiplicity
 _atom_site_fract_x
 _atom_site_fract_y
 _atom_site_fract_z
 _atom_site_occupancy
  Yb  Yb0  1  0.625000  0.125000  0.125000  1
  Er  Er1  1  0.125000  0.125000  0.625000  1
  Er  Er2  1  0.125000  0.125000  0.125000  1
  Er  Er3  1  0.125000  0.625000  0.125000  1
  Ir  Ir4  1  0.625000  0.625000  0.625000  1
  Ir  Ir5  1  0.125000  0.625000  0.625000  1
  Ir  Ir6  1  0.625000  0.125000  0.625000  1
  Ir  Ir7  1  0.625000  0.625000  0.125000  1
  O  O8  1  0.961641  0.539305  0.539305  1
  O  O9  1  0.288359  0.290251  0.710695  1
  O  O10  1  0.961641  0.539305  0.959749  1
  O  O11  1  0.719032  0.290128  0.290128  1
  O  O12  1  0.530968  0.549288  0.959872  1
  O  O13  1  0.530968  0.959872  0.549288  1
  O  O14  1  0.530968  0.959872  0.959872  1
  O  O15  1  0.241490  0.252837  0.252837  1
  O  O16  1  0.288359  0.710695  0.710695  1
  O  O17  1  0.719032  0.290128  0.700712  1
  O  O18  1  0.008510  0.997163  0.997163  1
  O  O19  1  0.961641  0.959749  0.539305  1
  O  O20  1  0.288359  0.710695  0.290251  1
  O  O21  1  0.719032  0.700712  0.290128  1
