# generated using pymatgen
data_Tl5Cu(TcH9)3
_symmetry_space_group_name_H-M   'P 1'
_cell_length_a   9.75280800
_cell_length_b   9.75280759
_cell_length_c   6.43483000
_cell_angle_alpha   90.00000000
_cell_angle_beta   90.00000000
_cell_angle_gamma   120.88784797
_symmetry_Int_Tables_number   1
_chemical_formula_structural   Tl5Cu(TcH9)3
_chemical_formula_sum   'Tl5 Cu1 Tc3 H27'
_cell_volume   525.25677474
_cell_formula_units_Z   1
loop_
 _symmetry_equiv_pos_site_id
 _symmetry_equiv_pos_as_xyz
  1  'x, y, z'
loop_
 _atom_site_type_symbol
 _atom_site_label
 _atom_site_symmetry_multiplicity
 _atom_site_fract_x
 _atom_site_fract_y
 _atom_site_fract_z
 _atom_site_occupancy
  Tl  Tl0  1  0.250480  0.985531  0.500000  1
  Tl  Tl1  1  0.985531  0.250480  0.500000  1
  Tl  Tl2  1  0.603761  0.929987  0.000000  1
  Tl  Tl3  1  0.929987  0.603761  0.000000  1
  Tl  Tl4  1  0.382456  0.382456  0.000000  1
  Cu  Cu5  1  0.535901  0.535901  0.500000  1
  Tc  Tc6  1  0.003664  0.003664  0.000000  1
  Tc  Tc7  1  0.361960  0.666724  0.500000  1
  Tc  Tc8  1  0.666724  0.361960  0.500000  1
  H  H9  1  0.882109  0.998424  0.191258  1
  H  H10  1  0.998424  0.882109  0.191258  1
  H  H11  1  0.882109  0.998424  0.808742  1
  H  H12  1  0.998424  0.882109  0.808742  1
  H  H13  1  0.130417  0.130417  0.185905  1
  H  H14  1  0.130417  0.130417  0.814095  1
  H  H15  1  0.171317  0.997048  0.000000  1
  H  H16  1  0.997048  0.171317  0.000000  1
  H  H17  1  0.830072  0.830072  0.000000  1
  H  H18  1  0.268986  0.579127  0.278656  1
  H  H19  1  0.506377  0.670801  0.333887  1
  H  H20  1  0.268986  0.579127  0.721344  1
  H  H21  1  0.579127  0.268986  0.721344  1
  H  H22  1  0.341953  0.790020  0.336736  1
  H  H23  1  0.506377  0.670801  0.666113  1
  H  H24  1  0.670801  0.506377  0.666113  1
  H  H25  1  0.579127  0.268986  0.278656  1
  H  H26  1  0.341953  0.790020  0.663264  1
  H  H27  1  0.670801  0.506377  0.333887  1
  H  H28  1  0.790020  0.341953  0.663264  1
  H  H29  1  0.790020  0.341953  0.336736  1
  H  H30  1  0.320965  0.471108  0.500000  1
  H  H31  1  0.522728  0.849278  0.500000  1
  H  H32  1  0.471108  0.320965  0.500000  1
  H  H33  1  0.168674  0.611917  0.500000  1
  H  H34  1  0.849278  0.522728  0.500000  1
  H  H35  1  0.611917  0.168674  0.500000  1
