# generated using pymatgen
data_Dy17Tm3Ir11Os
_symmetry_space_group_name_H-M   'P 1'
_cell_length_a   10.85740300
_cell_length_b   10.85695700
_cell_length_c   6.38311100
_cell_angle_alpha   90.00000000
_cell_angle_beta   90.00000000
_cell_angle_gamma   89.99836406
_symmetry_Int_Tables_number   1
_chemical_formula_structural   Dy17Tm3Ir11Os
_chemical_formula_sum   'Dy17 Tm3 Ir11 Os1'
_cell_volume   752.43064028
_cell_formula_units_Z   1
loop_
 _symmetry_equiv_pos_site_id
 _symmetry_equiv_pos_as_xyz
  1  'x, y, z'
loop_
 _atom_site_type_symbol
 _atom_site_label
 _atom_site_symmetry_multiplicity
 _atom_site_fract_x
 _atom_site_fract_y
 _atom_site_fract_z
 _atom_site_occupancy
  Dy  Dy0  1  0.292033  0.087191  0.376693  1
  Dy  Dy1  1  0.292551  0.912768  0.880401  1
  Dy  Dy2  1  0.707449  0.087232  0.880401  1
  Dy  Dy3  1  0.707967  0.912809  0.376693  1
  Dy  Dy4  1  0.587250  0.792681  0.880547  1
  Dy  Dy5  1  0.587345  0.207546  0.376600  1
  Dy  Dy6  1  0.412655  0.792454  0.376600  1
  Dy  Dy7  1  0.412750  0.207319  0.880547  1
  Dy  Dy8  1  0.209058  0.411603  0.621444  1
  Dy  Dy9  1  0.209215  0.588104  0.120954  1
  Dy  Dy10  1  0.790785  0.411896  0.120954  1
  Dy  Dy11  1  0.790942  0.588397  0.621444  1
  Dy  Dy12  1  0.911922  0.709341  0.121083  1
  Dy  Dy13  1  0.911779  0.290541  0.621368  1
  Dy  Dy14  1  0.088221  0.709459  0.621368  1
  Dy  Dy15  1  0.088078  0.290659  0.121083  1
  Dy  Dy16  1  0.500000  0.500000  0.499449  1
  Tm  Tm17  1  0.000000  0.000000  0.499445  1
  Tm  Tm18  1  0.000000  0.000000  0.999359  1
  Tm  Tm19  1  0.500000  0.500000  0.999371  1
  Ir  Ir20  1  0.848593  0.152829  0.250241  1
  Ir  Ir21  1  0.848582  0.847461  0.749820  1
  Ir  Ir22  1  0.151418  0.152539  0.749820  1
  Ir  Ir23  1  0.151407  0.847171  0.250241  1
  Ir  Ir24  1  0.653082  0.348049  0.750723  1
  Ir  Ir25  1  0.653371  0.651960  0.249394  1
  Ir  Ir26  1  0.346629  0.348040  0.249394  1
  Ir  Ir27  1  0.346918  0.651951  0.750723  1
  Ir  Ir28  1  0.500000  0.000000  0.624093  1
  Ir  Ir29  1  0.000000  0.500000  0.876834  1
  Ir  Ir30  1  0.000000  0.500000  0.377153  1
  Os  Os31  1  0.500000  0.000000  0.125758  1
