# generated using pymatgen
data_Cs2Pr10Tc2Br17
_symmetry_space_group_name_H-M   'P 1'
_cell_length_a   9.76614969
_cell_length_b   11.25331453
_cell_length_c   11.25341647
_cell_angle_alpha   106.76996456
_cell_angle_beta   93.75697114
_cell_angle_gamma   93.74983308
_symmetry_Int_Tables_number   1
_chemical_formula_structural   Cs2Pr10Tc2Br17
_chemical_formula_sum   'Cs2 Pr10 Tc2 Br17'
_cell_volume   1177.01521204
_cell_formula_units_Z   1
loop_
 _symmetry_equiv_pos_site_id
 _symmetry_equiv_pos_as_xyz
  1  'x, y, z'
loop_
 _atom_site_type_symbol
 _atom_site_label
 _atom_site_symmetry_multiplicity
 _atom_site_fract_x
 _atom_site_fract_y
 _atom_site_fract_z
 _atom_site_occupancy
  Cs  Cs0  1  0.999427  0.819712  0.179756  1
  Cs  Cs1  1  0.999402  0.179728  0.819700  1
  Pr  Pr2  1  0.439639  0.164509  0.164484  1
  Pr  Pr3  1  0.573694  0.509198  0.201366  1
  Pr  Pr4  1  0.825131  0.290363  0.290416  1
  Pr  Pr5  1  0.298977  0.425939  0.425977  1
  Pr  Pr6  1  0.426819  0.792848  0.495403  1
  Pr  Pr7  1  0.573646  0.201319  0.509183  1
  Pr  Pr8  1  0.703566  0.567623  0.567604  1
  Pr  Pr9  1  0.169440  0.711590  0.711599  1
  Pr  Pr10  1  0.426853  0.495403  0.792850  1
  Pr  Pr11  1  0.561753  0.838536  0.838530  1
  Tc  Tc12  1  0.568297  0.361867  0.361866  1
  Tc  Tc13  1  0.430830  0.638863  0.638879  1
  Br  Br14  1  0.579396  0.686653  0.018516  1
  Br  Br15  1  0.712077  0.069138  0.069135  1
  Br  Br16  1  0.854545  0.452425  0.120735  1
  Br  Br17  1  0.134025  0.206259  0.206269  1
  Br  Br18  1  0.287296  0.603699  0.257782  1
  Br  Br19  1  0.420873  0.979749  0.315181  1
  Br  Br20  1  0.713093  0.743026  0.396581  1
  Br  Br21  1  0.854435  0.120663  0.452383  1
  Br  Br22  1  0.000424  0.499715  0.499818  1
  Br  Br23  1  0.145792  0.878248  0.548636  1
  Br  Br24  1  0.287278  0.257758  0.603670  1
  Br  Br25  1  0.579349  0.018511  0.686647  1
  Br  Br26  1  0.713082  0.396545  0.743009  1
  Br  Br27  1  0.866357  0.794686  0.794450  1
  Br  Br28  1  0.145801  0.548644  0.878250  1
  Br  Br29  1  0.287724  0.931569  0.931574  1
  Br  Br30  1  0.420984  0.315215  0.979754  1
