# generated using pymatgen
data_HfNb2Fe3Co5MoP6
_symmetry_space_group_name_H-M   'P 1'
_cell_length_a   11.92340900
_cell_length_b   11.92340917
_cell_length_c   3.63215000
_cell_angle_alpha   90.00000000
_cell_angle_beta   90.00000000
_cell_angle_gamma   120.00000231
_symmetry_Int_Tables_number   1
_chemical_formula_structural   HfNb2Fe3Co5MoP6
_chemical_formula_sum   'Hf2 Nb4 Fe6 Co10 Mo2 P12'
_cell_volume   447.19329816
_cell_formula_units_Z   2
loop_
 _symmetry_equiv_pos_site_id
 _symmetry_equiv_pos_as_xyz
  1  'x, y, z'
loop_
 _atom_site_type_symbol
 _atom_site_label
 _atom_site_symmetry_multiplicity
 _atom_site_fract_x
 _atom_site_fract_y
 _atom_site_fract_z
 _atom_site_occupancy
  Hf  Hf0  1  0.332854  0.666796  0.000000  1
  Hf  Hf1  1  0.666722  0.332888  0.000000  1
  Nb  Nb2  1  0.821046  0.999039  0.500000  1
  Nb  Nb3  1  0.001228  0.822060  0.500000  1
  Nb  Nb4  1  0.176583  0.177617  0.500000  1
  Nb  Nb5  1  0.555025  0.555133  0.000000  1
  Fe  Fe6  1  0.278611  0.002434  0.500000  1
  Fe  Fe7  1  0.996832  0.275891  0.500000  1
  Fe  Fe8  1  0.725638  0.722807  0.500000  1
  Fe  Fe9  1  0.630144  0.809186  0.000000  1
  Fe  Fe10  1  0.193239  0.822460  0.000000  1
  Fe  Fe11  1  0.175905  0.369443  0.000000  1
  Co  Co12  1  0.369716  0.178450  0.000000  1
  Co  Co13  1  0.811401  0.629924  0.000000  1
  Co  Co14  1  0.820151  0.190929  0.000000  1
  Co  Co15  1  0.513263  0.871879  0.500000  1
  Co  Co16  1  0.130241  0.642875  0.500000  1
  Co  Co17  1  0.355324  0.484970  0.500000  1
  Co  Co18  1  0.484583  0.352792  0.500000  1
  Co  Co19  1  0.870490  0.514745  0.500000  1
  Co  Co20  1  0.646064  0.131575  0.500000  1
  Co  Co21  1  0.000454  0.000369  0.000000  1
  Mo  Mo22  1  0.448393  0.001163  0.000000  1
  Mo  Mo23  1  0.999330  0.447642  0.000000  1
  P  P24  1  0.174441  0.997845  0.000000  1
  P  P25  1  0.000137  0.175510  0.000000  1
  P  P26  1  0.824695  0.825934  0.000000  1
  P  P27  1  0.521828  0.692772  0.500000  1
  P  P28  1  0.310260  0.833107  0.500000  1
  P  P29  1  0.166279  0.477053  0.500000  1
  P  P30  1  0.480062  0.166222  0.500000  1
  P  P31  1  0.689907  0.519308  0.500000  1
  P  P32  1  0.833358  0.313366  0.500000  1
  P  P33  1  0.643850  0.999435  0.000000  1
  P  P34  1  0.003523  0.645943  0.000000  1
  P  P35  1  0.348420  0.350438  0.000000  1
