# generated using pymatgen
data_Ho2Sc4Pb5
_symmetry_space_group_name_H-M   'P 1'
_cell_length_a   11.28316615
_cell_length_b   11.28316619
_cell_length_c   11.28316623
_cell_angle_alpha   131.87447110
_cell_angle_beta   59.39542181
_cell_angle_gamma   147.31045294
_symmetry_Int_Tables_number   1
_chemical_formula_structural   Ho2Sc4Pb5
_chemical_formula_sum   'Ho4 Sc8 Pb10'
_cell_volume   572.70173357
_cell_formula_units_Z   2
loop_
 _symmetry_equiv_pos_site_id
 _symmetry_equiv_pos_as_xyz
  1  'x, y, z'
loop_
 _atom_site_type_symbol
 _atom_site_label
 _atom_site_symmetry_multiplicity
 _atom_site_fract_x
 _atom_site_fract_y
 _atom_site_fract_z
 _atom_site_occupancy
  Ho  Ho0  1  0.141928  0.111901  0.253829  1
  Ho  Ho1  1  0.858071  0.888101  0.746172  1
  Ho  Ho2  1  0.358071  0.611901  0.969970  1
  Ho  Ho3  1  0.641929  0.388100  0.030028  1
  Sc  Sc4  1  0.557098  0.250000  0.307097  1
  Sc  Sc5  1  0.942903  0.250000  0.692903  1
  Sc  Sc6  1  0.442903  0.750000  0.692903  1
  Sc  Sc7  1  0.057097  0.750000  0.307097  1
  Sc  Sc8  1  0.438043  0.237478  0.675521  1
  Sc  Sc9  1  0.561958  0.762522  0.324479  1
  Sc  Sc10  1  0.061957  0.737479  0.799436  1
  Sc  Sc11  1  0.938043  0.262523  0.200565  1
  Pb  Pb12  1  0.290981  0.299415  0.590396  1
  Pb  Pb13  1  0.709019  0.700585  0.409603  1
  Pb  Pb14  1  0.209020  0.799416  0.008434  1
  Pb  Pb15  1  0.790982  0.200584  0.991566  1
  Pb  Pb16  1  0.250000  0.250000  0.000000  1
  Pb  Pb17  1  0.749999  0.749999  0.000000  1
  Pb  Pb18  1  0.071650  0.404732  0.476382  1
  Pb  Pb19  1  0.928351  0.595268  0.523618  1
  Pb  Pb20  1  0.428351  0.904733  0.333083  1
  Pb  Pb21  1  0.571649  0.095267  0.666917  1
