# generated using pymatgen
data_Nd8Tl2RuPt
_symmetry_space_group_name_H-M   'P 1'
_cell_length_a   9.97136302
_cell_length_b   9.97136240
_cell_length_c   10.02595300
_cell_angle_alpha   59.81872794
_cell_angle_beta   59.81873000
_cell_angle_gamma   59.88054752
_symmetry_Int_Tables_number   1
_chemical_formula_structural   Nd8Tl2RuPt
_chemical_formula_sum   'Nd16 Tl4 Ru2 Pt2'
_cell_volume   702.31650858
_cell_formula_units_Z   2
loop_
 _symmetry_equiv_pos_site_id
 _symmetry_equiv_pos_as_xyz
  1  'x, y, z'
loop_
 _atom_site_type_symbol
 _atom_site_label
 _atom_site_symmetry_multiplicity
 _atom_site_fract_x
 _atom_site_fract_y
 _atom_site_fract_z
 _atom_site_occupancy
  Nd  Nd0  1  0.347870  0.347870  0.353703  1
  Nd  Nd1  1  0.347870  0.347870  0.950559  1
  Nd  Nd2  1  0.345668  0.954992  0.349670  1
  Nd  Nd3  1  0.954992  0.345668  0.349670  1
  Nd  Nd4  1  0.816106  0.188559  0.191335  1
  Nd  Nd5  1  0.188559  0.816106  0.804000  1
  Nd  Nd6  1  0.188559  0.816106  0.191335  1
  Nd  Nd7  1  0.816106  0.188559  0.804000  1
  Nd  Nd8  1  0.189350  0.189350  0.810650  1
  Nd  Nd9  1  0.807448  0.807448  0.192552  1
  Nd  Nd10  1  0.939131  0.557008  0.563077  1
  Nd  Nd11  1  0.557008  0.939131  0.940784  1
  Nd  Nd12  1  0.557008  0.939131  0.563077  1
  Nd  Nd13  1  0.939131  0.557008  0.940784  1
  Nd  Nd14  1  0.558934  0.558934  0.941066  1
  Nd  Nd15  1  0.940856  0.940856  0.559144  1
  Tl  Tl16  1  0.583831  0.583831  0.583619  1
  Tl  Tl17  1  0.583831  0.583831  0.248719  1
  Tl  Tl18  1  0.584130  0.247483  0.584194  1
  Tl  Tl19  1  0.247483  0.584130  0.584194  1
  Ru  Ru20  1  0.142816  0.142816  0.138059  1
  Ru  Ru21  1  0.142816  0.142816  0.576309  1
  Pt  Pt22  1  0.146238  0.574261  0.139751  1
  Pt  Pt23  1  0.574261  0.146238  0.139751  1
