# generated using pymatgen
data_EuY2RuO7
_symmetry_space_group_name_H-M   'P 1'
_cell_length_a   6.45203182
_cell_length_b   6.45202936
_cell_length_c   7.48397200
_cell_angle_alpha   90.00000000
_cell_angle_beta   90.00000000
_cell_angle_gamma   109.30882440
_symmetry_Int_Tables_number   1
_chemical_formula_structural   EuY2RuO7
_chemical_formula_sum   'Eu2 Y4 Ru2 O14'
_cell_volume   294.02345121
_cell_formula_units_Z   2
loop_
 _symmetry_equiv_pos_site_id
 _symmetry_equiv_pos_as_xyz
  1  'x, y, z'
loop_
 _atom_site_type_symbol
 _atom_site_label
 _atom_site_symmetry_multiplicity
 _atom_site_fract_x
 _atom_site_fract_y
 _atom_site_fract_z
 _atom_site_occupancy
  Eu  Eu0  1  0.000000  0.000000  0.500000  1
  Eu  Eu1  1  0.000000  0.000000  0.000000  1
  Y  Y2  1  0.483223  0.933667  0.750000  1
  Y  Y3  1  0.516777  0.066333  0.250000  1
  Y  Y4  1  0.933667  0.483223  0.750000  1
  Y  Y5  1  0.066333  0.516777  0.250000  1
  Ru  Ru6  1  0.500000  0.500000  0.500000  1
  Ru  Ru7  1  0.500000  0.500000  0.000000  1
  O  O8  1  0.587513  0.587513  0.750000  1
  O  O9  1  0.412487  0.412487  0.250000  1
  O  O10  1  0.841955  0.115866  0.750000  1
  O  O11  1  0.158045  0.884134  0.250000  1
  O  O12  1  0.115866  0.841955  0.750000  1
  O  O13  1  0.884134  0.158045  0.250000  1
  O  O14  1  0.444363  0.184521  0.962986  1
  O  O15  1  0.555637  0.815479  0.462986  1
  O  O16  1  0.184521  0.444363  0.962986  1
  O  O17  1  0.815479  0.555637  0.462986  1
  O  O18  1  0.444363  0.184521  0.537014  1
  O  O19  1  0.555637  0.815479  0.037014  1
  O  O20  1  0.815479  0.555637  0.037014  1
  O  O21  1  0.184521  0.444363  0.537014  1
