# generated using pymatgen
data_Y6Al24CuRu7
_symmetry_space_group_name_H-M   'P 1'
_cell_length_a   8.81004607
_cell_length_b   8.81004603
_cell_length_c   9.53229538
_cell_angle_alpha   89.76909345
_cell_angle_beta   90.23090417
_cell_angle_gamma   119.73125224
_symmetry_Int_Tables_number   1
_chemical_formula_structural   Y6Al24CuRu7
_chemical_formula_sum   'Y6 Al24 Cu1 Ru7'
_cell_volume   642.46505556
_cell_formula_units_Z   1
loop_
 _symmetry_equiv_pos_site_id
 _symmetry_equiv_pos_as_xyz
  1  'x, y, z'
loop_
 _atom_site_type_symbol
 _atom_site_label
 _atom_site_symmetry_multiplicity
 _atom_site_fract_x
 _atom_site_fract_y
 _atom_site_fract_z
 _atom_site_occupancy
  Y  Y0  1  0.191960  0.386264  0.248760  1
  Y  Y1  1  0.808040  0.613736  0.751240  1
  Y  Y2  1  0.613736  0.808040  0.248760  1
  Y  Y3  1  0.386264  0.191960  0.751240  1
  Y  Y4  1  0.194487  0.805513  0.251045  1
  Y  Y5  1  0.805513  0.194487  0.748955  1
  Al  Al6  1  0.332082  0.667918  0.020263  1
  Al  Al7  1  0.667918  0.332082  0.979737  1
  Al  Al8  1  0.666558  0.333442  0.515887  1
  Al  Al9  1  0.333442  0.666558  0.484113  1
  Al  Al10  1  0.163322  0.324578  0.578155  1
  Al  Al11  1  0.836678  0.675422  0.421845  1
  Al  Al12  1  0.675422  0.836678  0.578155  1
  Al  Al13  1  0.843489  0.676243  0.079425  1
  Al  Al14  1  0.324578  0.163322  0.421845  1
  Al  Al15  1  0.156511  0.323757  0.920575  1
  Al  Al16  1  0.162719  0.837281  0.577945  1
  Al  Al17  1  0.323757  0.156511  0.079425  1
  Al  Al18  1  0.837281  0.162719  0.422055  1
  Al  Al19  1  0.676243  0.843489  0.920575  1
  Al  Al20  1  0.836785  0.163215  0.077313  1
  Al  Al21  1  0.163215  0.836785  0.922687  1
  Al  Al22  1  0.560937  0.122148  0.248403  1
  Al  Al23  1  0.439063  0.877852  0.751597  1
  Al  Al24  1  0.877852  0.439063  0.248403  1
  Al  Al25  1  0.122148  0.560937  0.751597  1
  Al  Al26  1  0.561212  0.438788  0.249881  1
  Al  Al27  1  0.438788  0.561212  0.750119  1
  Al  Al28  1  0.999251  0.000749  0.250212  1
  Al  Al29  1  0.000749  0.999251  0.749788  1
  Cu  Cu30  1  0.500000  0.500000  0.000000  1
  Ru  Ru31  1  0.500000  0.000000  0.000000  1
  Ru  Ru32  1  0.000000  0.500000  0.000000  1
  Ru  Ru33  1  0.500000  0.000000  0.500000  1
  Ru  Ru34  1  0.000000  0.500000  0.500000  1
  Ru  Ru35  1  0.500000  0.500000  0.500000  1
  Ru  Ru36  1  0.000000  0.000000  0.000000  1
  Ru  Ru37  1  0.000000  0.000000  0.500000  1
