# generated using pymatgen
data_Pr10Cd(GaRu2)3
_symmetry_space_group_name_H-M   'P 1'
_cell_length_a   8.66260690
_cell_length_b   8.66260672
_cell_length_c   8.66260630
_cell_angle_alpha   109.74618773
_cell_angle_beta   109.74618663
_cell_angle_gamma   109.74618989
_symmetry_Int_Tables_number   1
_chemical_formula_structural   Pr10Cd(GaRu2)3
_chemical_formula_sum   'Pr10 Cd1 Ga3 Ru6'
_cell_volume   495.24775977
_cell_formula_units_Z   1
loop_
 _symmetry_equiv_pos_site_id
 _symmetry_equiv_pos_as_xyz
  1  'x, y, z'
loop_
 _atom_site_type_symbol
 _atom_site_label
 _atom_site_symmetry_multiplicity
 _atom_site_fract_x
 _atom_site_fract_y
 _atom_site_fract_z
 _atom_site_occupancy
  Pr  Pr0  1  0.245862  0.686383  0.436733  1
  Pr  Pr1  1  0.746013  0.814757  0.067577  1
  Pr  Pr2  1  0.436733  0.245862  0.686383  1
  Pr  Pr3  1  0.686383  0.436733  0.245862  1
  Pr  Pr4  1  0.067577  0.746013  0.814757  1
  Pr  Pr5  1  0.814757  0.067577  0.746013  1
  Pr  Pr6  1  0.209717  0.209717  0.209717  1
  Pr  Pr7  1  0.500117  0.002883  0.282649  1
  Pr  Pr8  1  0.282649  0.500117  0.002883  1
  Pr  Pr9  1  0.002883  0.282649  0.500117  1
  Cd  Cd10  1  0.590192  0.590192  0.590192  1
  Ga  Ga11  1  0.500232  0.000693  0.910535  1
  Ga  Ga12  1  0.910535  0.500232  0.000693  1
  Ga  Ga13  1  0.000693  0.910535  0.500232  1
  Ru  Ru14  1  0.251423  0.118344  0.871057  1
  Ru  Ru15  1  0.761602  0.368918  0.634313  1
  Ru  Ru16  1  0.871056  0.251423  0.118344  1
  Ru  Ru17  1  0.118344  0.871056  0.251423  1
  Ru  Ru18  1  0.634313  0.761602  0.368918  1
  Ru  Ru19  1  0.368918  0.634313  0.761602  1
