# generated using pymatgen
data_TbNd(Tc2P)4
_symmetry_space_group_name_H-M   'P 1'
_cell_length_a   7.45331848
_cell_length_b   7.45331848
_cell_length_c   3.96127100
_cell_angle_alpha   90.00000000
_cell_angle_beta   90.00000000
_cell_angle_gamma   90.40901053
_symmetry_Int_Tables_number   1
_chemical_formula_structural   TbNd(Tc2P)4
_chemical_formula_sum   'Tb1 Nd1 Tc8 P4'
_cell_volume   220.05074662
_cell_formula_units_Z   1
loop_
 _symmetry_equiv_pos_site_id
 _symmetry_equiv_pos_as_xyz
  1  'x, y, z'
loop_
 _atom_site_type_symbol
 _atom_site_label
 _atom_site_symmetry_multiplicity
 _atom_site_fract_x
 _atom_site_fract_y
 _atom_site_fract_z
 _atom_site_occupancy
  Tb  Tb0  1  0.500000  0.500000  0.000000  1
  Nd  Nd1  1  0.000000  0.000000  0.500000  1
  Tc  Tc2  1  0.083669  0.341800  0.000000  1
  Tc  Tc3  1  0.838447  0.419082  0.500000  1
  Tc  Tc4  1  0.161553  0.580918  0.500000  1
  Tc  Tc5  1  0.916331  0.658200  0.000000  1
  Tc  Tc6  1  0.419082  0.838447  0.500000  1
  Tc  Tc7  1  0.580918  0.161553  0.500000  1
  Tc  Tc8  1  0.341800  0.083669  0.000000  1
  Tc  Tc9  1  0.658200  0.916331  0.000000  1
  P  P10  1  0.784786  0.215214  0.000000  1
  P  P11  1  0.710210  0.710210  0.500000  1
  P  P12  1  0.289790  0.289790  0.500000  1
  P  P13  1  0.215214  0.784786  0.000000  1
