# generated using pymatgen
data_Pr6Co2P12Ru11Rh5
_symmetry_space_group_name_H-M   'P 1'
_cell_length_a   3.95920100
_cell_length_b   11.25145997
_cell_length_c   12.84193241
_cell_angle_alpha   89.69323031
_cell_angle_beta   90.00000000
_cell_angle_gamma   90.00000000
_symmetry_Int_Tables_number   1
_chemical_formula_structural   Pr6Co2P12Ru11Rh5
_chemical_formula_sum   'Pr6 Co2 P12 Ru11 Rh5'
_cell_volume   572.05868697
_cell_formula_units_Z   1
loop_
 _symmetry_equiv_pos_site_id
 _symmetry_equiv_pos_as_xyz
  1  'x, y, z'
loop_
 _atom_site_type_symbol
 _atom_site_label
 _atom_site_symmetry_multiplicity
 _atom_site_fract_x
 _atom_site_fract_y
 _atom_site_fract_z
 _atom_site_occupancy
  Pr  Pr0  1  0.000000  0.498908  0.522664  1
  Pr  Pr1  1  0.500000  0.001683  0.477803  1
  Pr  Pr2  1  0.500000  0.819174  0.203328  1
  Pr  Pr3  1  0.500000  0.179452  0.204331  1
  Pr  Pr4  1  0.000000  0.680913  0.796066  1
  Pr  Pr5  1  0.000000  0.320571  0.796005  1
  Co  Co6  1  0.000000  0.500384  0.991168  1
  Co  Co7  1  0.500000  0.999890  0.009021  1
  P  P8  1  0.500000  0.500910  0.890604  1
  P  P9  1  0.000000  0.999210  0.109016  1
  P  P10  1  0.500000  0.499933  0.340632  1
  P  P11  1  0.000000  0.992841  0.661731  1
  P  P12  1  0.500000  0.303342  0.613106  1
  P  P13  1  0.500000  0.699653  0.614780  1
  P  P14  1  0.000000  0.195830  0.387558  1
  P  P15  1  0.000000  0.802683  0.386050  1
  P  P16  1  0.500000  0.850090  0.898349  1
  P  P17  1  0.500000  0.152458  0.901589  1
  P  P18  1  0.000000  0.651617  0.098607  1
  P  P19  1  0.000000  0.348345  0.099259  1
  Ru  Ru20  1  0.500000  0.500034  0.157721  1
  Ru  Ru21  1  0.000000  0.000937  0.843672  1
  Ru  Ru22  1  0.500000  0.335755  0.994100  1
  Ru  Ru23  1  0.500000  0.665447  0.993148  1
  Ru  Ru24  1  0.000000  0.165283  0.006751  1
  Ru  Ru25  1  0.000000  0.835095  0.006316  1
  Ru  Ru26  1  0.500000  0.299189  0.427832  1
  Ru  Ru27  1  0.500000  0.700430  0.427258  1
  Ru  Ru28  1  0.000000  0.199296  0.572646  1
  Ru  Ru29  1  0.000000  0.798259  0.569779  1
  Ru  Ru30  1  0.500000  0.879841  0.714945  1
  Rh  Rh31  1  0.500000  0.500668  0.701838  1
  Rh  Rh32  1  0.000000  0.999143  0.298030  1
  Rh  Rh33  1  0.500000  0.124256  0.718723  1
  Rh  Rh34  1  0.000000  0.622039  0.282903  1
  Rh  Rh35  1  0.000000  0.376443  0.282668  1
