# generated using pymatgen
data_Tb3Ho9(Si3Ir)4
_symmetry_space_group_name_H-M   'P 1'
_cell_length_a   4.22851500
_cell_length_b   10.57467422
_cell_length_c   12.22870500
_cell_angle_alpha   90.08345668
_cell_angle_beta   90.00000000
_cell_angle_gamma   90.00000000
_symmetry_Int_Tables_number   1
_chemical_formula_structural   Tb3Ho9(Si3Ir)4
_chemical_formula_sum   'Tb3 Ho9 Si12 Ir4'
_cell_volume   546.80802516
_cell_formula_units_Z   1
loop_
 _symmetry_equiv_pos_site_id
 _symmetry_equiv_pos_as_xyz
  1  'x, y, z'
loop_
 _atom_site_type_symbol
 _atom_site_label
 _atom_site_symmetry_multiplicity
 _atom_site_fract_x
 _atom_site_fract_y
 _atom_site_fract_z
 _atom_site_occupancy
  Tb  Tb0  1  0.250000  0.841646  0.301069  1
  Tb  Tb1  1  0.750000  0.341108  0.199027  1
  Tb  Tb2  1  0.750000  0.158553  0.699019  1
  Ho  Ho3  1  0.250000  0.879567  0.020200  1
  Ho  Ho4  1  0.250000  0.620087  0.520558  1
  Ho  Ho5  1  0.750000  0.120030  0.979645  1
  Ho  Ho6  1  0.750000  0.380072  0.479969  1
  Ho  Ho7  1  0.250000  0.918773  0.603730  1
  Ho  Ho8  1  0.250000  0.580909  0.103380  1
  Ho  Ho9  1  0.750000  0.080943  0.396539  1
  Ho  Ho10  1  0.750000  0.419491  0.896362  1
  Ho  Ho11  1  0.250000  0.659712  0.800442  1
  Si  Si12  1  0.250000  0.010132  0.821830  1
  Si  Si13  1  0.250000  0.489612  0.321491  1
  Si  Si14  1  0.750000  0.989825  0.178202  1
  Si  Si15  1  0.750000  0.511075  0.678927  1
  Si  Si16  1  0.250000  0.247486  0.841149  1
  Si  Si17  1  0.250000  0.252521  0.341361  1
  Si  Si18  1  0.750000  0.752434  0.158626  1
  Si  Si19  1  0.750000  0.746847  0.659135  1
  Si  Si20  1  0.250000  0.200327  0.542946  1
  Si  Si21  1  0.250000  0.299768  0.042614  1
  Si  Si22  1  0.750000  0.799509  0.457312  1
  Si  Si23  1  0.750000  0.699627  0.956080  1
  Ir  Ir24  1  0.250000  0.390548  0.680712  1
  Ir  Ir25  1  0.250000  0.110409  0.180029  1
  Ir  Ir26  1  0.750000  0.610124  0.319802  1
  Ir  Ir27  1  0.750000  0.888864  0.819844  1
