# generated using pymatgen
data_ErZr8ScSn6
_symmetry_space_group_name_H-M   'P 1'
_cell_length_a   8.61693191
_cell_length_b   8.61331375
_cell_length_c   5.85213200
_cell_angle_alpha   90.00000000
_cell_angle_beta   90.00000000
_cell_angle_gamma   120.56757941
_symmetry_Int_Tables_number   1
_chemical_formula_structural   ErZr8ScSn6
_chemical_formula_sum   'Er1 Zr8 Sc1 Sn6'
_cell_volume   373.98595175
_cell_formula_units_Z   1
loop_
 _symmetry_equiv_pos_site_id
 _symmetry_equiv_pos_as_xyz
  1  'x, y, z'
loop_
 _atom_site_type_symbol
 _atom_site_label
 _atom_site_symmetry_multiplicity
 _atom_site_fract_x
 _atom_site_fract_y
 _atom_site_fract_z
 _atom_site_occupancy
  Er  Er0  1  0.233835  0.233849  0.750000  1
  Zr  Zr1  1  0.998133  0.750537  0.750000  1
  Zr  Zr2  1  0.997409  0.248858  0.250000  1
  Zr  Zr3  1  0.756814  0.758351  0.250000  1
  Zr  Zr4  1  0.751073  0.998969  0.750000  1
  Zr  Zr5  1  0.335816  0.666049  0.499783  1
  Zr  Zr6  1  0.670143  0.336193  0.000181  1
  Zr  Zr7  1  0.670143  0.336193  0.499819  1
  Zr  Zr8  1  0.335816  0.666049  0.000217  1
  Sc  Sc9  1  0.244917  0.999802  0.250000  1
  Sn  Sn10  1  0.394404  0.997939  0.750000  1
  Sn  Sn11  1  0.392475  0.391357  0.250000  1
  Sn  Sn12  1  0.002895  0.612136  0.250000  1
  Sn  Sn13  1  0.998612  0.394017  0.750000  1
  Sn  Sn14  1  0.610297  0.609707  0.750000  1
  Sn  Sn15  1  0.607218  0.999993  0.250000  1
