# generated using pymatgen
data_Y3V2Co6Si
_symmetry_space_group_name_H-M   'P 1'
_cell_length_a   5.19980400
_cell_length_b   5.19980506
_cell_length_c   15.27251300
_cell_angle_alpha   90.00000000
_cell_angle_beta   90.00000000
_cell_angle_gamma   120.00000601
_symmetry_Int_Tables_number   1
_chemical_formula_structural   Y3V2Co6Si
_chemical_formula_sum   'Y6 V4 Co12 Si2'
_cell_volume   357.61452056
_cell_formula_units_Z   2
loop_
 _symmetry_equiv_pos_site_id
 _symmetry_equiv_pos_as_xyz
  1  'x, y, z'
loop_
 _atom_site_type_symbol
 _atom_site_label
 _atom_site_symmetry_multiplicity
 _atom_site_fract_x
 _atom_site_fract_y
 _atom_site_fract_z
 _atom_site_occupancy
  Y  Y0  1  0.333333  0.666667  0.041137  1
  Y  Y1  1  0.333333  0.666667  0.250000  1
  Y  Y2  1  0.333333  0.666667  0.458863  1
  Y  Y3  1  0.666667  0.333334  0.541137  1
  Y  Y4  1  0.666667  0.333334  0.750000  1
  Y  Y5  1  0.666667  0.333334  0.958863  1
  V  V6  1  0.000000  0.000000  0.250000  1
  V  V7  1  0.666667  0.333334  0.250000  1
  V  V8  1  0.000000  0.000000  0.750000  1
  V  V9  1  0.333333  0.666667  0.750000  1
  Co  Co10  1  0.330366  0.165183  0.129148  1
  Co  Co11  1  0.834817  0.165183  0.129148  1
  Co  Co12  1  0.834817  0.669633  0.129148  1
  Co  Co13  1  0.330366  0.165183  0.370852  1
  Co  Co14  1  0.834817  0.165183  0.370852  1
  Co  Co15  1  0.834817  0.669633  0.370852  1
  Co  Co16  1  0.165183  0.330366  0.629147  1
  Co  Co17  1  0.165183  0.834816  0.629147  1
  Co  Co18  1  0.669633  0.834816  0.629147  1
  Co  Co19  1  0.165183  0.330366  0.870852  1
  Co  Co20  1  0.165183  0.834816  0.870852  1
  Co  Co21  1  0.669633  0.834816  0.870852  1
  Si  Si22  1  0.000000  0.000000  0.000000  1
  Si  Si23  1  0.000000  0.000000  0.500000  1
