# generated using pymatgen
data_YTm9(InBi)3
_symmetry_space_group_name_H-M   'P 1'
_cell_length_a   6.54131500
_cell_length_b   8.93506959
_cell_length_c   8.94990160
_cell_angle_alpha   119.94519119
_cell_angle_beta   89.99997277
_cell_angle_gamma   90.00003910
_symmetry_Int_Tables_number   1
_chemical_formula_structural   YTm9(InBi)3
_chemical_formula_sum   'Y1 Tm9 In3 Bi3'
_cell_volume   453.26427040
_cell_formula_units_Z   1
loop_
 _symmetry_equiv_pos_site_id
 _symmetry_equiv_pos_as_xyz
  1  'x, y, z'
loop_
 _atom_site_type_symbol
 _atom_site_label
 _atom_site_symmetry_multiplicity
 _atom_site_fract_x
 _atom_site_fract_y
 _atom_site_fract_z
 _atom_site_occupancy
  Y  Y0  1  0.750013  0.234342  0.000000  1
  Tm  Tm1  1  0.491748  0.333406  0.667000  1
  Tm  Tm2  1  0.491748  0.666407  0.333000  1
  Tm  Tm3  1  0.008251  0.666410  0.333003  1
  Tm  Tm4  1  0.008251  0.333408  0.666997  1
  Tm  Tm5  1  0.749996  0.764758  0.764393  1
  Tm  Tm6  1  0.749996  0.000365  0.235607  1
  Tm  Tm7  1  0.249999  0.764336  0.000000  1
  Tm  Tm8  1  0.250000  0.236362  0.236682  1
  Tm  Tm9  1  0.250000  0.999680  0.763318  1
  In  In10  1  0.250000  0.393650  0.000000  1
  In  In11  1  0.250000  0.606340  0.606155  1
  In  In12  1  0.250000  0.000184  0.393845  1
  Bi  Bi13  1  0.750001  0.603894  0.000000  1
  Bi  Bi14  1  0.749997  0.397026  0.397592  1
  Bi  Bi15  1  0.749997  0.999435  0.602408  1
