# generated using pymatgen
data_Tb8Ti4Nb7Si16Mo
_symmetry_space_group_name_H-M   'P 1'
_cell_length_a   7.06582255
_cell_length_b   7.06276327
_cell_length_c   13.02556578
_cell_angle_alpha   89.90378606
_cell_angle_beta   90.04031548
_cell_angle_gamma   89.96471949
_symmetry_Int_Tables_number   1
_chemical_formula_structural   Tb8Ti4Nb7Si16Mo
_chemical_formula_sum   'Tb8 Ti4 Nb7 Si16 Mo1'
_cell_volume   650.02965541
_cell_formula_units_Z   1
loop_
 _symmetry_equiv_pos_site_id
 _symmetry_equiv_pos_as_xyz
  1  'x, y, z'
loop_
 _atom_site_type_symbol
 _atom_site_label
 _atom_site_symmetry_multiplicity
 _atom_site_fract_x
 _atom_site_fract_y
 _atom_site_fract_z
 _atom_site_occupancy
  Tb  Tb0  1  0.341427  0.001677  0.466959  1
  Tb  Tb1  1  0.498067  0.840794  0.718141  1
  Tb  Tb2  1  0.500868  0.157812  0.216204  1
  Tb  Tb3  1  0.840852  0.499026  0.283012  1
  Tb  Tb4  1  0.158873  0.500872  0.782746  1
  Tb  Tb5  1  0.659740  0.997400  0.967423  1
  Tb  Tb6  1  0.001980  0.339768  0.533786  1
  Tb  Tb7  1  0.997043  0.660714  0.031168  1
  Ti  Ti8  1  0.346040  0.509010  0.375911  1
  Ti  Ti9  1  0.845443  0.992166  0.374244  1
  Ti  Ti10  1  0.007554  0.153424  0.125835  1
  Ti  Ti11  1  0.989693  0.844825  0.625195  1
  Nb  Nb12  1  0.327414  0.328376  0.999493  1
  Nb  Nb13  1  0.172401  0.827124  0.249437  1
  Nb  Nb14  1  0.828294  0.171678  0.750228  1
  Nb  Nb15  1  0.672362  0.671363  0.499838  1
  Nb  Nb16  1  0.490063  0.655119  0.123607  1
  Nb  Nb17  1  0.506391  0.346296  0.625683  1
  Nb  Nb18  1  0.653614  0.491010  0.875434  1
  Si  Si19  1  0.201526  0.128810  0.684833  1
  Si  Si20  1  0.366912  0.707106  0.931819  1
  Si  Si21  1  0.631642  0.296218  0.434156  1
  Si  Si22  1  0.705734  0.367152  0.067464  1
  Si  Si23  1  0.296590  0.633580  0.566374  1
  Si  Si24  1  0.798720  0.869378  0.184560  1
  Si  Si25  1  0.130996  0.202124  0.315657  1
  Si  Si26  1  0.871785  0.800350  0.816711  1
  Si  Si27  1  0.290499  0.956313  0.062442  1
  Si  Si28  1  0.546661  0.792380  0.314153  1
  Si  Si29  1  0.451055  0.205766  0.813891  1
  Si  Si30  1  0.794536  0.548446  0.685771  1
  Si  Si31  1  0.206637  0.452784  0.186930  1
  Si  Si32  1  0.710115  0.045451  0.562644  1
  Si  Si33  1  0.956554  0.288655  0.937247  1
  Si  Si34  1  0.046236  0.707991  0.436108  1
  Mo  Mo35  1  0.155681  0.009045  0.874892  1
