# generated using pymatgen
data_Lu4Al4RuPt3
_symmetry_space_group_name_H-M   'P 1'
_cell_length_a   4.31795200
_cell_length_b   6.72080178
_cell_length_c   7.80696093
_cell_angle_alpha   89.88173003
_cell_angle_beta   90.00000000
_cell_angle_gamma   90.00000000
_symmetry_Int_Tables_number   1
_chemical_formula_structural   Lu4Al4RuPt3
_chemical_formula_sum   'Lu4 Al4 Ru1 Pt3'
_cell_volume   226.55830026
_cell_formula_units_Z   1
loop_
 _symmetry_equiv_pos_site_id
 _symmetry_equiv_pos_as_xyz
  1  'x, y, z'
loop_
 _atom_site_type_symbol
 _atom_site_label
 _atom_site_symmetry_multiplicity
 _atom_site_fract_x
 _atom_site_fract_y
 _atom_site_fract_z
 _atom_site_occupancy
  Lu  Lu0  1  0.250000  0.032979  0.676354  1
  Lu  Lu1  1  0.250000  0.530588  0.820492  1
  Lu  Lu2  1  0.750000  0.975991  0.323225  1
  Lu  Lu3  1  0.750000  0.466697  0.182276  1
  Al  Al4  1  0.250000  0.143702  0.060306  1
  Al  Al5  1  0.250000  0.637773  0.438432  1
  Al  Al6  1  0.750000  0.858461  0.940054  1
  Al  Al7  1  0.750000  0.356671  0.558143  1
  Ru  Ru8  1  0.250000  0.261051  0.378742  1
  Pt  Pt9  1  0.250000  0.768165  0.120772  1
  Pt  Pt10  1  0.750000  0.733445  0.623386  1
  Pt  Pt11  1  0.750000  0.234477  0.877817  1
