# generated using pymatgen
data_La2Cd14Pd3
_symmetry_space_group_name_H-M   'P 1'
_cell_length_a   7.56641684
_cell_length_b   7.56641628
_cell_length_c   7.56641619
_cell_angle_alpha   82.61021432
_cell_angle_beta   82.61020666
_cell_angle_gamma   82.61021251
_symmetry_Int_Tables_number   1
_chemical_formula_structural   La2Cd14Pd3
_chemical_formula_sum   'La2 Cd14 Pd3'
_cell_volume   423.24084975
_cell_formula_units_Z   1
loop_
 _symmetry_equiv_pos_site_id
 _symmetry_equiv_pos_as_xyz
  1  'x, y, z'
loop_
 _atom_site_type_symbol
 _atom_site_label
 _atom_site_symmetry_multiplicity
 _atom_site_fract_x
 _atom_site_fract_y
 _atom_site_fract_z
 _atom_site_occupancy
  La  La0  1  0.338185  0.338185  0.338185  1
  La  La1  1  0.661815  0.661815  0.661815  1
  Cd  Cd2  1  0.701323  0.298678  0.000000  1
  Cd  Cd3  1  0.298678  0.701323  0.000000  1
  Cd  Cd4  1  0.106527  0.106527  0.106527  1
  Cd  Cd5  1  0.651625  0.651625  0.150917  1
  Cd  Cd6  1  0.701323  0.000000  0.298677  1
  Cd  Cd7  1  0.000000  0.701323  0.298677  1
  Cd  Cd8  1  0.849083  0.348375  0.348375  1
  Cd  Cd9  1  0.348375  0.849083  0.348375  1
  Cd  Cd10  1  0.651625  0.150917  0.651625  1
  Cd  Cd11  1  0.150917  0.651625  0.651625  1
  Cd  Cd12  1  0.298678  0.000000  0.701322  1
  Cd  Cd13  1  0.000000  0.298678  0.701322  1
  Cd  Cd14  1  0.348375  0.348375  0.849083  1
  Cd  Cd15  1  0.893473  0.893473  0.893473  1
  Pd  Pd16  1  0.500000  0.000000  0.000000  1
  Pd  Pd17  1  0.000000  0.500000  0.000000  1
  Pd  Pd18  1  0.000000  0.000000  0.500001  1
