# generated using pymatgen
data_Li2Ce4Zn2Ir3Pt
_symmetry_space_group_name_H-M   'P 1'
_cell_length_a   3.99974000
_cell_length_b   7.05663476
_cell_length_c   8.42004126
_cell_angle_alpha   90.22548984
_cell_angle_beta   90.00000000
_cell_angle_gamma   90.00000000
_symmetry_Int_Tables_number   1
_chemical_formula_structural   Li2Ce4Zn2Ir3Pt
_chemical_formula_sum   'Li2 Ce4 Zn2 Ir3 Pt1'
_cell_volume   237.65133452
_cell_formula_units_Z   1
loop_
 _symmetry_equiv_pos_site_id
 _symmetry_equiv_pos_as_xyz
  1  'x, y, z'
loop_
 _atom_site_type_symbol
 _atom_site_label
 _atom_site_symmetry_multiplicity
 _atom_site_fract_x
 _atom_site_fract_y
 _atom_site_fract_z
 _atom_site_occupancy
  Li  Li0  1  0.250000  0.625037  0.555361  1
  Li  Li1  1  0.250000  0.124470  0.944581  1
  Ce  Ce2  1  0.750000  0.458197  0.804745  1
  Ce  Ce3  1  0.250000  0.041998  0.319314  1
  Ce  Ce4  1  0.750000  0.954132  0.692180  1
  Ce  Ce5  1  0.250000  0.553073  0.190090  1
  Zn  Zn6  1  0.750000  0.375010  0.442341  1
  Zn  Zn7  1  0.750000  0.872219  0.058748  1
  Ir  Ir8  1  0.250000  0.740158  0.873244  1
  Ir  Ir9  1  0.250000  0.239104  0.625282  1
  Ir  Ir10  1  0.750000  0.759273  0.368704  1
  Pt  Pt11  1  0.750000  0.257329  0.125409  1
