# generated using pymatgen
data_Lu3ZnIn3GaNi
_symmetry_space_group_name_H-M   'P 1'
_cell_length_a   7.19427500
_cell_length_b   7.19427533
_cell_length_c   4.22072300
_cell_angle_alpha   90.00000000
_cell_angle_beta   90.00000000
_cell_angle_gamma   120.00000310
_symmetry_Int_Tables_number   1
_chemical_formula_structural   Lu3ZnIn3GaNi
_chemical_formula_sum   'Lu3 Zn1 In3 Ga1 Ni1'
_cell_volume   189.18711656
_cell_formula_units_Z   1
loop_
 _symmetry_equiv_pos_site_id
 _symmetry_equiv_pos_as_xyz
  1  'x, y, z'
loop_
 _atom_site_type_symbol
 _atom_site_label
 _atom_site_symmetry_multiplicity
 _atom_site_fract_x
 _atom_site_fract_y
 _atom_site_fract_z
 _atom_site_occupancy
  Lu  Lu0  1  0.594509  0.997943  0.000000  1
  Lu  Lu1  1  0.002057  0.596566  0.000000  1
  Lu  Lu2  1  0.403434  0.405491  0.000000  1
  Zn  Zn3  1  0.666667  0.333333  0.500000  1
  In  In4  1  0.249023  0.004595  0.500000  1
  In  In5  1  0.995405  0.244429  0.500000  1
  In  In6  1  0.755571  0.750977  0.500000  1
  Ga  Ga7  1  0.333333  0.666667  0.500000  1
  Ni  Ni8  1  0.000000  0.000000  0.000000  1
