# generated using pymatgen
data_Er6Pd7Rh
_symmetry_space_group_name_H-M   'P 1'
_cell_length_a   5.76690964
_cell_length_b   7.77510909
_cell_length_c   7.77510834
_cell_angle_alpha   114.09871292
_cell_angle_beta   104.31414416
_cell_angle_gamma   104.31412990
_symmetry_Int_Tables_number   1
_chemical_formula_structural   Er6Pd7Rh
_chemical_formula_sum   'Er6 Pd7 Rh1'
_cell_volume   283.46126942
_cell_formula_units_Z   1
loop_
 _symmetry_equiv_pos_site_id
 _symmetry_equiv_pos_as_xyz
  1  'x, y, z'
loop_
 _atom_site_type_symbol
 _atom_site_label
 _atom_site_symmetry_multiplicity
 _atom_site_fract_x
 _atom_site_fract_y
 _atom_site_fract_z
 _atom_site_occupancy
  Er  Er0  1  0.398514  0.376235  0.127415  1
  Er  Er1  1  0.271100  0.872586  0.248821  1
  Er  Er2  1  0.977721  0.248820  0.376234  1
  Er  Er3  1  0.022279  0.751180  0.623765  1
  Er  Er4  1  0.728899  0.127414  0.751179  1
  Er  Er5  1  0.601486  0.623764  0.872585  1
  Pd  Pd6  1  0.500000  0.000000  0.000000  1
  Pd  Pd7  1  0.934384  0.483620  0.165256  1
  Pd  Pd8  1  0.769129  0.834744  0.318365  1
  Pd  Pd9  1  0.549236  0.318363  0.483620  1
  Pd  Pd10  1  0.450764  0.681636  0.516380  1
  Pd  Pd11  1  0.230872  0.165257  0.681636  1
  Pd  Pd12  1  0.065615  0.516379  0.834743  1
  Rh  Rh13  1  0.000000  0.000000  0.000000  1
