# generated using pymatgen
data_ScPaV12P7
_symmetry_space_group_name_H-M   'P 1'
_cell_length_a   10.05752200
_cell_length_b   10.05752202
_cell_length_c   3.29275900
_cell_angle_alpha   90.00000000
_cell_angle_beta   90.00000000
_cell_angle_gamma   120.00000650
_symmetry_Int_Tables_number   1
_chemical_formula_structural   ScPaV12P7
_chemical_formula_sum   'Sc1 Pa1 V12 P7'
_cell_volume   288.45132096
_cell_formula_units_Z   1
loop_
 _symmetry_equiv_pos_site_id
 _symmetry_equiv_pos_as_xyz
  1  'x, y, z'
loop_
 _atom_site_type_symbol
 _atom_site_label
 _atom_site_symmetry_multiplicity
 _atom_site_fract_x
 _atom_site_fract_y
 _atom_site_fract_z
 _atom_site_occupancy
  Sc  Sc0  1  0.000000  0.000000  0.000000  1
  Pa  Pa1  1  0.666667  0.333333  0.500000  1
  V  V2  1  0.383564  0.283026  0.000000  1
  V  V3  1  0.899461  0.616436  0.000000  1
  V  V4  1  0.716974  0.100539  0.000000  1
  V  V5  1  0.610363  0.780147  0.000000  1
  V  V6  1  0.169786  0.389637  0.000000  1
  V  V7  1  0.219853  0.830214  0.000000  1
  V  V8  1  0.766797  0.716877  0.500000  1
  V  V9  1  0.950081  0.233203  0.500000  1
  V  V10  1  0.283123  0.049919  0.500000  1
  V  V11  1  0.416554  0.536852  0.500000  1
  V  V12  1  0.120299  0.583446  0.500000  1
  V  V13  1  0.463148  0.879701  0.500000  1
  P  P14  1  0.610846  0.535256  0.000000  1
  P  P15  1  0.924410  0.389154  0.000000  1
  P  P16  1  0.464744  0.075590  0.000000  1
  P  P17  1  0.766174  0.961235  0.500000  1
  P  P18  1  0.195061  0.233826  0.500000  1
  P  P19  1  0.038765  0.804939  0.500000  1
  P  P20  1  0.333333  0.666667  0.000000  1
