# generated using pymatgen
data_Ca2Pr3Ir2
_symmetry_space_group_name_H-M   'P 1'
_cell_length_a   8.86032968
_cell_length_b   8.86033044
_cell_length_c   7.49286305
_cell_angle_alpha   83.36753075
_cell_angle_beta   83.36752815
_cell_angle_gamma   44.82287155
_symmetry_Int_Tables_number   1
_chemical_formula_structural   Ca2Pr3Ir2
_chemical_formula_sum   'Ca4 Pr6 Ir4'
_cell_volume   411.40504553
_cell_formula_units_Z   2
loop_
 _symmetry_equiv_pos_site_id
 _symmetry_equiv_pos_as_xyz
  1  'x, y, z'
loop_
 _atom_site_type_symbol
 _atom_site_label
 _atom_site_symmetry_multiplicity
 _atom_site_fract_x
 _atom_site_fract_y
 _atom_site_fract_z
 _atom_site_occupancy
  Ca  Ca0  1  0.015339  0.801551  0.917235  1
  Ca  Ca1  1  0.198449  0.984661  0.582765  1
  Ca  Ca2  1  0.984661  0.198449  0.082765  1
  Ca  Ca3  1  0.801551  0.015339  0.417235  1
  Pr  Pr4  1  0.347006  0.214270  0.817242  1
  Pr  Pr5  1  0.785730  0.652994  0.682758  1
  Pr  Pr6  1  0.652994  0.785730  0.182758  1
  Pr  Pr7  1  0.214270  0.347006  0.317242  1
  Pr  Pr8  1  0.564944  0.435056  0.750000  1
  Pr  Pr9  1  0.435056  0.564944  0.250000  1
  Ir  Ir10  1  0.183522  0.587997  0.571970  1
  Ir  Ir11  1  0.412003  0.816478  0.928030  1
  Ir  Ir12  1  0.816478  0.412003  0.428030  1
  Ir  Ir13  1  0.587997  0.183522  0.071970  1
