# generated using pymatgen
data_BaMnP2Os
_symmetry_space_group_name_H-M   'P 1'
_cell_length_a   6.99208122
_cell_length_b   6.99208125
_cell_length_c   6.99208099
_cell_angle_alpha   147.46301304
_cell_angle_beta   147.46301659
_cell_angle_gamma   46.67869496
_symmetry_Int_Tables_number   1
_chemical_formula_structural   BaMnP2Os
_chemical_formula_sum   'Ba1 Mn1 P2 Os1'
_cell_volume   98.52610901
_cell_formula_units_Z   1
loop_
 _symmetry_equiv_pos_site_id
 _symmetry_equiv_pos_as_xyz
  1  'x, y, z'
loop_
 _atom_site_type_symbol
 _atom_site_label
 _atom_site_symmetry_multiplicity
 _atom_site_fract_x
 _atom_site_fract_y
 _atom_site_fract_z
 _atom_site_occupancy
  Ba  Ba0  1  0.000000  0.000000  0.000000  1
  Mn  Mn1  1  0.250000  0.750000  0.500000  1
  P  P2  1  0.651244  0.651244  0.000000  1
  P  P3  1  0.348756  0.348756  0.000000  1
  Os  Os4  1  0.750000  0.250000  0.500000  1
