# generated using pymatgen
data_Er5NpAl18
_symmetry_space_group_name_H-M   'P 1'
_cell_length_a   14.58883395
_cell_length_b   14.58883456
_cell_length_c   14.58883567
_cell_angle_alpha   24.21322643
_cell_angle_beta   24.21322116
_cell_angle_gamma   24.21322390
_symmetry_Int_Tables_number   1
_chemical_formula_structural   Er5NpAl18
_chemical_formula_sum   'Er5 Np1 Al18'
_cell_volume   459.04469695
_cell_formula_units_Z   1
loop_
 _symmetry_equiv_pos_site_id
 _symmetry_equiv_pos_as_xyz
  1  'x, y, z'
loop_
 _atom_site_type_symbol
 _atom_site_label
 _atom_site_symmetry_multiplicity
 _atom_site_fract_x
 _atom_site_fract_y
 _atom_site_fract_z
 _atom_site_occupancy
  Er  Er0  1  0.999815  0.999815  0.999815  1
  Er  Er1  1  0.500292  0.500292  0.500292  1
  Er  Er2  1  0.609454  0.609454  0.609454  1
  Er  Er3  1  0.109301  0.109301  0.109301  1
  Er  Er4  1  0.890679  0.890679  0.890679  1
  Np  Np5  1  0.390906  0.390906  0.390906  1
  Al  Al6  1  0.921708  0.371820  0.371820  1
  Al  Al7  1  0.417946  0.873560  0.873560  1
  Al  Al8  1  0.371820  0.371820  0.921708  1
  Al  Al9  1  0.873560  0.873560  0.417946  1
  Al  Al10  1  0.371820  0.921708  0.371820  1
  Al  Al11  1  0.873560  0.417946  0.873560  1
  Al  Al12  1  0.578500  0.127988  0.127988  1
  Al  Al13  1  0.081777  0.626198  0.626198  1
  Al  Al14  1  0.127988  0.127988  0.578500  1
  Al  Al15  1  0.626198  0.626198  0.081777  1
  Al  Al16  1  0.127988  0.578500  0.127988  1
  Al  Al17  1  0.626198  0.081777  0.626198  1
  Al  Al18  1  0.497322  0.497322  0.006032  1
  Al  Al19  1  0.000236  0.000236  0.499337  1
  Al  Al20  1  0.497322  0.006032  0.497322  1
  Al  Al21  1  0.000236  0.499337  0.000236  1
  Al  Al22  1  0.006032  0.497322  0.497322  1
  Al  Al23  1  0.499337  0.000236  0.000236  1
