# generated using pymatgen
data_La2Er4Ir5Rh13
_symmetry_space_group_name_H-M   'P 1'
_cell_length_a   5.31376509
_cell_length_b   5.30916956
_cell_length_c   17.51196278
_cell_angle_alpha   89.97350324
_cell_angle_beta   89.97502710
_cell_angle_gamma   120.12724951
_symmetry_Int_Tables_number   1
_chemical_formula_structural   La2Er4Ir5Rh13
_chemical_formula_sum   'La2 Er4 Ir5 Rh13'
_cell_volume   427.30298335
_cell_formula_units_Z   1
loop_
 _symmetry_equiv_pos_site_id
 _symmetry_equiv_pos_as_xyz
  1  'x, y, z'
loop_
 _atom_site_type_symbol
 _atom_site_label
 _atom_site_symmetry_multiplicity
 _atom_site_fract_x
 _atom_site_fract_y
 _atom_site_fract_z
 _atom_site_occupancy
  La  La0  1  0.333427  0.666911  0.749947  1
  La  La1  1  0.666791  0.333031  0.249638  1
  Er  Er2  1  0.332693  0.665132  0.540471  1
  Er  Er3  1  0.666146  0.334054  0.040481  1
  Er  Er4  1  0.666377  0.333247  0.459873  1
  Er  Er5  1  0.333184  0.666472  0.960141  1
  Ir  Ir6  1  0.170121  0.334638  0.123817  1
  Ir  Ir7  1  0.833704  0.667553  0.623753  1
  Ir  Ir8  1  0.665365  0.830224  0.123662  1
  Ir  Ir9  1  0.998125  0.002312  0.999759  1
  Ir  Ir10  1  0.997719  0.995200  0.499877  1
  Rh  Rh11  1  0.168167  0.831426  0.123788  1
  Rh  Rh12  1  0.833956  0.170262  0.623530  1
  Rh  Rh13  1  0.336240  0.170699  0.623510  1
  Rh  Rh14  1  0.832078  0.664771  0.876925  1
  Rh  Rh15  1  0.832971  0.168178  0.876062  1
  Rh  Rh16  1  0.335276  0.168109  0.876088  1
  Rh  Rh17  1  0.664487  0.831480  0.376946  1
  Rh  Rh18  1  0.167602  0.832301  0.376081  1
  Rh  Rh19  1  0.167939  0.335056  0.376923  1
  Rh  Rh20  1  0.997068  0.002546  0.249759  1
  Rh  Rh21  1  0.997518  0.994287  0.749816  1
  Rh  Rh22  1  0.334686  0.666254  0.249762  1
  Rh  Rh23  1  0.668360  0.335859  0.749393  1
