# generated using pymatgen
data_Pr3Y5(CdIr)2
_symmetry_space_group_name_H-M   'P 1'
_cell_length_a   9.80176519
_cell_length_b   9.80176430
_cell_length_c   9.80176500
_cell_angle_alpha   60.00000102
_cell_angle_beta   60.00000402
_cell_angle_gamma   59.99999968
_symmetry_Int_Tables_number   1
_chemical_formula_structural   Pr3Y5(CdIr)2
_chemical_formula_sum   'Pr6 Y10 Cd4 Ir4'
_cell_volume   665.88288579
_cell_formula_units_Z   2
loop_
 _symmetry_equiv_pos_site_id
 _symmetry_equiv_pos_as_xyz
  1  'x, y, z'
loop_
 _atom_site_type_symbol
 _atom_site_label
 _atom_site_symmetry_multiplicity
 _atom_site_fract_x
 _atom_site_fract_y
 _atom_site_fract_z
 _atom_site_occupancy
  Pr  Pr0  1  0.940796  0.559204  0.559204  1
  Pr  Pr1  1  0.559204  0.940796  0.940796  1
  Pr  Pr2  1  0.559204  0.940796  0.559204  1
  Pr  Pr3  1  0.940796  0.559204  0.940796  1
  Pr  Pr4  1  0.559204  0.559204  0.940796  1
  Pr  Pr5  1  0.940796  0.940796  0.559204  1
  Y  Y6  1  0.347393  0.347393  0.347393  1
  Y  Y7  1  0.347393  0.347393  0.957821  1
  Y  Y8  1  0.347393  0.957821  0.347393  1
  Y  Y9  1  0.957821  0.347393  0.347393  1
  Y  Y10  1  0.812121  0.187879  0.187879  1
  Y  Y11  1  0.187879  0.812121  0.812121  1
  Y  Y12  1  0.187879  0.812121  0.187879  1
  Y  Y13  1  0.812121  0.187879  0.812121  1
  Y  Y14  1  0.187879  0.187879  0.812121  1
  Y  Y15  1  0.812121  0.812121  0.187879  1
  Cd  Cd16  1  0.579272  0.579272  0.579272  1
  Cd  Cd17  1  0.579272  0.579272  0.262184  1
  Cd  Cd18  1  0.579272  0.262184  0.579272  1
  Cd  Cd19  1  0.262184  0.579272  0.579272  1
  Ir  Ir20  1  0.141056  0.141056  0.141056  1
  Ir  Ir21  1  0.141056  0.141056  0.576833  1
  Ir  Ir22  1  0.141056  0.576833  0.141056  1
  Ir  Ir23  1  0.576833  0.141056  0.141056  1
