# generated using pymatgen
data_Yb4OsRu(RhO6)2
_symmetry_space_group_name_H-M   'P 1'
_cell_length_a   5.25529489
_cell_length_b   5.67797728
_cell_length_c   7.60300845
_cell_angle_alpha   89.51399180
_cell_angle_beta   89.41150745
_cell_angle_gamma   90.12832197
_symmetry_Int_Tables_number   1
_chemical_formula_structural   Yb4OsRu(RhO6)2
_chemical_formula_sum   'Yb4 Os1 Ru1 Rh2 O12'
_cell_volume   226.84881022
_cell_formula_units_Z   1
loop_
 _symmetry_equiv_pos_site_id
 _symmetry_equiv_pos_as_xyz
  1  'x, y, z'
loop_
 _atom_site_type_symbol
 _atom_site_label
 _atom_site_symmetry_multiplicity
 _atom_site_fract_x
 _atom_site_fract_y
 _atom_site_fract_z
 _atom_site_occupancy
  Yb  Yb0  1  0.025461  0.427147  0.257625  1
  Yb  Yb1  1  0.974539  0.572853  0.742375  1
  Yb  Yb2  1  0.525577  0.076967  0.744631  1
  Yb  Yb3  1  0.474423  0.923033  0.255369  1
  Os  Os4  1  0.000000  0.000000  0.000000  1
  Ru  Ru5  1  0.500000  0.500000  0.500000  1
  Rh  Rh6  1  0.500000  0.500000  0.000000  1
  Rh  Rh7  1  0.000000  0.000000  0.500000  1
  O  O8  1  0.303068  0.187289  0.054372  1
  O  O9  1  0.696932  0.812711  0.945628  1
  O  O10  1  0.821834  0.296128  0.941856  1
  O  O11  1  0.679989  0.801023  0.556283  1
  O  O12  1  0.178166  0.703872  0.058144  1
  O  O13  1  0.320011  0.198977  0.443717  1
  O  O14  1  0.190128  0.691331  0.446246  1
  O  O15  1  0.809872  0.308669  0.553754  1
  O  O16  1  0.614874  0.540026  0.253259  1
  O  O17  1  0.385126  0.459974  0.746741  1
  O  O18  1  0.112377  0.960822  0.757159  1
  O  O19  1  0.887623  0.039178  0.242841  1
