# generated using pymatgen
data_YEr9Al4(SiC4)2
_symmetry_space_group_name_H-M   'P 1'
_cell_length_a   10.66456920
_cell_length_b   10.66347820
_cell_length_c   3.48985800
_cell_angle_alpha   90.00000000
_cell_angle_beta   90.00000000
_cell_angle_gamma   89.97801446
_symmetry_Int_Tables_number   1
_chemical_formula_structural   YEr9Al4(SiC4)2
_chemical_formula_sum   'Y1 Er9 Al4 Si2 C8'
_cell_volume   396.87151217
_cell_formula_units_Z   1
loop_
 _symmetry_equiv_pos_site_id
 _symmetry_equiv_pos_as_xyz
  1  'x, y, z'
loop_
 _atom_site_type_symbol
 _atom_site_label
 _atom_site_symmetry_multiplicity
 _atom_site_fract_x
 _atom_site_fract_y
 _atom_site_fract_z
 _atom_site_occupancy
  Y  Y0  1  0.776030  0.948937  0.500000  1
  Er  Er1  1  0.550352  0.725190  0.500000  1
  Er  Er2  1  0.448862  0.274586  0.500000  1
  Er  Er3  1  0.051097  0.774260  0.500000  1
  Er  Er4  1  0.949458  0.225927  0.500000  1
  Er  Er5  1  0.274364  0.550753  0.500000  1
  Er  Er6  1  0.725651  0.449110  0.500000  1
  Er  Er7  1  0.225658  0.050904  0.500000  1
  Er  Er8  1  0.500195  0.999962  0.000000  1
  Er  Er9  1  0.000073  0.499997  0.000000  1
  Al  Al10  1  0.703218  0.203915  0.000000  1
  Al  Al11  1  0.296278  0.796745  0.000000  1
  Al  Al12  1  0.203296  0.296285  0.000000  1
  Al  Al13  1  0.796161  0.702918  0.000000  1
  Si  Si14  1  0.499924  0.499831  0.000000  1
  Si  Si15  1  0.002052  0.000509  0.000000  1
  C  C16  1  0.631105  0.133959  0.500000  1
  C  C17  1  0.367488  0.867453  0.500000  1
  C  C18  1  0.132502  0.367777  0.500000  1
  C  C19  1  0.867578  0.632382  0.500000  1
  C  C20  1  0.162598  0.662443  0.000000  1
  C  C21  1  0.837562  0.337679  0.000000  1
  C  C22  1  0.660970  0.835858  0.000000  1
  C  C23  1  0.337528  0.162621  0.000000  1
