# generated using pymatgen
data_DyHo5(Tm2Si3)2
_symmetry_space_group_name_H-M   'P 1'
_cell_length_a   8.38401408
_cell_length_b   8.38401317
_cell_length_c   6.27437100
_cell_angle_alpha   90.00000000
_cell_angle_beta   90.00000000
_cell_angle_gamma   120.01613240
_symmetry_Int_Tables_number   1
_chemical_formula_structural   DyHo5(Tm2Si3)2
_chemical_formula_sum   'Dy1 Ho5 Tm4 Si6'
_cell_volume   381.88636727
_cell_formula_units_Z   1
loop_
 _symmetry_equiv_pos_site_id
 _symmetry_equiv_pos_as_xyz
  1  'x, y, z'
loop_
 _atom_site_type_symbol
 _atom_site_label
 _atom_site_symmetry_multiplicity
 _atom_site_fract_x
 _atom_site_fract_y
 _atom_site_fract_z
 _atom_site_occupancy
  Dy  Dy0  1  0.756612  0.756612  0.250000  1
  Ho  Ho1  1  0.243490  0.000024  0.250000  1
  Ho  Ho2  1  0.000024  0.243490  0.250000  1
  Ho  Ho3  1  0.243387  0.243387  0.750000  1
  Ho  Ho4  1  0.756557  0.000057  0.750000  1
  Ho  Ho5  1  0.000057  0.756557  0.750000  1
  Tm  Tm6  1  0.666661  0.333286  0.500018  1
  Tm  Tm7  1  0.333286  0.666661  0.500018  1
  Tm  Tm8  1  0.333286  0.666661  0.999982  1
  Tm  Tm9  1  0.666661  0.333286  0.999982  1
  Si  Si10  1  0.394247  0.394247  0.250000  1
  Si  Si11  1  0.605584  0.000111  0.250000  1
  Si  Si12  1  0.000111  0.605584  0.250000  1
  Si  Si13  1  0.605658  0.605658  0.750000  1
  Si  Si14  1  0.394366  0.000011  0.750000  1
  Si  Si15  1  0.000011  0.394366  0.750000  1
