# generated using pymatgen
data_Mg4NbV(SbPt)6
_symmetry_space_group_name_H-M   'P 1'
_cell_length_a   7.71212087
_cell_length_b   7.71671239
_cell_length_c   7.72138538
_cell_angle_alpha   99.62550286
_cell_angle_beta   99.62715622
_cell_angle_gamma   119.94578621
_symmetry_Int_Tables_number   1
_chemical_formula_structural   Mg4NbV(SbPt)6
_chemical_formula_sum   'Mg4 Nb1 V1 Sb6 Pt6'
_cell_volume   375.28074478
_cell_formula_units_Z   1
loop_
 _symmetry_equiv_pos_site_id
 _symmetry_equiv_pos_as_xyz
  1  'x, y, z'
loop_
 _atom_site_type_symbol
 _atom_site_label
 _atom_site_symmetry_multiplicity
 _atom_site_fract_x
 _atom_site_fract_y
 _atom_site_fract_z
 _atom_site_occupancy
  Mg  Mg0  1  0.329475  0.162455  0.499088  1
  Mg  Mg1  1  0.000847  0.502963  0.499322  1
  Mg  Mg2  1  0.162723  0.329615  0.998961  1
  Mg  Mg3  1  0.502845  0.000557  0.999160  1
  Nb  Nb4  1  0.833729  0.668664  0.000400  1
  V  V5  1  0.667960  0.834040  0.500057  1
  Sb  Sb6  1  0.917574  0.093681  0.248404  1
  Sb  Sb7  1  0.259115  0.749213  0.249841  1
  Sb  Sb8  1  0.574947  0.408017  0.254902  1
  Sb  Sb9  1  0.094596  0.918447  0.745859  1
  Sb  Sb10  1  0.748249  0.256057  0.747129  1
  Sb  Sb11  1  0.405033  0.574125  0.753702  1
  Pt  Pt12  1  0.196685  0.028804  0.121632  1
  Pt  Pt13  1  0.873116  0.387575  0.122620  1
  Pt  Pt14  1  0.559230  0.711329  0.137477  1
  Pt  Pt15  1  0.022322  0.189872  0.619664  1
  Pt  Pt16  1  0.392796  0.871967  0.620797  1
  Pt  Pt17  1  0.708754  0.562619  0.630985  1
