# generated using pymatgen
data_Pr3Nd5Re2(OsC4)2
_symmetry_space_group_name_H-M   'P 1'
_cell_length_a   5.38490000
_cell_length_b   6.67701297
_cell_length_c   10.20857548
_cell_angle_alpha   89.93823674
_cell_angle_beta   90.00000000
_cell_angle_gamma   90.00000000
_symmetry_Int_Tables_number   1
_chemical_formula_structural   Pr3Nd5Re2(OsC4)2
_chemical_formula_sum   'Pr3 Nd5 Re2 Os2 C8'
_cell_volume   367.04959947
_cell_formula_units_Z   1
loop_
 _symmetry_equiv_pos_site_id
 _symmetry_equiv_pos_as_xyz
  1  'x, y, z'
loop_
 _atom_site_type_symbol
 _atom_site_label
 _atom_site_symmetry_multiplicity
 _atom_site_fract_x
 _atom_site_fract_y
 _atom_site_fract_z
 _atom_site_occupancy
  Pr  Pr0  1  0.250000  0.473885  0.786342  1
  Pr  Pr1  1  0.750000  0.026414  0.285909  1
  Pr  Pr2  1  0.250000  0.975409  0.712410  1
  Nd  Nd3  1  0.750000  0.525077  0.212941  1
  Nd  Nd4  1  0.250000  0.812821  0.049937  1
  Nd  Nd5  1  0.750000  0.687136  0.549729  1
  Nd  Nd6  1  0.250000  0.311227  0.448946  1
  Nd  Nd7  1  0.750000  0.188755  0.949169  1
  Re  Re8  1  0.250000  0.768816  0.356732  1
  Re  Re9  1  0.750000  0.730827  0.857086  1
  Os  Os10  1  0.250000  0.268884  0.143018  1
  Os  Os11  1  0.750000  0.231718  0.642783  1
  C  C12  1  0.250000  0.685260  0.537720  1
  C  C13  1  0.750000  0.812693  0.038458  1
  C  C14  1  0.250000  0.185533  0.963933  1
  C  C15  1  0.750000  0.315063  0.463505  1
  C  C16  1  0.250000  0.033363  0.258293  1
  C  C17  1  0.750000  0.466857  0.758262  1
  C  C18  1  0.250000  0.531964  0.242173  1
  C  C19  1  0.750000  0.968297  0.742655  1
