# generated using pymatgen
data_Na2Mn3Ni9As7
_symmetry_space_group_name_H-M   'P 1'
_cell_length_a   9.48583900
_cell_length_b   9.48583964
_cell_length_c   3.78856700
_cell_angle_alpha   90.00000000
_cell_angle_beta   90.00000000
_cell_angle_gamma   120.00000126
_symmetry_Int_Tables_number   1
_chemical_formula_structural   Na2Mn3Ni9As7
_chemical_formula_sum   'Na2 Mn3 Ni9 As7'
_cell_volume   295.22771556
_cell_formula_units_Z   1
loop_
 _symmetry_equiv_pos_site_id
 _symmetry_equiv_pos_as_xyz
  1  'x, y, z'
loop_
 _atom_site_type_symbol
 _atom_site_label
 _atom_site_symmetry_multiplicity
 _atom_site_fract_x
 _atom_site_fract_y
 _atom_site_fract_z
 _atom_site_occupancy
  Na  Na0  1  0.333333  0.666667  0.000000  1
  Na  Na1  1  0.666667  0.333333  0.500000  1
  Mn  Mn2  1  0.219285  0.121334  0.500000  1
  Mn  Mn3  1  0.878666  0.097951  0.500000  1
  Mn  Mn4  1  0.902049  0.780715  0.500000  1
  Ni  Ni5  1  0.120586  0.280148  0.000000  1
  Ni  Ni6  1  0.719852  0.840438  0.000000  1
  Ni  Ni7  1  0.159562  0.879414  0.000000  1
  Ni  Ni8  1  0.428545  0.373825  0.000000  1
  Ni  Ni9  1  0.626175  0.054721  0.000000  1
  Ni  Ni10  1  0.945279  0.571455  0.000000  1
  Ni  Ni11  1  0.046909  0.430188  0.500000  1
  Ni  Ni12  1  0.569812  0.616721  0.500000  1
  Ni  Ni13  1  0.383279  0.953091  0.500000  1
  As  As14  1  0.292170  0.411116  0.500000  1
  As  As15  1  0.588884  0.881054  0.500000  1
  As  As16  1  0.118946  0.707830  0.500000  1
  As  As17  1  0.416198  0.120303  0.000000  1
  As  As18  1  0.879697  0.295896  0.000000  1
  As  As19  1  0.704104  0.583802  0.000000  1
  As  As20  1  0.000000  0.000000  0.000000  1
