# generated using pymatgen
data_Pr3Y(Re2Si)8
_symmetry_space_group_name_H-M   'P 1'
_cell_length_a   4.17155400
_cell_length_b   7.36880304
_cell_length_c   15.58036500
_cell_angle_alpha   89.96957465
_cell_angle_beta   90.00000000
_cell_angle_gamma   90.00000000
_symmetry_Int_Tables_number   1
_chemical_formula_structural   Pr3Y(Re2Si)8
_chemical_formula_sum   'Pr3 Y1 Re16 Si8'
_cell_volume   478.93037791
_cell_formula_units_Z   1
loop_
 _symmetry_equiv_pos_site_id
 _symmetry_equiv_pos_as_xyz
  1  'x, y, z'
loop_
 _atom_site_type_symbol
 _atom_site_label
 _atom_site_symmetry_multiplicity
 _atom_site_fract_x
 _atom_site_fract_y
 _atom_site_fract_z
 _atom_site_occupancy
  Pr  Pr0  1  0.000000  0.580193  0.118162  1
  Pr  Pr1  1  0.000000  0.421437  0.880471  1
  Pr  Pr2  1  0.500000  0.078176  0.382950  1
  Y  Y3  1  0.500000  0.918628  0.618692  1
  Re  Re4  1  0.000000  0.137074  0.051743  1
  Re  Re5  1  0.000000  0.864401  0.947119  1
  Re  Re6  1  0.500000  0.635233  0.449952  1
  Re  Re7  1  0.500000  0.357448  0.553266  1
  Re  Re8  1  0.000000  0.732392  0.322050  1
  Re  Re9  1  0.000000  0.264332  0.677418  1
  Re  Re10  1  0.500000  0.232884  0.179872  1
  Re  Re11  1  0.500000  0.769615  0.819539  1
  Re  Re12  1  0.000000  0.432056  0.420117  1
  Re  Re13  1  0.000000  0.566633  0.582761  1
  Re  Re14  1  0.500000  0.933910  0.081033  1
  Re  Re15  1  0.500000  0.068425  0.917593  1
  Re  Re16  1  0.000000  0.992863  0.207112  1
  Re  Re17  1  0.000000  0.008556  0.792023  1
  Re  Re18  1  0.500000  0.492558  0.294572  1
  Re  Re19  1  0.500000  0.511838  0.704707  1
  Si  Si20  1  0.000000  0.826316  0.477630  1
  Si  Si21  1  0.000000  0.167170  0.524937  1
  Si  Si22  1  0.500000  0.326236  0.024482  1
  Si  Si23  1  0.500000  0.675213  0.974512  1
  Si  Si24  1  0.000000  0.294622  0.274515  1
  Si  Si25  1  0.000000  0.710674  0.724857  1
  Si  Si26  1  0.500000  0.794549  0.226791  1
  Si  Si27  1  0.500000  0.206563  0.771126  1
