# generated using pymatgen
data_DyTh(Cd2Pd)2
_symmetry_space_group_name_H-M   'P 1'
_cell_length_a   5.40470400
_cell_length_b   5.40470487
_cell_length_c   8.63963500
_cell_angle_alpha   90.00000000
_cell_angle_beta   90.00000000
_cell_angle_gamma   133.98600894
_symmetry_Int_Tables_number   1
_chemical_formula_structural   DyTh(Cd2Pd)2
_chemical_formula_sum   'Dy1 Th1 Cd4 Pd2'
_cell_volume   181.58324363
_cell_formula_units_Z   1
loop_
 _symmetry_equiv_pos_site_id
 _symmetry_equiv_pos_as_xyz
  1  'x, y, z'
loop_
 _atom_site_type_symbol
 _atom_site_label
 _atom_site_symmetry_multiplicity
 _atom_site_fract_x
 _atom_site_fract_y
 _atom_site_fract_z
 _atom_site_occupancy
  Dy  Dy0  1  0.933009  0.066991  0.750000  1
  Th  Th1  1  0.065303  0.934697  0.250000  1
  Cd  Cd2  1  0.642587  0.357413  0.552448  1
  Cd  Cd3  1  0.357902  0.642098  0.457673  1
  Cd  Cd4  1  0.642587  0.357413  0.947552  1
  Cd  Cd5  1  0.357902  0.642098  0.042327  1
  Pd  Pd6  1  0.225370  0.774630  0.750000  1
  Pd  Pd7  1  0.775340  0.224660  0.250000  1
