# generated using pymatgen
data_LaPr4Mg2Ru3
_symmetry_space_group_name_H-M   'P 1'
_cell_length_a   8.80930894
_cell_length_b   8.73951423
_cell_length_c   8.71509453
_cell_angle_alpha   109.63943567
_cell_angle_beta   109.66083708
_cell_angle_gamma   109.79226352
_symmetry_Int_Tables_number   1
_chemical_formula_structural   LaPr4Mg2Ru3
_chemical_formula_sum   'La2 Pr8 Mg4 Ru6'
_cell_volume   512.13679164
_cell_formula_units_Z   2
loop_
 _symmetry_equiv_pos_site_id
 _symmetry_equiv_pos_as_xyz
  1  'x, y, z'
loop_
 _atom_site_type_symbol
 _atom_site_label
 _atom_site_symmetry_multiplicity
 _atom_site_fract_x
 _atom_site_fract_y
 _atom_site_fract_z
 _atom_site_occupancy
  La  La0  1  0.316691  0.567064  0.749034  1
  La  La1  1  0.566632  0.247675  0.816568  1
  Pr  Pr2  1  0.785418  0.998525  0.000695  1
  Pr  Pr3  1  0.246951  0.320564  0.071475  1
  Pr  Pr4  1  0.713418  0.711933  0.213842  1
  Pr  Pr5  1  0.176407  0.927682  0.249295  1
  Pr  Pr6  1  0.000160  0.503500  0.287487  1
  Pr  Pr7  1  0.749750  0.177453  0.426992  1
  Pr  Pr8  1  0.499820  0.785181  0.497037  1
  Pr  Pr9  1  0.926540  0.749754  0.678474  1
  Mg  Mg10  1  0.403599  0.001955  0.001152  1
  Mg  Mg11  1  0.500818  0.404561  0.499229  1
  Mg  Mg12  1  0.092772  0.093736  0.594479  1
  Mg  Mg13  1  0.999286  0.498034  0.903590  1
  Ru  Ru14  1  0.381664  0.745412  0.120668  1
  Ru  Ru15  1  0.634562  0.385079  0.255638  1
  Ru  Ru16  1  0.123982  0.261014  0.378311  1
  Ru  Ru17  1  0.260655  0.881771  0.621407  1
  Ru  Ru18  1  0.869410  0.114372  0.749196  1
  Ru  Ru19  1  0.751467  0.624738  0.885433  1
