# generated using pymatgen
data_Tm2InB2Ru5
_symmetry_space_group_name_H-M   'P 1'
_cell_length_a   9.70669400
_cell_length_b   9.70669400
_cell_length_c   3.13187400
_cell_angle_alpha   90.00000000
_cell_angle_beta   90.00000000
_cell_angle_gamma   90.00000000
_symmetry_Int_Tables_number   1
_chemical_formula_structural   Tm2InB2Ru5
_chemical_formula_sum   'Tm4 In2 B4 Ru10'
_cell_volume   295.08488143
_cell_formula_units_Z   2
loop_
 _symmetry_equiv_pos_site_id
 _symmetry_equiv_pos_as_xyz
  1  'x, y, z'
loop_
 _atom_site_type_symbol
 _atom_site_label
 _atom_site_symmetry_multiplicity
 _atom_site_fract_x
 _atom_site_fract_y
 _atom_site_fract_z
 _atom_site_occupancy
  Tm  Tm0  1  0.675005  0.175005  0.000000  1
  Tm  Tm1  1  0.324995  0.824995  0.000000  1
  Tm  Tm2  1  0.175005  0.324995  0.000000  1
  Tm  Tm3  1  0.824995  0.675005  0.000000  1
  In  In4  1  0.000000  0.000000  0.000000  1
  In  In5  1  0.500000  0.500000  0.000000  1
  B  B6  1  0.121513  0.621513  0.000000  1
  B  B7  1  0.878487  0.378487  0.000000  1
  B  B8  1  0.621513  0.878487  0.000000  1
  B  B9  1  0.378487  0.121513  0.000000  1
  Ru  Ru10  1  0.224654  0.070889  0.500000  1
  Ru  Ru11  1  0.775346  0.929111  0.500000  1
  Ru  Ru12  1  0.070889  0.775346  0.500000  1
  Ru  Ru13  1  0.724654  0.429111  0.500000  1
  Ru  Ru14  1  0.929111  0.224654  0.500000  1
  Ru  Ru15  1  0.275346  0.570889  0.500000  1
  Ru  Ru16  1  0.570889  0.724654  0.500000  1
  Ru  Ru17  1  0.429111  0.275346  0.500000  1
  Ru  Ru18  1  0.500000  0.000000  0.500000  1
  Ru  Ru19  1  0.000000  0.500000  0.500000  1
