# generated using pymatgen
data_CeY17(ErSn8)2
_symmetry_space_group_name_H-M   'P 1'
_cell_length_a   8.05848521
_cell_length_b   8.19576568
_cell_length_c   15.51495000
_cell_angle_alpha   90.00772494
_cell_angle_beta   89.57738525
_cell_angle_gamma   89.82650535
_symmetry_Int_Tables_number   1
_chemical_formula_structural   CeY17(ErSn8)2
_chemical_formula_sum   'Ce1 Y17 Er2 Sn16'
_cell_volume   1024.65937064
_cell_formula_units_Z   1
loop_
 _symmetry_equiv_pos_site_id
 _symmetry_equiv_pos_as_xyz
  1  'x, y, z'
loop_
 _atom_site_type_symbol
 _atom_site_label
 _atom_site_symmetry_multiplicity
 _atom_site_fract_x
 _atom_site_fract_y
 _atom_site_fract_z
 _atom_site_occupancy
  Ce  Ce0  1  0.016791  0.180305  0.906350  1
  Y  Y1  1  0.363957  0.836752  0.877261  1
  Y  Y2  1  0.867578  0.662195  0.620728  1
  Y  Y3  1  0.631270  0.162115  0.377330  1
  Y  Y4  1  0.134489  0.336867  0.121932  1
  Y  Y5  1  0.634243  0.163207  0.123544  1
  Y  Y6  1  0.131917  0.338094  0.377855  1
  Y  Y7  1  0.368599  0.837690  0.621512  1
  Y  Y8  1  0.864967  0.661767  0.878157  1
  Y  Y9  1  0.521074  0.321867  0.903224  1
  Y  Y10  1  0.022057  0.180136  0.597836  1
  Y  Y11  1  0.478169  0.678935  0.401938  1
  Y  Y12  1  0.981564  0.820072  0.096798  1
  Y  Y13  1  0.480619  0.679173  0.096991  1
  Y  Y14  1  0.978425  0.820573  0.402266  1
  Y  Y15  1  0.521116  0.321648  0.596309  1
  Y  Y16  1  0.198562  0.501642  0.749638  1
  Y  Y17  1  0.699461  0.996912  0.749490  1
  Er  Er18  1  0.801003  0.496990  0.250255  1
  Er  Er19  1  0.301523  0.002971  0.250538  1
  Sn  Sn20  1  0.297672  0.035566  0.042426  1
  Sn  Sn21  1  0.791240  0.463589  0.457173  1
  Sn  Sn22  1  0.709035  0.965861  0.541780  1
  Sn  Sn23  1  0.206149  0.536748  0.958180  1
  Sn  Sn24  1  0.703129  0.961528  0.959209  1
  Sn  Sn25  1  0.208511  0.537068  0.541280  1
  Sn  Sn26  1  0.291813  0.036013  0.457643  1
  Sn  Sn27  1  0.794376  0.462295  0.042012  1
  Sn  Sn28  1  0.564700  0.617571  0.749744  1
  Sn  Sn29  1  0.064480  0.882651  0.750543  1
  Sn  Sn30  1  0.435176  0.383639  0.250189  1
  Sn  Sn31  1  0.936413  0.117111  0.249954  1
  Sn  Sn32  1  0.329953  0.147328  0.750344  1
  Sn  Sn33  1  0.828698  0.353105  0.750647  1
  Sn  Sn34  1  0.671080  0.851485  0.249543  1
  Sn  Sn35  1  0.170199  0.648531  0.249381  1
