# generated using pymatgen
data_PaTeF34
_symmetry_space_group_name_H-M   'P 1'
_cell_length_a   9.17004742
_cell_length_b   8.64442693
_cell_length_c   10.21510894
_cell_angle_alpha   82.14184595
_cell_angle_beta   87.34426688
_cell_angle_gamma   65.51544235
_symmetry_Int_Tables_number   1
_chemical_formula_structural   PaTeF34
_chemical_formula_sum   'Pa1 Te1 F34'
_cell_volume   729.96332638
_cell_formula_units_Z   1
loop_
 _symmetry_equiv_pos_site_id
 _symmetry_equiv_pos_as_xyz
  1  'x, y, z'
loop_
 _atom_site_type_symbol
 _atom_site_label
 _atom_site_symmetry_multiplicity
 _atom_site_fract_x
 _atom_site_fract_y
 _atom_site_fract_z
 _atom_site_occupancy
  Pa  Pa0  1  0.137678  0.745465  0.245123  1
  Te  Te1  1  0.864004  0.250444  0.759340  1
  F  F2  1  0.605343  0.201557  0.480507  1
  F  F3  1  0.407215  0.790944  0.515369  1
  F  F4  1  0.824436  0.708788  0.721353  1
  F  F5  1  0.174707  0.308526  0.275054  1
  F  F6  1  0.091101  0.750367  0.862018  1
  F  F7  1  0.916113  0.232881  0.141232  1
  F  F8  1  0.556943  0.142515  0.373342  1
  F  F9  1  0.436361  0.860280  0.625803  1
  F  F10  1  0.654020  0.325389  0.697396  1
  F  F11  1  0.369077  0.680882  0.315537  1
  F  F12  1  0.931831  0.070546  0.657321  1
  F  F13  1  0.062192  0.943474  0.362027  1
  F  F14  1  0.904652  0.387173  0.617910  1
  F  F15  1  0.084435  0.596117  0.401720  1
  F  F16  1  0.862065  0.799309  0.607549  1
  F  F17  1  0.150839  0.192664  0.378367  1
  F  F18  1  0.797011  0.431804  0.860528  1
  F  F19  1  0.210037  0.534628  0.138706  1
  F  F20  1  0.216267  0.685912  0.769800  1
  F  F21  1  0.785891  0.314877  0.224996  1
  F  F22  1  0.911741  0.809018  0.166409  1
  F  F23  1  0.072101  0.176627  0.823892  1
  F  F24  1  0.821102  0.112586  0.899095  1
  F  F25  1  0.186259  0.907500  0.095891  1
  F  F26  1  0.482173  0.593622  0.991374  1
  F  F27  1  0.510291  0.417199  0.010475  1
  F  F28  1  0.448738  0.093504  0.867841  1
  F  F29  1  0.543527  0.923188  0.133305  1
  F  F30  1  0.286509  0.248131  0.606123  1
  F  F31  1  0.709850  0.746519  0.390007  1
  F  F32  1  0.256293  0.395058  0.669768  1
  F  F33  1  0.739753  0.602157  0.323606  1
  F  F34  1  0.548580  0.927611  0.834005  1
  F  F35  1  0.440864  0.092738  0.157214  1
