# generated using pymatgen
data_Th3GaNi3Au2
_symmetry_space_group_name_H-M   'P 1'
_cell_length_a   7.30406900
_cell_length_b   7.36950071
_cell_length_c   3.84226300
_cell_angle_alpha   90.00000000
_cell_angle_beta   90.00000000
_cell_angle_gamma   119.70673992
_symmetry_Int_Tables_number   1
_chemical_formula_structural   Th3GaNi3Au2
_chemical_formula_sum   'Th3 Ga1 Ni3 Au2'
_cell_volume   179.63727505
_cell_formula_units_Z   1
loop_
 _symmetry_equiv_pos_site_id
 _symmetry_equiv_pos_as_xyz
  1  'x, y, z'
loop_
 _atom_site_type_symbol
 _atom_site_label
 _atom_site_symmetry_multiplicity
 _atom_site_fract_x
 _atom_site_fract_y
 _atom_site_fract_z
 _atom_site_occupancy
  Th  Th0  1  0.003224  0.402842  0.500000  1
  Th  Th1  1  0.600382  0.597158  0.500000  1
  Th  Th2  1  0.402465  0.000000  0.500000  1
  Ga  Ga3  1  0.747462  0.000000  0.000000  1
  Ni  Ni4  1  0.357496  0.684235  0.000000  1
  Ni  Ni5  1  0.673261  0.315765  0.000000  1
  Ni  Ni6  1  0.960040  0.000000  0.500000  1
  Au  Au7  1  0.001911  0.748152  0.000000  1
  Au  Au8  1  0.253759  0.251848  0.000000  1
