# generated using pymatgen
data_Sn4PtS10
_symmetry_space_group_name_H-M   'P 1'
_cell_length_a   6.36273612
_cell_length_b   7.40588792
_cell_length_c   9.07395360
_cell_angle_alpha   108.68836335
_cell_angle_beta   110.68389638
_cell_angle_gamma   89.83620863
_symmetry_Int_Tables_number   1
_chemical_formula_structural   Sn4PtS10
_chemical_formula_sum   'Sn4 Pt1 S10'
_cell_volume   375.98158936
_cell_formula_units_Z   1
loop_
 _symmetry_equiv_pos_site_id
 _symmetry_equiv_pos_as_xyz
  1  'x, y, z'
loop_
 _atom_site_type_symbol
 _atom_site_label
 _atom_site_symmetry_multiplicity
 _atom_site_fract_x
 _atom_site_fract_y
 _atom_site_fract_z
 _atom_site_occupancy
  Sn  Sn0  1  0.199621  0.400450  0.899510  1
  Sn  Sn1  1  0.400410  0.800252  0.300656  1
  Sn  Sn2  1  0.599590  0.199748  0.699344  1
  Sn  Sn3  1  0.800379  0.599550  0.100490  1
  Pt  Pt4  1  0.000000  0.000000  0.500000  1
  S  S5  1  0.892353  0.314139  0.599470  1
  S  S6  1  0.735451  0.869613  0.586081  1
  S  S7  1  0.089402  0.738093  0.005492  1
  S  S8  1  0.910598  0.261907  0.994508  1
  S  S9  1  0.264549  0.130387  0.413919  1
  S  S10  1  0.107647  0.685861  0.400530  1
  S  S11  1  0.492529  0.543239  0.810172  1
  S  S12  1  0.293107  0.057197  0.770916  1
  S  S13  1  0.706893  0.942803  0.229084  1
  S  S14  1  0.507471  0.456761  0.189828  1
