# generated using pymatgen
data_Li4Eu15DyRh4
_symmetry_space_group_name_H-M   'P 1'
_cell_length_a   10.29999618
_cell_length_b   10.20143738
_cell_length_c   10.20143900
_cell_angle_alpha   59.99999800
_cell_angle_beta   60.31603040
_cell_angle_gamma   60.31602718
_symmetry_Int_Tables_number   1
_chemical_formula_structural   Li4Eu15DyRh4
_chemical_formula_sum   'Li4 Eu15 Dy1 Rh4'
_cell_volume   761.55795386
_cell_formula_units_Z   1
loop_
 _symmetry_equiv_pos_site_id
 _symmetry_equiv_pos_as_xyz
  1  'x, y, z'
loop_
 _atom_site_type_symbol
 _atom_site_label
 _atom_site_symmetry_multiplicity
 _atom_site_fract_x
 _atom_site_fract_y
 _atom_site_fract_z
 _atom_site_occupancy
  Li  Li0  1  0.918963  0.926150  0.228737  1
  Li  Li1  1  0.227661  0.924113  0.924113  1
  Li  Li2  1  0.918963  0.228737  0.926150  1
  Li  Li3  1  0.918963  0.926150  0.926150  1
  Eu  Eu4  1  0.690755  0.309551  0.309551  1
  Eu  Eu5  1  0.690755  0.690144  0.309551  1
  Eu  Eu6  1  0.311411  0.688462  0.311664  1
  Eu  Eu7  1  0.941125  0.945843  0.556516  1
  Eu  Eu8  1  0.157259  0.157693  0.527355  1
  Eu  Eu9  1  0.551968  0.948187  0.551660  1
  Eu  Eu10  1  0.157259  0.157693  0.157693  1
  Eu  Eu11  1  0.311411  0.311664  0.688462  1
  Eu  Eu12  1  0.941125  0.556516  0.556516  1
  Eu  Eu13  1  0.551968  0.551660  0.948187  1
  Eu  Eu14  1  0.551968  0.948187  0.948187  1
  Eu  Eu15  1  0.941125  0.556516  0.945843  1
  Eu  Eu16  1  0.157259  0.527355  0.157693  1
  Eu  Eu17  1  0.311411  0.688462  0.688462  1
  Eu  Eu18  1  0.690755  0.309551  0.690144  1
  Dy  Dy19  1  0.518090  0.160636  0.160636  1
  Rh  Rh20  1  0.374560  0.351369  0.351369  1
  Rh  Rh21  1  0.916126  0.361292  0.361292  1
  Rh  Rh22  1  0.374560  0.351369  0.922702  1
  Rh  Rh23  1  0.374560  0.922702  0.351369  1
