# generated using pymatgen
data_YbEu5Al23VOs8
_symmetry_space_group_name_H-M   'P 1'
_cell_length_a   8.91282500
_cell_length_b   8.94182422
_cell_length_c   9.68920000
_cell_angle_alpha   90.03083345
_cell_angle_beta   90.00000000
_cell_angle_gamma   119.89277331
_symmetry_Int_Tables_number   1
_chemical_formula_structural   YbEu5Al23VOs8
_chemical_formula_sum   'Yb1 Eu5 Al23 V1 Os8'
_cell_volume   669.46551748
_cell_formula_units_Z   1
loop_
 _symmetry_equiv_pos_site_id
 _symmetry_equiv_pos_as_xyz
  1  'x, y, z'
loop_
 _atom_site_type_symbol
 _atom_site_label
 _atom_site_symmetry_multiplicity
 _atom_site_fract_x
 _atom_site_fract_y
 _atom_site_fract_z
 _atom_site_occupancy
  Yb  Yb0  1  0.199557  0.399114  0.245910  1
  Eu  Eu1  1  0.807750  0.615499  0.750584  1
  Eu  Eu2  1  0.615263  0.807926  0.248686  1
  Eu  Eu3  1  0.381616  0.190283  0.750339  1
  Eu  Eu4  1  0.192662  0.807926  0.248686  1
  Eu  Eu5  1  0.808668  0.190283  0.750339  1
  Al  Al6  1  0.666032  0.332064  0.994071  1
  Al  Al7  1  0.666022  0.332041  0.509149  1
  Al  Al8  1  0.333230  0.666461  0.491468  1
  Al  Al9  1  0.161476  0.322950  0.568958  1
  Al  Al10  1  0.837450  0.674901  0.424939  1
  Al  Al11  1  0.675951  0.837345  0.571870  1
  Al  Al12  1  0.836785  0.673571  0.077343  1
  Al  Al13  1  0.324339  0.163027  0.425336  1
  Al  Al14  1  0.159731  0.319461  0.932021  1
  Al  Al15  1  0.161395  0.837345  0.571870  1
  Al  Al16  1  0.325528  0.163662  0.076560  1
  Al  Al17  1  0.838685  0.163027  0.425336  1
  Al  Al18  1  0.679292  0.838839  0.929715  1
  Al  Al19  1  0.838133  0.163662  0.076560  1
  Al  Al20  1  0.159550  0.838839  0.929715  1
  Al  Al21  1  0.562656  0.125312  0.251320  1
  Al  Al22  1  0.439660  0.879318  0.749128  1
  Al  Al23  1  0.876327  0.437722  0.251847  1
  Al  Al24  1  0.119523  0.558396  0.749490  1
  Al  Al25  1  0.561396  0.437722  0.251847  1
  Al  Al26  1  0.438874  0.558396  0.749490  1
  Al  Al27  1  0.005239  0.010478  0.251429  1
  Al  Al28  1  0.998684  0.997368  0.750777  1
  V  V29  1  0.332480  0.664960  0.977256  1
  Os  Os30  1  0.494249  0.988499  0.002298  1
  Os  Os31  1  0.011104  0.504400  0.003170  1
  Os  Os32  1  0.498842  0.997683  0.502131  1
  Os  Os33  1  0.493296  0.504400  0.003170  1
  Os  Os34  1  0.001314  0.499449  0.502114  1
  Os  Os35  1  0.498136  0.499449  0.502114  1
  Os  Os36  1  0.999548  0.999096  0.002611  1
  Os  Os37  1  0.999562  0.999124  0.500351  1
