# generated using pymatgen
data_Ce7Sm(Si3Pt)4
_symmetry_space_group_name_H-M   'P 1'
_cell_length_a   8.34912400
_cell_length_b   8.37227964
_cell_length_c   8.00463600
_cell_angle_alpha   90.00000000
_cell_angle_beta   90.00000000
_cell_angle_gamma   119.90855179
_symmetry_Int_Tables_number   1
_chemical_formula_structural   Ce7Sm(Si3Pt)4
_chemical_formula_sum   'Ce7 Sm1 Si12 Pt4'
_cell_volume   485.01628234
_cell_formula_units_Z   1
loop_
 _symmetry_equiv_pos_site_id
 _symmetry_equiv_pos_as_xyz
  1  'x, y, z'
loop_
 _atom_site_type_symbol
 _atom_site_label
 _atom_site_symmetry_multiplicity
 _atom_site_fract_x
 _atom_site_fract_y
 _atom_site_fract_z
 _atom_site_occupancy
  Ce  Ce0  1  0.498328  0.996657  0.750000  1
  Ce  Ce1  1  0.996450  0.498257  0.250000  1
  Ce  Ce2  1  0.003322  0.501571  0.750000  1
  Ce  Ce3  1  0.501809  0.498257  0.250000  1
  Ce  Ce4  1  0.498249  0.501571  0.750000  1
  Ce  Ce5  1  0.000007  0.000015  0.250000  1
  Ce  Ce6  1  0.000023  0.000045  0.750000  1
  Sm  Sm7  1  0.501933  0.003864  0.250000  1
  Si  Si8  1  0.164442  0.328885  0.001792  1
  Si  Si9  1  0.835697  0.671395  0.998830  1
  Si  Si10  1  0.670207  0.835182  0.000193  1
  Si  Si11  1  0.835697  0.671395  0.501170  1
  Si  Si12  1  0.329422  0.164498  0.997451  1
  Si  Si13  1  0.164442  0.328885  0.498208  1
  Si  Si14  1  0.164976  0.835182  0.000193  1
  Si  Si15  1  0.329422  0.164498  0.502549  1
  Si  Si16  1  0.835076  0.164498  0.997451  1
  Si  Si17  1  0.670207  0.835182  0.499807  1
  Si  Si18  1  0.835076  0.164498  0.502549  1
  Si  Si19  1  0.164976  0.835182  0.499807  1
  Pt  Pt20  1  0.333191  0.666383  0.004651  1
  Pt  Pt21  1  0.666930  0.333858  0.994560  1
  Pt  Pt22  1  0.666930  0.333858  0.505440  1
  Pt  Pt23  1  0.333191  0.666383  0.495349  1
