# generated using pymatgen
data_Ca20MgAg11
_symmetry_space_group_name_H-M   'P 1'
_cell_length_a   8.06497600
_cell_length_b   8.06497600
_cell_length_c   14.92022500
_cell_angle_alpha   90.00000000
_cell_angle_beta   90.00000000
_cell_angle_gamma   90.00000000
_symmetry_Int_Tables_number   1
_chemical_formula_structural   Ca20MgAg11
_chemical_formula_sum   'Ca20 Mg1 Ag11'
_cell_volume   970.46869604
_cell_formula_units_Z   1
loop_
 _symmetry_equiv_pos_site_id
 _symmetry_equiv_pos_as_xyz
  1  'x, y, z'
loop_
 _atom_site_type_symbol
 _atom_site_label
 _atom_site_symmetry_multiplicity
 _atom_site_fract_x
 _atom_site_fract_y
 _atom_site_fract_z
 _atom_site_occupancy
  Ca  Ca0  1  0.657210  0.175254  0.107623  1
  Ca  Ca1  1  0.166895  0.667192  0.604774  1
  Ca  Ca2  1  0.342790  0.824746  0.107623  1
  Ca  Ca3  1  0.833105  0.332808  0.604774  1
  Ca  Ca4  1  0.824746  0.657210  0.107623  1
  Ca  Ca5  1  0.332808  0.166895  0.604774  1
  Ca  Ca6  1  0.175254  0.342790  0.107623  1
  Ca  Ca7  1  0.667192  0.833105  0.604774  1
  Ca  Ca8  1  0.824746  0.342790  0.892377  1
  Ca  Ca9  1  0.332808  0.833105  0.395226  1
  Ca  Ca10  1  0.175254  0.657210  0.892377  1
  Ca  Ca11  1  0.667192  0.166895  0.395226  1
  Ca  Ca12  1  0.657210  0.824746  0.892377  1
  Ca  Ca13  1  0.166895  0.332808  0.395226  1
  Ca  Ca14  1  0.342790  0.175254  0.892377  1
  Ca  Ca15  1  0.833105  0.667192  0.395226  1
  Ca  Ca16  1  0.500000  0.500000  0.744138  1
  Ca  Ca17  1  0.000000  0.000000  0.249820  1
  Ca  Ca18  1  0.000000  0.000000  0.750180  1
  Ca  Ca19  1  0.500000  0.500000  0.255862  1
  Mg  Mg20  1  0.000000  0.000000  0.000000  1
  Ag  Ag21  1  0.500000  0.500000  0.500000  1
  Ag  Ag22  1  0.500000  0.500000  0.000000  1
  Ag  Ag23  1  0.000000  0.000000  0.500000  1
  Ag  Ag24  1  0.628225  0.126051  0.748628  1
  Ag  Ag25  1  0.126051  0.628225  0.251372  1
  Ag  Ag26  1  0.873949  0.371775  0.251372  1
  Ag  Ag27  1  0.371775  0.873949  0.748628  1
  Ag  Ag28  1  0.873949  0.628225  0.748628  1
  Ag  Ag29  1  0.371775  0.126051  0.251372  1
  Ag  Ag30  1  0.126051  0.371775  0.748628  1
  Ag  Ag31  1  0.628225  0.873949  0.251372  1
