# generated using pymatgen
data_Er16TlCd(Ni2Ag)2
_symmetry_space_group_name_H-M   'P 1'
_cell_length_a   9.44494050
_cell_length_b   9.42267531
_cell_length_c   9.42267518
_cell_angle_alpha   59.87269562
_cell_angle_beta   59.82880237
_cell_angle_gamma   59.82880672
_symmetry_Int_Tables_number   1
_chemical_formula_structural   Er16TlCd(Ni2Ag)2
_chemical_formula_sum   'Er16 Tl1 Cd1 Ni4 Ag2'
_cell_volume   590.86276203
_cell_formula_units_Z   1
loop_
 _symmetry_equiv_pos_site_id
 _symmetry_equiv_pos_as_xyz
  1  'x, y, z'
loop_
 _atom_site_type_symbol
 _atom_site_label
 _atom_site_symmetry_multiplicity
 _atom_site_fract_x
 _atom_site_fract_y
 _atom_site_fract_z
 _atom_site_occupancy
  Er  Er0  1  0.349692  0.349477  0.349477  1
  Er  Er1  1  0.348821  0.350109  0.952736  1
  Er  Er2  1  0.348821  0.952736  0.350109  1
  Er  Er3  1  0.951102  0.349574  0.349574  1
  Er  Er4  1  0.810762  0.188910  0.188910  1
  Er  Er5  1  0.189033  0.810674  0.810674  1
  Er  Er6  1  0.188450  0.810858  0.188350  1
  Er  Er7  1  0.810951  0.188753  0.810384  1
  Er  Er8  1  0.188450  0.188350  0.810858  1
  Er  Er9  1  0.810951  0.810384  0.188753  1
  Er  Er10  1  0.938370  0.563731  0.563731  1
  Er  Er11  1  0.562317  0.937714  0.937714  1
  Er  Er12  1  0.563257  0.941546  0.564000  1
  Er  Er13  1  0.933820  0.564294  0.938707  1
  Er  Er14  1  0.563257  0.564000  0.941546  1
  Er  Er15  1  0.933820  0.938707  0.564294  1
  Tl  Tl16  1  0.584737  0.582267  0.582267  1
  Cd  Cd17  1  0.256688  0.579086  0.579086  1
  Ni  Ni18  1  0.143112  0.142236  0.142236  1
  Ni  Ni19  1  0.142462  0.142743  0.571626  1
  Ni  Ni20  1  0.142462  0.571626  0.142743  1
  Ni  Ni21  1  0.572531  0.142330  0.142330  1
  Ag  Ag22  1  0.583065  0.581405  0.248490  1
  Ag  Ag23  1  0.583065  0.248490  0.581405  1
