# generated using pymatgen
data_YTm17(ThPt8)2
_symmetry_space_group_name_H-M   'P 1'
_cell_length_a   7.47712162
_cell_length_b   7.46910077
_cell_length_c   14.62577259
_cell_angle_alpha   89.99814432
_cell_angle_beta   89.97408080
_cell_angle_gamma   89.81571725
_symmetry_Int_Tables_number   1
_chemical_formula_structural   YTm17(ThPt8)2
_chemical_formula_sum   'Y1 Tm17 Th2 Pt16'
_cell_volume   816.80669518
_cell_formula_units_Z   1
loop_
 _symmetry_equiv_pos_site_id
 _symmetry_equiv_pos_as_xyz
  1  'x, y, z'
loop_
 _atom_site_type_symbol
 _atom_site_label
 _atom_site_symmetry_multiplicity
 _atom_site_fract_x
 _atom_site_fract_y
 _atom_site_fract_z
 _atom_site_occupancy
  Y  Y0  1  0.998006  0.822317  0.091485  1
  Tm  Tm1  1  0.682461  0.993868  0.248465  1
  Tm  Tm2  1  0.178165  0.509021  0.248185  1
  Tm  Tm3  1  0.821391  0.491037  0.747512  1
  Tm  Tm4  1  0.317787  0.006012  0.747944  1
  Tm  Tm5  1  0.661875  0.836520  0.624251  1
  Tm  Tm6  1  0.153539  0.668169  0.876322  1
  Tm  Tm7  1  0.847227  0.331505  0.377181  1
  Tm  Tm8  1  0.339248  0.163792  0.124651  1
  Tm  Tm9  1  0.342988  0.167754  0.378184  1
  Tm  Tm10  1  0.845328  0.333917  0.121701  1
  Tm  Tm11  1  0.154570  0.666361  0.621606  1
  Tm  Tm12  1  0.657371  0.831957  0.877788  1
  Tm  Tm13  1  0.996467  0.823084  0.406206  1
  Tm  Tm14  1  0.496555  0.681532  0.094696  1
  Tm  Tm15  1  0.503219  0.318206  0.594613  1
  Tm  Tm16  1  0.003970  0.178392  0.905841  1
  Tm  Tm17  1  0.003336  0.178853  0.591866  1
  Th  Th18  1  0.498991  0.319967  0.907991  1
  Th  Th19  1  0.501306  0.680252  0.408480  1
  Pt  Pt20  1  0.817028  0.644946  0.251627  1
  Pt  Pt21  1  0.319366  0.855081  0.251702  1
  Pt  Pt22  1  0.681361  0.144852  0.750758  1
  Pt  Pt23  1  0.180836  0.353626  0.749514  1
  Pt  Pt24  1  0.545778  0.385387  0.250283  1
  Pt  Pt25  1  0.046592  0.114669  0.250575  1
  Pt  Pt26  1  0.953779  0.886640  0.749715  1
  Pt  Pt27  1  0.453530  0.613981  0.749716  1
  Pt  Pt28  1  0.810337  0.530524  0.541785  1
  Pt  Pt29  1  0.317366  0.966544  0.958318  1
  Pt  Pt30  1  0.682703  0.034587  0.459448  1
  Pt  Pt31  1  0.190956  0.466351  0.040395  1
  Pt  Pt32  1  0.184121  0.466357  0.459467  1
  Pt  Pt33  1  0.680737  0.036080  0.041364  1
  Pt  Pt34  1  0.315553  0.966283  0.542121  1
  Pt  Pt35  1  0.816158  0.531578  0.958245  1
