# generated using pymatgen
data_Sc5MnTc3(P4Ir5)3
_symmetry_space_group_name_H-M   'P 1'
_cell_length_a   12.56088408
_cell_length_b   12.45962981
_cell_length_c   3.91272100
_cell_angle_alpha   90.00000000
_cell_angle_beta   90.00000000
_cell_angle_gamma   119.73229286
_symmetry_Int_Tables_number   1
_chemical_formula_structural   Sc5MnTc3(P4Ir5)3
_chemical_formula_sum   'Sc5 Mn1 Tc3 P12 Ir15'
_cell_volume   531.74094243
_cell_formula_units_Z   1
loop_
 _symmetry_equiv_pos_site_id
 _symmetry_equiv_pos_as_xyz
  1  'x, y, z'
loop_
 _atom_site_type_symbol
 _atom_site_label
 _atom_site_symmetry_multiplicity
 _atom_site_fract_x
 _atom_site_fract_y
 _atom_site_fract_z
 _atom_site_occupancy
  Sc  Sc0  1  0.335819  0.661258  0.000000  1
  Sc  Sc1  1  0.665157  0.333899  0.000000  1
  Sc  Sc2  1  0.817425  0.998919  0.500000  1
  Sc  Sc3  1  0.999188  0.819481  0.500000  1
  Sc  Sc4  1  0.184370  0.186075  0.500000  1
  Mn  Mn5  1  0.355087  0.481915  0.500000  1
  Tc  Tc6  1  0.454956  0.999373  0.000000  1
  Tc  Tc7  1  0.998998  0.455078  0.000000  1
  Tc  Tc8  1  0.547004  0.549137  0.000000  1
  P  P9  1  0.176884  0.001812  0.000000  1
  P  P10  1  0.000523  0.176849  0.000000  1
  P  P11  1  0.823518  0.825687  0.000000  1
  P  P12  1  0.181200  0.486324  0.500000  1
  P  P13  1  0.504066  0.668128  0.500000  1
  P  P14  1  0.315843  0.828117  0.500000  1
  P  P15  1  0.683747  0.515309  0.500000  1
  P  P16  1  0.830006  0.315721  0.500000  1
  P  P17  1  0.484942  0.170993  0.500000  1
  P  P18  1  0.639941  0.999917  0.000000  1
  P  P19  1  0.000778  0.641287  0.000000  1
  P  P20  1  0.359907  0.369409  0.000000  1
  Ir  Ir21  1  0.507099  0.860120  0.500000  1
  Ir  Ir22  1  0.135157  0.640526  0.500000  1
  Ir  Ir23  1  0.865820  0.509698  0.500000  1
  Ir  Ir24  1  0.642085  0.133268  0.500000  1
  Ir  Ir25  1  0.490867  0.359322  0.500000  1
  Ir  Ir26  1  0.178069  0.373334  0.000000  1
  Ir  Ir27  1  0.631803  0.811999  0.000000  1
  Ir  Ir28  1  0.192084  0.820315  0.000000  1
  Ir  Ir29  1  0.809573  0.630681  0.000000  1
  Ir  Ir30  1  0.819604  0.192322  0.000000  1
  Ir  Ir31  1  0.369214  0.182433  0.000000  1
  Ir  Ir32  1  0.289004  0.000598  0.500000  1
  Ir  Ir33  1  0.999274  0.287917  0.500000  1
  Ir  Ir34  1  0.710535  0.712881  0.500000  1
  Ir  Ir35  1  0.000455  0.999896  0.000000  1
