# generated using pymatgen
data_YbSm6FeBr12
_symmetry_space_group_name_H-M   'P 1'
_cell_length_a   9.41131675
_cell_length_b   9.41131599
_cell_length_c   9.41131633
_cell_angle_alpha   107.05381779
_cell_angle_beta   107.05380794
_cell_angle_gamma   107.05381033
_symmetry_Int_Tables_number   1
_chemical_formula_structural   YbSm6FeBr12
_chemical_formula_sum   'Yb1 Sm6 Fe1 Br12'
_cell_volume   693.19793487
_cell_formula_units_Z   1
loop_
 _symmetry_equiv_pos_site_id
 _symmetry_equiv_pos_as_xyz
  1  'x, y, z'
loop_
 _atom_site_type_symbol
 _atom_site_label
 _atom_site_symmetry_multiplicity
 _atom_site_fract_x
 _atom_site_fract_y
 _atom_site_fract_z
 _atom_site_occupancy
  Yb  Yb0  1  0.000000  0.000000  0.000000  1
  Sm  Sm1  1  0.806991  0.524487  0.600698  1
  Sm  Sm2  1  0.524487  0.600698  0.806991  1
  Sm  Sm3  1  0.193009  0.475513  0.399302  1
  Sm  Sm4  1  0.475513  0.399302  0.193009  1
  Sm  Sm5  1  0.600698  0.806991  0.524487  1
  Sm  Sm6  1  0.399302  0.193009  0.475513  1
  Fe  Fe7  1  0.500000  0.500000  0.500000  1
  Br  Br8  1  0.722619  0.184534  0.572512  1
  Br  Br9  1  0.954325  0.878234  0.662355  1
  Br  Br10  1  0.572512  0.722619  0.184534  1
  Br  Br11  1  0.121766  0.337645  0.045675  1
  Br  Br12  1  0.662355  0.954325  0.878234  1
  Br  Br13  1  0.878234  0.662355  0.954325  1
  Br  Br14  1  0.045675  0.121766  0.337645  1
  Br  Br15  1  0.815466  0.427488  0.277381  1
  Br  Br16  1  0.337645  0.045675  0.121766  1
  Br  Br17  1  0.277381  0.815466  0.427488  1
  Br  Br18  1  0.184534  0.572512  0.722619  1
  Br  Br19  1  0.427488  0.277381  0.815466  1
