# generated using pymatgen
data_Zr3Ga3PdRu2
_symmetry_space_group_name_H-M   'P 1'
_cell_length_a   7.32269400
_cell_length_b   7.32269398
_cell_length_c   3.38278300
_cell_angle_alpha   90.00000000
_cell_angle_beta   90.00000000
_cell_angle_gamma   120.00000011
_symmetry_Int_Tables_number   1
_chemical_formula_structural   Zr3Ga3PdRu2
_chemical_formula_sum   'Zr3 Ga3 Pd1 Ru2'
_cell_volume   157.08927730
_cell_formula_units_Z   1
loop_
 _symmetry_equiv_pos_site_id
 _symmetry_equiv_pos_as_xyz
  1  'x, y, z'
loop_
 _atom_site_type_symbol
 _atom_site_label
 _atom_site_symmetry_multiplicity
 _atom_site_fract_x
 _atom_site_fract_y
 _atom_site_fract_z
 _atom_site_occupancy
  Zr  Zr0  1  0.400887  0.000000  0.499999  1
  Zr  Zr1  1  0.000000  0.400887  0.499999  1
  Zr  Zr2  1  0.599113  0.599114  0.499999  1
  Ga  Ga3  1  0.726001  0.000000  0.000000  1
  Ga  Ga4  1  0.273999  0.273998  0.000000  1
  Ga  Ga5  1  0.000000  0.726001  0.000000  1
  Pd  Pd6  1  0.000000  0.000000  0.499999  1
  Ru  Ru7  1  0.666667  0.333333  0.000000  1
  Ru  Ru8  1  0.333333  0.666666  0.000000  1
