# generated using pymatgen
data_Na4V3FeP8(O3F)8
_symmetry_space_group_name_H-M   'P 1'
_cell_length_a   14.40797100
_cell_length_b   6.55292599
_cell_length_c   6.56675400
_cell_angle_alpha   83.94683646
_cell_angle_beta   90.00000000
_cell_angle_gamma   90.00000000
_symmetry_Int_Tables_number   1
_chemical_formula_structural   Na4V3FeP8(O3F)8
_chemical_formula_sum   'Na4 V3 Fe1 P8 O24 F8'
_cell_volume   616.53912470
_cell_formula_units_Z   1
loop_
 _symmetry_equiv_pos_site_id
 _symmetry_equiv_pos_as_xyz
  1  'x, y, z'
loop_
 _atom_site_type_symbol
 _atom_site_label
 _atom_site_symmetry_multiplicity
 _atom_site_fract_x
 _atom_site_fract_y
 _atom_site_fract_z
 _atom_site_occupancy
  Na  Na0  1  0.423078  0.688856  0.496162  1
  Na  Na1  1  0.924217  0.311115  0.002952  1
  Na  Na2  1  0.576947  0.311016  0.504161  1
  Na  Na3  1  0.077702  0.688958  0.994612  1
  V  V4  1  0.608388  0.727648  0.138851  1
  V  V5  1  0.108230  0.272246  0.361939  1
  V  V6  1  0.391425  0.272356  0.861525  1
  Fe  Fe7  1  0.890718  0.729047  0.635134  1
  P  P8  1  0.654996  0.771552  0.631339  1
  P  P9  1  0.154213  0.228260  0.869096  1
  P  P10  1  0.345714  0.228104  0.368928  1
  P  P11  1  0.845697  0.771735  0.130499  1
  P  P12  1  0.394415  0.755153  0.979985  1
  P  P13  1  0.894198  0.244952  0.520723  1
  P  P14  1  0.605692  0.244807  0.020091  1
  P  P15  1  0.104674  0.755230  0.480771  1
  O  O16  1  0.468025  0.735013  0.149830  1
  O  O17  1  0.967723  0.264074  0.350400  1
  O  O18  1  0.532092  0.264835  0.850397  1
  O  O19  1  0.031106  0.737823  0.649816  1
  O  O20  1  0.386666  0.964706  0.859608  1
  O  O21  1  0.885867  0.034662  0.639853  1
  O  O22  1  0.613635  0.035135  0.140515  1
  O  O23  1  0.112974  0.964531  0.359229  1
  O  O24  1  0.601576  0.747411  0.829844  1
  O  O25  1  0.100485  0.251308  0.671081  1
  O  O26  1  0.399386  0.251776  0.170655  1
  O  O27  1  0.899023  0.745954  0.330575  1
  O  O28  1  0.397952  0.586756  0.836523  1
  O  O29  1  0.898053  0.414074  0.663164  1
  O  O30  1  0.602260  0.413136  0.163763  1
  O  O31  1  0.101181  0.586675  0.336940  1
  O  O32  1  0.754816  0.701976  0.641892  1
  O  O33  1  0.254094  0.296892  0.856765  1
  O  O34  1  0.245793  0.296144  0.356804  1
  O  O35  1  0.745988  0.703216  0.142903  1
  O  O36  1  0.597656  0.686477  0.461922  1
  O  O37  1  0.097331  0.314460  0.038295  1
  O  O38  1  0.402632  0.314136  0.538242  1
  O  O39  1  0.902437  0.687938  0.959459  1
  F  F40  1  0.341411  0.985351  0.433672  1
  F  F41  1  0.841760  0.014605  0.069416  1
  F  F42  1  0.659485  0.014264  0.566748  1
  F  F43  1  0.158936  0.985711  0.934307  1
  F  F44  1  0.301036  0.717492  0.106987  1
  F  F45  1  0.800946  0.283072  0.392798  1
  F  F46  1  0.699142  0.282348  0.893307  1
  F  F47  1  0.198228  0.717013  0.607522  1
