# generated using pymatgen
data_NaSr2Li(Al3Pd)6
_symmetry_space_group_name_H-M   'P 1'
_cell_length_a   7.67547825
_cell_length_b   7.68553354
_cell_length_c   9.61983100
_cell_angle_alpha   90.00000000
_cell_angle_beta   90.00000000
_cell_angle_gamma   119.51078163
_symmetry_Int_Tables_number   1
_chemical_formula_structural   NaSr2Li(Al3Pd)6
_chemical_formula_sum   'Na1 Sr2 Li1 Al18 Pd6'
_cell_volume   493.85270740
_cell_formula_units_Z   1
loop_
 _symmetry_equiv_pos_site_id
 _symmetry_equiv_pos_as_xyz
  1  'x, y, z'
loop_
 _atom_site_type_symbol
 _atom_site_label
 _atom_site_symmetry_multiplicity
 _atom_site_fract_x
 _atom_site_fract_y
 _atom_site_fract_z
 _atom_site_occupancy
  Na  Na0  1  0.004209  0.328426  0.750000  1
  Sr  Sr1  1  0.995262  0.670324  0.250000  1
  Sr  Sr2  1  0.669484  0.994911  0.250000  1
  Li  Li3  1  0.327358  0.003185  0.750000  1
  Al  Al4  1  0.137787  0.136451  0.250000  1
  Al  Al5  1  0.873908  0.873658  0.750000  1
  Al  Al6  1  0.006205  0.334881  0.062194  1
  Al  Al7  1  0.008746  0.669172  0.910439  1
  Al  Al8  1  0.008746  0.669172  0.589561  1
  Al  Al9  1  0.334426  0.005232  0.442448  1
  Al  Al10  1  0.006205  0.334881  0.437806  1
  Al  Al11  1  0.661199  0.004838  0.589403  1
  Al  Al12  1  0.661199  0.004838  0.910597  1
  Al  Al13  1  0.334426  0.005232  0.057552  1
  Al  Al14  1  0.328827  0.325832  0.570471  1
  Al  Al15  1  0.663183  0.663301  0.467240  1
  Al  Al16  1  0.663183  0.663301  0.032760  1
  Al  Al17  1  0.328827  0.325832  0.929529  1
  Al  Al18  1  0.337020  0.536980  0.250000  1
  Al  Al19  1  0.659719  0.449131  0.750000  1
  Al  Al20  1  0.536557  0.335863  0.250000  1
  Al  Al21  1  0.451000  0.661903  0.750000  1
  Pd  Pd22  1  0.672270  0.331203  0.998283  1
  Pd  Pd23  1  0.330449  0.671007  0.998174  1
  Pd  Pd24  1  0.330449  0.671007  0.501826  1
  Pd  Pd25  1  0.672270  0.331203  0.501717  1
  Pd  Pd26  1  0.998540  0.999119  0.997517  1
  Pd  Pd27  1  0.998540  0.999119  0.502483  1
