# generated using pymatgen
data_Hf2B4Ru5
_symmetry_space_group_name_H-M   'P 1'
_cell_length_a   3.00574200
_cell_length_b   8.84822001
_cell_length_c   9.89810180
_cell_angle_alpha   89.99553274
_cell_angle_beta   90.00000000
_cell_angle_gamma   90.00000000
_symmetry_Int_Tables_number   1
_chemical_formula_structural   Hf2B4Ru5
_chemical_formula_sum   'Hf4 B8 Ru10'
_cell_volume   263.24463414
_cell_formula_units_Z   2
loop_
 _symmetry_equiv_pos_site_id
 _symmetry_equiv_pos_as_xyz
  1  'x, y, z'
loop_
 _atom_site_type_symbol
 _atom_site_label
 _atom_site_symmetry_multiplicity
 _atom_site_fract_x
 _atom_site_fract_y
 _atom_site_fract_z
 _atom_site_occupancy
  Hf  Hf0  1  0.500000  0.834480  0.181966  1
  Hf  Hf1  1  0.500000  0.165520  0.818034  1
  Hf  Hf2  1  0.500000  0.665551  0.681924  1
  Hf  Hf3  1  0.500000  0.334449  0.318076  1
  B  B4  1  0.500000  0.968392  0.583046  1
  B  B5  1  0.500000  0.031608  0.416954  1
  B  B6  1  0.500000  0.856992  0.897129  1
  B  B7  1  0.500000  0.143008  0.102871  1
  B  B8  1  0.500000  0.642875  0.397079  1
  B  B9  1  0.500000  0.357125  0.602921  1
  B  B10  1  0.500000  0.468472  0.917061  1
  B  B11  1  0.500000  0.531528  0.082939  1
  Ru  Ru12  1  0.000000  0.679362  0.944202  1
  Ru  Ru13  1  0.000000  0.320638  0.055798  1
  Ru  Ru14  1  0.000000  0.820788  0.444257  1
  Ru  Ru15  1  0.000000  0.179212  0.555743  1
  Ru  Ru16  1  0.000000  0.000000  0.000000  1
  Ru  Ru17  1  0.000000  0.414083  0.767274  1
  Ru  Ru18  1  0.000000  0.585917  0.232726  1
  Ru  Ru19  1  0.000000  0.500000  0.500000  1
  Ru  Ru20  1  0.000000  0.914041  0.732793  1
  Ru  Ru21  1  0.000000  0.085959  0.267207  1
