# generated using pymatgen
data_Lu10Ni4BiIr
_symmetry_space_group_name_H-M   'P 1'
_cell_length_a   8.55707334
_cell_length_b   8.55707231
_cell_length_c   8.55707246
_cell_angle_alpha   130.08974619
_cell_angle_beta   130.08973540
_cell_angle_gamma   73.26333531
_symmetry_Int_Tables_number   1
_chemical_formula_structural   Lu10Ni4BiIr
_chemical_formula_sum   'Lu10 Ni4 Bi1 Ir1'
_cell_volume   358.02255417
_cell_formula_units_Z   1
loop_
 _symmetry_equiv_pos_site_id
 _symmetry_equiv_pos_as_xyz
  1  'x, y, z'
loop_
 _atom_site_type_symbol
 _atom_site_label
 _atom_site_symmetry_multiplicity
 _atom_site_fract_x
 _atom_site_fract_y
 _atom_site_fract_z
 _atom_site_occupancy
  Lu  Lu0  1  0.983625  0.983625  0.000000  1
  Lu  Lu1  1  0.516375  0.516375  0.000000  1
  Lu  Lu2  1  0.824081  0.283289  0.828763  1
  Lu  Lu3  1  0.216711  0.675919  0.171237  1
  Lu  Lu4  1  0.454528  0.995320  0.171237  1
  Lu  Lu5  1  0.283289  0.454528  0.459208  1
  Lu  Lu6  1  0.045472  0.216711  0.540792  1
  Lu  Lu7  1  0.504680  0.045472  0.828763  1
  Lu  Lu8  1  0.675919  0.504680  0.459208  1
  Lu  Lu9  1  0.995320  0.824081  0.540792  1
  Ni  Ni10  1  0.130706  0.630706  0.761411  1
  Ni  Ni11  1  0.869294  0.369294  0.238589  1
  Ni  Ni12  1  0.630706  0.869294  0.500000  1
  Ni  Ni13  1  0.369294  0.130706  0.500000  1
  Bi  Bi14  1  0.750000  0.750000  0.000000  1
  Ir  Ir15  1  0.250000  0.250000  0.000000  1
