# generated using pymatgen
data_Ti2NbCo4Si4Mo
_symmetry_space_group_name_H-M   'P 1'
_cell_length_a   3.65090800
_cell_length_b   6.14088605
_cell_length_c   6.97618834
_cell_angle_alpha   89.68430971
_cell_angle_beta   90.00000000
_cell_angle_gamma   90.00000000
_symmetry_Int_Tables_number   1
_chemical_formula_structural   Ti2NbCo4Si4Mo
_chemical_formula_sum   'Ti2 Nb1 Co4 Si4 Mo1'
_cell_volume   156.40244291
_cell_formula_units_Z   1
loop_
 _symmetry_equiv_pos_site_id
 _symmetry_equiv_pos_as_xyz
  1  'x, y, z'
loop_
 _atom_site_type_symbol
 _atom_site_label
 _atom_site_symmetry_multiplicity
 _atom_site_fract_x
 _atom_site_fract_y
 _atom_site_fract_z
 _atom_site_occupancy
  Ti  Ti0  1  0.250000  0.019128  0.817418  1
  Ti  Ti1  1  0.250000  0.521935  0.684331  1
  Nb  Nb2  1  0.750000  0.479406  0.315568  1
  Co  Co3  1  0.250000  0.145842  0.442183  1
  Co  Co4  1  0.250000  0.639694  0.060113  1
  Co  Co5  1  0.750000  0.858241  0.565867  1
  Co  Co6  1  0.750000  0.355124  0.933584  1
  Si  Si7  1  0.250000  0.781038  0.380483  1
  Si  Si8  1  0.250000  0.265933  0.116796  1
  Si  Si9  1  0.750000  0.228632  0.620499  1
  Si  Si10  1  0.750000  0.728645  0.884134  1
  Mo  Mo11  1  0.750000  0.976382  0.179023  1
