# generated using pymatgen
data_Ce3ZrBiSb4
_symmetry_space_group_name_H-M   'P 1'
_cell_length_a   9.49873500
_cell_length_b   9.49873405
_cell_length_c   6.37002500
_cell_angle_alpha   90.00000000
_cell_angle_beta   90.00000000
_cell_angle_gamma   119.99999984
_symmetry_Int_Tables_number   1
_chemical_formula_structural   Ce3ZrBiSb4
_chemical_formula_sum   'Ce6 Zr2 Bi2 Sb8'
_cell_volume   497.74083144
_cell_formula_units_Z   2
loop_
 _symmetry_equiv_pos_site_id
 _symmetry_equiv_pos_as_xyz
  1  'x, y, z'
loop_
 _atom_site_type_symbol
 _atom_site_label
 _atom_site_symmetry_multiplicity
 _atom_site_fract_x
 _atom_site_fract_y
 _atom_site_fract_z
 _atom_site_occupancy
  Ce  Ce0  1  0.617745  0.000000  0.253932  1
  Ce  Ce1  1  0.382255  0.000000  0.746068  1
  Ce  Ce2  1  0.000000  0.617745  0.253932  1
  Ce  Ce3  1  0.000000  0.382255  0.746068  1
  Ce  Ce4  1  0.382255  0.382255  0.253932  1
  Ce  Ce5  1  0.617745  0.617745  0.746068  1
  Zr  Zr6  1  0.000000  0.000000  0.000000  1
  Zr  Zr7  1  0.000000  0.000000  0.500000  1
  Bi  Bi8  1  0.333333  0.666667  0.000000  1
  Bi  Bi9  1  0.666667  0.333333  0.000000  1
  Sb  Sb10  1  0.265980  0.000000  0.249410  1
  Sb  Sb11  1  0.734020  0.000000  0.750590  1
  Sb  Sb12  1  0.000000  0.265980  0.249410  1
  Sb  Sb13  1  0.000000  0.734020  0.750590  1
  Sb  Sb14  1  0.734020  0.734020  0.249410  1
  Sb  Sb15  1  0.265980  0.265980  0.750590  1
  Sb  Sb16  1  0.666667  0.333333  0.500000  1
  Sb  Sb17  1  0.333333  0.666667  0.500000  1
