# generated using pymatgen
data_CsCrTe3O8
_symmetry_space_group_name_H-M   'P 1'
_cell_length_a   5.65652572
_cell_length_b   7.92089784
_cell_length_c   11.10274875
_cell_angle_alpha   99.95466396
_cell_angle_beta   89.60433797
_cell_angle_gamma   108.72216461
_symmetry_Int_Tables_number   1
_chemical_formula_structural   CsCrTe3O8
_chemical_formula_sum   'Cs2 Cr2 Te6 O16'
_cell_volume   463.41098375
_cell_formula_units_Z   2
loop_
 _symmetry_equiv_pos_site_id
 _symmetry_equiv_pos_as_xyz
  1  'x, y, z'
loop_
 _atom_site_type_symbol
 _atom_site_label
 _atom_site_symmetry_multiplicity
 _atom_site_fract_x
 _atom_site_fract_y
 _atom_site_fract_z
 _atom_site_occupancy
  Cs  Cs0  1  0.826093  0.109690  0.160638  1
  Cs  Cs1  1  0.173907  0.890310  0.839362  1
  Cr  Cr2  1  0.500000  0.500000  0.000000  1
  Cr  Cr3  1  0.000000  0.500000  0.500000  1
  Te  Te4  1  0.217243  0.967831  0.416220  1
  Te  Te5  1  0.782757  0.032169  0.583780  1
  Te  Te6  1  0.055361  0.650711  0.146315  1
  Te  Te7  1  0.944639  0.349289  0.853685  1
  Te  Te8  1  0.519774  0.533006  0.338556  1
  Te  Te9  1  0.480226  0.466994  0.661444  1
  O  O10  1  0.165271  0.721968  0.422903  1
  O  O11  1  0.834729  0.278032  0.577097  1
  O  O12  1  0.228673  0.900910  0.226098  1
  O  O13  1  0.771327  0.099090  0.773902  1
  O  O14  1  0.878724  0.965053  0.395453  1
  O  O15  1  0.121276  0.034947  0.604547  1
  O  O16  1  0.272621  0.656485  0.014143  1
  O  O17  1  0.727379  0.343515  0.985857  1
  O  O18  1  0.806918  0.713507  0.068205  1
  O  O19  1  0.193082  0.286493  0.931795  1
  O  O20  1  0.407199  0.437976  0.170847  1
  O  O21  1  0.592801  0.562024  0.829153  1
  O  O22  1  0.238563  0.381283  0.408985  1
  O  O23  1  0.761437  0.618717  0.591015  1
  O  O24  1  0.740559  0.399771  0.355221  1
  O  O25  1  0.259441  0.600229  0.644779  1
