# generated using pymatgen
data_Tb3YHf5ZrSi8
_symmetry_space_group_name_H-M   'P 1'
_cell_length_a   7.30105300
_cell_length_b   7.30072178
_cell_length_c   13.41974500
_cell_angle_alpha   90.00000000
_cell_angle_beta   90.00000000
_cell_angle_gamma   89.96143505
_symmetry_Int_Tables_number   1
_chemical_formula_structural   Tb3YHf5ZrSi8
_chemical_formula_sum   'Tb6 Y2 Hf10 Zr2 Si16'
_cell_volume   715.31192430
_cell_formula_units_Z   2
loop_
 _symmetry_equiv_pos_site_id
 _symmetry_equiv_pos_as_xyz
  1  'x, y, z'
loop_
 _atom_site_type_symbol
 _atom_site_label
 _atom_site_symmetry_multiplicity
 _atom_site_fract_x
 _atom_site_fract_y
 _atom_site_fract_z
 _atom_site_occupancy
  Tb  Tb0  1  0.156240  0.496457  0.465039  1
  Tb  Tb1  1  0.503558  0.843735  0.034951  1
  Tb  Tb2  1  0.843760  0.503543  0.965039  1
  Tb  Tb3  1  0.496442  0.156265  0.534951  1
  Tb  Tb4  1  0.343727  0.996419  0.784895  1
  Tb  Tb5  1  0.656273  0.003581  0.284895  1
  Y  Y6  1  0.996447  0.343754  0.215117  1
  Y  Y7  1  0.003553  0.656246  0.715117  1
  Hf  Hf8  1  0.325431  0.674564  0.250008  1
  Hf  Hf9  1  0.674569  0.325436  0.750008  1
  Hf  Hf10  1  0.149454  0.995274  0.374427  1
  Hf  Hf11  1  0.850546  0.004726  0.874427  1
  Hf  Hf12  1  0.504419  0.649781  0.624345  1
  Hf  Hf13  1  0.350203  0.495596  0.875685  1
  Hf  Hf14  1  0.495581  0.350219  0.124345  1
  Hf  Hf15  1  0.649797  0.504404  0.375685  1
  Hf  Hf16  1  0.995308  0.149429  0.625580  1
  Hf  Hf17  1  0.004692  0.850571  0.125580  1
  Zr  Zr18  1  0.174288  0.174292  0.999977  1
  Zr  Zr19  1  0.825712  0.825708  0.499977  1
  Si  Si20  1  0.363554  0.295059  0.316981  1
  Si  Si21  1  0.636446  0.704941  0.816981  1
  Si  Si22  1  0.205951  0.863559  0.567126  1
  Si  Si23  1  0.136441  0.794010  0.932887  1
  Si  Si24  1  0.794049  0.136441  0.067126  1
  Si  Si25  1  0.863559  0.205990  0.432887  1
  Si  Si26  1  0.295058  0.363584  0.683006  1
  Si  Si27  1  0.704942  0.636416  0.183006  1
  Si  Si28  1  0.295497  0.048127  0.186285  1
  Si  Si29  1  0.704503  0.951873  0.686285  1
  Si  Si30  1  0.450463  0.794844  0.435469  1
  Si  Si31  1  0.205144  0.549519  0.064525  1
  Si  Si32  1  0.549537  0.205156  0.935469  1
  Si  Si33  1  0.794856  0.450481  0.564525  1
  Si  Si34  1  0.048108  0.295531  0.813697  1
  Si  Si35  1  0.951892  0.704469  0.313697  1
