# generated using pymatgen
data_Yb10Pr9YSn16
_symmetry_space_group_name_H-M   'P 1'
_cell_length_a   8.00196406
_cell_length_b   8.51744564
_cell_length_c   16.06604910
_cell_angle_alpha   90.02283672
_cell_angle_beta   90.09278900
_cell_angle_gamma   90.04789967
_symmetry_Int_Tables_number   1
_chemical_formula_structural   Yb10Pr9YSn16
_chemical_formula_sum   'Yb10 Pr9 Y1 Sn16'
_cell_volume   1095.00045758
_cell_formula_units_Z   1
loop_
 _symmetry_equiv_pos_site_id
 _symmetry_equiv_pos_as_xyz
  1  'x, y, z'
loop_
 _atom_site_type_symbol
 _atom_site_label
 _atom_site_symmetry_multiplicity
 _atom_site_fract_x
 _atom_site_fract_y
 _atom_site_fract_z
 _atom_site_occupancy
  Yb  Yb0  1  0.828331  0.670367  0.622414  1
  Yb  Yb1  1  0.671464  0.171573  0.376429  1
  Yb  Yb2  1  0.172665  0.328053  0.124591  1
  Yb  Yb3  1  0.670621  0.172340  0.124576  1
  Yb  Yb4  1  0.171092  0.328658  0.376477  1
  Yb  Yb5  1  0.328250  0.828927  0.622556  1
  Yb  Yb6  1  0.156829  0.500445  0.748211  1
  Yb  Yb7  1  0.656868  0.997837  0.747500  1
  Yb  Yb8  1  0.843928  0.496002  0.250548  1
  Yb  Yb9  1  0.342861  0.004800  0.250634  1
  Pr  Pr10  1  0.830000  0.674312  0.876001  1
  Pr  Pr11  1  0.489788  0.314827  0.905120  1
  Pr  Pr12  1  0.989507  0.185206  0.595000  1
  Pr  Pr13  1  0.509669  0.686032  0.403640  1
  Pr  Pr14  1  0.011310  0.814948  0.098203  1
  Pr  Pr15  1  0.510159  0.684452  0.097555  1
  Pr  Pr16  1  0.009375  0.814436  0.403315  1
  Pr  Pr17  1  0.489317  0.315142  0.593848  1
  Pr  Pr18  1  0.989947  0.183995  0.904318  1
  Y  Y19  1  0.328622  0.826817  0.876825  1
  Sn  Sn20  1  0.328954  0.035243  0.038482  1
  Sn  Sn21  1  0.831979  0.464555  0.459928  1
  Sn  Sn22  1  0.668136  0.964349  0.539263  1
  Sn  Sn23  1  0.172425  0.535426  0.960614  1
  Sn  Sn24  1  0.665575  0.964816  0.960779  1
  Sn  Sn25  1  0.167182  0.535231  0.539571  1
  Sn  Sn26  1  0.331503  0.036040  0.460271  1
  Sn  Sn27  1  0.831872  0.463024  0.040488  1
  Sn  Sn28  1  0.526051  0.606989  0.749799  1
  Sn  Sn29  1  0.032073  0.895791  0.750705  1
  Sn  Sn30  1  0.471595  0.396167  0.250903  1
  Sn  Sn31  1  0.970814  0.104691  0.250308  1
  Sn  Sn32  1  0.285559  0.139641  0.751111  1
  Sn  Sn33  1  0.781861  0.358144  0.750638  1
  Sn  Sn34  1  0.716608  0.859682  0.249478  1
  Sn  Sn35  1  0.217214  0.641042  0.249902  1
