# generated using pymatgen
data_Ta12Al8Ni4BC3
_symmetry_space_group_name_H-M   'P 1'
_cell_length_a   8.25082943
_cell_length_b   8.25083007
_cell_length_c   8.27348232
_cell_angle_alpha   60.09053169
_cell_angle_beta   60.09053686
_cell_angle_gamma   60.00000256
_symmetry_Int_Tables_number   1
_chemical_formula_structural   Ta12Al8Ni4BC3
_chemical_formula_sum   'Ta12 Al8 Ni4 B1 C3'
_cell_volume   398.80587850
_cell_formula_units_Z   1
loop_
 _symmetry_equiv_pos_site_id
 _symmetry_equiv_pos_as_xyz
  1  'x, y, z'
loop_
 _atom_site_type_symbol
 _atom_site_label
 _atom_site_symmetry_multiplicity
 _atom_site_fract_x
 _atom_site_fract_y
 _atom_site_fract_z
 _atom_site_occupancy
  Ta  Ta0  1  0.563657  0.935449  0.565446  1
  Ta  Ta1  1  0.314551  0.686343  0.684554  1
  Ta  Ta2  1  0.686785  0.309763  0.316669  1
  Ta  Ta3  1  0.309763  0.686785  0.316669  1
  Ta  Ta4  1  0.686785  0.686785  0.316669  1
  Ta  Ta5  1  0.314551  0.314551  0.684554  1
  Ta  Ta6  1  0.563215  0.563215  0.933331  1
  Ta  Ta7  1  0.935449  0.563657  0.565446  1
  Ta  Ta8  1  0.563215  0.940237  0.933331  1
  Ta  Ta9  1  0.935449  0.935449  0.565446  1
  Ta  Ta10  1  0.686343  0.314551  0.684554  1
  Ta  Ta11  1  0.940237  0.563215  0.933331  1
  Al  Al12  1  0.916866  0.916866  0.918504  1
  Al  Al13  1  0.002236  0.333134  0.331496  1
  Al  Al14  1  0.333134  0.002236  0.331496  1
  Al  Al15  1  0.332433  0.332433  0.002701  1
  Al  Al16  1  0.916866  0.247764  0.918504  1
  Al  Al17  1  0.917567  0.917567  0.247299  1
  Al  Al18  1  0.247764  0.916866  0.918504  1
  Al  Al19  1  0.333134  0.333134  0.331496  1
  Ni  Ni20  1  0.125000  0.125000  0.125000  1
  Ni  Ni21  1  0.625000  0.125000  0.125000  1
  Ni  Ni22  1  0.125000  0.625000  0.125000  1
  Ni  Ni23  1  0.125000  0.125000  0.625000  1
  B  B24  1  0.625000  0.625000  0.125000  1
  C  C25  1  0.625000  0.625000  0.625000  1
  C  C26  1  0.125000  0.625000  0.625000  1
  C  C27  1  0.625000  0.125000  0.625000  1
