# generated using pymatgen
data_Pr2TmSn6Ru
_symmetry_space_group_name_H-M   'P 1'
_cell_length_a   8.57800831
_cell_length_b   8.57800777
_cell_length_c   13.47017100
_cell_angle_alpha   90.00000000
_cell_angle_beta   90.00000000
_cell_angle_gamma   148.23445738
_symmetry_Int_Tables_number   1
_chemical_formula_structural   Pr2TmSn6Ru
_chemical_formula_sum   'Pr4 Tm2 Sn12 Ru2'
_cell_volume   521.79350004
_cell_formula_units_Z   2
loop_
 _symmetry_equiv_pos_site_id
 _symmetry_equiv_pos_as_xyz
  1  'x, y, z'
loop_
 _atom_site_type_symbol
 _atom_site_label
 _atom_site_symmetry_multiplicity
 _atom_site_fract_x
 _atom_site_fract_y
 _atom_site_fract_z
 _atom_site_occupancy
  Pr  Pr0  1  0.400786  0.599214  0.404697  1
  Pr  Pr1  1  0.599214  0.400786  0.595303  1
  Pr  Pr2  1  0.400786  0.599214  0.095303  1
  Pr  Pr3  1  0.599214  0.400786  0.904697  1
  Tm  Tm4  1  0.603607  0.396393  0.250000  1
  Tm  Tm5  1  0.396393  0.603607  0.750000  1
  Sn  Sn6  1  0.925297  0.074703  0.921268  1
  Sn  Sn7  1  0.074703  0.925297  0.078732  1
  Sn  Sn8  1  0.925297  0.074703  0.578732  1
  Sn  Sn9  1  0.074703  0.925297  0.421268  1
  Sn  Sn10  1  0.960951  0.039049  0.250000  1
  Sn  Sn11  1  0.039049  0.960951  0.750000  1
  Sn  Sn12  1  0.744216  0.255785  0.432199  1
  Sn  Sn13  1  0.255785  0.744215  0.567801  1
  Sn  Sn14  1  0.744216  0.255785  0.067801  1
  Sn  Sn15  1  0.255785  0.744215  0.932199  1
  Sn  Sn16  1  0.230095  0.769905  0.250000  1
  Sn  Sn17  1  0.769905  0.230095  0.750000  1
  Ru  Ru18  1  0.799766  0.200234  0.250000  1
  Ru  Ru19  1  0.200234  0.799766  0.750000  1
