# generated using pymatgen
data_YbEu2(H6Rh)2
_symmetry_space_group_name_H-M   'P 1'
_cell_length_a   5.04599600
_cell_length_b   5.04599761
_cell_length_c   8.33603700
_cell_angle_alpha   90.00000000
_cell_angle_beta   90.00000000
_cell_angle_gamma   120.00000259
_symmetry_Int_Tables_number   1
_chemical_formula_structural   YbEu2(H6Rh)2
_chemical_formula_sum   'Yb1 Eu2 H12 Rh2'
_cell_volume   183.81637448
_cell_formula_units_Z   1
loop_
 _symmetry_equiv_pos_site_id
 _symmetry_equiv_pos_as_xyz
  1  'x, y, z'
loop_
 _atom_site_type_symbol
 _atom_site_label
 _atom_site_symmetry_multiplicity
 _atom_site_fract_x
 _atom_site_fract_y
 _atom_site_fract_z
 _atom_site_occupancy
  Yb  Yb0  1  0.666667  0.333333  0.358992  1
  Eu  Eu1  1  0.000000  0.000000  0.002425  1
  Eu  Eu2  1  0.333333  0.666667  0.633407  1
  H  H3  1  0.174415  0.825585  0.366204  1
  H  H4  1  0.651169  0.825585  0.366204  1
  H  H5  1  0.174415  0.348831  0.366204  1
  H  H6  1  0.824096  0.175904  0.631462  1
  H  H7  1  0.351808  0.175904  0.631462  1
  H  H8  1  0.824096  0.648192  0.631462  1
  H  H9  1  0.513412  0.026826  0.868084  1
  H  H10  1  0.513412  0.486588  0.868084  1
  H  H11  1  0.973174  0.486588  0.868084  1
  H  H12  1  0.488372  0.976744  0.135609  1
  H  H13  1  0.488372  0.511628  0.135609  1
  H  H14  1  0.023256  0.511628  0.135609  1
  Rh  Rh15  1  0.666667  0.333333  0.748073  1
  Rh  Rh16  1  0.333333  0.666667  0.253025  1
