# generated using pymatgen
data_HoHfRh5Pb
_symmetry_space_group_name_H-M   'P 1'
_cell_length_a   4.20179100
_cell_length_b   5.73089320
_cell_length_c   11.36192656
_cell_angle_alpha   89.55132289
_cell_angle_beta   90.00000000
_cell_angle_gamma   90.00000000
_symmetry_Int_Tables_number   1
_chemical_formula_structural   HoHfRh5Pb
_chemical_formula_sum   'Ho2 Hf2 Rh10 Pb2'
_cell_volume   273.58697850
_cell_formula_units_Z   2
loop_
 _symmetry_equiv_pos_site_id
 _symmetry_equiv_pos_as_xyz
  1  'x, y, z'
loop_
 _atom_site_type_symbol
 _atom_site_label
 _atom_site_symmetry_multiplicity
 _atom_site_fract_x
 _atom_site_fract_y
 _atom_site_fract_z
 _atom_site_occupancy
  Ho  Ho0  1  0.500000  0.189076  0.640554  1
  Ho  Ho1  1  0.500000  0.810924  0.359446  1
  Hf  Hf2  1  0.500000  0.683830  0.858755  1
  Hf  Hf3  1  0.500000  0.316170  0.141245  1
  Rh  Rh4  1  0.500000  0.215932  0.888419  1
  Rh  Rh5  1  0.500000  0.784068  0.111581  1
  Rh  Rh6  1  0.500000  0.706759  0.625001  1
  Rh  Rh7  1  0.500000  0.293241  0.374999  1
  Rh  Rh8  1  0.000000  0.451986  0.758223  1
  Rh  Rh9  1  0.000000  0.548014  0.241777  1
  Rh  Rh10  1  0.000000  0.000000  0.500000  1
  Rh  Rh11  1  0.000000  0.500000  0.000000  1
  Rh  Rh12  1  0.000000  0.061707  0.245195  1
  Rh  Rh13  1  0.000000  0.938293  0.754805  1
  Pb  Pb14  1  0.000000  0.500000  0.500000  1
  Pb  Pb15  1  0.000000  0.000000  0.000000  1
