# generated using pymatgen
data_Sm2Gd4WO12
_symmetry_space_group_name_H-M   'P 1'
_cell_length_a   6.61862262
_cell_length_b   6.60307542
_cell_length_c   6.62106457
_cell_angle_alpha   98.68634758
_cell_angle_beta   98.62932064
_cell_angle_gamma   98.49690408
_symmetry_Int_Tables_number   1
_chemical_formula_structural   Sm2Gd4WO12
_chemical_formula_sum   'Sm2 Gd4 W1 O12'
_cell_volume   278.47265844
_cell_formula_units_Z   1
loop_
 _symmetry_equiv_pos_site_id
 _symmetry_equiv_pos_as_xyz
  1  'x, y, z'
loop_
 _atom_site_type_symbol
 _atom_site_label
 _atom_site_symmetry_multiplicity
 _atom_site_fract_x
 _atom_site_fract_y
 _atom_site_fract_z
 _atom_site_occupancy
  Sm  Sm0  1  0.857211  0.388473  0.688404  1
  Sm  Sm1  1  0.611026  0.311456  0.143087  1
  Gd  Gd2  1  0.313122  0.143737  0.609987  1
  Gd  Gd3  1  0.686132  0.855569  0.389732  1
  Gd  Gd4  1  0.389778  0.687073  0.855903  1
  Gd  Gd5  1  0.144604  0.611033  0.313839  1
  W  W6  1  0.000334  0.999468  0.000230  1
  O  O7  1  0.926213  0.032091  0.707343  1
  O  O8  1  0.967558  0.293535  0.073349  1
  O  O9  1  0.590487  0.174882  0.435872  1
  O  O10  1  0.823982  0.567271  0.407964  1
  O  O11  1  0.291919  0.073028  0.966699  1
  O  O12  1  0.562282  0.409196  0.821446  1
  O  O13  1  0.433448  0.593760  0.177172  1
  O  O14  1  0.707216  0.926769  0.032702  1
  O  O15  1  0.179688  0.434856  0.590341  1
  O  O16  1  0.408202  0.822749  0.566204  1
  O  O17  1  0.033117  0.707230  0.926969  1
  O  O18  1  0.073681  0.967824  0.292757  1
