# generated using pymatgen
data_Tb4Tm7(Sc3Bi4)3
_symmetry_space_group_name_H-M   'P 1'
_cell_length_a   8.00138046
_cell_length_b   9.23258400
_cell_length_c   11.82976797
_cell_angle_alpha   90.04987471
_cell_angle_beta   89.89562888
_cell_angle_gamma   89.98165101
_symmetry_Int_Tables_number   1
_chemical_formula_structural   Tb4Tm7(Sc3Bi4)3
_chemical_formula_sum   'Tb4 Tm7 Sc9 Bi12'
_cell_volume   873.90355803
_cell_formula_units_Z   1
loop_
 _symmetry_equiv_pos_site_id
 _symmetry_equiv_pos_as_xyz
  1  'x, y, z'
loop_
 _atom_site_type_symbol
 _atom_site_label
 _atom_site_symmetry_multiplicity
 _atom_site_fract_x
 _atom_site_fract_y
 _atom_site_fract_z
 _atom_site_occupancy
  Tb  Tb0  1  0.317521  0.251558  0.219669  1
  Tb  Tb1  1  0.817307  0.249587  0.281643  1
  Tb  Tb2  1  0.682890  0.750461  0.780890  1
  Tb  Tb3  1  0.183300  0.749093  0.718587  1
  Tm  Tm4  1  0.351601  0.749121  0.218831  1
  Tm  Tm5  1  0.851137  0.751685  0.281715  1
  Tm  Tm6  1  0.650702  0.251088  0.779978  1
  Tm  Tm7  1  0.148706  0.251611  0.718237  1
  Tm  Tm8  1  0.692132  0.564815  0.060540  1
  Tm  Tm9  1  0.190160  0.935336  0.440279  1
  Tm  Tm10  1  0.308018  0.065067  0.939325  1
  Sc  Sc11  1  0.807109  0.432546  0.560128  1
  Sc  Sc12  1  0.307816  0.431452  0.940662  1
  Sc  Sc13  1  0.807818  0.067731  0.559125  1
  Sc  Sc14  1  0.692167  0.931139  0.059510  1
  Sc  Sc15  1  0.192006  0.568423  0.440775  1
  Sc  Sc16  1  0.482289  0.250606  0.489918  1
  Sc  Sc17  1  0.980501  0.251254  0.010482  1
  Sc  Sc18  1  0.519480  0.748519  0.510788  1
  Sc  Sc19  1  0.019431  0.751307  0.988679  1
  Bi  Bi20  1  0.399569  0.745574  0.960905  1
  Bi  Bi21  1  0.897916  0.747507  0.539720  1
  Bi  Bi22  1  0.600507  0.245100  0.038528  1
  Bi  Bi23  1  0.096480  0.256952  0.462590  1
  Bi  Bi24  1  0.566294  0.994630  0.331708  1
  Bi  Bi25  1  0.066421  0.506190  0.168586  1
  Bi  Bi26  1  0.435871  0.494081  0.667932  1
  Bi  Bi27  1  0.933449  0.006176  0.830689  1
  Bi  Bi28  1  0.437187  0.005879  0.667156  1
  Bi  Bi29  1  0.936690  0.494900  0.831415  1
  Bi  Bi30  1  0.564277  0.505294  0.333724  1
  Bi  Bi31  1  0.063247  0.995315  0.167287  1
