# generated using pymatgen
data_MnBi2SO7
_symmetry_space_group_name_H-M   'P 1'
_cell_length_a   5.44299000
_cell_length_b   7.29229600
_cell_length_c   16.03261900
_cell_angle_alpha   90.00000000
_cell_angle_beta   90.00000000
_cell_angle_gamma   90.00000000
_symmetry_Int_Tables_number   1
_chemical_formula_structural   MnBi2SO7
_chemical_formula_sum   'Mn4 Bi8 S4 O28'
_cell_volume   636.36501718
_cell_formula_units_Z   4
loop_
 _symmetry_equiv_pos_site_id
 _symmetry_equiv_pos_as_xyz
  1  'x, y, z'
loop_
 _atom_site_type_symbol
 _atom_site_label
 _atom_site_symmetry_multiplicity
 _atom_site_fract_x
 _atom_site_fract_y
 _atom_site_fract_z
 _atom_site_occupancy
  Mn  Mn0  1  0.250000  0.945703  0.673150  1
  Mn  Mn1  1  0.250000  0.054297  0.173150  1
  Mn  Mn2  1  0.750000  0.054297  0.326850  1
  Mn  Mn3  1  0.750000  0.945703  0.826850  1
  Bi  Bi4  1  0.750000  0.832623  0.518530  1
  Bi  Bi5  1  0.750000  0.234145  0.658225  1
  Bi  Bi6  1  0.250000  0.234145  0.841775  1
  Bi  Bi7  1  0.750000  0.765855  0.158225  1
  Bi  Bi8  1  0.750000  0.167377  0.018530  1
  Bi  Bi9  1  0.250000  0.765855  0.341775  1
  Bi  Bi10  1  0.250000  0.832623  0.981470  1
  Bi  Bi11  1  0.250000  0.167377  0.481470  1
  S  S12  1  0.250000  0.585861  0.609151  1
  S  S13  1  0.750000  0.414139  0.390849  1
  S  S14  1  0.250000  0.414139  0.109151  1
  S  S15  1  0.750000  0.585861  0.890849  1
  O  O16  1  0.028992  0.321745  0.146763  1
  O  O17  1  0.028992  0.678255  0.646763  1
  O  O18  1  0.750000  0.613103  0.368654  1
  O  O19  1  0.500000  0.907174  0.250000  1
  O  O20  1  0.471008  0.678255  0.646763  1
  O  O21  1  0.528992  0.678255  0.853237  1
  O  O22  1  0.991497  0.048524  0.580381  1
  O  O23  1  0.008503  0.951476  0.419619  1
  O  O24  1  0.508503  0.048524  0.580381  1
  O  O25  1  0.500000  0.092826  0.750000  1
  O  O26  1  0.491497  0.951476  0.419619  1
  O  O27  1  0.971008  0.678255  0.853237  1
  O  O28  1  0.000000  0.092826  0.750000  1
  O  O29  1  0.250000  0.610599  0.517101  1
  O  O30  1  0.508503  0.951476  0.080381  1
  O  O31  1  0.528992  0.321745  0.353237  1
  O  O32  1  0.750000  0.389401  0.482899  1
  O  O33  1  0.971008  0.321745  0.353237  1
  O  O34  1  0.250000  0.613103  0.131346  1
  O  O35  1  0.750000  0.610599  0.982899  1
  O  O36  1  0.750000  0.386897  0.868654  1
  O  O37  1  0.000000  0.907174  0.250000  1
  O  O38  1  0.471008  0.321745  0.146763  1
  O  O39  1  0.250000  0.389401  0.017101  1
  O  O40  1  0.991497  0.951476  0.080381  1
  O  O41  1  0.491497  0.048524  0.919619  1
  O  O42  1  0.008503  0.048524  0.919619  1
  O  O43  1  0.250000  0.386897  0.631346  1
