# generated using pymatgen
data_PrLu(AgSn)2
_symmetry_space_group_name_H-M   'P 1'
_cell_length_a   4.76941600
_cell_length_b   4.76941614
_cell_length_c   7.52615400
_cell_angle_alpha   90.00000000
_cell_angle_beta   90.00000000
_cell_angle_gamma   120.00001291
_symmetry_Int_Tables_number   1
_chemical_formula_structural   PrLu(AgSn)2
_chemical_formula_sum   'Pr1 Lu1 Ag2 Sn2'
_cell_volume   148.26344842
_cell_formula_units_Z   1
loop_
 _symmetry_equiv_pos_site_id
 _symmetry_equiv_pos_as_xyz
  1  'x, y, z'
loop_
 _atom_site_type_symbol
 _atom_site_label
 _atom_site_symmetry_multiplicity
 _atom_site_fract_x
 _atom_site_fract_y
 _atom_site_fract_z
 _atom_site_occupancy
  Pr  Pr0  1  0.000000  0.000000  0.496689  1
  Lu  Lu1  1  0.000000  0.000000  0.999518  1
  Ag  Ag2  1  0.666667  0.333333  0.176396  1
  Ag  Ag3  1  0.333333  0.666667  0.704065  1
  Sn  Sn4  1  0.333333  0.666667  0.267250  1
  Sn  Sn5  1  0.666667  0.333333  0.784080  1
