# generated using pymatgen
data_Tb4Hf4Ir3Pt
_symmetry_space_group_name_H-M   'P 1'
_cell_length_a   4.61914000
_cell_length_b   7.07425780
_cell_length_c   8.26693800
_cell_angle_alpha   89.78757569
_cell_angle_beta   90.00000000
_cell_angle_gamma   90.00000000
_symmetry_Int_Tables_number   1
_chemical_formula_structural   Tb4Hf4Ir3Pt
_chemical_formula_sum   'Tb4 Hf4 Ir3 Pt1'
_cell_volume   270.13677071
_cell_formula_units_Z   1
loop_
 _symmetry_equiv_pos_site_id
 _symmetry_equiv_pos_as_xyz
  1  'x, y, z'
loop_
 _atom_site_type_symbol
 _atom_site_label
 _atom_site_symmetry_multiplicity
 _atom_site_fract_x
 _atom_site_fract_y
 _atom_site_fract_z
 _atom_site_occupancy
  Tb  Tb0  1  0.750000  0.517259  0.825140  1
  Tb  Tb1  1  0.250000  0.979751  0.320703  1
  Tb  Tb2  1  0.250000  0.485543  0.175696  1
  Tb  Tb3  1  0.750000  0.015581  0.678651  1
  Hf  Hf4  1  0.750000  0.643919  0.428047  1
  Hf  Hf5  1  0.250000  0.360234  0.577053  1
  Hf  Hf6  1  0.750000  0.140082  0.071999  1
  Hf  Hf7  1  0.250000  0.860332  0.926471  1
  Ir  Ir8  1  0.250000  0.728588  0.591694  1
  Ir  Ir9  1  0.250000  0.230345  0.906831  1
  Ir  Ir10  1  0.750000  0.769831  0.093363  1
  Pt  Pt11  1  0.750000  0.268535  0.404353  1
