# generated using pymatgen
data_Y3LuTl5
_symmetry_space_group_name_H-M   'P 1'
_cell_length_a   8.50706737
_cell_length_b   8.50706652
_cell_length_c   8.50706600
_cell_angle_alpha   66.17248772
_cell_angle_beta   66.17248122
_cell_angle_gamma   66.17247735
_symmetry_Int_Tables_number   1
_chemical_formula_structural   Y3LuTl5
_chemical_formula_sum   'Y6 Lu2 Tl10'
_cell_volume   493.39240160
_cell_formula_units_Z   2
loop_
 _symmetry_equiv_pos_site_id
 _symmetry_equiv_pos_as_xyz
  1  'x, y, z'
loop_
 _atom_site_type_symbol
 _atom_site_label
 _atom_site_symmetry_multiplicity
 _atom_site_fract_x
 _atom_site_fract_y
 _atom_site_fract_z
 _atom_site_occupancy
  Y  Y0  1  0.894422  0.186636  0.620804  1
  Y  Y1  1  0.620804  0.894422  0.186636  1
  Y  Y2  1  0.186636  0.620804  0.894422  1
  Y  Y3  1  0.105578  0.813364  0.379196  1
  Y  Y4  1  0.379196  0.105578  0.813364  1
  Y  Y5  1  0.813364  0.379196  0.105578  1
  Lu  Lu6  1  0.658017  0.658017  0.658017  1
  Lu  Lu7  1  0.341983  0.341983  0.341983  1
  Tl  Tl8  1  0.000000  0.000000  0.000000  1
  Tl  Tl9  1  0.500000  0.500000  0.500000  1
  Tl  Tl10  1  0.814248  0.814248  0.814248  1
  Tl  Tl11  1  0.185752  0.185752  0.185752  1
  Tl  Tl12  1  0.943950  0.566746  0.300109  1
  Tl  Tl13  1  0.300109  0.943950  0.566746  1
  Tl  Tl14  1  0.566746  0.300109  0.943950  1
  Tl  Tl15  1  0.056050  0.433254  0.699891  1
  Tl  Tl16  1  0.699891  0.056050  0.433254  1
  Tl  Tl17  1  0.433254  0.699891  0.056050  1
