# generated using pymatgen
data_Sr7Pr(Tm3Sn4)4
_symmetry_space_group_name_H-M   'P 1'
_cell_length_a   8.21600184
_cell_length_b   8.38228868
_cell_length_c   15.94188000
_cell_angle_alpha   89.85757191
_cell_angle_beta   89.88398576
_cell_angle_gamma   90.07258302
_symmetry_Int_Tables_number   1
_chemical_formula_structural   Sr7Pr(Tm3Sn4)4
_chemical_formula_sum   'Sr7 Pr1 Tm12 Sn16'
_cell_volume   1097.89319638
_cell_formula_units_Z   1
loop_
 _symmetry_equiv_pos_site_id
 _symmetry_equiv_pos_as_xyz
  1  'x, y, z'
loop_
 _atom_site_type_symbol
 _atom_site_label
 _atom_site_symmetry_multiplicity
 _atom_site_fract_x
 _atom_site_fract_y
 _atom_site_fract_z
 _atom_site_occupancy
  Sr  Sr0  1  0.002041  0.173559  0.596099  1
  Sr  Sr1  1  0.498542  0.673840  0.406845  1
  Sr  Sr2  1  0.999103  0.824513  0.092119  1
  Sr  Sr3  1  0.499916  0.674083  0.092152  1
  Sr  Sr4  1  0.998696  0.825831  0.406539  1
  Sr  Sr5  1  0.502087  0.326421  0.595371  1
  Sr  Sr6  1  0.002657  0.173041  0.905701  1
  Pr  Pr7  1  0.497698  0.321976  0.902544  1
  Tm  Tm8  1  0.331630  0.837680  0.873886  1
  Tm  Tm9  1  0.832535  0.663110  0.626951  1
  Tm  Tm10  1  0.666702  0.163029  0.375197  1
  Tm  Tm11  1  0.167139  0.338079  0.124134  1
  Tm  Tm12  1  0.666402  0.164246  0.124429  1
  Tm  Tm13  1  0.166633  0.336323  0.375465  1
  Tm  Tm14  1  0.331858  0.838756  0.627662  1
  Tm  Tm15  1  0.833261  0.662076  0.874323  1
  Tm  Tm16  1  0.168138  0.498621  0.750123  1
  Tm  Tm17  1  0.670383  0.001797  0.750584  1
  Tm  Tm18  1  0.830440  0.502370  0.249944  1
  Tm  Tm19  1  0.330723  0.997905  0.249866  1
  Sn  Sn20  1  0.337236  0.047262  0.039695  1
  Sn  Sn21  1  0.836079  0.457682  0.457596  1
  Sn  Sn22  1  0.663249  0.957862  0.543721  1
  Sn  Sn23  1  0.170827  0.537740  0.954985  1
  Sn  Sn24  1  0.662828  0.964092  0.955407  1
  Sn  Sn25  1  0.163976  0.541578  0.543825  1
  Sn  Sn26  1  0.336096  0.041506  0.457617  1
  Sn  Sn27  1  0.831674  0.455006  0.040385  1
  Sn  Sn28  1  0.530908  0.628688  0.752198  1
  Sn  Sn29  1  0.030197  0.866332  0.750887  1
  Sn  Sn30  1  0.467457  0.368918  0.250159  1
  Sn  Sn31  1  0.967584  0.131866  0.249530  1
  Sn  Sn32  1  0.311056  0.140240  0.752254  1
  Sn  Sn33  1  0.800290  0.363202  0.753288  1
  Sn  Sn34  1  0.697120  0.866565  0.249502  1
  Sn  Sn35  1  0.196836  0.634207  0.249019  1
