# generated using pymatgen
data_PrThNiB10
_symmetry_space_group_name_H-M   'P 1'
_cell_length_a   4.19612300
_cell_length_b   5.63709652
_cell_length_c   11.24729500
_cell_angle_alpha   90.15458536
_cell_angle_beta   90.00000000
_cell_angle_gamma   90.00000000
_symmetry_Int_Tables_number   1
_chemical_formula_structural   PrThNiB10
_chemical_formula_sum   'Pr2 Th2 Ni2 B20'
_cell_volume   266.04198918
_cell_formula_units_Z   2
loop_
 _symmetry_equiv_pos_site_id
 _symmetry_equiv_pos_as_xyz
  1  'x, y, z'
loop_
 _atom_site_type_symbol
 _atom_site_label
 _atom_site_symmetry_multiplicity
 _atom_site_fract_x
 _atom_site_fract_y
 _atom_site_fract_z
 _atom_site_occupancy
  Pr  Pr0  1  0.500000  0.307293  0.863690  1
  Pr  Pr1  1  0.500000  0.692707  0.136310  1
  Th  Th2  1  0.500000  0.807098  0.637332  1
  Th  Th3  1  0.500000  0.192902  0.362668  1
  Ni  Ni4  1  0.000000  0.500000  0.500000  1
  Ni  Ni5  1  0.000000  0.000000  0.000000  1
  B  B6  1  0.000000  0.124437  0.540972  1
  B  B7  1  0.000000  0.875563  0.459028  1
  B  B8  1  0.000000  0.625601  0.958276  1
  B  B9  1  0.000000  0.374399  0.041724  1
  B  B10  1  0.000000  0.153629  0.697030  1
  B  B11  1  0.000000  0.846371  0.302970  1
  B  B12  1  0.300078  0.203144  0.115152  1
  B  B13  1  0.300078  0.796856  0.884848  1
  B  B14  1  0.699236  0.701707  0.386046  1
  B  B15  1  0.699236  0.298293  0.613954  1
  B  B16  1  0.699922  0.796856  0.884848  1
  B  B17  1  0.699922  0.203144  0.115152  1
  B  B18  1  0.300764  0.298293  0.613954  1
  B  B19  1  0.300764  0.701707  0.386046  1
  B  B20  1  0.000000  0.035389  0.188059  1
  B  B21  1  0.000000  0.964611  0.811941  1
  B  B22  1  0.000000  0.535137  0.313044  1
  B  B23  1  0.000000  0.464863  0.686956  1
  B  B24  1  0.000000  0.345342  0.197759  1
  B  B25  1  0.000000  0.654658  0.802241  1
