# generated using pymatgen
data_Li4Pr3ThSi8
_symmetry_space_group_name_H-M   'P 1'
_cell_length_a   3.87276800
_cell_length_b   7.74347035
_cell_length_c   10.61171207
_cell_angle_alpha   90.04347313
_cell_angle_beta   90.00000000
_cell_angle_gamma   90.00000000
_symmetry_Int_Tables_number   1
_chemical_formula_structural   Li4Pr3ThSi8
_chemical_formula_sum   'Li4 Pr3 Th1 Si8'
_cell_volume   318.23097790
_cell_formula_units_Z   1
loop_
 _symmetry_equiv_pos_site_id
 _symmetry_equiv_pos_as_xyz
  1  'x, y, z'
loop_
 _atom_site_type_symbol
 _atom_site_label
 _atom_site_symmetry_multiplicity
 _atom_site_fract_x
 _atom_site_fract_y
 _atom_site_fract_z
 _atom_site_occupancy
  Li  Li0  1  0.250000  0.991001  0.390690  1
  Li  Li1  1  0.250000  0.495875  0.108213  1
  Li  Li2  1  0.750000  0.005545  0.609058  1
  Li  Li3  1  0.750000  0.505040  0.890095  1
  Pr  Pr4  1  0.250000  0.141018  0.864933  1
  Pr  Pr5  1  0.250000  0.639209  0.634740  1
  Pr  Pr6  1  0.750000  0.861196  0.135502  1
  Th  Th7  1  0.750000  0.360159  0.364434  1
  Si  Si8  1  0.250000  0.230058  0.567443  1
  Si  Si9  1  0.250000  0.727827  0.929066  1
  Si  Si10  1  0.750000  0.770253  0.428630  1
  Si  Si11  1  0.750000  0.274738  0.073953  1
  Si  Si12  1  0.250000  0.660606  0.320563  1
  Si  Si13  1  0.250000  0.166006  0.182684  1
  Si  Si14  1  0.750000  0.335343  0.678305  1
  Si  Si15  1  0.750000  0.836127  0.821688  1
