# generated using pymatgen
data_HgBi3IrRu3O14
_symmetry_space_group_name_H-M   'P 1'
_cell_length_a   7.26312156
_cell_length_b   7.26312254
_cell_length_c   7.26312190
_cell_angle_alpha   61.45949044
_cell_angle_beta   61.45948713
_cell_angle_gamma   61.45948571
_symmetry_Int_Tables_number   1
_chemical_formula_structural   HgBi3IrRu3O14
_chemical_formula_sum   'Hg1 Bi3 Ir1 Ru3 O14'
_cell_volume   279.80732135
_cell_formula_units_Z   1
loop_
 _symmetry_equiv_pos_site_id
 _symmetry_equiv_pos_as_xyz
  1  'x, y, z'
loop_
 _atom_site_type_symbol
 _atom_site_label
 _atom_site_symmetry_multiplicity
 _atom_site_fract_x
 _atom_site_fract_y
 _atom_site_fract_z
 _atom_site_occupancy
  Hg  Hg0  1  0.125000  0.125000  0.125000  1
  Bi  Bi1  1  0.125000  0.125000  0.625000  1
  Bi  Bi2  1  0.125000  0.625000  0.125000  1
  Bi  Bi3  1  0.625000  0.125000  0.125000  1
  Ir  Ir4  1  0.625000  0.625000  0.625000  1
  Ru  Ru5  1  0.625000  0.625000  0.125000  1
  Ru  Ru6  1  0.625000  0.125000  0.625000  1
  Ru  Ru7  1  0.125000  0.625000  0.625000  1
  O  O8  1  0.244479  0.244479  0.244479  1
  O  O9  1  0.005521  0.005521  0.005521  1
  O  O10  1  0.544139  0.952777  0.544139  1
  O  O11  1  0.304277  0.683634  0.304277  1
  O  O12  1  0.544139  0.544139  0.952777  1
  O  O13  1  0.952777  0.544139  0.544139  1
  O  O14  1  0.566366  0.945723  0.945723  1
  O  O15  1  0.945723  0.945723  0.566366  1
  O  O16  1  0.945723  0.566366  0.945723  1
  O  O17  1  0.683634  0.304277  0.304277  1
  O  O18  1  0.297223  0.705861  0.705861  1
  O  O19  1  0.705861  0.297223  0.705861  1
  O  O20  1  0.304277  0.304277  0.683634  1
  O  O21  1  0.705861  0.705861  0.297223  1
