# generated using pymatgen
data_RbSn2RhSe6
_symmetry_space_group_name_H-M   'P 1'
_cell_length_a   9.57199503
_cell_length_b   9.57199310
_cell_length_c   9.57199400
_cell_angle_alpha   39.62798921
_cell_angle_beta   39.62799373
_cell_angle_gamma   39.62799342
_symmetry_Int_Tables_number   1
_chemical_formula_structural   RbSn2RhSe6
_chemical_formula_sum   'Rb1 Sn2 Rh1 Se6'
_cell_volume   321.22205352
_cell_formula_units_Z   1
loop_
 _symmetry_equiv_pos_site_id
 _symmetry_equiv_pos_as_xyz
  1  'x, y, z'
loop_
 _atom_site_type_symbol
 _atom_site_label
 _atom_site_symmetry_multiplicity
 _atom_site_fract_x
 _atom_site_fract_y
 _atom_site_fract_z
 _atom_site_occupancy
  Rb  Rb0  1  0.998600  0.998600  0.998600  1
  Sn  Sn1  1  0.500971  0.500971  0.500971  1
  Sn  Sn2  1  0.832703  0.832703  0.832703  1
  Rh  Rh3  1  0.166735  0.166735  0.166735  1
  Se  Se4  1  0.532349  0.222735  0.916788  1
  Se  Se5  1  0.916788  0.532349  0.222735  1
  Se  Se6  1  0.222735  0.916788  0.532349  1
  Se  Se7  1  0.799443  0.112094  0.417583  1
  Se  Se8  1  0.112094  0.417583  0.799443  1
  Se  Se9  1  0.417583  0.799443  0.112094  1
