# generated using pymatgen
data_CuBi3Ru2(RhO7)2
_symmetry_space_group_name_H-M   'P 1'
_cell_length_a   7.15202725
_cell_length_b   7.37788923
_cell_length_c   7.35236044
_cell_angle_alpha   59.88506937
_cell_angle_beta   58.78957863
_cell_angle_gamma   58.94972172
_symmetry_Int_Tables_number   1
_chemical_formula_structural   CuBi3Ru2(RhO7)2
_chemical_formula_sum   'Cu1 Bi3 Ru2 Rh2 O14'
_cell_volume   269.32144110
_cell_formula_units_Z   1
loop_
 _symmetry_equiv_pos_site_id
 _symmetry_equiv_pos_as_xyz
  1  'x, y, z'
loop_
 _atom_site_type_symbol
 _atom_site_label
 _atom_site_symmetry_multiplicity
 _atom_site_fract_x
 _atom_site_fract_y
 _atom_site_fract_z
 _atom_site_occupancy
  Cu  Cu0  1  0.625000  0.125000  0.125000  1
  Bi  Bi1  1  0.125000  0.125000  0.125000  1
  Bi  Bi2  1  0.125000  0.625000  0.125000  1
  Bi  Bi3  1  0.125000  0.125000  0.625000  1
  Ru  Ru4  1  0.625000  0.625000  0.625000  1
  Ru  Ru5  1  0.625000  0.125000  0.625000  1
  Rh  Rh6  1  0.625000  0.625000  0.125000  1
  Rh  Rh7  1  0.125000  0.625000  0.625000  1
  O  O8  1  0.294583  0.234947  0.235524  1
  O  O9  1  0.283877  0.713904  0.288315  1
  O  O10  1  0.960378  0.959175  0.542966  1
  O  O11  1  0.547770  0.942556  0.567117  1
  O  O12  1  0.700679  0.700450  0.303572  1
  O  O13  1  0.960378  0.537482  0.542966  1
  O  O14  1  0.702230  0.307444  0.682883  1
  O  O15  1  0.289622  0.290825  0.707034  1
  O  O16  1  0.700679  0.295300  0.303572  1
  O  O17  1  0.289622  0.712518  0.707034  1
  O  O18  1  0.966123  0.536096  0.961685  1
  O  O19  1  0.549321  0.549550  0.946428  1
  O  O20  1  0.955417  0.015053  0.014476  1
  O  O21  1  0.549321  0.954700  0.946428  1
