# generated using pymatgen
data_TaCdHgSbO7
_symmetry_space_group_name_H-M   'P 1'
_cell_length_a   7.44856237
_cell_length_b   7.44856205
_cell_length_c   7.35348300
_cell_angle_alpha   60.42136828
_cell_angle_beta   60.42136968
_cell_angle_gamma   60.78294054
_symmetry_Int_Tables_number   1
_chemical_formula_structural   TaCdHgSbO7
_chemical_formula_sum   'Ta2 Cd2 Hg2 Sb2 O14'
_cell_volume   292.00921715
_cell_formula_units_Z   2
loop_
 _symmetry_equiv_pos_site_id
 _symmetry_equiv_pos_as_xyz
  1  'x, y, z'
loop_
 _atom_site_type_symbol
 _atom_site_label
 _atom_site_symmetry_multiplicity
 _atom_site_fract_x
 _atom_site_fract_y
 _atom_site_fract_z
 _atom_site_occupancy
  Ta  Ta0  1  0.125000  0.625000  0.125000  1
  Ta  Ta1  1  0.625000  0.125000  0.125000  1
  Cd  Cd2  1  0.625000  0.125000  0.625000  1
  Cd  Cd3  1  0.125000  0.625000  0.625000  1
  Hg  Hg4  1  0.625000  0.625000  0.625000  1
  Hg  Hg5  1  0.625000  0.625000  0.125000  1
  Sb  Sb6  1  0.125000  0.125000  0.125000  1
  Sb  Sb7  1  0.125000  0.125000  0.625000  1
  O  O8  1  0.815439  0.815439  0.184561  1
  O  O9  1  0.809078  0.188993  0.805773  1
  O  O10  1  0.047193  0.047193  0.452807  1
  O  O11  1  0.809078  0.188993  0.196156  1
  O  O12  1  0.434561  0.434561  0.065439  1
  O  O13  1  0.061007  0.440922  0.053844  1
  O  O14  1  0.188993  0.809078  0.805773  1
  O  O15  1  0.440922  0.061007  0.444227  1
  O  O16  1  0.503669  0.503669  0.496331  1
  O  O17  1  0.188993  0.809078  0.196156  1
  O  O18  1  0.202807  0.202807  0.797193  1
  O  O19  1  0.746331  0.746331  0.753669  1
  O  O20  1  0.440922  0.061007  0.053844  1
  O  O21  1  0.061007  0.440922  0.444227  1
