# generated using pymatgen
data_CaTb4U2O12
_symmetry_space_group_name_H-M   'P 1'
_cell_length_a   6.59307549
_cell_length_b   6.71061951
_cell_length_c   6.53855014
_cell_angle_alpha   100.10553451
_cell_angle_beta   98.24500325
_cell_angle_gamma   99.35067536
_symmetry_Int_Tables_number   1
_chemical_formula_structural   CaTb4U2O12
_chemical_formula_sum   'Ca1 Tb4 U2 O12'
_cell_volume   276.58107279
_cell_formula_units_Z   1
loop_
 _symmetry_equiv_pos_site_id
 _symmetry_equiv_pos_as_xyz
  1  'x, y, z'
loop_
 _atom_site_type_symbol
 _atom_site_label
 _atom_site_symmetry_multiplicity
 _atom_site_fract_x
 _atom_site_fract_y
 _atom_site_fract_z
 _atom_site_occupancy
  Ca  Ca0  1  0.859176  0.692825  0.399512  1
  Tb  Tb1  1  0.390650  0.855135  0.684442  1
  Tb  Tb2  1  0.306178  0.612524  0.147755  1
  Tb  Tb3  1  0.143816  0.312321  0.605659  1
  Tb  Tb4  1  0.607972  0.128296  0.309687  1
  U  U5  1  0.689697  0.399475  0.864184  1
  U  U6  1  0.001924  0.003939  0.996534  1
  O  O7  1  0.439071  0.182390  0.605003  1
  O  O8  1  0.578653  0.412339  0.153666  1
  O  O9  1  0.178749  0.578176  0.438415  1
  O  O10  1  0.560311  0.822092  0.405773  1
  O  O11  1  0.438424  0.572142  0.823343  1
  O  O12  1  0.808237  0.406099  0.587398  1
  O  O13  1  0.070328  0.319897  0.942658  1
  O  O14  1  0.689665  0.057603  0.923464  1
  O  O15  1  0.060736  0.935189  0.688536  1
  O  O16  1  0.915996  0.679725  0.038629  1
  O  O17  1  0.311261  0.941990  0.074404  1
  O  O18  1  0.949154  0.087841  0.310941  1
