# generated using pymatgen
data_DyTm10Lu5(In3Co)2
_symmetry_space_group_name_H-M   'P 1'
_cell_length_a   10.19180800
_cell_length_b   10.19209032
_cell_length_c   6.90759604
_cell_angle_alpha   89.98871289
_cell_angle_beta   90.00000000
_cell_angle_gamma   119.99909018
_symmetry_Int_Tables_number   1
_chemical_formula_structural   DyTm10Lu5(In3Co)2
_chemical_formula_sum   'Dy1 Tm10 Lu5 In6 Co2'
_cell_volume   621.40684290
_cell_formula_units_Z   1
loop_
 _symmetry_equiv_pos_site_id
 _symmetry_equiv_pos_as_xyz
  1  'x, y, z'
loop_
 _atom_site_type_symbol
 _atom_site_label
 _atom_site_symmetry_multiplicity
 _atom_site_fract_x
 _atom_site_fract_y
 _atom_site_fract_z
 _atom_site_occupancy
  Dy  Dy0  1  0.000079  0.000159  0.001936  1
  Tm  Tm1  1  0.534288  0.068575  0.511929  1
  Tm  Tm2  1  0.931496  0.465439  0.512270  1
  Tm  Tm3  1  0.533943  0.465439  0.512270  1
  Tm  Tm4  1  0.465962  0.931924  0.013333  1
  Tm  Tm5  1  0.068425  0.533977  0.013169  1
  Tm  Tm6  1  0.465552  0.533977  0.013169  1
  Tm  Tm7  1  0.178860  0.357719  0.719154  1
  Tm  Tm8  1  0.642280  0.821135  0.719276  1
  Tm  Tm9  1  0.178855  0.821135  0.719276  1
  Tm  Tm10  1  0.821181  0.642363  0.220643  1
  Lu  Lu11  1  0.358207  0.179149  0.220515  1
  Lu  Lu12  1  0.820941  0.179149  0.220515  1
  Lu  Lu13  1  0.666502  0.333002  0.904169  1
  Lu  Lu14  1  0.333355  0.666710  0.404176  1
  Lu  Lu15  1  0.000095  0.000190  0.500155  1
  In  In16  1  0.836432  0.672862  0.758261  1
  In  In17  1  0.327031  0.163510  0.758954  1
  In  In18  1  0.836481  0.163510  0.758954  1
  In  In19  1  0.163090  0.326181  0.261642  1
  In  In20  1  0.673423  0.837274  0.261582  1
  In  In21  1  0.163851  0.837274  0.261582  1
  Co  Co22  1  0.666328  0.332656  0.287593  1
  Co  Co23  1  0.333346  0.666693  0.789678  1
