# generated using pymatgen
data_Hf18Mn2CoCuRe6
_symmetry_space_group_name_H-M   'P 1'
_cell_length_a   8.54073700
_cell_length_b   8.54073520
_cell_length_c   8.43021800
_cell_angle_alpha   90.00000000
_cell_angle_beta   90.00000000
_cell_angle_gamma   119.99999534
_symmetry_Int_Tables_number   1
_chemical_formula_structural   Hf18Mn2CoCuRe6
_chemical_formula_sum   'Hf18 Mn2 Co1 Cu1 Re6'
_cell_volume   532.54960049
_cell_formula_units_Z   1
loop_
 _symmetry_equiv_pos_site_id
 _symmetry_equiv_pos_as_xyz
  1  'x, y, z'
loop_
 _atom_site_type_symbol
 _atom_site_label
 _atom_site_symmetry_multiplicity
 _atom_site_fract_x
 _atom_site_fract_y
 _atom_site_fract_z
 _atom_site_occupancy
  Hf  Hf0  1  0.192951  0.807049  0.446201  1
  Hf  Hf1  1  0.192951  0.385904  0.446201  1
  Hf  Hf2  1  0.614096  0.807049  0.446201  1
  Hf  Hf3  1  0.801573  0.198427  0.557999  1
  Hf  Hf4  1  0.801573  0.603145  0.557999  1
  Hf  Hf5  1  0.396855  0.198427  0.557999  1
  Hf  Hf6  1  0.801573  0.198427  0.942001  1
  Hf  Hf7  1  0.801573  0.603145  0.942001  1
  Hf  Hf8  1  0.396855  0.198427  0.942001  1
  Hf  Hf9  1  0.192951  0.807049  0.053799  1
  Hf  Hf10  1  0.192951  0.385904  0.053799  1
  Hf  Hf11  1  0.614096  0.807049  0.053799  1
  Hf  Hf12  1  0.541697  0.458303  0.250000  1
  Hf  Hf13  1  0.541697  0.083394  0.250000  1
  Hf  Hf14  1  0.916606  0.458303  0.250000  1
  Hf  Hf15  1  0.458333  0.541667  0.750000  1
  Hf  Hf16  1  0.458333  0.916669  0.750000  1
  Hf  Hf17  1  0.083331  0.541667  0.750000  1
  Mn  Mn18  1  0.000000  0.000000  0.500802  1
  Mn  Mn19  1  0.000000  0.000000  0.999198  1
  Co  Co20  1  0.666667  0.333333  0.750000  1
  Cu  Cu21  1  0.333333  0.666667  0.250000  1
  Re  Re22  1  0.891539  0.108461  0.250000  1
  Re  Re23  1  0.891539  0.783078  0.250000  1
  Re  Re24  1  0.216922  0.108461  0.250000  1
  Re  Re25  1  0.108065  0.891935  0.750000  1
  Re  Re26  1  0.108065  0.216128  0.750000  1
  Re  Re27  1  0.783872  0.891935  0.750000  1
