# generated using pymatgen
data_YHo2Si3Pd
_symmetry_space_group_name_H-M   'P 1'
_cell_length_a   5.67510898
_cell_length_b   5.67510793
_cell_length_c   13.61757813
_cell_angle_alpha   71.23862891
_cell_angle_beta   71.23863368
_cell_angle_gamma   43.83580816
_symmetry_Int_Tables_number   1
_chemical_formula_structural   YHo2Si3Pd
_chemical_formula_sum   'Y2 Ho4 Si6 Pd2'
_cell_volume   284.91884320
_cell_formula_units_Z   2
loop_
 _symmetry_equiv_pos_site_id
 _symmetry_equiv_pos_as_xyz
  1  'x, y, z'
loop_
 _atom_site_type_symbol
 _atom_site_label
 _atom_site_symmetry_multiplicity
 _atom_site_fract_x
 _atom_site_fract_y
 _atom_site_fract_z
 _atom_site_occupancy
  Y  Y0  1  0.256376  0.256376  0.225896  1
  Y  Y1  1  0.743624  0.743624  0.774104  1
  Ho  Ho2  1  0.603731  0.603731  0.077414  1
  Ho  Ho3  1  0.396269  0.396269  0.922586  1
  Ho  Ho4  1  0.524516  0.524516  0.624153  1
  Ho  Ho5  1  0.475484  0.475484  0.375847  1
  Si  Si6  1  0.961650  0.961650  0.230269  1
  Si  Si7  1  0.038350  0.038350  0.769731  1
  Si  Si8  1  0.877744  0.877744  0.545031  1
  Si  Si9  1  0.122256  0.122256  0.454969  1
  Si  Si10  1  0.112022  0.112022  0.925375  1
  Si  Si11  1  0.887978  0.887978  0.074625  1
  Pd  Pd12  1  0.756247  0.756247  0.405849  1
  Pd  Pd13  1  0.243753  0.243753  0.594151  1
