# generated using pymatgen
data_Tb6Dy2Re3B24Ru
_symmetry_space_group_name_H-M   'P 1'
_cell_length_a   3.69353400
_cell_length_b   9.19067547
_cell_length_c   11.58006203
_cell_angle_alpha   90.11928470
_cell_angle_beta   90.00000000
_cell_angle_gamma   90.00000000
_symmetry_Int_Tables_number   1
_chemical_formula_structural   Tb6Dy2Re3B24Ru
_chemical_formula_sum   'Tb6 Dy2 Re3 B24 Ru1'
_cell_volume   393.09677163
_cell_formula_units_Z   1
loop_
 _symmetry_equiv_pos_site_id
 _symmetry_equiv_pos_as_xyz
  1  'x, y, z'
loop_
 _atom_site_type_symbol
 _atom_site_label
 _atom_site_symmetry_multiplicity
 _atom_site_fract_x
 _atom_site_fract_y
 _atom_site_fract_z
 _atom_site_occupancy
  Tb  Tb0  1  0.000000  0.322378  0.414107  1
  Tb  Tb1  1  0.000000  0.676823  0.587721  1
  Tb  Tb2  1  0.000000  0.824949  0.084215  1
  Tb  Tb3  1  0.000000  0.176648  0.913799  1
  Tb  Tb4  1  0.000000  0.941488  0.369262  1
  Tb  Tb5  1  0.000000  0.056537  0.629607  1
  Dy  Dy6  1  0.000000  0.443112  0.130670  1
  Dy  Dy7  1  0.000000  0.556941  0.870939  1
  Re  Re8  1  0.000000  0.362559  0.678422  1
  Re  Re9  1  0.000000  0.138856  0.179499  1
  Re  Re10  1  0.000000  0.861184  0.820940  1
  B  B11  1  0.500000  0.554001  0.432352  1
  B  B12  1  0.500000  0.446987  0.567127  1
  B  B13  1  0.500000  0.053517  0.066989  1
  B  B14  1  0.500000  0.946767  0.932637  1
  B  B15  1  0.500000  0.747638  0.418095  1
  B  B16  1  0.500000  0.251478  0.581474  1
  B  B17  1  0.500000  0.249247  0.081651  1
  B  B18  1  0.500000  0.751542  0.918488  1
  B  B19  1  0.500000  0.790089  0.265621  1
  B  B20  1  0.500000  0.208746  0.734100  1
  B  B21  1  0.500000  0.291652  0.234580  1
  B  B22  1  0.500000  0.708022  0.766165  1
  B  B23  1  0.500000  0.631341  0.186062  1
  B  B24  1  0.500000  0.369508  0.813833  1
  B  B25  1  0.500000  0.131295  0.314325  1
  B  B26  1  0.500000  0.868326  0.686130  1
  B  B27  1  0.500000  0.983373  0.211506  1
  B  B28  1  0.500000  0.016737  0.787898  1
  B  B29  1  0.500000  0.484090  0.288175  1
  B  B30  1  0.500000  0.517638  0.712169  1
  B  B31  1  0.500000  0.601901  0.028959  1
  B  B32  1  0.500000  0.398669  0.972188  1
  B  B33  1  0.500000  0.101255  0.471159  1
  B  B34  1  0.500000  0.896742  0.528338  1
  Ru  Ru35  1  0.000000  0.637964  0.320798  1
