# generated using pymatgen
data_Y4ReTc3F28
_symmetry_space_group_name_H-M   'P 1'
_cell_length_a   5.61571447
_cell_length_b   8.93962526
_cell_length_c   12.05477636
_cell_angle_alpha   62.55658168
_cell_angle_beta   90.05901757
_cell_angle_gamma   90.03184640
_symmetry_Int_Tables_number   1
_chemical_formula_structural   Y4ReTc3F28
_chemical_formula_sum   'Y4 Re1 Tc3 F28'
_cell_volume   537.07529358
_cell_formula_units_Z   1
loop_
 _symmetry_equiv_pos_site_id
 _symmetry_equiv_pos_as_xyz
  1  'x, y, z'
loop_
 _atom_site_type_symbol
 _atom_site_label
 _atom_site_symmetry_multiplicity
 _atom_site_fract_x
 _atom_site_fract_y
 _atom_site_fract_z
 _atom_site_occupancy
  Y  Y0  1  0.258110  0.813477  0.264830  1
  Y  Y1  1  0.741100  0.185898  0.735339  1
  Y  Y2  1  0.758928  0.186681  0.235399  1
  Y  Y3  1  0.240786  0.813530  0.764751  1
  Re  Re4  1  0.742188  0.726691  0.543211  1
  Tc  Tc5  1  0.757273  0.726455  0.043357  1
  Tc  Tc6  1  0.242572  0.273320  0.956660  1
  Tc  Tc7  1  0.258177  0.273705  0.456471  1
  F  F8  1  0.943575  0.706225  0.416424  1
  F  F9  1  0.053541  0.292613  0.580880  1
  F  F10  1  0.447608  0.292883  0.080735  1
  F  F11  1  0.551087  0.706910  0.919753  1
  F  F12  1  0.478803  0.730170  0.140423  1
  F  F13  1  0.522000  0.269728  0.860075  1
  F  F14  1  0.978523  0.271147  0.359627  1
  F  F15  1  0.027546  0.729138  0.638877  1
  F  F16  1  0.958714  0.745337  0.170434  1
  F  F17  1  0.042780  0.254109  0.828993  1
  F  F18  1  0.457388  0.255565  0.328305  1
  F  F19  1  0.546328  0.745990  0.673363  1
  F  F20  1  0.770351  0.479846  0.140972  1
  F  F21  1  0.229383  0.520021  0.858765  1
  F  F22  1  0.271591  0.520458  0.359155  1
  F  F23  1  0.729767  0.478007  0.641975  1
  F  F24  1  0.952485  0.279861  0.046675  1
  F  F25  1  0.046708  0.719682  0.952987  1
  F  F26  1  0.445542  0.721080  0.454926  1
  F  F27  1  0.548839  0.280069  0.546288  1
  F  F28  1  0.741815  0.974860  0.447232  1
  F  F29  1  0.258360  0.027806  0.552055  1
  F  F30  1  0.242952  0.027634  0.052792  1
  F  F31  1  0.757709  0.972230  0.947261  1
  F  F32  1  0.580188  0.970755  0.233337  1
  F  F33  1  0.418630  0.028828  0.767844  1
  F  F34  1  0.079910  0.028213  0.268501  1
  F  F35  1  0.918746  0.971080  0.731329  1
