# generated using pymatgen
data_TmPa3(AlOs)4
_symmetry_space_group_name_H-M   'P 1'
_cell_length_a   4.18824300
_cell_length_b   6.77471740
_cell_length_c   8.07365379
_cell_angle_alpha   89.95676037
_cell_angle_beta   90.00000000
_cell_angle_gamma   90.00000000
_symmetry_Int_Tables_number   1
_chemical_formula_structural   TmPa3(AlOs)4
_chemical_formula_sum   'Tm1 Pa3 Al4 Os4'
_cell_volume   229.08310102
_cell_formula_units_Z   1
loop_
 _symmetry_equiv_pos_site_id
 _symmetry_equiv_pos_as_xyz
  1  'x, y, z'
loop_
 _atom_site_type_symbol
 _atom_site_label
 _atom_site_symmetry_multiplicity
 _atom_site_fract_x
 _atom_site_fract_y
 _atom_site_fract_z
 _atom_site_occupancy
  Tm  Tm0  1  0.750000  0.036206  0.681769  1
  Pa  Pa1  1  0.250000  0.964414  0.319586  1
  Pa  Pa2  1  0.750000  0.538314  0.815491  1
  Pa  Pa3  1  0.250000  0.465293  0.186062  1
  Al  Al4  1  0.750000  0.634451  0.445175  1
  Al  Al5  1  0.750000  0.134254  0.052318  1
  Al  Al6  1  0.250000  0.355641  0.560759  1
  Al  Al7  1  0.250000  0.872538  0.937467  1
  Os  Os8  1  0.750000  0.751133  0.127819  1
  Os  Os9  1  0.750000  0.250861  0.365458  1
  Os  Os10  1  0.250000  0.260551  0.883667  1
  Os  Os11  1  0.250000  0.736344  0.624428  1
