# generated using pymatgen
data_LiTi5(TcAs)6
_symmetry_space_group_name_H-M   'P 1'
_cell_length_a   7.54393288
_cell_length_b   7.59798229
_cell_length_c   7.54393388
_cell_angle_alpha   126.88702379
_cell_angle_beta   124.75229104
_cell_angle_gamma   80.01866916
_symmetry_Int_Tables_number   1
_chemical_formula_structural   LiTi5(TcAs)6
_chemical_formula_sum   'Li1 Ti5 Tc6 As6'
_cell_volume   274.62049143
_cell_formula_units_Z   1
loop_
 _symmetry_equiv_pos_site_id
 _symmetry_equiv_pos_as_xyz
  1  'x, y, z'
loop_
 _atom_site_type_symbol
 _atom_site_label
 _atom_site_symmetry_multiplicity
 _atom_site_fract_x
 _atom_site_fract_y
 _atom_site_fract_z
 _atom_site_occupancy
  Li  Li0  1  0.464045  0.242373  0.278327  1
  Ti  Ti1  1  0.540518  0.824964  0.784446  1
  Ti  Ti2  1  0.751442  0.653524  0.402081  1
  Ti  Ti3  1  0.249947  0.654874  0.904927  1
  Ti  Ti4  1  0.054714  0.850475  0.295761  1
  Ti  Ti5  1  0.944140  0.242932  0.798791  1
  Tc  Tc6  1  0.659048  0.504716  0.911752  1
  Tc  Tc7  1  0.335689  0.248382  0.836275  1
  Tc  Tc8  1  0.912108  0.248382  0.412693  1
  Tc  Tc9  1  0.092964  0.504716  0.345669  1
  Tc  Tc10  1  0.991235  0.989528  0.985323  1
  Tc  Tc11  1  0.504204  0.989528  0.498292  1
  As  As12  1  0.830435  0.573929  0.742720  1
  As  As13  1  0.168437  0.917245  0.748578  1
  As  As14  1  0.668667  0.917245  0.248809  1
  As  As15  1  0.331209  0.573929  0.243494  1
  As  As16  1  0.277659  0.272262  0.494604  1
  As  As17  1  0.723537  0.231392  0.007856  1
