# generated using pymatgen
data_LaGd3(HgO4)2
_symmetry_space_group_name_H-M   'P 1'
_cell_length_a   7.23675945
_cell_length_b   7.23676003
_cell_length_c   10.21867737
_cell_angle_alpha   59.54904282
_cell_angle_beta   59.54903897
_cell_angle_gamma   30.18861022
_symmetry_Int_Tables_number   1
_chemical_formula_structural   LaGd3(HgO4)2
_chemical_formula_sum   'La1 Gd3 Hg2 O8'
_cell_volume   229.04963540
_cell_formula_units_Z   1
loop_
 _symmetry_equiv_pos_site_id
 _symmetry_equiv_pos_as_xyz
  1  'x, y, z'
loop_
 _atom_site_type_symbol
 _atom_site_label
 _atom_site_symmetry_multiplicity
 _atom_site_fract_x
 _atom_site_fract_y
 _atom_site_fract_z
 _atom_site_occupancy
  La  La0  1  0.621351  0.621351  0.540482  1
  Gd  Gd1  1  0.158721  0.158721  0.198610  1
  Gd  Gd2  1  0.839866  0.839866  0.798429  1
  Gd  Gd3  1  0.384236  0.384236  0.458407  1
  Hg  Hg4  1  0.884535  0.884535  0.162090  1
  Hg  Hg5  1  0.112627  0.112627  0.842558  1
  O  O6  1  0.234419  0.234419  0.381426  1
  O  O7  1  0.794426  0.794426  0.057454  1
  O  O8  1  0.029712  0.029712  0.729713  1
  O  O9  1  0.580834  0.580834  0.341660  1
  O  O10  1  0.415742  0.415742  0.655012  1
  O  O11  1  0.964390  0.964390  0.280511  1
  O  O12  1  0.204303  0.204303  0.943251  1
  O  O13  1  0.774837  0.774837  0.610398  1
