# generated using pymatgen
data_Tb3Mn8P6Ir
_symmetry_space_group_name_H-M   'P 1'
_cell_length_a   3.65364100
_cell_length_b   11.01919500
_cell_length_c   12.81645800
_cell_angle_alpha   90.00000000
_cell_angle_beta   90.00000000
_cell_angle_gamma   90.00000000
_symmetry_Int_Tables_number   1
_chemical_formula_structural   Tb3Mn8P6Ir
_chemical_formula_sum   'Tb6 Mn16 P12 Ir2'
_cell_volume   515.99293987
_cell_formula_units_Z   2
loop_
 _symmetry_equiv_pos_site_id
 _symmetry_equiv_pos_as_xyz
  1  'x, y, z'
loop_
 _atom_site_type_symbol
 _atom_site_label
 _atom_site_symmetry_multiplicity
 _atom_site_fract_x
 _atom_site_fract_y
 _atom_site_fract_z
 _atom_site_occupancy
  Tb  Tb0  1  0.000000  0.500000  0.528093  1
  Tb  Tb1  1  0.500000  0.000000  0.471907  1
  Tb  Tb2  1  0.500000  0.819053  0.204860  1
  Tb  Tb3  1  0.500000  0.180947  0.204860  1
  Tb  Tb4  1  0.000000  0.680947  0.795140  1
  Tb  Tb5  1  0.000000  0.319053  0.795140  1
  Mn  Mn6  1  0.500000  0.500000  0.166955  1
  Mn  Mn7  1  0.000000  0.000000  0.833045  1
  Mn  Mn8  1  0.000000  0.500000  0.995698  1
  Mn  Mn9  1  0.500000  0.000000  0.004302  1
  Mn  Mn10  1  0.500000  0.331387  0.998462  1
  Mn  Mn11  1  0.500000  0.668613  0.998462  1
  Mn  Mn12  1  0.000000  0.168613  0.001538  1
  Mn  Mn13  1  0.000000  0.831387  0.001538  1
  Mn  Mn14  1  0.500000  0.299665  0.432013  1
  Mn  Mn15  1  0.500000  0.700335  0.432013  1
  Mn  Mn16  1  0.000000  0.200335  0.567987  1
  Mn  Mn17  1  0.000000  0.799665  0.567987  1
  Mn  Mn18  1  0.500000  0.883488  0.703719  1
  Mn  Mn19  1  0.500000  0.116512  0.703719  1
  Mn  Mn20  1  0.000000  0.616512  0.296281  1
  Mn  Mn21  1  0.000000  0.383488  0.296281  1
  P  P22  1  0.500000  0.500000  0.889739  1
  P  P23  1  0.000000  0.000000  0.110261  1
  P  P24  1  0.500000  0.500000  0.358238  1
  P  P25  1  0.000000  0.000000  0.641762  1
  P  P26  1  0.500000  0.310441  0.615951  1
  P  P27  1  0.500000  0.689559  0.615951  1
  P  P28  1  0.000000  0.189559  0.384049  1
  P  P29  1  0.000000  0.810441  0.384049  1
  P  P30  1  0.500000  0.846177  0.885639  1
  P  P31  1  0.500000  0.153823  0.885639  1
  P  P32  1  0.000000  0.653823  0.114361  1
  P  P33  1  0.000000  0.346177  0.114361  1
  Ir  Ir34  1  0.500000  0.500000  0.706564  1
  Ir  Ir35  1  0.000000  0.000000  0.293436  1
