# generated using pymatgen
data_Tb12Yb2Y6TlCd5Ru2
_symmetry_space_group_name_H-M   'P 1'
_cell_length_a   9.68541600
_cell_length_b   9.68541574
_cell_length_c   9.85636100
_cell_angle_alpha   90.00000000
_cell_angle_beta   90.00000000
_cell_angle_gamma   120.00000089
_symmetry_Int_Tables_number   1
_chemical_formula_structural   Tb12Yb2Y6TlCd5Ru2
_chemical_formula_sum   'Tb12 Yb2 Y6 Tl1 Cd5 Ru2'
_cell_volume   800.72571420
_cell_formula_units_Z   1
loop_
 _symmetry_equiv_pos_site_id
 _symmetry_equiv_pos_as_xyz
  1  'x, y, z'
loop_
 _atom_site_type_symbol
 _atom_site_label
 _atom_site_symmetry_multiplicity
 _atom_site_fract_x
 _atom_site_fract_y
 _atom_site_fract_z
 _atom_site_occupancy
  Tb  Tb0  1  0.210545  0.789455  0.438816  1
  Tb  Tb1  1  0.210560  0.420494  0.438665  1
  Tb  Tb2  1  0.579506  0.789440  0.438665  1
  Tb  Tb3  1  0.789091  0.210909  0.561013  1
  Tb  Tb4  1  0.789140  0.578455  0.561171  1
  Tb  Tb5  1  0.421545  0.210860  0.561171  1
  Tb  Tb6  1  0.789091  0.210909  0.938987  1
  Tb  Tb7  1  0.789140  0.578455  0.938829  1
  Tb  Tb8  1  0.421545  0.210860  0.938829  1
  Tb  Tb9  1  0.210545  0.789455  0.061184  1
  Tb  Tb10  1  0.210560  0.420494  0.061335  1
  Tb  Tb11  1  0.579506  0.789440  0.061335  1
  Yb  Yb12  1  0.000724  0.999276  0.501296  1
  Yb  Yb13  1  0.000724  0.999276  0.998704  1
  Y  Y14  1  0.541188  0.458812  0.250000  1
  Y  Y15  1  0.539569  0.082898  0.250000  1
  Y  Y16  1  0.917102  0.460431  0.250000  1
  Y  Y17  1  0.458318  0.541682  0.750000  1
  Y  Y18  1  0.458646  0.916987  0.750000  1
  Y  Y19  1  0.083013  0.541354  0.750000  1
  Tl  Tl20  1  0.883564  0.116436  0.250000  1
  Cd  Cd21  1  0.884907  0.768046  0.250000  1
  Cd  Cd22  1  0.231954  0.115093  0.250000  1
  Cd  Cd23  1  0.115350  0.884650  0.750000  1
  Cd  Cd24  1  0.114909  0.230484  0.750000  1
  Cd  Cd25  1  0.769516  0.885091  0.750000  1
  Ru  Ru26  1  0.333292  0.666708  0.250000  1
  Ru  Ru27  1  0.666449  0.333551  0.750000  1
