# generated using pymatgen
data_Tb5Dy5(In2Ir)4
_symmetry_space_group_name_H-M   'P 1'
_cell_length_a   3.67100900
_cell_length_b   8.03997308
_cell_length_c   18.31992018
_cell_angle_alpha   90.01596520
_cell_angle_beta   90.00000000
_cell_angle_gamma   90.00000000
_symmetry_Int_Tables_number   1
_chemical_formula_structural   Tb5Dy5(In2Ir)4
_chemical_formula_sum   'Tb5 Dy5 In8 Ir4'
_cell_volume   540.70900693
_cell_formula_units_Z   1
loop_
 _symmetry_equiv_pos_site_id
 _symmetry_equiv_pos_as_xyz
  1  'x, y, z'
loop_
 _atom_site_type_symbol
 _atom_site_label
 _atom_site_symmetry_multiplicity
 _atom_site_fract_x
 _atom_site_fract_y
 _atom_site_fract_z
 _atom_site_occupancy
  Tb  Tb0  1  0.500000  0.383651  0.589272  1
  Tb  Tb1  1  0.500000  0.883768  0.910614  1
  Tb  Tb2  1  0.500000  0.116453  0.089351  1
  Tb  Tb3  1  0.500000  0.499942  0.000022  1
  Tb  Tb4  1  0.500000  0.999897  0.500072  1
  Dy  Dy5  1  0.500000  0.754705  0.721837  1
  Dy  Dy6  1  0.500000  0.254539  0.778027  1
  Dy  Dy7  1  0.500000  0.745412  0.221923  1
  Dy  Dy8  1  0.500000  0.245434  0.278130  1
  Dy  Dy9  1  0.500000  0.616212  0.410460  1
  In  In10  1  0.000000  0.793193  0.068181  1
  In  In11  1  0.000000  0.929580  0.350368  1
  In  In12  1  0.000000  0.070067  0.649671  1
  In  In13  1  0.000000  0.569700  0.850282  1
  In  In14  1  0.000000  0.706764  0.568008  1
  In  In15  1  0.000000  0.206912  0.931916  1
  In  In16  1  0.000000  0.293599  0.431848  1
  In  In17  1  0.000000  0.430070  0.149781  1
  Ir  Ir18  1  0.000000  0.980698  0.804012  1
  Ir  Ir19  1  0.000000  0.519572  0.304301  1
  Ir  Ir20  1  0.000000  0.480614  0.695961  1
  Ir  Ir21  1  0.000000  0.019221  0.195962  1
