# generated using pymatgen
data_Er3Hg(PtPb)2
_symmetry_space_group_name_H-M   'P 1'
_cell_length_a   7.87735300
_cell_length_b   7.87735225
_cell_length_c   3.59206000
_cell_angle_alpha   90.00000000
_cell_angle_beta   90.00000000
_cell_angle_gamma   121.08511912
_symmetry_Int_Tables_number   1
_chemical_formula_structural   Er3Hg(PtPb)2
_chemical_formula_sum   'Er3 Hg1 Pt2 Pb2'
_cell_volume   190.88923096
_cell_formula_units_Z   1
loop_
 _symmetry_equiv_pos_site_id
 _symmetry_equiv_pos_as_xyz
  1  'x, y, z'
loop_
 _atom_site_type_symbol
 _atom_site_label
 _atom_site_symmetry_multiplicity
 _atom_site_fract_x
 _atom_site_fract_y
 _atom_site_fract_z
 _atom_site_occupancy
  Er  Er0  1  0.585651  0.995919  0.500000  1
  Er  Er1  1  0.428666  0.428666  0.500000  1
  Er  Er2  1  0.995919  0.585652  0.500000  1
  Hg  Hg3  1  0.758077  0.758077  0.000000  1
  Pt  Pt4  1  0.664945  0.334009  0.000000  1
  Pt  Pt5  1  0.334010  0.664946  0.000000  1
  Pb  Pb6  1  0.235515  0.997216  0.000000  1
  Pb  Pb7  1  0.997216  0.235515  0.000000  1
