# generated using pymatgen
data_Tb4Dy4Tc3B24Ru
_symmetry_space_group_name_H-M   'P 1'
_cell_length_a   3.68666100
_cell_length_b   9.17091906
_cell_length_c   11.56460004
_cell_angle_alpha   89.91982873
_cell_angle_beta   90.00000000
_cell_angle_gamma   90.00000000
_symmetry_Int_Tables_number   1
_chemical_formula_structural   Tb4Dy4Tc3B24Ru
_chemical_formula_sum   'Tb4 Dy4 Tc3 B24 Ru1'
_cell_volume   390.99954990
_cell_formula_units_Z   1
loop_
 _symmetry_equiv_pos_site_id
 _symmetry_equiv_pos_as_xyz
  1  'x, y, z'
loop_
 _atom_site_type_symbol
 _atom_site_label
 _atom_site_symmetry_multiplicity
 _atom_site_fract_x
 _atom_site_fract_y
 _atom_site_fract_z
 _atom_site_occupancy
  Tb  Tb0  1  0.000000  0.323832  0.413906  1
  Tb  Tb1  1  0.000000  0.675052  0.584000  1
  Tb  Tb2  1  0.000000  0.823278  0.087240  1
  Tb  Tb3  1  0.000000  0.177696  0.914638  1
  Dy  Dy4  1  0.000000  0.942592  0.370075  1
  Dy  Dy5  1  0.000000  0.057669  0.630800  1
  Dy  Dy6  1  0.000000  0.443026  0.130208  1
  Dy  Dy7  1  0.000000  0.557925  0.869081  1
  Tc  Tc8  1  0.000000  0.638132  0.320594  1
  Tc  Tc9  1  0.000000  0.361838  0.679880  1
  Tc  Tc10  1  0.000000  0.137808  0.178392  1
  B  B11  1  0.500000  0.553187  0.432568  1
  B  B12  1  0.500000  0.446506  0.566988  1
  B  B13  1  0.500000  0.053252  0.067085  1
  B  B14  1  0.500000  0.945958  0.932604  1
  B  B15  1  0.500000  0.748222  0.418461  1
  B  B16  1  0.500000  0.251178  0.581631  1
  B  B17  1  0.500000  0.248844  0.081507  1
  B  B18  1  0.500000  0.751857  0.918189  1
  B  B19  1  0.500000  0.791429  0.265640  1
  B  B20  1  0.500000  0.208773  0.735067  1
  B  B21  1  0.500000  0.291341  0.234440  1
  B  B22  1  0.500000  0.709597  0.765418  1
  B  B23  1  0.500000  0.631145  0.185764  1
  B  B24  1  0.500000  0.369083  0.814679  1
  B  B25  1  0.500000  0.130544  0.313852  1
  B  B26  1  0.500000  0.868841  0.686032  1
  B  B27  1  0.500000  0.982327  0.211884  1
  B  B28  1  0.500000  0.016258  0.788408  1
  B  B29  1  0.500000  0.482706  0.287875  1
  B  B30  1  0.500000  0.517163  0.711609  1
  B  B31  1  0.500000  0.602381  0.028139  1
  B  B32  1  0.500000  0.399203  0.971512  1
  B  B33  1  0.500000  0.101688  0.472026  1
  B  B34  1  0.500000  0.897911  0.528827  1
  Ru  Ru35  1  0.000000  0.861762  0.820981  1
