# generated using pymatgen
data_Y14Th2Tl3CdIr4
_symmetry_space_group_name_H-M   'P 1'
_cell_length_a   9.69437560
_cell_length_b   9.70514959
_cell_length_c   9.71576700
_cell_angle_alpha   59.96380085
_cell_angle_beta   59.92697668
_cell_angle_gamma   60.15672416
_symmetry_Int_Tables_number   1
_chemical_formula_structural   Y14Th2Tl3CdIr4
_chemical_formula_sum   'Y14 Th2 Tl3 Cd1 Ir4'
_cell_volume   646.60045062
_cell_formula_units_Z   1
loop_
 _symmetry_equiv_pos_site_id
 _symmetry_equiv_pos_as_xyz
  1  'x, y, z'
loop_
 _atom_site_type_symbol
 _atom_site_label
 _atom_site_symmetry_multiplicity
 _atom_site_fract_x
 _atom_site_fract_y
 _atom_site_fract_z
 _atom_site_occupancy
  Y  Y0  1  0.353484  0.944350  0.351084  1
  Y  Y1  1  0.943863  0.354228  0.350955  1
  Y  Y2  1  0.810776  0.190474  0.189684  1
  Y  Y3  1  0.189389  0.811777  0.809794  1
  Y  Y4  1  0.189389  0.811777  0.189041  1
  Y  Y5  1  0.810776  0.190474  0.809065  1
  Y  Y6  1  0.187026  0.187053  0.812961  1
  Y  Y7  1  0.809988  0.810245  0.189883  1
  Y  Y8  1  0.941158  0.564222  0.561555  1
  Y  Y9  1  0.563441  0.938969  0.937158  1
  Y  Y10  1  0.563441  0.938969  0.560434  1
  Y  Y11  1  0.941158  0.564222  0.933066  1
  Y  Y12  1  0.562615  0.561517  0.937935  1
  Y  Y13  1  0.944486  0.940983  0.557266  1
  Th  Th14  1  0.345032  0.346380  0.349704  1
  Th  Th15  1  0.345032  0.346380  0.958883  1
  Tl  Tl16  1  0.584309  0.587412  0.585885  1
  Tl  Tl17  1  0.584309  0.587412  0.242396  1
  Tl  Tl18  1  0.583277  0.242621  0.587051  1
  Cd  Cd19  1  0.249299  0.582339  0.584182  1
  Ir  Ir20  1  0.140699  0.140608  0.146112  1
  Ir  Ir21  1  0.140699  0.140608  0.572580  1
  Ir  Ir22  1  0.145149  0.571830  0.141511  1
  Ir  Ir23  1  0.571207  0.145153  0.141821  1
