# generated using pymatgen
data_Sm3Th(Br3N)2
_symmetry_space_group_name_H-M   'P 1'
_cell_length_a   9.63538900
_cell_length_b   9.63538921
_cell_length_c   11.88424748
_cell_angle_alpha   124.41937405
_cell_angle_beta   124.41937573
_cell_angle_gamma   24.01706164
_symmetry_Int_Tables_number   1
_chemical_formula_structural   Sm3Th(Br3N)2
_chemical_formula_sum   'Sm3 Th1 Br6 N2'
_cell_volume   366.49174895
_cell_formula_units_Z   1
loop_
 _symmetry_equiv_pos_site_id
 _symmetry_equiv_pos_as_xyz
  1  'x, y, z'
loop_
 _atom_site_type_symbol
 _atom_site_label
 _atom_site_symmetry_multiplicity
 _atom_site_fract_x
 _atom_site_fract_y
 _atom_site_fract_z
 _atom_site_occupancy
  Sm  Sm0  1  0.136166  0.136166  0.283901  1
  Sm  Sm1  1  0.865566  0.865566  0.715139  1
  Sm  Sm2  1  0.575784  0.575784  0.959428  1
  Th  Th3  1  0.428233  0.428233  0.038251  1
  Br  Br4  1  0.216349  0.216349  0.123636  1
  Br  Br5  1  0.966957  0.966957  0.264352  1
  Br  Br6  1  0.331063  0.331063  0.492435  1
  Br  Br7  1  0.670353  0.670353  0.506798  1
  Br  Br8  1  0.034358  0.034358  0.744931  1
  Br  Br9  1  0.777227  0.777227  0.870248  1
  N  N10  1  0.572188  0.572188  0.151808  1
  N  N11  1  0.425752  0.425752  0.849071  1
