# generated using pymatgen
data_Y2GaAuO7
_symmetry_space_group_name_H-M   'P 1'
_cell_length_a   7.27477143
_cell_length_b   7.30947957
_cell_length_c   7.27475406
_cell_angle_alpha   59.84118133
_cell_angle_beta   59.63875834
_cell_angle_gamma   59.84124634
_symmetry_Int_Tables_number   1
_chemical_formula_structural   Y2GaAuO7
_chemical_formula_sum   'Y4 Ga2 Au2 O14'
_cell_volume   272.12509972
_cell_formula_units_Z   2
loop_
 _symmetry_equiv_pos_site_id
 _symmetry_equiv_pos_as_xyz
  1  'x, y, z'
loop_
 _atom_site_type_symbol
 _atom_site_label
 _atom_site_symmetry_multiplicity
 _atom_site_fract_x
 _atom_site_fract_y
 _atom_site_fract_z
 _atom_site_occupancy
  Y  Y0  1  0.500001  0.000000  0.500001  1
  Y  Y1  1  0.000001  0.500001  0.500000  1
  Y  Y2  1  0.500001  0.500001  0.000001  1
  Y  Y3  1  0.500001  0.500000  0.500000  1
  Ga  Ga4  1  0.000002  0.499999  0.999999  1
  Ga  Ga5  1  0.999996  0.000000  0.000005  1
  Au  Au6  1  0.500001  0.000012  0.999990  1
  Au  Au7  1  0.999989  0.999999  0.500003  1
  O  O8  1  0.622042  0.627955  0.622044  1
  O  O9  1  0.377961  0.372045  0.377958  1
  O  O10  1  0.338366  0.913140  0.909061  1
  O  O11  1  0.090930  0.660565  0.661631  1
  O  O12  1  0.916022  0.333978  0.916026  1
  O  O13  1  0.909067  0.913148  0.338357  1
  O  O14  1  0.338372  0.339434  0.909062  1
  O  O15  1  0.339963  0.910055  0.339964  1
  O  O16  1  0.909065  0.339435  0.338368  1
  O  O17  1  0.661631  0.660559  0.090938  1
  O  O18  1  0.090936  0.086855  0.661638  1
  O  O19  1  0.661637  0.086858  0.090939  1
  O  O20  1  0.660041  0.089942  0.660039  1
  O  O21  1  0.083976  0.666024  0.083978  1
