# generated using pymatgen
data_YI31
_symmetry_space_group_name_H-M   'P 1'
_cell_length_a   9.16918000
_cell_length_b   10.38510117
_cell_length_c   20.67628600
_cell_angle_alpha   85.30545102
_cell_angle_beta   90.00000000
_cell_angle_gamma   90.00000000
_symmetry_Int_Tables_number   1
_chemical_formula_structural   YI31
_chemical_formula_sum   'Y1 I31'
_cell_volume   1962.24996806
_cell_formula_units_Z   1
loop_
 _symmetry_equiv_pos_site_id
 _symmetry_equiv_pos_as_xyz
  1  'x, y, z'
loop_
 _atom_site_type_symbol
 _atom_site_label
 _atom_site_symmetry_multiplicity
 _atom_site_fract_x
 _atom_site_fract_y
 _atom_site_fract_z
 _atom_site_occupancy
  Y  Y0  1  0.750000  0.896263  0.168651  1
  I  I1  1  0.750000  0.425314  0.358796  1
  I  I2  1  0.250000  0.650364  0.661503  1
  I  I3  1  0.250000  0.113207  0.844300  1
  I  I4  1  0.250000  0.320712  0.161625  1
  I  I5  1  0.750000  0.966951  0.747321  1
  I  I6  1  0.750000  0.893662  0.307606  1
  I  I7  1  0.486179  0.771520  0.127218  1
  I  I8  1  0.250000  0.550892  0.312250  1
  I  I9  1  0.504334  0.789756  0.597726  1
  I  I10  1  0.250000  0.678406  0.808190  1
  I  I11  1  0.250000  0.067846  0.408218  1
  I  I12  1  0.750000  0.503490  0.494606  1
  I  I13  1  0.503457  0.254607  0.893289  1
  I  I14  1  0.250000  0.711769  0.943651  1
  I  I15  1  0.750000  0.356965  0.225169  1
  I  I16  1  0.496487  0.240803  0.385601  1
  I  I17  1  0.750000  0.223141  0.670860  1
  I  I18  1  0.250000  0.805322  0.337148  1
  I  I19  1  0.003513  0.240803  0.385601  1
  I  I20  1  0.750000  0.916233  0.533187  1
  I  I21  1  0.013821  0.771520  0.127218  1
  I  I22  1  0.250000  0.059171  0.142434  1
  I  I23  1  0.750000  0.146612  0.096795  1
  I  I24  1  0.750000  0.701650  0.806328  1
  I  I25  1  0.750000  0.463984  0.731192  1
  I  I26  1  0.250000  0.485227  0.040170  1
  I  I27  1  0.995666  0.789756  0.597726  1
  I  I28  1  0.750000  0.397373  0.937663  1
  I  I29  1  0.250000  0.322916  0.563209  1
  I  I30  1  0.250000  0.229149  0.691456  1
  I  I31  1  0.996543  0.254607  0.893289  1
