# generated using pymatgen
data_Pr15Nd5Si15Sn
_symmetry_space_group_name_H-M   'P 1'
_cell_length_a   7.92978293
_cell_length_b   7.95050093
_cell_length_c   15.42226165
_cell_angle_alpha   89.94733037
_cell_angle_beta   90.09202553
_cell_angle_gamma   90.05784032
_symmetry_Int_Tables_number   1
_chemical_formula_structural   Pr15Nd5Si15Sn
_chemical_formula_sum   'Pr15 Nd5 Si15 Sn1'
_cell_volume   972.30584012
_cell_formula_units_Z   1
loop_
 _symmetry_equiv_pos_site_id
 _symmetry_equiv_pos_as_xyz
  1  'x, y, z'
loop_
 _atom_site_type_symbol
 _atom_site_label
 _atom_site_symmetry_multiplicity
 _atom_site_fract_x
 _atom_site_fract_y
 _atom_site_fract_z
 _atom_site_occupancy
  Pr  Pr0  1  0.480154  0.372417  0.125721  1
  Pr  Pr1  1  0.969032  0.136469  0.628495  1
  Pr  Pr2  1  0.872943  0.020376  0.877235  1
  Pr  Pr3  1  0.125662  0.981209  0.372630  1
  Pr  Pr4  1  0.523555  0.619912  0.628166  1
  Pr  Pr5  1  0.373528  0.479865  0.874925  1
  Pr  Pr6  1  0.630008  0.516919  0.370560  1
  Pr  Pr7  1  0.019463  0.873801  0.122623  1
  Pr  Pr8  1  0.627412  0.990224  0.443035  1
  Pr  Pr9  1  0.380176  0.011483  0.948735  1
  Pr  Pr10  1  0.986528  0.616692  0.553568  1
  Pr  Pr11  1  0.488669  0.879388  0.196599  1
  Pr  Pr12  1  0.517740  0.128549  0.704758  1
  Pr  Pr13  1  0.880414  0.487928  0.804593  1
  Pr  Pr14  1  0.119107  0.509188  0.300341  1
  Nd  Nd15  1  0.009612  0.379816  0.053169  1
  Nd  Nd16  1  0.308212  0.318924  0.498215  1
  Nd  Nd17  1  0.189631  0.807028  0.757260  1
  Nd  Nd18  1  0.809955  0.189218  0.248349  1
  Nd  Nd19  1  0.691284  0.690672  0.000162  1
  Si  Si20  1  0.712349  0.079116  0.060115  1
  Si  Si21  1  0.921828  0.285994  0.439274  1
  Si  Si22  1  0.420366  0.211219  0.309294  1
  Si  Si23  1  0.578433  0.787154  0.810606  1
  Si  Si24  1  0.212188  0.421162  0.690444  1
  Si  Si25  1  0.787225  0.578818  0.187845  1
  Si  Si26  1  0.077562  0.710715  0.942034  1
  Si  Si27  1  0.806118  0.829108  0.705004  1
  Si  Si28  1  0.194561  0.169375  0.201551  1
  Si  Si29  1  0.830606  0.805109  0.294158  1
  Si  Si30  1  0.333286  0.687784  0.445032  1
  Si  Si31  1  0.669248  0.304913  0.953791  1
  Si  Si32  1  0.692048  0.330122  0.543084  1
  Si  Si33  1  0.304404  0.667487  0.047264  1
  Si  Si34  1  0.170181  0.194410  0.797317  1
  Sn  Sn35  1  0.286510  0.927435  0.564048  1
