# generated using pymatgen
data_Tm2ScCo(BIr2)2
_symmetry_space_group_name_H-M   'P 1'
_cell_length_a   3.13126900
_cell_length_b   9.61948900
_cell_length_c   9.61948900
_cell_angle_alpha   90.00000000
_cell_angle_beta   90.00000000
_cell_angle_gamma   90.00000000
_symmetry_Int_Tables_number   1
_chemical_formula_structural   Tm2ScCo(BIr2)2
_chemical_formula_sum   'Tm4 Sc2 Co2 B4 Ir8'
_cell_volume   289.75062615
_cell_formula_units_Z   2
loop_
 _symmetry_equiv_pos_site_id
 _symmetry_equiv_pos_as_xyz
  1  'x, y, z'
loop_
 _atom_site_type_symbol
 _atom_site_label
 _atom_site_symmetry_multiplicity
 _atom_site_fract_x
 _atom_site_fract_y
 _atom_site_fract_z
 _atom_site_occupancy
  Tm  Tm0  1  0.000000  0.176752  0.676752  1
  Tm  Tm1  1  0.000000  0.823248  0.323248  1
  Tm  Tm2  1  0.000000  0.323248  0.176752  1
  Tm  Tm3  1  0.000000  0.676752  0.823248  1
  Sc  Sc4  1  0.000000  0.000000  0.000000  1
  Sc  Sc5  1  0.000000  0.500000  0.500000  1
  Co  Co6  1  0.500000  0.000000  0.500000  1
  Co  Co7  1  0.500000  0.500000  0.000000  1
  B  B8  1  0.000000  0.610040  0.110040  1
  B  B9  1  0.000000  0.389960  0.889960  1
  B  B10  1  0.000000  0.889960  0.610040  1
  B  B11  1  0.000000  0.110040  0.389960  1
  Ir  Ir12  1  0.500000  0.064315  0.230356  1
  Ir  Ir13  1  0.500000  0.935685  0.769644  1
  Ir  Ir14  1  0.500000  0.769644  0.064315  1
  Ir  Ir15  1  0.500000  0.435685  0.730356  1
  Ir  Ir16  1  0.500000  0.230356  0.935685  1
  Ir  Ir17  1  0.500000  0.564315  0.269644  1
  Ir  Ir18  1  0.500000  0.730356  0.564315  1
  Ir  Ir19  1  0.500000  0.269644  0.435685  1
