# generated using pymatgen
data_Y6Ho4Er6CdAg3Pt4
_symmetry_space_group_name_H-M   'P 1'
_cell_length_a   9.66103188
_cell_length_b   9.66103160
_cell_length_c   9.66103100
_cell_angle_alpha   59.99999862
_cell_angle_beta   59.99999959
_cell_angle_gamma   59.99999678
_symmetry_Int_Tables_number   1
_chemical_formula_structural   Y6Ho4Er6CdAg3Pt4
_chemical_formula_sum   'Y6 Ho4 Er6 Cd1 Ag3 Pt4'
_cell_volume   637.61052751
_cell_formula_units_Z   1
loop_
 _symmetry_equiv_pos_site_id
 _symmetry_equiv_pos_as_xyz
  1  'x, y, z'
loop_
 _atom_site_type_symbol
 _atom_site_label
 _atom_site_symmetry_multiplicity
 _atom_site_fract_x
 _atom_site_fract_y
 _atom_site_fract_z
 _atom_site_occupancy
  Y  Y0  1  0.933908  0.564318  0.564318  1
  Y  Y1  1  0.564365  0.935643  0.935643  1
  Y  Y2  1  0.564365  0.935643  0.564350  1
  Y  Y3  1  0.933908  0.564318  0.937456  1
  Y  Y4  1  0.564365  0.564350  0.935643  1
  Y  Y5  1  0.933908  0.937456  0.564318  1
  Ho  Ho6  1  0.353064  0.352820  0.352820  1
  Ho  Ho7  1  0.353064  0.352820  0.941295  1
  Ho  Ho8  1  0.353064  0.941295  0.352820  1
  Ho  Ho9  1  0.940188  0.353270  0.353270  1
  Er  Er10  1  0.811397  0.188751  0.188751  1
  Er  Er11  1  0.188600  0.811307  0.811307  1
  Er  Er12  1  0.188600  0.811307  0.188785  1
  Er  Er13  1  0.811397  0.188751  0.811101  1
  Er  Er14  1  0.188600  0.188785  0.811307  1
  Er  Er15  1  0.811397  0.811101  0.188751  1
  Cd  Cd16  1  0.258658  0.580448  0.580448  1
  Ag  Ag17  1  0.582561  0.582276  0.582276  1
  Ag  Ag18  1  0.582561  0.582276  0.252888  1
  Ag  Ag19  1  0.582561  0.252888  0.582276  1
  Pt  Pt20  1  0.142950  0.143365  0.143365  1
  Pt  Pt21  1  0.142950  0.143365  0.570321  1
  Pt  Pt22  1  0.142950  0.570321  0.143365  1
  Pt  Pt23  1  0.570619  0.143127  0.143127  1
