# generated using pymatgen
data_YbLu7Re(B8Os)3
_symmetry_space_group_name_H-M   'P 1'
_cell_length_a   3.60352300
_cell_length_b   9.05244085
_cell_length_c   11.42389692
_cell_angle_alpha   89.99564273
_cell_angle_beta   90.00000000
_cell_angle_gamma   90.00000000
_symmetry_Int_Tables_number   1
_chemical_formula_structural   YbLu7Re(B8Os)3
_chemical_formula_sum   'Yb1 Lu7 Re1 B24 Os3'
_cell_volume   372.65527101
_cell_formula_units_Z   1
loop_
 _symmetry_equiv_pos_site_id
 _symmetry_equiv_pos_as_xyz
  1  'x, y, z'
loop_
 _atom_site_type_symbol
 _atom_site_label
 _atom_site_symmetry_multiplicity
 _atom_site_fract_x
 _atom_site_fract_y
 _atom_site_fract_z
 _atom_site_occupancy
  Yb  Yb0  1  0.000000  0.322725  0.413949  1
  Lu  Lu1  1  0.000000  0.678719  0.587807  1
  Lu  Lu2  1  0.000000  0.822463  0.084226  1
  Lu  Lu3  1  0.000000  0.177263  0.913260  1
  Lu  Lu4  1  0.000000  0.943102  0.370278  1
  Lu  Lu5  1  0.000000  0.057269  0.628756  1
  Lu  Lu6  1  0.000000  0.442248  0.129619  1
  Lu  Lu7  1  0.000000  0.556595  0.872182  1
  Re  Re8  1  0.000000  0.862404  0.821159  1
  B  B9  1  0.500000  0.554192  0.433407  1
  B  B10  1  0.500000  0.446685  0.567194  1
  B  B11  1  0.500000  0.052752  0.065972  1
  B  B12  1  0.500000  0.947110  0.933791  1
  B  B13  1  0.500000  0.749942  0.419342  1
  B  B14  1  0.500000  0.250734  0.581615  1
  B  B15  1  0.500000  0.248603  0.080257  1
  B  B16  1  0.500000  0.749810  0.919946  1
  B  B17  1  0.500000  0.792451  0.264517  1
  B  B18  1  0.500000  0.208574  0.735322  1
  B  B19  1  0.500000  0.290929  0.234342  1
  B  B20  1  0.500000  0.707357  0.765058  1
  B  B21  1  0.500000  0.630781  0.184920  1
  B  B22  1  0.500000  0.369439  0.815823  1
  B  B23  1  0.500000  0.130029  0.314469  1
  B  B24  1  0.500000  0.869391  0.684096  1
  B  B25  1  0.500000  0.981506  0.211614  1
  B  B26  1  0.500000  0.019504  0.787416  1
  B  B27  1  0.500000  0.482607  0.287954  1
  B  B28  1  0.500000  0.518266  0.712928  1
  B  B29  1  0.500000  0.601925  0.029023  1
  B  B30  1  0.500000  0.396816  0.971991  1
  B  B31  1  0.500000  0.099091  0.472164  1
  B  B32  1  0.500000  0.899276  0.527341  1
  Os  Os33  1  0.000000  0.640114  0.319948  1
  Os  Os34  1  0.000000  0.362318  0.680031  1
  Os  Os35  1  0.000000  0.137014  0.178278  1
