# generated using pymatgen
data_Lu20CdNi2Hg5
_symmetry_space_group_name_H-M   'P 1'
_cell_length_a   9.45247811
_cell_length_b   9.44152878
_cell_length_c   9.28087700
_cell_angle_alpha   90.00000000
_cell_angle_beta   90.00000000
_cell_angle_gamma   119.96168886
_symmetry_Int_Tables_number   1
_chemical_formula_structural   Lu20CdNi2Hg5
_chemical_formula_sum   'Lu20 Cd1 Ni2 Hg5'
_cell_volume   717.58802018
_cell_formula_units_Z   1
loop_
 _symmetry_equiv_pos_site_id
 _symmetry_equiv_pos_as_xyz
  1  'x, y, z'
loop_
 _atom_site_type_symbol
 _atom_site_label
 _atom_site_symmetry_multiplicity
 _atom_site_fract_x
 _atom_site_fract_y
 _atom_site_fract_z
 _atom_site_occupancy
  Lu  Lu0  1  0.001946  0.000973  0.497568  1
  Lu  Lu1  1  0.001946  0.000973  0.002432  1
  Lu  Lu2  1  0.542610  0.457223  0.250000  1
  Lu  Lu3  1  0.542610  0.085385  0.250000  1
  Lu  Lu4  1  0.914448  0.457223  0.250000  1
  Lu  Lu5  1  0.455256  0.540731  0.750000  1
  Lu  Lu6  1  0.455256  0.914525  0.750000  1
  Lu  Lu7  1  0.085473  0.542737  0.750000  1
  Lu  Lu8  1  0.210133  0.789726  0.437220  1
  Lu  Lu9  1  0.210133  0.420407  0.437220  1
  Lu  Lu10  1  0.579411  0.789706  0.437436  1
  Lu  Lu11  1  0.789443  0.209977  0.562542  1
  Lu  Lu12  1  0.789443  0.579465  0.562542  1
  Lu  Lu13  1  0.420437  0.210218  0.562703  1
  Lu  Lu14  1  0.789443  0.209977  0.937458  1
  Lu  Lu15  1  0.789443  0.579465  0.937458  1
  Lu  Lu16  1  0.420437  0.210218  0.937297  1
  Lu  Lu17  1  0.210133  0.789726  0.062780  1
  Lu  Lu18  1  0.210133  0.420407  0.062780  1
  Lu  Lu19  1  0.579411  0.789706  0.062564  1
  Cd  Cd20  1  0.766072  0.883036  0.750000  1
  Ni  Ni21  1  0.333500  0.666751  0.250000  1
  Ni  Ni22  1  0.666536  0.333267  0.750000  1
  Hg  Hg23  1  0.879920  0.120398  0.250000  1
  Hg  Hg24  1  0.879920  0.759522  0.250000  1
  Hg  Hg25  1  0.240584  0.120292  0.250000  1
  Hg  Hg26  1  0.117962  0.879943  0.750000  1
  Hg  Hg27  1  0.117962  0.238019  0.750000  1
