# generated using pymatgen
data_NdZn9Cu2
_symmetry_space_group_name_H-M   'P 1'
_cell_length_a   8.20789068
_cell_length_b   8.20790781
_cell_length_c   8.20782302
_cell_angle_alpha   99.67461073
_cell_angle_beta   99.67385439
_cell_angle_gamma   131.59910098
_symmetry_Int_Tables_number   1
_chemical_formula_structural   NdZn9Cu2
_chemical_formula_sum   'Nd2 Zn18 Cu4'
_cell_volume   377.16483628
_cell_formula_units_Z   2
loop_
 _symmetry_equiv_pos_site_id
 _symmetry_equiv_pos_as_xyz
  1  'x, y, z'
loop_
 _atom_site_type_symbol
 _atom_site_label
 _atom_site_symmetry_multiplicity
 _atom_site_fract_x
 _atom_site_fract_y
 _atom_site_fract_z
 _atom_site_occupancy
  Nd  Nd0  1  0.249998  0.749999  0.500000  1
  Nd  Nd1  1  0.000002  0.000001  0.000000  1
  Zn  Zn2  1  0.428851  0.103803  0.917676  1
  Zn  Zn3  1  0.186125  0.511172  0.082323  1
  Zn  Zn4  1  0.500001  0.500001  0.000000  1
  Zn  Zn5  1  0.749999  0.249999  0.500000  1
  Zn  Zn6  1  0.186127  0.103804  0.674954  1
  Zn  Zn7  1  0.761181  0.936135  0.582332  1
  Zn  Zn8  1  0.353803  0.178849  0.417669  1
  Zn  Zn9  1  0.428849  0.511172  0.325047  1
  Zn  Zn10  1  0.896197  0.813865  0.325045  1
  Zn  Zn11  1  0.488820  0.571151  0.674955  1
  Zn  Zn12  1  0.063875  0.238828  0.417677  1
  Zn  Zn13  1  0.821149  0.646197  0.582324  1
  Zn  Zn14  1  0.063873  0.646196  0.825046  1
  Zn  Zn15  1  0.488819  0.813865  0.917668  1
  Zn  Zn16  1  0.896197  0.571151  0.082331  1
  Zn  Zn17  1  0.821151  0.238828  0.174953  1
  Zn  Zn18  1  0.353803  0.936135  0.174955  1
  Zn  Zn19  1  0.761180  0.178849  0.825045  1
  Cu  Cu20  1  0.625000  0.375000  0.750000  1
  Cu  Cu21  1  0.125000  0.375000  0.750000  1
  Cu  Cu22  1  0.625000  0.375000  0.250000  1
  Cu  Cu23  1  0.625000  0.875000  0.250000  1
