# generated using pymatgen
data_Tb2Pr3HoCoBr10
_symmetry_space_group_name_H-M   'P 1'
_cell_length_a   7.48778715
_cell_length_b   9.45380050
_cell_length_c   9.37482740
_cell_angle_alpha   108.09450252
_cell_angle_beta   95.44189335
_cell_angle_gamma   106.21086009
_symmetry_Int_Tables_number   1
_chemical_formula_structural   Tb2Pr3HoCoBr10
_chemical_formula_sum   'Tb2 Pr3 Ho1 Co1 Br10'
_cell_volume   593.62399037
_cell_formula_units_Z   1
loop_
 _symmetry_equiv_pos_site_id
 _symmetry_equiv_pos_as_xyz
  1  'x, y, z'
loop_
 _atom_site_type_symbol
 _atom_site_label
 _atom_site_symmetry_multiplicity
 _atom_site_fract_x
 _atom_site_fract_y
 _atom_site_fract_z
 _atom_site_occupancy
  Tb  Tb0  1  0.354534  0.129863  0.672970  1
  Tb  Tb1  1  0.645718  0.865782  0.326327  1
  Pr  Pr2  1  0.972822  0.301348  0.597075  1
  Pr  Pr3  1  0.874010  0.953354  0.738663  1
  Pr  Pr4  1  0.124042  0.045355  0.260259  1
  Ho  Ho5  1  0.027200  0.708702  0.405700  1
  Co  Co6  1  0.999072  0.999617  0.499525  1
  Br  Br7  1  0.443708  0.822915  0.578586  1
  Br  Br8  1  0.548848  0.172050  0.416635  1
  Br  Br9  1  0.916539  0.632539  0.665166  1
  Br  Br10  1  0.086359  0.376448  0.325016  1
  Br  Br11  1  0.257604  0.085669  0.949877  1
  Br  Br12  1  0.740604  0.913440  0.050315  1
  Br  Br13  1  0.363287  0.445245  0.771383  1
  Br  Br14  1  0.654992  0.554642  0.234059  1
  Br  Br15  1  0.768817  0.252605  0.847652  1
  Br  Br16  1  0.221844  0.740429  0.160792  1
