# generated using pymatgen
data_Ac2Zn21Rh
_symmetry_space_group_name_H-M   'P 1'
_cell_length_a   8.40477275
_cell_length_b   8.41092681
_cell_length_c   8.40477293
_cell_angle_alpha   100.25521140
_cell_angle_beta   99.53172974
_cell_angle_gamma   130.97752054
_symmetry_Int_Tables_number   1
_chemical_formula_structural   Ac2Zn21Rh
_chemical_formula_sum   'Ac2 Zn21 Rh1'
_cell_volume   408.27749280
_cell_formula_units_Z   1
loop_
 _symmetry_equiv_pos_site_id
 _symmetry_equiv_pos_as_xyz
  1  'x, y, z'
loop_
 _atom_site_type_symbol
 _atom_site_label
 _atom_site_symmetry_multiplicity
 _atom_site_fract_x
 _atom_site_fract_y
 _atom_site_fract_z
 _atom_site_occupancy
  Ac  Ac0  1  0.999287  0.994735  0.995448  1
  Ac  Ac1  1  0.250713  0.755265  0.504552  1
  Zn  Zn2  1  0.065630  0.648725  0.827746  1
  Zn  Zn3  1  0.818964  0.231357  0.168401  1
  Zn  Zn4  1  0.740955  0.230006  0.489051  1
  Zn  Zn5  1  0.509045  0.519994  0.010949  1
  Zn  Zn6  1  0.625000  0.375000  0.750000  1
  Zn  Zn7  1  0.625000  0.375000  0.250000  1
  Zn  Zn8  1  0.125000  0.375000  0.750000  1
  Zn  Zn9  1  0.820979  0.648725  0.583095  1
  Zn  Zn10  1  0.896613  0.817092  0.327984  1
  Zn  Zn11  1  0.483541  0.568665  0.668446  1
  Zn  Zn12  1  0.062955  0.231357  0.412393  1
  Zn  Zn13  1  0.760892  0.932908  0.579521  1
  Zn  Zn14  1  0.349780  0.181335  0.414877  1
  Zn  Zn15  1  0.431036  0.518643  0.331599  1
  Zn  Zn16  1  0.184370  0.101275  0.672254  1
  Zn  Zn17  1  0.429021  0.101275  0.916905  1
  Zn  Zn18  1  0.353387  0.932908  0.172016  1
  Zn  Zn19  1  0.766459  0.181335  0.831554  1
  Zn  Zn20  1  0.187045  0.518643  0.087607  1
  Zn  Zn21  1  0.489108  0.817092  0.920479  1
  Zn  Zn22  1  0.900220  0.568665  0.085123  1
  Rh  Rh23  1  0.625000  0.875000  0.250000  1
