# generated using pymatgen
data_Nd2Y4Ga5SiRh12
_symmetry_space_group_name_H-M   'P 1'
_cell_length_a   5.61366300
_cell_length_b   5.61366209
_cell_length_c   15.60260400
_cell_angle_alpha   90.00000000
_cell_angle_beta   90.00000000
_cell_angle_gamma   119.99999949
_symmetry_Int_Tables_number   1
_chemical_formula_structural   Nd2Y4Ga5SiRh12
_chemical_formula_sum   'Nd2 Y4 Ga5 Si1 Rh12'
_cell_volume   425.81438052
_cell_formula_units_Z   1
loop_
 _symmetry_equiv_pos_site_id
 _symmetry_equiv_pos_as_xyz
  1  'x, y, z'
loop_
 _atom_site_type_symbol
 _atom_site_label
 _atom_site_symmetry_multiplicity
 _atom_site_fract_x
 _atom_site_fract_y
 _atom_site_fract_z
 _atom_site_occupancy
  Nd  Nd0  1  0.666667  0.333333  0.750000  1
  Nd  Nd1  1  0.333333  0.666667  0.250000  1
  Y  Y2  1  0.666667  0.333333  0.959735  1
  Y  Y3  1  0.666667  0.333333  0.540265  1
  Y  Y4  1  0.333333  0.666667  0.037878  1
  Y  Y5  1  0.333333  0.666667  0.462122  1
  Ga  Ga6  1  0.666667  0.333333  0.250000  1
  Ga  Ga7  1  0.000000  0.000000  0.502603  1
  Ga  Ga8  1  0.000000  0.000000  0.250000  1
  Ga  Ga9  1  0.000000  0.000000  0.750000  1
  Ga  Ga10  1  0.000000  0.000000  0.997397  1
  Si  Si11  1  0.333333  0.666667  0.750000  1
  Rh  Rh12  1  0.169862  0.339725  0.869742  1
  Rh  Rh13  1  0.169862  0.339725  0.630258  1
  Rh  Rh14  1  0.660275  0.830138  0.869742  1
  Rh  Rh15  1  0.337396  0.168698  0.375705  1
  Rh  Rh16  1  0.831302  0.662604  0.375705  1
  Rh  Rh17  1  0.831302  0.168698  0.375705  1
  Rh  Rh18  1  0.831302  0.168698  0.124295  1
  Rh  Rh19  1  0.337396  0.168698  0.124295  1
  Rh  Rh20  1  0.660275  0.830138  0.630258  1
  Rh  Rh21  1  0.169862  0.830138  0.630258  1
  Rh  Rh22  1  0.831302  0.662604  0.124295  1
  Rh  Rh23  1  0.169862  0.830138  0.869742  1
