# generated using pymatgen
data_Hf2Nb2SiGe
_symmetry_space_group_name_H-M   'P 1'
_cell_length_a   3.66099700
_cell_length_b   6.99481500
_cell_length_c   8.51136200
_cell_angle_alpha   90.00000000
_cell_angle_beta   90.00000000
_cell_angle_gamma   90.00000000
_symmetry_Int_Tables_number   1
_chemical_formula_structural   Hf2Nb2SiGe
_chemical_formula_sum   'Hf4 Nb4 Si2 Ge2'
_cell_volume   217.95893027
_cell_formula_units_Z   2
loop_
 _symmetry_equiv_pos_site_id
 _symmetry_equiv_pos_as_xyz
  1  'x, y, z'
loop_
 _atom_site_type_symbol
 _atom_site_label
 _atom_site_symmetry_multiplicity
 _atom_site_fract_x
 _atom_site_fract_y
 _atom_site_fract_z
 _atom_site_occupancy
  Hf  Hf0  1  0.250000  0.044009  0.667629  1
  Hf  Hf1  1  0.250000  0.544009  0.832371  1
  Hf  Hf2  1  0.750000  0.451957  0.160534  1
  Hf  Hf3  1  0.750000  0.951957  0.339466  1
  Nb  Nb4  1  0.750000  0.870034  0.939226  1
  Nb  Nb5  1  0.250000  0.634292  0.445934  1
  Nb  Nb6  1  0.750000  0.370034  0.560774  1
  Nb  Nb7  1  0.250000  0.134292  0.054066  1
  Si  Si8  1  0.750000  0.747997  0.643069  1
  Si  Si9  1  0.750000  0.247997  0.856931  1
  Ge  Ge10  1  0.250000  0.251711  0.356895  1
  Ge  Ge11  1  0.250000  0.751711  0.143105  1
