# generated using pymatgen
data_Pr6LuCoBr12
_symmetry_space_group_name_H-M   'P 1'
_cell_length_a   9.55853473
_cell_length_b   9.55853509
_cell_length_c   9.55853587
_cell_angle_alpha   107.21558021
_cell_angle_beta   107.21556739
_cell_angle_gamma   107.21556850
_symmetry_Int_Tables_number   1
_chemical_formula_structural   Pr6LuCoBr12
_chemical_formula_sum   'Pr6 Lu1 Co1 Br12'
_cell_volume   722.99067611
_cell_formula_units_Z   1
loop_
 _symmetry_equiv_pos_site_id
 _symmetry_equiv_pos_as_xyz
  1  'x, y, z'
loop_
 _atom_site_type_symbol
 _atom_site_label
 _atom_site_symmetry_multiplicity
 _atom_site_fract_x
 _atom_site_fract_y
 _atom_site_fract_z
 _atom_site_occupancy
  Pr  Pr0  1  0.974870  0.898633  0.689998  1
  Pr  Pr1  1  0.025130  0.101367  0.310002  1
  Pr  Pr2  1  0.101367  0.310002  0.025130  1
  Pr  Pr3  1  0.310002  0.025130  0.101367  1
  Pr  Pr4  1  0.898633  0.689998  0.974870  1
  Pr  Pr5  1  0.689998  0.974870  0.898633  1
  Lu  Lu6  1  0.500000  0.500000  0.500000  1
  Co  Co7  1  0.000000  0.000000  0.000000  1
  Br  Br8  1  0.531964  0.606170  0.814305  1
  Br  Br9  1  0.468036  0.393830  0.185695  1
  Br  Br10  1  0.316026  0.927755  0.775085  1
  Br  Br11  1  0.393830  0.185695  0.468036  1
  Br  Br12  1  0.927755  0.775085  0.316026  1
  Br  Br13  1  0.683974  0.072245  0.224915  1
  Br  Br14  1  0.072245  0.224915  0.683974  1
  Br  Br15  1  0.775085  0.316026  0.927755  1
  Br  Br16  1  0.224915  0.683974  0.072245  1
  Br  Br17  1  0.814305  0.531964  0.606170  1
  Br  Br18  1  0.185695  0.468036  0.393830  1
  Br  Br19  1  0.606170  0.814305  0.531964  1
