# generated using pymatgen
data_Tb3PrNd2(RuBr3)2
_symmetry_space_group_name_H-M   'P 1'
_cell_length_a   4.18543700
_cell_length_b   8.71701389
_cell_length_c   12.11150934
_cell_angle_alpha   85.47392205
_cell_angle_beta   90.00000000
_cell_angle_gamma   90.00000000
_symmetry_Int_Tables_number   1
_chemical_formula_structural   Tb3PrNd2(RuBr3)2
_chemical_formula_sum   'Tb3 Pr1 Nd2 Ru2 Br6'
_cell_volume   440.50451156
_cell_formula_units_Z   1
loop_
 _symmetry_equiv_pos_site_id
 _symmetry_equiv_pos_as_xyz
  1  'x, y, z'
loop_
 _atom_site_type_symbol
 _atom_site_label
 _atom_site_symmetry_multiplicity
 _atom_site_fract_x
 _atom_site_fract_y
 _atom_site_fract_z
 _atom_site_occupancy
  Tb  Tb0  1  0.250000  0.872480  0.369556  1
  Tb  Tb1  1  0.750000  0.124331  0.629860  1
  Tb  Tb2  1  0.250000  0.884515  0.825211  1
  Pr  Pr3  1  0.750000  0.117813  0.167578  1
  Nd  Nd4  1  0.250000  0.287437  0.397887  1
  Nd  Nd5  1  0.750000  0.710738  0.605309  1
  Ru  Ru6  1  0.250000  0.934156  0.598066  1
  Ru  Ru7  1  0.750000  0.062980  0.402043  1
  Br  Br8  1  0.250000  0.413913  0.636059  1
  Br  Br9  1  0.750000  0.583165  0.370153  1
  Br  Br10  1  0.250000  0.876342  0.106771  1
  Br  Br11  1  0.750000  0.112328  0.885903  1
  Br  Br12  1  0.250000  0.367454  0.142362  1
  Br  Br13  1  0.750000  0.652346  0.863242  1
