# generated using pymatgen
data_Sc8Ta7Ti4Si16W
_symmetry_space_group_name_H-M   'P 1'
_cell_length_a   6.69773373
_cell_length_b   6.85057359
_cell_length_c   13.06434416
_cell_angle_alpha   89.98636016
_cell_angle_beta   89.98836444
_cell_angle_gamma   90.02316882
_symmetry_Int_Tables_number   1
_chemical_formula_structural   Sc8Ta7Ti4Si16W
_chemical_formula_sum   'Sc8 Ta7 Ti4 Si16 W1'
_cell_volume   599.43537640
_cell_formula_units_Z   1
loop_
 _symmetry_equiv_pos_site_id
 _symmetry_equiv_pos_as_xyz
  1  'x, y, z'
loop_
 _atom_site_type_symbol
 _atom_site_label
 _atom_site_symmetry_multiplicity
 _atom_site_fract_x
 _atom_site_fract_y
 _atom_site_fract_z
 _atom_site_occupancy
  Sc  Sc0  1  0.502884  0.674152  0.595461  1
  Sc  Sc1  1  0.002900  0.826303  0.904823  1
  Sc  Sc2  1  0.497741  0.325700  0.096585  1
  Sc  Sc3  1  0.997627  0.173146  0.403549  1
  Sc  Sc4  1  0.499912  0.326482  0.403838  1
  Sc  Sc5  1  0.999420  0.172451  0.096043  1
  Sc  Sc6  1  0.500831  0.673553  0.905065  1
  Sc  Sc7  1  0.000855  0.826795  0.595031  1
  Ta  Ta8  1  0.663307  0.174993  0.625638  1
  Ta  Ta9  1  0.163008  0.324573  0.874162  1
  Ta  Ta10  1  0.336652  0.826631  0.126772  1
  Ta  Ta11  1  0.835980  0.674838  0.373552  1
  Ta  Ta12  1  0.838598  0.492132  0.750159  1
  Ta  Ta13  1  0.338771  0.007541  0.749682  1
  Ta  Ta14  1  0.161435  0.507997  0.250172  1
  Ti  Ti15  1  0.334982  0.826182  0.373969  1
  Ti  Ti16  1  0.833561  0.675556  0.125583  1
  Ti  Ti17  1  0.665409  0.176100  0.874995  1
  Ti  Ti18  1  0.165613  0.324233  0.625166  1
  Si  Si19  1  0.665077  0.966783  0.458373  1
  Si  Si20  1  0.165284  0.533171  0.040437  1
  Si  Si21  1  0.334649  0.033745  0.960279  1
  Si  Si22  1  0.835242  0.466761  0.539943  1
  Si  Si23  1  0.331220  0.033022  0.538318  1
  Si  Si24  1  0.831692  0.467601  0.961645  1
  Si  Si25  1  0.668939  0.967722  0.040505  1
  Si  Si26  1  0.168754  0.532016  0.460752  1
  Si  Si27  1  0.460566  0.385516  0.750267  1
  Si  Si28  1  0.960441  0.114353  0.749569  1
  Si  Si29  1  0.539359  0.614719  0.250386  1
  Si  Si30  1  0.036328  0.886722  0.249588  1
  Si  Si31  1  0.706206  0.862791  0.750956  1
  Si  Si32  1  0.206364  0.637119  0.749012  1
  Si  Si33  1  0.296513  0.136536  0.251061  1
  Si  Si34  1  0.793503  0.360077  0.248954  1
  W  W35  1  0.660378  0.991987  0.249712  1
