# generated using pymatgen
data_La5TmZn4Pt13
_symmetry_space_group_name_H-M   'P 1'
_cell_length_a   8.42905139
_cell_length_b   8.42905253
_cell_length_c   8.42905212
_cell_angle_alpha   109.62713717
_cell_angle_beta   109.62713668
_cell_angle_gamma   109.15983775
_symmetry_Int_Tables_number   1
_chemical_formula_structural   La5TmZn4Pt13
_chemical_formula_sum   'La5 Tm1 Zn4 Pt13'
_cell_volume   461.00399329
_cell_formula_units_Z   1
loop_
 _symmetry_equiv_pos_site_id
 _symmetry_equiv_pos_as_xyz
  1  'x, y, z'
loop_
 _atom_site_type_symbol
 _atom_site_label
 _atom_site_symmetry_multiplicity
 _atom_site_fract_x
 _atom_site_fract_y
 _atom_site_fract_z
 _atom_site_occupancy
  La  La0  1  0.300517  0.999219  0.301298  1
  La  La1  1  0.999219  0.300517  0.301298  1
  La  La2  1  0.301722  0.301722  0.000000  1
  La  La3  1  0.697921  0.999219  0.698702  1
  La  La4  1  0.999219  0.697921  0.698702  1
  Tm  Tm5  1  0.691827  0.691827  0.000000  1
  Zn  Zn6  1  0.000611  0.000611  0.498175  1
  Zn  Zn7  1  0.000611  0.502436  0.000000  1
  Zn  Zn8  1  0.502436  0.000611  0.000000  1
  Zn  Zn9  1  0.502436  0.502436  0.501825  1
  Pt  Pt10  1  0.334542  0.334542  0.664716  1
  Pt  Pt11  1  0.673762  0.997455  0.323693  1
  Pt  Pt12  1  0.997455  0.673762  0.323693  1
  Pt  Pt13  1  0.669827  0.334542  0.000000  1
  Pt  Pt14  1  0.327694  0.656475  0.328780  1
  Pt  Pt15  1  0.998913  0.327694  0.671220  1
  Pt  Pt16  1  0.334542  0.669827  0.000000  1
  Pt  Pt17  1  0.327694  0.998913  0.671220  1
  Pt  Pt18  1  0.656475  0.327694  0.328780  1
  Pt  Pt19  1  0.669827  0.669827  0.335284  1
  Pt  Pt20  1  0.673762  0.350068  0.676307  1
  Pt  Pt21  1  0.350068  0.673762  0.676307  1
  Pt  Pt22  1  0.988921  0.988921  0.000000  1
