# generated using pymatgen
data_Li3Th8Si12W
_symmetry_space_group_name_H-M   'P 1'
_cell_length_a   8.24052900
_cell_length_b   8.24052922
_cell_length_c   8.40180400
_cell_angle_alpha   90.00000000
_cell_angle_beta   90.00000000
_cell_angle_gamma   119.99999509
_symmetry_Int_Tables_number   1
_chemical_formula_structural   Li3Th8Si12W
_chemical_formula_sum   'Li3 Th8 Si12 W1'
_cell_volume   494.09834023
_cell_formula_units_Z   1
loop_
 _symmetry_equiv_pos_site_id
 _symmetry_equiv_pos_as_xyz
  1  'x, y, z'
loop_
 _atom_site_type_symbol
 _atom_site_label
 _atom_site_symmetry_multiplicity
 _atom_site_fract_x
 _atom_site_fract_y
 _atom_site_fract_z
 _atom_site_occupancy
  Li  Li0  1  0.333333  0.666667  0.495461  1
  Li  Li1  1  0.666667  0.333333  0.505982  1
  Li  Li2  1  0.666667  0.333333  0.995565  1
  Th  Th3  1  0.000000  0.000000  0.253500  1
  Th  Th4  1  0.000000  0.000000  0.746637  1
  Th  Th5  1  0.497465  0.502535  0.245627  1
  Th  Th6  1  0.497465  0.994930  0.245627  1
  Th  Th7  1  0.005070  0.502535  0.245627  1
  Th  Th8  1  0.495533  0.504467  0.754298  1
  Th  Th9  1  0.495533  0.991065  0.754298  1
  Th  Th10  1  0.008935  0.504467  0.754298  1
  Si  Si11  1  0.166357  0.833643  0.499964  1
  Si  Si12  1  0.166357  0.332714  0.499964  1
  Si  Si13  1  0.667286  0.833643  0.499964  1
  Si  Si14  1  0.832252  0.167748  0.500084  1
  Si  Si15  1  0.832252  0.664506  0.500084  1
  Si  Si16  1  0.335494  0.167748  0.500084  1
  Si  Si17  1  0.833292  0.166708  0.999579  1
  Si  Si18  1  0.833292  0.666585  0.999579  1
  Si  Si19  1  0.333415  0.166708  0.999579  1
  Si  Si20  1  0.163474  0.836526  0.000708  1
  Si  Si21  1  0.163474  0.326949  0.000708  1
  Si  Si22  1  0.673051  0.836526  0.000708  1
  W  W23  1  0.333333  0.666667  0.002080  1
