# generated using pymatgen
data_Ba4TaFeO8
_symmetry_space_group_name_H-M   'P 1'
_cell_length_a   7.37158252
_cell_length_b   7.37158290
_cell_length_c   5.83008000
_cell_angle_alpha   90.00000000
_cell_angle_beta   90.00000000
_cell_angle_gamma   133.38458577
_symmetry_Int_Tables_number   1
_chemical_formula_structural   Ba4TaFeO8
_chemical_formula_sum   'Ba4 Ta1 Fe1 O8'
_cell_volume   230.24314673
_cell_formula_units_Z   1
loop_
 _symmetry_equiv_pos_site_id
 _symmetry_equiv_pos_as_xyz
  1  'x, y, z'
loop_
 _atom_site_type_symbol
 _atom_site_label
 _atom_site_symmetry_multiplicity
 _atom_site_fract_x
 _atom_site_fract_y
 _atom_site_fract_z
 _atom_site_occupancy
  Ba  Ba0  1  0.646576  0.353424  0.000000  1
  Ba  Ba1  1  0.144211  0.855789  0.500000  1
  Ba  Ba2  1  0.855789  0.144211  0.500000  1
  Ba  Ba3  1  0.353424  0.646576  0.000000  1
  Ta  Ta4  1  0.500000  0.500000  0.500000  1
  Fe  Fe5  1  0.000000  0.000000  0.000000  1
  O  O6  1  0.743872  0.743872  0.742936  1
  O  O7  1  0.256128  0.256128  0.257064  1
  O  O8  1  0.256128  0.256128  0.742936  1
  O  O9  1  0.743872  0.743872  0.257064  1
  O  O10  1  0.848108  0.151892  0.000000  1
  O  O11  1  0.349114  0.650886  0.500000  1
  O  O12  1  0.650886  0.349114  0.500000  1
  O  O13  1  0.151892  0.848108  0.000000  1
