# generated using pymatgen
data_Li12Dy9Ho3(WO6)8
_symmetry_space_group_name_H-M   'P 1'
_cell_length_a   10.67357265
_cell_length_b   10.67718411
_cell_length_c   10.67718408
_cell_angle_alpha   109.47807621
_cell_angle_beta   109.46436487
_cell_angle_gamma   109.46436479
_symmetry_Int_Tables_number   1
_chemical_formula_structural   Li12Dy9Ho3(WO6)8
_chemical_formula_sum   'Li12 Dy9 Ho3 W8 O48'
_cell_volume   936.78109260
_cell_formula_units_Z   1
loop_
 _symmetry_equiv_pos_site_id
 _symmetry_equiv_pos_as_xyz
  1  'x, y, z'
loop_
 _atom_site_type_symbol
 _atom_site_label
 _atom_site_symmetry_multiplicity
 _atom_site_fract_x
 _atom_site_fract_y
 _atom_site_fract_z
 _atom_site_occupancy
  Li  Li0  1  0.249993  0.375192  0.125037  1
  Li  Li1  1  0.875045  0.249846  0.125038  1
  Li  Li2  1  0.374785  0.124640  0.249992  1
  Li  Li3  1  0.875209  0.625353  0.249992  1
  Li  Li4  1  0.624790  0.750007  0.374645  1
  Li  Li5  1  0.749855  0.124640  0.374645  1
  Li  Li6  1  0.250007  0.874963  0.624808  1
  Li  Li7  1  0.374802  0.249846  0.624808  1
  Li  Li8  1  0.125198  0.375192  0.750154  1
  Li  Li9  1  0.624956  0.874964  0.750154  1
  Li  Li10  1  0.750145  0.625354  0.875360  1
  Li  Li11  1  0.125216  0.750007  0.875360  1
  Dy  Dy12  1  0.625044  0.375043  0.250086  1
  Dy  Dy13  1  0.250000  0.625169  0.374832  1
  Dy  Dy14  1  0.124832  0.249663  0.374832  1
  Dy  Dy15  1  0.749999  0.375044  0.624957  1
  Dy  Dy16  1  0.874957  0.749915  0.624958  1
  Dy  Dy17  1  0.375167  0.625168  0.750337  1
  Dy  Dy18  1  0.874995  0.124995  0.749987  1
  Dy  Dy19  1  0.250001  0.124995  0.875006  1
  Dy  Dy20  1  0.625006  0.250013  0.875006  1
  Ho  Ho21  1  0.750000  0.874933  0.125066  1
  Ho  Ho22  1  0.375068  0.750135  0.125067  1
  Ho  Ho23  1  0.124933  0.874934  0.249866  1
  W  W24  1  0.999787  0.999633  0.000072  1
  W  W25  1  0.500213  0.999928  0.000367  1
  W  W26  1  0.500152  0.500438  0.000367  1
  W  W27  1  0.000286  0.500439  0.000072  1
  W  W28  1  0.999847  0.999633  0.499561  1
  W  W29  1  0.499714  0.999928  0.499561  1
  W  W30  1  0.499914  0.500000  0.500000  1
  W  W31  1  0.000086  0.500001  0.500001  1
  O  O32  1  0.119791  0.702275  0.028538  1
  O  O33  1  0.908747  0.826264  0.028538  1
  O  O34  1  0.673767  0.201360  0.082657  1
  O  O35  1  0.408891  0.381297  0.082658  1
  O  O36  1  0.673814  0.472517  0.091319  1
  O  O37  1  0.417505  0.118803  0.091320  1
  O  O38  1  0.916969  0.090700  0.118962  1
  O  O39  1  0.201992  0.528260  0.118962  1
  O  O40  1  0.582484  0.702273  0.173737  1
  O  O41  1  0.591253  0.971464  0.173737  1
  O  O42  1  0.028122  0.619805  0.201678  1
  O  O43  1  0.173557  0.081875  0.201680  1
  O  O44  1  0.380210  0.971462  0.297725  1
  O  O45  1  0.917516  0.826263  0.297727  1
  O  O46  1  0.027785  0.408837  0.326185  1
  O  O47  1  0.298400  0.417348  0.326185  1
  O  O48  1  0.908317  0.081874  0.380196  1
  O  O49  1  0.471878  0.798321  0.380196  1
  O  O50  1  0.881137  0.582588  0.408796  1
  O  O51  1  0.527659  0.326206  0.408796  1
  O  O52  1  0.618862  0.591204  0.417411  1
  O  O53  1  0.798549  0.326206  0.417412  1
  O  O54  1  0.298007  0.881038  0.471738  1
  O  O55  1  0.173731  0.090701  0.471740  1
  O  O56  1  0.826185  0.908679  0.527482  1
  O  O57  1  0.701297  0.118804  0.527484  1
  O  O58  1  0.381052  0.408836  0.582651  1
  O  O59  1  0.201599  0.673814  0.582652  1
  O  O60  1  0.472215  0.673814  0.591162  1
  O  O61  1  0.118948  0.417349  0.591163  1
  O  O62  1  0.091110  0.917342  0.618703  1
  O  O63  1  0.527595  0.201361  0.618703  1
  O  O64  1  0.701450  0.582588  0.673793  1
  O  O65  1  0.972342  0.591204  0.673794  1
  O  O66  1  0.618575  0.027397  0.701040  1
  O  O67  1  0.082465  0.173644  0.701040  1
  O  O68  1  0.826232  0.917342  0.798638  1
  O  O69  1  0.972406  0.381296  0.798639  1
  O  O70  1  0.408821  0.027396  0.826356  1
  O  O71  1  0.417535  0.298960  0.826357  1
  O  O72  1  0.082494  0.908680  0.881196  1
  O  O73  1  0.798702  0.472517  0.881198  1
  O  O74  1  0.326270  0.528262  0.909300  1
  O  O75  1  0.583030  0.881039  0.909300  1
  O  O76  1  0.326442  0.798321  0.918126  1
  O  O77  1  0.591683  0.619804  0.918126  1
  O  O78  1  0.091179  0.173644  0.972603  1
  O  O79  1  0.881425  0.298961  0.972603  1
