# generated using pymatgen
data_YErGa3Cu4Si
_symmetry_space_group_name_H-M   'P 1'
_cell_length_a   4.05805500
_cell_length_b   4.05805500
_cell_length_c   10.11305300
_cell_angle_alpha   90.00000000
_cell_angle_beta   90.00000000
_cell_angle_gamma   90.00000000
_symmetry_Int_Tables_number   1
_chemical_formula_structural   YErGa3Cu4Si
_chemical_formula_sum   'Y1 Er1 Ga3 Cu4 Si1'
_cell_volume   166.53983920
_cell_formula_units_Z   1
loop_
 _symmetry_equiv_pos_site_id
 _symmetry_equiv_pos_as_xyz
  1  'x, y, z'
loop_
 _atom_site_type_symbol
 _atom_site_label
 _atom_site_symmetry_multiplicity
 _atom_site_fract_x
 _atom_site_fract_y
 _atom_site_fract_z
 _atom_site_occupancy
  Y  Y0  1  0.500000  0.000000  0.242874  1
  Er  Er1  1  0.000000  0.500000  0.759047  1
  Ga  Ga2  1  0.500000  0.500000  0.503262  1
  Ga  Ga3  1  0.000000  0.000000  0.503262  1
  Ga  Ga4  1  0.000000  0.500000  0.130329  1
  Cu  Cu5  1  0.000000  0.500000  0.363788  1
  Cu  Cu6  1  0.500000  0.000000  0.645143  1
  Cu  Cu7  1  0.500000  0.500000  0.991241  1
  Cu  Cu8  1  0.000000  0.000000  0.991241  1
  Si  Si9  1  0.500000  0.000000  0.869816  1
