# generated using pymatgen
data_Y5GaBi3
_symmetry_space_group_name_H-M   'P 1'
_cell_length_a   8.21408800
_cell_length_b   15.72291500
_cell_length_c   8.26469400
_cell_angle_alpha   90.00000000
_cell_angle_beta   90.00000000
_cell_angle_gamma   90.00000000
_symmetry_Int_Tables_number   1
_chemical_formula_structural   Y5GaBi3
_chemical_formula_sum   'Y20 Ga4 Bi12'
_cell_volume   1067.38033266
_cell_formula_units_Z   4
loop_
 _symmetry_equiv_pos_site_id
 _symmetry_equiv_pos_as_xyz
  1  'x, y, z'
loop_
 _atom_site_type_symbol
 _atom_site_label
 _atom_site_symmetry_multiplicity
 _atom_site_fract_x
 _atom_site_fract_y
 _atom_site_fract_z
 _atom_site_occupancy
  Y  Y0  1  0.221322  0.250000  0.013042  1
  Y  Y1  1  0.108507  0.622480  0.146216  1
  Y  Y2  1  0.108507  0.877520  0.146216  1
  Y  Y3  1  0.559043  0.114780  0.183337  1
  Y  Y4  1  0.559043  0.385220  0.183337  1
  Y  Y5  1  0.059043  0.114780  0.316663  1
  Y  Y6  1  0.059043  0.385220  0.316663  1
  Y  Y7  1  0.608506  0.622480  0.353784  1
  Y  Y8  1  0.608506  0.877520  0.353784  1
  Y  Y9  1  0.721322  0.250000  0.486958  1
  Y  Y10  1  0.278678  0.750000  0.513042  1
  Y  Y11  1  0.391493  0.122480  0.646216  1
  Y  Y12  1  0.391493  0.377520  0.646216  1
  Y  Y13  1  0.940957  0.614780  0.683338  1
  Y  Y14  1  0.940957  0.885220  0.683338  1
  Y  Y15  1  0.440957  0.614780  0.816663  1
  Y  Y16  1  0.440957  0.885220  0.816663  1
  Y  Y17  1  0.891493  0.122480  0.853784  1
  Y  Y18  1  0.891493  0.377520  0.853784  1
  Y  Y19  1  0.778678  0.750000  0.986958  1
  Ga  Ga20  1  0.872766  0.250000  0.149413  1
  Ga  Ga21  1  0.372766  0.250000  0.350587  1
  Ga  Ga22  1  0.627233  0.750000  0.649413  1
  Ga  Ga23  1  0.127233  0.750000  0.850587  1
  Bi  Bi24  1  0.760055  0.545284  0.026199  1
  Bi  Bi25  1  0.760055  0.954716  0.026199  1
  Bi  Bi26  1  0.409792  0.750000  0.124921  1
  Bi  Bi27  1  0.909792  0.750000  0.375079  1
  Bi  Bi28  1  0.260055  0.545284  0.473801  1
  Bi  Bi29  1  0.260055  0.954716  0.473801  1
  Bi  Bi30  1  0.739945  0.045284  0.526199  1
  Bi  Bi31  1  0.739945  0.454716  0.526199  1
  Bi  Bi32  1  0.090208  0.250000  0.624921  1
  Bi  Bi33  1  0.590208  0.250000  0.875079  1
  Bi  Bi34  1  0.239944  0.045284  0.973801  1
  Bi  Bi35  1  0.239944  0.454716  0.973801  1
