# generated using pymatgen
data_Mn2ZnPd2Pt3
_symmetry_space_group_name_H-M   'P 1'
_cell_length_a   5.46311296
_cell_length_b   5.46930319
_cell_length_c   4.03186400
_cell_angle_alpha   90.00000000
_cell_angle_beta   90.00000000
_cell_angle_gamma   95.18139267
_symmetry_Int_Tables_number   1
_chemical_formula_structural   Mn2ZnPd2Pt3
_chemical_formula_sum   'Mn2 Zn1 Pd2 Pt3'
_cell_volume   119.97749643
_cell_formula_units_Z   1
loop_
 _symmetry_equiv_pos_site_id
 _symmetry_equiv_pos_as_xyz
  1  'x, y, z'
loop_
 _atom_site_type_symbol
 _atom_site_label
 _atom_site_symmetry_multiplicity
 _atom_site_fract_x
 _atom_site_fract_y
 _atom_site_fract_z
 _atom_site_occupancy
  Mn  Mn0  1  0.271956  0.730812  0.500000  1
  Mn  Mn1  1  0.728725  0.268580  0.500000  1
  Zn  Zn2  1  0.998738  0.000017  0.000000  1
  Pd  Pd3  1  0.000263  0.500467  0.000000  1
  Pd  Pd4  1  0.773926  0.773124  0.500000  1
  Pt  Pt5  1  0.500079  0.500137  0.000000  1
  Pt  Pt6  1  0.500371  0.000103  0.000000  1
  Pt  Pt7  1  0.225941  0.226760  0.500000  1
