# generated using pymatgen
data_Ba4NaAs10(IrRu)5
_symmetry_space_group_name_H-M   'P 1'
_cell_length_a   9.10725795
_cell_length_b   9.10725800
_cell_length_c   9.10725725
_cell_angle_alpha   118.80480281
_cell_angle_beta   118.80480681
_cell_angle_gamma   92.08291918
_symmetry_Int_Tables_number   1
_chemical_formula_structural   Ba4NaAs10(IrRu)5
_chemical_formula_sum   'Ba4 Na1 As10 Ir5 Ru5'
_cell_volume   543.39187075
_cell_formula_units_Z   1
loop_
 _symmetry_equiv_pos_site_id
 _symmetry_equiv_pos_as_xyz
  1  'x, y, z'
loop_
 _atom_site_type_symbol
 _atom_site_label
 _atom_site_symmetry_multiplicity
 _atom_site_fract_x
 _atom_site_fract_y
 _atom_site_fract_z
 _atom_site_occupancy
  Ba  Ba0  1  0.195476  0.608702  0.804452  1
  Ba  Ba1  1  0.391298  0.195750  0.586775  1
  Ba  Ba2  1  0.608976  0.804524  0.413225  1
  Ba  Ba3  1  0.804250  0.391024  0.195548  1
  Na  Na4  1  0.000000  0.000000  0.000000  1
  As  As5  1  0.445190  0.046024  0.198517  1
  As  As6  1  0.642948  0.642948  0.000000  1
  As  As7  1  0.847507  0.246673  0.801483  1
  As  As8  1  0.045595  0.847336  0.600529  1
  As  As9  1  0.246807  0.445067  0.399471  1
  As  As10  1  0.357052  0.357052  0.000000  1
  As  As11  1  0.554933  0.954405  0.801741  1
  As  As12  1  0.753327  0.554810  0.600835  1
  As  As13  1  0.953976  0.152493  0.399165  1
  As  As14  1  0.152664  0.753193  0.198259  1
  Ir  Ir15  1  0.450373  0.350362  0.298289  1
  Ir  Ir16  1  0.649638  0.947927  0.100012  1
  Ir  Ir17  1  0.847916  0.549627  0.899988  1
  Ir  Ir18  1  0.052073  0.152084  0.701711  1
  Ir  Ir19  1  0.250000  0.750000  0.500000  1
  Ru  Ru20  1  0.349774  0.051416  0.899829  1
  Ru  Ru21  1  0.550055  0.650226  0.701643  1
  Ru  Ru22  1  0.750000  0.250000  0.500000  1
  Ru  Ru23  1  0.948584  0.848413  0.298357  1
  Ru  Ru24  1  0.151587  0.449945  0.100171  1
