# generated using pymatgen
data_Li4Nd3Sn4
_symmetry_space_group_name_H-M   'P 1'
_cell_length_a   8.85229242
_cell_length_b   8.85229169
_cell_length_c   8.85229150
_cell_angle_alpha   149.09772410
_cell_angle_beta   132.12120884
_cell_angle_gamma   58.07925170
_symmetry_Int_Tables_number   1
_chemical_formula_structural   Li4Nd3Sn4
_chemical_formula_sum   'Li4 Nd3 Sn4'
_cell_volume   262.25329900
_cell_formula_units_Z   1
loop_
 _symmetry_equiv_pos_site_id
 _symmetry_equiv_pos_as_xyz
  1  'x, y, z'
loop_
 _atom_site_type_symbol
 _atom_site_label
 _atom_site_symmetry_multiplicity
 _atom_site_fract_x
 _atom_site_fract_y
 _atom_site_fract_z
 _atom_site_occupancy
  Li  Li0  1  0.480365  0.671605  0.808761  1
  Li  Li1  1  0.862845  0.671605  0.191239  1
  Li  Li2  1  0.137155  0.328395  0.808761  1
  Li  Li3  1  0.519635  0.328395  0.191239  1
  Nd  Nd4  1  0.500000  0.000000  0.500000  1
  Nd  Nd5  1  0.869732  0.869732  0.000000  1
  Nd  Nd6  1  0.130268  0.130268  0.000000  1
  Sn  Sn7  1  0.286791  0.786791  0.500000  1
  Sn  Sn8  1  0.713209  0.213209  0.500000  1
  Sn  Sn9  1  0.801851  0.500000  0.301851  1
  Sn  Sn10  1  0.198149  0.500000  0.698149  1
