# generated using pymatgen
data_Y6P12Rh17W
_symmetry_space_group_name_H-M   'P 1'
_cell_length_a   3.94238800
_cell_length_b   11.17483300
_cell_length_c   12.79748300
_cell_angle_alpha   90.00000000
_cell_angle_beta   90.00000000
_cell_angle_gamma   90.00000000
_symmetry_Int_Tables_number   1
_chemical_formula_structural   Y6P12Rh17W
_chemical_formula_sum   'Y6 P12 Rh17 W1'
_cell_volume   563.79986451
_cell_formula_units_Z   1
loop_
 _symmetry_equiv_pos_site_id
 _symmetry_equiv_pos_as_xyz
  1  'x, y, z'
loop_
 _atom_site_type_symbol
 _atom_site_label
 _atom_site_symmetry_multiplicity
 _atom_site_fract_x
 _atom_site_fract_y
 _atom_site_fract_z
 _atom_site_occupancy
  Y  Y0  1  0.000000  0.500000  0.519802  1
  Y  Y1  1  0.500000  0.000000  0.477739  1
  Y  Y2  1  0.500000  0.814097  0.206045  1
  Y  Y3  1  0.500000  0.185903  0.206045  1
  Y  Y4  1  0.000000  0.682494  0.797085  1
  Y  Y5  1  0.000000  0.317506  0.797085  1
  P  P6  1  0.500000  0.500000  0.874828  1
  P  P7  1  0.000000  0.000000  0.122432  1
  P  P8  1  0.500000  0.500000  0.346950  1
  P  P9  1  0.000000  0.000000  0.649892  1
  P  P10  1  0.500000  0.315417  0.618883  1
  P  P11  1  0.500000  0.684583  0.618883  1
  P  P12  1  0.000000  0.185897  0.381930  1
  P  P13  1  0.000000  0.814103  0.381930  1
  P  P14  1  0.500000  0.848984  0.890754  1
  P  P15  1  0.500000  0.151016  0.890754  1
  P  P16  1  0.000000  0.653599  0.110381  1
  P  P17  1  0.000000  0.346401  0.110381  1
  Rh  Rh18  1  0.000000  0.000000  0.832232  1
  Rh  Rh19  1  0.500000  0.500000  0.698252  1
  Rh  Rh20  1  0.000000  0.000000  0.299373  1
  Rh  Rh21  1  0.000000  0.500000  0.988811  1
  Rh  Rh22  1  0.500000  0.000000  0.021139  1
  Rh  Rh23  1  0.500000  0.332788  0.986337  1
  Rh  Rh24  1  0.500000  0.667212  0.986337  1
  Rh  Rh25  1  0.000000  0.167378  0.011322  1
  Rh  Rh26  1  0.000000  0.832622  0.011322  1
  Rh  Rh27  1  0.500000  0.292800  0.432725  1
  Rh  Rh28  1  0.500000  0.707200  0.432725  1
  Rh  Rh29  1  0.000000  0.202083  0.569383  1
  Rh  Rh30  1  0.000000  0.797917  0.569383  1
  Rh  Rh31  1  0.500000  0.873557  0.710299  1
  Rh  Rh32  1  0.500000  0.126443  0.710299  1
  Rh  Rh33  1  0.000000  0.624799  0.290338  1
  Rh  Rh34  1  0.000000  0.375201  0.290338  1
  W  W35  1  0.500000  0.500000  0.157587  1
