# generated using pymatgen
data_Zr16IrPd7C4
_symmetry_space_group_name_H-M   'P 1'
_cell_length_a   8.93909303
_cell_length_b   8.92282607
_cell_length_c   8.92282600
_cell_angle_alpha   60.00000024
_cell_angle_beta   60.06017904
_cell_angle_gamma   60.06017945
_symmetry_Int_Tables_number   1
_chemical_formula_structural   Zr16IrPd7C4
_chemical_formula_sum   'Zr16 Ir1 Pd7 C4'
_cell_volume   503.70672734
_cell_formula_units_Z   1
loop_
 _symmetry_equiv_pos_site_id
 _symmetry_equiv_pos_as_xyz
  1  'x, y, z'
loop_
 _atom_site_type_symbol
 _atom_site_label
 _atom_site_symmetry_multiplicity
 _atom_site_fract_x
 _atom_site_fract_y
 _atom_site_fract_z
 _atom_site_occupancy
  Zr  Zr0  1  0.122827  0.625724  0.625724  1
  Zr  Zr1  1  0.625458  0.131101  0.621720  1
  Zr  Zr2  1  0.625458  0.621720  0.131101  1
  Zr  Zr3  1  0.625458  0.621720  0.621720  1
  Zr  Zr4  1  0.817095  0.816326  0.183290  1
  Zr  Zr5  1  0.181846  0.182000  0.818077  1
  Zr  Zr6  1  0.817095  0.183290  0.816326  1
  Zr  Zr7  1  0.181846  0.818077  0.182000  1
  Zr  Zr8  1  0.181846  0.818077  0.818077  1
  Zr  Zr9  1  0.817095  0.183290  0.183290  1
  Zr  Zr10  1  0.431869  0.431872  0.068130  1
  Zr  Zr11  1  0.063519  0.070850  0.432815  1
  Zr  Zr12  1  0.431869  0.068130  0.431872  1
  Zr  Zr13  1  0.063519  0.432815  0.070850  1
  Zr  Zr14  1  0.063519  0.432815  0.432815  1
  Zr  Zr15  1  0.431869  0.068130  0.068130  1
  Ir  Ir16  1  0.780715  0.406429  0.406429  1
  Pd  Pd17  1  0.409282  0.766577  0.412072  1
  Pd  Pd18  1  0.409282  0.412072  0.766577  1
  Pd  Pd19  1  0.409282  0.412072  0.412072  1
  Pd  Pd20  1  0.487447  0.837517  0.837517  1
  Pd  Pd21  1  0.838625  0.484527  0.838423  1
  Pd  Pd22  1  0.838625  0.838423  0.484527  1
  Pd  Pd23  1  0.838625  0.838423  0.838423  1
  C  C24  1  0.626049  0.124650  0.124650  1
  C  C25  1  0.126627  0.625562  0.123906  1
  C  C26  1  0.126627  0.123906  0.625562  1
  C  C27  1  0.126627  0.123906  0.123906  1
