# generated using pymatgen
data_SmReH9
_symmetry_space_group_name_H-M   'P 1'
_cell_length_a   4.89754900
_cell_length_b   4.89754938
_cell_length_c   8.48725700
_cell_angle_alpha   90.00000000
_cell_angle_beta   90.00000000
_cell_angle_gamma   120.00000419
_symmetry_Int_Tables_number   1
_chemical_formula_structural   SmReH9
_chemical_formula_sum   'Sm2 Re2 H18'
_cell_volume   176.30132641
_cell_formula_units_Z   2
loop_
 _symmetry_equiv_pos_site_id
 _symmetry_equiv_pos_as_xyz
  1  'x, y, z'
loop_
 _atom_site_type_symbol
 _atom_site_label
 _atom_site_symmetry_multiplicity
 _atom_site_fract_x
 _atom_site_fract_y
 _atom_site_fract_z
 _atom_site_occupancy
  Sm  Sm0  1  0.000000  0.000000  0.000000  1
  Sm  Sm1  1  0.000000  0.000000  0.500000  1
  Re  Re2  1  0.333333  0.666667  0.250000  1
  Re  Re3  1  0.666667  0.333333  0.750000  1
  H  H4  1  0.476651  0.523349  0.393916  1
  H  H5  1  0.476651  0.953302  0.393916  1
  H  H6  1  0.046698  0.523349  0.393916  1
  H  H7  1  0.953302  0.476651  0.893916  1
  H  H8  1  0.131100  0.262200  0.250000  1
  H  H9  1  0.868900  0.131100  0.750000  1
  H  H10  1  0.262200  0.131100  0.750000  1
  H  H11  1  0.737800  0.868900  0.250000  1
  H  H12  1  0.131100  0.868900  0.250000  1
  H  H13  1  0.868900  0.737800  0.750000  1
  H  H14  1  0.476651  0.953302  0.106084  1
  H  H15  1  0.523349  0.476651  0.606084  1
  H  H16  1  0.953302  0.476651  0.606084  1
  H  H17  1  0.046698  0.523349  0.106084  1
  H  H18  1  0.476651  0.523349  0.106084  1
  H  H19  1  0.523349  0.046698  0.893916  1
  H  H20  1  0.523349  0.476651  0.893916  1
  H  H21  1  0.523349  0.046698  0.606084  1
