# generated using pymatgen
data_YbScU2Ge6Ru7
_symmetry_space_group_name_H-M   'P 1'
_cell_length_a   7.13394784
_cell_length_b   7.13830995
_cell_length_c   7.18909674
_cell_angle_alpha   109.50440475
_cell_angle_beta   109.47991847
_cell_angle_gamma   109.12867360
_symmetry_Int_Tables_number   1
_chemical_formula_structural   YbScU2Ge6Ru7
_chemical_formula_sum   'Yb1 Sc1 U2 Ge6 Ru7'
_cell_volume   282.86191491
_cell_formula_units_Z   1
loop_
 _symmetry_equiv_pos_site_id
 _symmetry_equiv_pos_as_xyz
  1  'x, y, z'
loop_
 _atom_site_type_symbol
 _atom_site_label
 _atom_site_symmetry_multiplicity
 _atom_site_fract_x
 _atom_site_fract_y
 _atom_site_fract_z
 _atom_site_occupancy
  Yb  Yb0  1  0.000000  0.500000  0.000000  1
  Sc  Sc1  1  0.500000  0.000000  0.000000  1
  U  U2  1  0.000000  0.000000  0.500000  1
  U  U3  1  0.500000  0.500000  0.500000  1
  Ge  Ge4  1  0.687209  0.689690  0.000000  1
  Ge  Ge5  1  0.309502  0.993406  0.302366  1
  Ge  Ge6  1  0.992865  0.308961  0.302366  1
  Ge  Ge7  1  0.312791  0.310310  0.000000  1
  Ge  Ge8  1  0.690497  0.006594  0.697634  1
  Ge  Ge9  1  0.007135  0.691039  0.697634  1
  Ru  Ru10  1  0.746323  0.246323  0.492645  1
  Ru  Ru11  1  0.749910  0.508043  0.264255  1
  Ru  Ru12  1  0.485656  0.243788  0.735745  1
  Ru  Ru13  1  0.250090  0.491957  0.735745  1
  Ru  Ru14  1  0.253677  0.753677  0.507355  1
  Ru  Ru15  1  0.514344  0.756212  0.264255  1
  Ru  Ru16  1  0.000000  0.000000  0.000000  1
