# generated using pymatgen
data_AcLa(Sn2Rh)2
_symmetry_space_group_name_H-M   'P 1'
_cell_length_a   8.98969434
_cell_length_b   8.98969296
_cell_length_c   9.82644000
_cell_angle_alpha   90.00000000
_cell_angle_beta   90.00000000
_cell_angle_gamma   149.32685670
_symmetry_Int_Tables_number   1
_chemical_formula_structural   AcLa(Sn2Rh)2
_chemical_formula_sum   'Ac2 La2 Sn8 Rh4'
_cell_volume   405.11209779
_cell_formula_units_Z   2
loop_
 _symmetry_equiv_pos_site_id
 _symmetry_equiv_pos_as_xyz
  1  'x, y, z'
loop_
 _atom_site_type_symbol
 _atom_site_label
 _atom_site_symmetry_multiplicity
 _atom_site_fract_x
 _atom_site_fract_y
 _atom_site_fract_z
 _atom_site_occupancy
  Ac  Ac0  1  0.500000  0.500000  0.500000  1
  Ac  Ac1  1  0.500000  0.500000  0.000000  1
  La  La2  1  0.296299  0.703701  0.250000  1
  La  La3  1  0.703701  0.296299  0.750000  1
  Sn  Sn4  1  0.907090  0.092910  0.750000  1
  Sn  Sn5  1  0.924173  0.075827  0.250000  1
  Sn  Sn6  1  0.092910  0.907090  0.250000  1
  Sn  Sn7  1  0.075827  0.924173  0.750000  1
  Sn  Sn8  1  0.698123  0.301877  0.409489  1
  Sn  Sn9  1  0.301877  0.698123  0.590511  1
  Sn  Sn10  1  0.301877  0.698123  0.909489  1
  Sn  Sn11  1  0.698123  0.301877  0.090511  1
  Rh  Rh12  1  0.148578  0.851422  0.503885  1
  Rh  Rh13  1  0.851422  0.148578  0.003885  1
  Rh  Rh14  1  0.148578  0.851422  0.996115  1
  Rh  Rh15  1  0.851422  0.148578  0.496115  1
