# generated using pymatgen
data_Tb10Pr6Cd4OsPd3
_symmetry_space_group_name_H-M   'P 1'
_cell_length_a   9.85177865
_cell_length_b   9.85177880
_cell_length_c   9.85177832
_cell_angle_alpha   59.71011589
_cell_angle_beta   59.71011765
_cell_angle_gamma   59.71011831
_symmetry_Int_Tables_number   1
_chemical_formula_structural   Tb10Pr6Cd4OsPd3
_chemical_formula_sum   'Tb10 Pr6 Cd4 Os1 Pd3'
_cell_volume   671.67622234
_cell_formula_units_Z   1
loop_
 _symmetry_equiv_pos_site_id
 _symmetry_equiv_pos_as_xyz
  1  'x, y, z'
loop_
 _atom_site_type_symbol
 _atom_site_label
 _atom_site_symmetry_multiplicity
 _atom_site_fract_x
 _atom_site_fract_y
 _atom_site_fract_z
 _atom_site_occupancy
  Tb  Tb0  1  0.352675  0.352675  0.352675  1
  Tb  Tb1  1  0.347397  0.347397  0.952477  1
  Tb  Tb2  1  0.347397  0.952477  0.347397  1
  Tb  Tb3  1  0.952477  0.347397  0.347397  1
  Tb  Tb4  1  0.818726  0.186462  0.186462  1
  Tb  Tb5  1  0.184850  0.811160  0.811160  1
  Tb  Tb6  1  0.186462  0.818726  0.186462  1
  Tb  Tb7  1  0.811160  0.184850  0.811160  1
  Tb  Tb8  1  0.186462  0.186462  0.818726  1
  Tb  Tb9  1  0.811160  0.811160  0.184850  1
  Pr  Pr10  1  0.937127  0.562787  0.562787  1
  Pr  Pr11  1  0.555372  0.939824  0.939824  1
  Pr  Pr12  1  0.562787  0.937127  0.562787  1
  Pr  Pr13  1  0.939824  0.555372  0.939824  1
  Pr  Pr14  1  0.562787  0.562787  0.937127  1
  Pr  Pr15  1  0.939824  0.939824  0.555372  1
  Cd  Cd16  1  0.579013  0.579013  0.579013  1
  Cd  Cd17  1  0.579584  0.579584  0.260557  1
  Cd  Cd18  1  0.579584  0.260557  0.579584  1
  Cd  Cd19  1  0.260557  0.579584  0.579584  1
  Os  Os20  1  0.143304  0.143304  0.143304  1
  Pd  Pd21  1  0.144839  0.144839  0.571792  1
  Pd  Pd22  1  0.144839  0.571792  0.144839  1
  Pd  Pd23  1  0.571792  0.144839  0.144839  1
