# generated using pymatgen
data_HoTm6FeCo5Sn23
_symmetry_space_group_name_H-M   'P 1'
_cell_length_a   9.66963917
_cell_length_b   9.66963740
_cell_length_c   9.89849091
_cell_angle_alpha   90.13987723
_cell_angle_beta   89.86012070
_cell_angle_gamma   120.00845605
_symmetry_Int_Tables_number   1
_chemical_formula_structural   HoTm6FeCo5Sn23
_chemical_formula_sum   'Ho1 Tm6 Fe1 Co5 Sn23'
_cell_volume   801.45905561
_cell_formula_units_Z   1
loop_
 _symmetry_equiv_pos_site_id
 _symmetry_equiv_pos_as_xyz
  1  'x, y, z'
loop_
 _atom_site_type_symbol
 _atom_site_label
 _atom_site_symmetry_multiplicity
 _atom_site_fract_x
 _atom_site_fract_y
 _atom_site_fract_z
 _atom_site_occupancy
  Ho  Ho0  1  0.000921  0.999079  0.998855  1
  Tm  Tm1  1  0.520519  0.479481  0.693218  1
  Tm  Tm2  1  0.519818  0.040772  0.693914  1
  Tm  Tm3  1  0.959228  0.480182  0.693914  1
  Tm  Tm4  1  0.041889  0.521027  0.306695  1
  Tm  Tm5  1  0.478973  0.958111  0.306695  1
  Tm  Tm6  1  0.479360  0.520640  0.306513  1
  Fe  Fe7  1  0.167732  0.832268  0.802208  1
  Co  Co8  1  0.168327  0.336240  0.802502  1
  Co  Co9  1  0.663760  0.831673  0.802502  1
  Co  Co10  1  0.336587  0.168397  0.197417  1
  Co  Co11  1  0.831603  0.663413  0.197417  1
  Co  Co12  1  0.831816  0.168184  0.197296  1
  Sn  Sn13  1  0.666726  0.333274  0.182556  1
  Sn  Sn14  1  0.666822  0.333178  0.879850  1
  Sn  Sn15  1  0.333449  0.666551  0.120434  1
  Sn  Sn16  1  0.346580  0.346681  0.999826  1
  Sn  Sn17  1  0.000522  0.654110  0.999525  1
  Sn  Sn18  1  0.653621  0.000165  0.000094  1
  Sn  Sn19  1  0.653319  0.653420  0.999826  1
  Sn  Sn20  1  0.332924  0.667076  0.817506  1
  Sn  Sn21  1  0.437395  0.218680  0.451940  1
  Sn  Sn22  1  0.218654  0.781346  0.548008  1
  Sn  Sn23  1  0.218671  0.437387  0.548388  1
  Sn  Sn24  1  0.562613  0.781329  0.548388  1
  Sn  Sn25  1  0.118665  0.881335  0.274590  1
  Sn  Sn26  1  0.781320  0.562605  0.451940  1
  Sn  Sn27  1  0.781344  0.218656  0.451584  1
  Sn  Sn28  1  0.345890  0.999478  0.999525  1
  Sn  Sn29  1  0.118316  0.237246  0.274537  1
  Sn  Sn30  1  0.762754  0.881684  0.274537  1
  Sn  Sn31  1  0.236839  0.118221  0.726246  1
  Sn  Sn32  1  0.881779  0.763161  0.726246  1
  Sn  Sn33  1  0.881340  0.118660  0.725825  1
  Sn  Sn34  1  0.000089  0.999911  0.499385  1
  Sn  Sn35  1  0.999835  0.346379  0.000094  1
