# generated using pymatgen
data_CdTcOsF12
_symmetry_space_group_name_H-M   'P 1'
_cell_length_a   5.37289849
_cell_length_b   5.86621152
_cell_length_c   9.25537900
_cell_angle_alpha   104.88116807
_cell_angle_beta   90.54771430
_cell_angle_gamma   117.66677610
_symmetry_Int_Tables_number   1
_chemical_formula_structural   CdTcOsF12
_chemical_formula_sum   'Cd1 Tc1 Os1 F12'
_cell_volume   246.85358764
_cell_formula_units_Z   1
loop_
 _symmetry_equiv_pos_site_id
 _symmetry_equiv_pos_as_xyz
  1  'x, y, z'
loop_
 _atom_site_type_symbol
 _atom_site_label
 _atom_site_symmetry_multiplicity
 _atom_site_fract_x
 _atom_site_fract_y
 _atom_site_fract_z
 _atom_site_occupancy
  Cd  Cd0  1  0.000223  0.001972  0.002286  1
  Tc  Tc1  1  0.766072  0.504672  0.257809  1
  Os  Os2  1  0.235945  0.497269  0.744625  1
  F  F3  1  0.839968  0.276332  0.709339  1
  F  F4  1  0.158560  0.726639  0.291062  1
  F  F5  1  0.201411  0.730626  0.930314  1
  F  F6  1  0.719391  0.724194  0.425312  1
  F  F7  1  0.285296  0.279824  0.573388  1
  F  F8  1  0.773407  0.268497  0.356656  1
  F  F9  1  0.214743  0.721076  0.638058  1
  F  F10  1  0.353086  0.268836  0.201856  1
  F  F11  1  0.649583  0.729959  0.798202  1
  F  F12  1  0.737190  0.720752  0.132635  1
  F  F13  1  0.265242  0.278243  0.866466  1
  F  F14  1  0.799884  0.271108  0.071991  1
