# generated using pymatgen
data_ErTm4(In2Au)2
_symmetry_space_group_name_H-M   'P 1'
_cell_length_a   3.63240400
_cell_length_b   8.14729800
_cell_length_c   18.28303800
_cell_angle_alpha   90.00000000
_cell_angle_beta   90.00000000
_cell_angle_gamma   90.00000000
_symmetry_Int_Tables_number   1
_chemical_formula_structural   ErTm4(In2Au)2
_chemical_formula_sum   'Er2 Tm8 In8 Au4'
_cell_volume   541.07330641
_cell_formula_units_Z   2
loop_
 _symmetry_equiv_pos_site_id
 _symmetry_equiv_pos_as_xyz
  1  'x, y, z'
loop_
 _atom_site_type_symbol
 _atom_site_label
 _atom_site_symmetry_multiplicity
 _atom_site_fract_x
 _atom_site_fract_y
 _atom_site_fract_z
 _atom_site_occupancy
  Er  Er0  1  0.000000  0.000000  0.000000  1
  Er  Er1  1  0.000000  0.500000  0.500000  1
  Tm  Tm2  1  0.000000  0.119816  0.419500  1
  Tm  Tm3  1  0.000000  0.880184  0.580500  1
  Tm  Tm4  1  0.000000  0.380184  0.919500  1
  Tm  Tm5  1  0.000000  0.619816  0.080500  1
  Tm  Tm6  1  0.000000  0.239799  0.218460  1
  Tm  Tm7  1  0.000000  0.760201  0.781540  1
  Tm  Tm8  1  0.000000  0.260201  0.718460  1
  Tm  Tm9  1  0.000000  0.739799  0.281540  1
  In  In10  1  0.500000  0.422460  0.353856  1
  In  In11  1  0.500000  0.577540  0.646144  1
  In  In12  1  0.500000  0.077540  0.853856  1
  In  In13  1  0.500000  0.922460  0.146144  1
  In  In14  1  0.500000  0.290595  0.065777  1
  In  In15  1  0.500000  0.709405  0.934223  1
  In  In16  1  0.500000  0.209405  0.565777  1
  In  In17  1  0.500000  0.790595  0.434223  1
  Au  Au18  1  0.500000  0.027877  0.303419  1
  Au  Au19  1  0.500000  0.972123  0.696581  1
  Au  Au20  1  0.500000  0.472123  0.803419  1
  Au  Au21  1  0.500000  0.527877  0.196581  1
