# generated using pymatgen
data_Sc22Os3Ru4Au
_symmetry_space_group_name_H-M   'P 1'
_cell_length_a   9.52041218
_cell_length_b   9.49532619
_cell_length_c   9.42319825
_cell_angle_alpha   60.80388091
_cell_angle_beta   60.77167222
_cell_angle_gamma   60.02572062
_symmetry_Int_Tables_number   1
_chemical_formula_structural   Sc22Os3Ru4Au
_chemical_formula_sum   'Sc22 Os3 Ru4 Au1'
_cell_volume   609.54405476
_cell_formula_units_Z   1
loop_
 _symmetry_equiv_pos_site_id
 _symmetry_equiv_pos_as_xyz
  1  'x, y, z'
loop_
 _atom_site_type_symbol
 _atom_site_label
 _atom_site_symmetry_multiplicity
 _atom_site_fract_x
 _atom_site_fract_y
 _atom_site_fract_z
 _atom_site_occupancy
  Sc  Sc0  1  0.802087  0.803967  0.198530  1
  Sc  Sc1  1  0.194516  0.805682  0.197901  1
  Sc  Sc2  1  0.804198  0.193715  0.199472  1
  Sc  Sc3  1  0.197913  0.196033  0.801470  1
  Sc  Sc4  1  0.805484  0.194318  0.802099  1
  Sc  Sc5  1  0.195802  0.806285  0.800528  1
  Sc  Sc6  1  0.611528  0.611895  0.151719  1
  Sc  Sc7  1  0.605021  0.151083  0.619544  1
  Sc  Sc8  1  0.152524  0.605143  0.620367  1
  Sc  Sc9  1  0.612423  0.616015  0.623775  1
  Sc  Sc10  1  0.388472  0.388105  0.848281  1
  Sc  Sc11  1  0.394979  0.848917  0.380456  1
  Sc  Sc12  1  0.847476  0.394857  0.379633  1
  Sc  Sc13  1  0.387577  0.383985  0.376225  1
  Sc  Sc14  1  0.836303  0.834245  0.476816  1
  Sc  Sc15  1  0.844358  0.465777  0.846015  1
  Sc  Sc16  1  0.466262  0.844217  0.845934  1
  Sc  Sc17  1  0.834323  0.833835  0.855445  1
  Sc  Sc18  1  0.163697  0.165755  0.523184  1
  Sc  Sc19  1  0.155642  0.534223  0.153985  1
  Sc  Sc20  1  0.533738  0.155783  0.154066  1
  Sc  Sc21  1  0.165677  0.166165  0.144555  1
  Os  Os22  1  0.500000  0.500000  0.500000  1
  Os  Os23  1  0.500000  0.000000  0.500000  1
  Os  Os24  1  0.500000  0.500000  0.000000  1
  Ru  Ru25  1  0.000000  0.000000  0.000000  1
  Ru  Ru26  1  0.000000  0.500000  0.500000  1
  Ru  Ru27  1  0.000000  0.500000  0.000000  1
  Ru  Ru28  1  0.500000  0.000000  0.000000  1
  Au  Au29  1  0.000000  0.000000  0.500000  1
