# generated using pymatgen
data_Nd7Er9(LuSi4)4
_symmetry_space_group_name_H-M   'P 1'
_cell_length_a   7.67903390
_cell_length_b   7.68518215
_cell_length_c   14.18068637
_cell_angle_alpha   89.99940857
_cell_angle_beta   89.83826514
_cell_angle_gamma   90.07953281
_symmetry_Int_Tables_number   1
_chemical_formula_structural   Nd7Er9(LuSi4)4
_chemical_formula_sum   'Nd7 Er9 Lu4 Si16'
_cell_volume   836.86586393
_cell_formula_units_Z   1
loop_
 _symmetry_equiv_pos_site_id
 _symmetry_equiv_pos_as_xyz
  1  'x, y, z'
loop_
 _atom_site_type_symbol
 _atom_site_label
 _atom_site_symmetry_multiplicity
 _atom_site_fract_x
 _atom_site_fract_y
 _atom_site_fract_z
 _atom_site_occupancy
  Nd  Nd0  1  0.358351  0.007780  0.958723  1
  Nd  Nd1  1  0.991811  0.643333  0.539959  1
  Nd  Nd2  1  0.489816  0.858102  0.210501  1
  Nd  Nd3  1  0.510094  0.139243  0.707525  1
  Nd  Nd4  1  0.860181  0.489687  0.791223  1
  Nd  Nd5  1  0.139425  0.509535  0.292450  1
  Nd  Nd6  1  0.007709  0.358033  0.042225  1
  Er  Er7  1  0.491646  0.360993  0.124881  1
  Er  Er8  1  0.992003  0.136229  0.624149  1
  Er  Er9  1  0.862164  0.008048  0.874794  1
  Er  Er10  1  0.137254  0.993559  0.375082  1
  Er  Er11  1  0.511508  0.640078  0.622433  1
  Er  Er12  1  0.361074  0.491330  0.875349  1
  Er  Er13  1  0.639881  0.509751  0.376312  1
  Er  Er14  1  0.006214  0.861512  0.126925  1
  Er  Er15  1  0.635373  0.996248  0.456042  1
  Lu  Lu16  1  0.317189  0.316787  0.499659  1
  Lu  Lu17  1  0.185326  0.816024  0.749060  1
  Lu  Lu18  1  0.814096  0.183163  0.250519  1
  Lu  Lu19  1  0.683219  0.682106  0.000488  1
  Si  Si20  1  0.293398  0.939361  0.560666  1
  Si  Si21  1  0.709828  0.062451  0.062698  1
  Si  Si22  1  0.933275  0.287105  0.437378  1
  Si  Si23  1  0.438404  0.210117  0.313575  1
  Si  Si24  1  0.564578  0.787439  0.812338  1
  Si  Si25  1  0.212930  0.436900  0.686748  1
  Si  Si26  1  0.787496  0.564489  0.188445  1
  Si  Si27  1  0.064319  0.710913  0.938143  1
  Si  Si28  1  0.800671  0.843801  0.691214  1
  Si  Si29  1  0.202227  0.153366  0.189603  1
  Si  Si30  1  0.842892  0.802524  0.314950  1
  Si  Si31  1  0.350681  0.707115  0.437265  1
  Si  Si32  1  0.653085  0.296468  0.939567  1
  Si  Si33  1  0.700709  0.341699  0.558566  1
  Si  Si34  1  0.296545  0.653478  0.061168  1
  Si  Si35  1  0.154624  0.201235  0.809377  1
