# generated using pymatgen
data_LiAc2As4Ir3
_symmetry_space_group_name_H-M   'P 1'
_cell_length_a   4.47752300
_cell_length_b   4.47752300
_cell_length_c   10.01775300
_cell_angle_alpha   90.00000000
_cell_angle_beta   90.00000000
_cell_angle_gamma   90.00000000
_symmetry_Int_Tables_number   1
_chemical_formula_structural   LiAc2As4Ir3
_chemical_formula_sum   'Li1 Ac2 As4 Ir3'
_cell_volume   200.83803807
_cell_formula_units_Z   1
loop_
 _symmetry_equiv_pos_site_id
 _symmetry_equiv_pos_as_xyz
  1  'x, y, z'
loop_
 _atom_site_type_symbol
 _atom_site_label
 _atom_site_symmetry_multiplicity
 _atom_site_fract_x
 _atom_site_fract_y
 _atom_site_fract_z
 _atom_site_occupancy
  Li  Li0  1  0.000000  0.000000  0.500000  1
  Ac  Ac1  1  0.000000  0.500000  0.246472  1
  Ac  Ac2  1  0.500000  0.000000  0.753528  1
  As  As3  1  0.000000  0.000000  0.000000  1
  As  As4  1  0.500000  0.500000  0.000000  1
  As  As5  1  0.000000  0.500000  0.631788  1
  As  As6  1  0.500000  0.000000  0.368212  1
  Ir  Ir7  1  0.500000  0.500000  0.500000  1
  Ir  Ir8  1  0.000000  0.500000  0.886837  1
  Ir  Ir9  1  0.500000  0.000000  0.113163  1
