# generated using pymatgen
data_Lu12Ni4SnHg
_symmetry_space_group_name_H-M   'P 1'
_cell_length_a   8.20128107
_cell_length_b   8.20128092
_cell_length_c   8.20128156
_cell_angle_alpha   112.68558436
_cell_angle_beta   109.69350688
_cell_angle_gamma   106.10136267
_symmetry_Int_Tables_number   1
_chemical_formula_structural   Lu12Ni4SnHg
_chemical_formula_sum   'Lu12 Ni4 Sn1 Hg1'
_cell_volume   423.24111413
_cell_formula_units_Z   1
loop_
 _symmetry_equiv_pos_site_id
 _symmetry_equiv_pos_as_xyz
  1  'x, y, z'
loop_
 _atom_site_type_symbol
 _atom_site_label
 _atom_site_symmetry_multiplicity
 _atom_site_fract_x
 _atom_site_fract_y
 _atom_site_fract_z
 _atom_site_occupancy
  Lu  Lu0  1  0.674386  0.866784  0.192397  1
  Lu  Lu1  1  0.325614  0.518011  0.192397  1
  Lu  Lu2  1  0.818043  0.790437  0.608481  1
  Lu  Lu3  1  0.181957  0.790437  0.972394  1
  Lu  Lu4  1  0.818043  0.209563  0.027606  1
  Lu  Lu5  1  0.181957  0.209563  0.391519  1
  Lu  Lu6  1  0.674386  0.481989  0.807603  1
  Lu  Lu7  1  0.325614  0.133216  0.807603  1
  Lu  Lu8  1  0.563307  0.267680  0.295626  1
  Lu  Lu9  1  0.436693  0.732320  0.704374  1
  Lu  Lu10  1  0.027946  0.732320  0.295626  1
  Lu  Lu11  1  0.972054  0.267680  0.704374  1
  Ni  Ni12  1  0.350501  0.500000  0.850501  1
  Ni  Ni13  1  0.649499  0.500000  0.149499  1
  Ni  Ni14  1  0.875155  0.875155  0.000000  1
  Ni  Ni15  1  0.124845  0.124845  0.000000  1
  Sn  Sn16  1  0.500000  0.000000  0.500000  1
  Hg  Hg17  1  0.000000  0.500000  0.500000  1
