# generated using pymatgen
data_Tm5Lu7In2Fe2Ru
_symmetry_space_group_name_H-M   'P 1'
_cell_length_a   8.23217080
_cell_length_b   8.23024947
_cell_length_c   8.23217163
_cell_angle_alpha   108.60836921
_cell_angle_beta   108.56147631
_cell_angle_gamma   111.26852946
_symmetry_Int_Tables_number   1
_chemical_formula_structural   Tm5Lu7In2Fe2Ru
_chemical_formula_sum   'Tm5 Lu7 In2 Fe2 Ru1'
_cell_volume   428.99015725
_cell_formula_units_Z   1
loop_
 _symmetry_equiv_pos_site_id
 _symmetry_equiv_pos_as_xyz
  1  'x, y, z'
loop_
 _atom_site_type_symbol
 _atom_site_label
 _atom_site_symmetry_multiplicity
 _atom_site_fract_x
 _atom_site_fract_y
 _atom_site_fract_z
 _atom_site_occupancy
  Tm  Tm0  1  0.307631  0.307569  0.615299  1
  Tm  Tm1  1  0.692650  0.692501  0.384865  1
  Tm  Tm2  1  0.692270  0.307569  0.999937  1
  Tm  Tm3  1  0.307635  0.692501  0.999851  1
  Tm  Tm4  1  0.192762  0.430791  0.238028  1
  Lu  Lu5  1  0.807353  0.569632  0.762280  1
  Lu  Lu6  1  0.192629  0.954816  0.762188  1
  Lu  Lu7  1  0.954721  0.192532  0.761935  1
  Lu  Lu8  1  0.807194  0.044959  0.237764  1
  Lu  Lu9  1  0.045074  0.807434  0.237780  1
  Lu  Lu10  1  0.430598  0.192532  0.237810  1
  Lu  Lu11  1  0.569653  0.807434  0.762361  1
  In  In12  1  0.999872  0.500036  0.500164  1
  In  In13  1  0.499989  0.999974  0.499985  1
  Fe  Fe14  1  0.382846  0.382770  0.999924  1
  Fe  Fe15  1  0.617285  0.617278  0.999993  1
  Ru  Ru16  1  0.999839  0.999673  0.999835  1
