# generated using pymatgen
data_Ca3Sc(Si4Tc3)2
_symmetry_space_group_name_H-M   'P 1'
_cell_length_a   6.76961600
_cell_length_b   6.80733595
_cell_length_c   12.52581417
_cell_angle_alpha   89.64266614
_cell_angle_beta   90.00000000
_cell_angle_gamma   90.00000000
_symmetry_Int_Tables_number   1
_chemical_formula_structural   Ca3Sc(Si4Tc3)2
_chemical_formula_sum   'Ca6 Sc2 Si16 Tc12'
_cell_volume   577.21649948
_cell_formula_units_Z   2
loop_
 _symmetry_equiv_pos_site_id
 _symmetry_equiv_pos_as_xyz
  1  'x, y, z'
loop_
 _atom_site_type_symbol
 _atom_site_label
 _atom_site_symmetry_multiplicity
 _atom_site_fract_x
 _atom_site_fract_y
 _atom_site_fract_z
 _atom_site_occupancy
  Ca  Ca0  1  0.491596  0.341224  0.089091  1
  Ca  Ca1  1  0.991596  0.158776  0.410909  1
  Ca  Ca2  1  0.507256  0.659701  0.589112  1
  Ca  Ca3  1  0.007256  0.840299  0.910888  1
  Ca  Ca4  1  0.506347  0.661477  0.911017  1
  Ca  Ca5  1  0.006347  0.838523  0.588983  1
  Sc  Sc6  1  0.490795  0.334693  0.402765  1
  Sc  Sc7  1  0.990795  0.165307  0.097235  1
  Si  Si8  1  0.650291  0.052728  0.549334  1
  Si  Si9  1  0.150291  0.447272  0.950666  1
  Si  Si10  1  0.340226  0.953184  0.051638  1
  Si  Si11  1  0.840226  0.546816  0.448362  1
  Si  Si12  1  0.348943  0.952830  0.447206  1
  Si  Si13  1  0.848943  0.547170  0.052794  1
  Si  Si14  1  0.654353  0.049203  0.950522  1
  Si  Si15  1  0.154353  0.450797  0.549478  1
  Si  Si16  1  0.530272  0.354993  0.752162  1
  Si  Si17  1  0.030272  0.145007  0.747838  1
  Si  Si18  1  0.473677  0.645504  0.252061  1
  Si  Si19  1  0.973677  0.854496  0.247939  1
  Si  Si20  1  0.812392  0.636802  0.750597  1
  Si  Si21  1  0.312392  0.863198  0.749403  1
  Si  Si22  1  0.189797  0.358708  0.250029  1
  Si  Si23  1  0.689797  0.141292  0.249971  1
  Tc  Tc24  1  0.823411  0.348823  0.626088  1
  Tc  Tc25  1  0.323411  0.151177  0.873912  1
  Tc  Tc26  1  0.178218  0.649493  0.127699  1
  Tc  Tc27  1  0.678218  0.850507  0.372301  1
  Tc  Tc28  1  0.176189  0.644016  0.372712  1
  Tc  Tc29  1  0.676189  0.855984  0.127288  1
  Tc  Tc30  1  0.828704  0.344274  0.876302  1
  Tc  Tc31  1  0.328704  0.155726  0.623698  1
  Tc  Tc32  1  0.673235  0.999495  0.750323  1
  Tc  Tc33  1  0.173235  0.500505  0.749677  1
  Tc  Tc34  1  0.324300  0.008008  0.250196  1
  Tc  Tc35  1  0.824300  0.491992  0.249804  1
