# generated using pymatgen
data_Tb3Ta2Nb(B2Ru5)2
_symmetry_space_group_name_H-M   'P 1'
_cell_length_a   9.62244874
_cell_length_b   9.62244855
_cell_length_c   3.12393300
_cell_angle_alpha   90.00000000
_cell_angle_beta   90.00000000
_cell_angle_gamma   90.38187604
_symmetry_Int_Tables_number   1
_chemical_formula_structural   Tb3Ta2Nb(B2Ru5)2
_chemical_formula_sum   'Tb3 Ta2 Nb1 B4 Ru10'
_cell_volume   289.24327387
_cell_formula_units_Z   1
loop_
 _symmetry_equiv_pos_site_id
 _symmetry_equiv_pos_as_xyz
  1  'x, y, z'
loop_
 _atom_site_type_symbol
 _atom_site_label
 _atom_site_symmetry_multiplicity
 _atom_site_fract_x
 _atom_site_fract_y
 _atom_site_fract_z
 _atom_site_occupancy
  Tb  Tb0  1  0.823931  0.674903  0.000000  1
  Tb  Tb1  1  0.174903  0.323931  0.000000  1
  Tb  Tb2  1  0.325656  0.825656  0.000000  1
  Ta  Ta3  1  0.498243  0.502775  0.000000  1
  Ta  Ta4  1  0.002775  0.998243  0.000000  1
  Nb  Nb5  1  0.675793  0.175793  0.000000  1
  B  B6  1  0.623533  0.881726  0.000000  1
  B  B7  1  0.381726  0.123533  0.000000  1
  B  B8  1  0.118949  0.618949  0.000000  1
  B  B9  1  0.875732  0.375732  0.000000  1
  Ru  Ru10  1  0.570948  0.722305  0.500000  1
  Ru  Ru11  1  0.441266  0.280229  0.500000  1
  Ru  Ru12  1  0.069172  0.780449  0.500000  1
  Ru  Ru13  1  0.915347  0.213241  0.500000  1
  Ru  Ru14  1  0.280449  0.569172  0.500000  1
  Ru  Ru15  1  0.713241  0.415347  0.500000  1
  Ru  Ru16  1  0.222305  0.070948  0.500000  1
  Ru  Ru17  1  0.780229  0.941266  0.500000  1
  Ru  Ru18  1  0.510037  0.010037  0.500000  1
  Ru  Ru19  1  0.995768  0.495768  0.500000  1
