# generated using pymatgen
data_Ho3Er9(IrPd)2
_symmetry_space_group_name_H-M   'P 1'
_cell_length_a   6.40770302
_cell_length_b   7.09042263
_cell_length_c   9.32624800
_cell_angle_alpha   90.00000000
_cell_angle_beta   90.00000000
_cell_angle_gamma   90.04353588
_symmetry_Int_Tables_number   1
_chemical_formula_structural   Ho3Er9(IrPd)2
_chemical_formula_sum   'Ho3 Er9 Ir2 Pd2'
_cell_volume   423.72231095
_cell_formula_units_Z   1
loop_
 _symmetry_equiv_pos_site_id
 _symmetry_equiv_pos_as_xyz
  1  'x, y, z'
loop_
 _atom_site_type_symbol
 _atom_site_label
 _atom_site_symmetry_multiplicity
 _atom_site_fract_x
 _atom_site_fract_y
 _atom_site_fract_z
 _atom_site_occupancy
  Ho  Ho0  1  0.866682  0.522077  0.250000  1
  Ho  Ho1  1  0.625965  0.036363  0.250000  1
  Ho  Ho2  1  0.133127  0.478118  0.750000  1
  Er  Er3  1  0.331069  0.677167  0.059365  1
  Er  Er4  1  0.177364  0.183359  0.438243  1
  Er  Er5  1  0.668880  0.322855  0.559592  1
  Er  Er6  1  0.822315  0.816661  0.937889  1
  Er  Er7  1  0.668880  0.322855  0.940408  1
  Er  Er8  1  0.822315  0.816661  0.562111  1
  Er  Er9  1  0.331069  0.677167  0.440635  1
  Er  Er10  1  0.177364  0.183359  0.061757  1
  Er  Er11  1  0.374063  0.963322  0.750000  1
  Ir  Ir12  1  0.451257  0.385637  0.250000  1
  Ir  Ir13  1  0.548259  0.614690  0.750000  1
  Pd  Pd14  1  0.047737  0.886059  0.250000  1
  Pd  Pd15  1  0.953651  0.113650  0.750000  1
