# generated using pymatgen
data_Sr6CoNi5N6
_symmetry_space_group_name_H-M   'P 1'
_cell_length_a   5.22990100
_cell_length_b   9.20191063
_cell_length_c   13.32710998
_cell_angle_alpha   90.04319503
_cell_angle_beta   90.00000000
_cell_angle_gamma   90.00000000
_symmetry_Int_Tables_number   1
_chemical_formula_structural   Sr6CoNi5N6
_chemical_formula_sum   'Sr12 Co2 Ni10 N12'
_cell_volume   641.36807318
_cell_formula_units_Z   2
loop_
 _symmetry_equiv_pos_site_id
 _symmetry_equiv_pos_as_xyz
  1  'x, y, z'
loop_
 _atom_site_type_symbol
 _atom_site_label
 _atom_site_symmetry_multiplicity
 _atom_site_fract_x
 _atom_site_fract_y
 _atom_site_fract_z
 _atom_site_occupancy
  Sr  Sr0  1  0.490551  0.491044  0.750380  1
  Sr  Sr1  1  0.990551  0.008956  0.249620  1
  Sr  Sr2  1  0.006731  0.991400  0.751130  1
  Sr  Sr3  1  0.506731  0.508600  0.248870  1
  Sr  Sr4  1  0.977532  0.332187  0.412500  1
  Sr  Sr5  1  0.477532  0.167813  0.587500  1
  Sr  Sr6  1  0.523236  0.832214  0.087378  1
  Sr  Sr7  1  0.023236  0.667786  0.912622  1
  Sr  Sr8  1  0.022294  0.667583  0.587648  1
  Sr  Sr9  1  0.522294  0.832417  0.412352  1
  Sr  Sr10  1  0.480054  0.167290  0.913624  1
  Sr  Sr11  1  0.980054  0.332710  0.086376  1
  Co  Co12  1  0.461725  0.159278  0.161490  1
  Co  Co13  1  0.961725  0.340722  0.838510  1
  Ni  Ni14  1  0.038171  0.659469  0.339279  1
  Ni  Ni15  1  0.538171  0.840531  0.660721  1
  Ni  Ni16  1  0.537918  0.840483  0.838771  1
  Ni  Ni17  1  0.037918  0.659517  0.161229  1
  Ni  Ni18  1  0.959560  0.340954  0.661300  1
  Ni  Ni19  1  0.459560  0.159046  0.338700  1
  Ni  Ni20  1  0.002263  0.000466  0.000154  1
  Ni  Ni21  1  0.502263  0.499534  0.999846  1
  Ni  Ni22  1  0.498198  0.500044  0.500323  1
  Ni  Ni23  1  0.998198  0.999956  0.499677  1
  N  N24  1  0.309256  0.758595  0.749030  1
  N  N25  1  0.809256  0.741405  0.250970  1
  N  N26  1  0.188359  0.257953  0.751759  1
  N  N27  1  0.688359  0.242047  0.248241  1
  N  N28  1  0.235265  0.081213  0.424087  1
  N  N29  1  0.735265  0.418787  0.575913  1
  N  N30  1  0.265416  0.580695  0.076449  1
  N  N31  1  0.765416  0.919305  0.923551  1
  N  N32  1  0.764559  0.919772  0.577238  1
  N  N33  1  0.264559  0.580228  0.422762  1
  N  N34  1  0.738913  0.418992  0.921289  1
  N  N35  1  0.238913  0.081008  0.078711  1
