# generated using pymatgen
data_TbHoTl2(SbAu)4
_symmetry_space_group_name_H-M   'P 1'
_cell_length_a   4.58928100
_cell_length_b   4.58928044
_cell_length_c   18.30897200
_cell_angle_alpha   90.00000000
_cell_angle_beta   90.00000000
_cell_angle_gamma   120.00001122
_symmetry_Int_Tables_number   1
_chemical_formula_structural   TbHoTl2(SbAu)4
_chemical_formula_sum   'Tb1 Ho1 Tl2 Sb4 Au4'
_cell_volume   333.95180170
_cell_formula_units_Z   1
loop_
 _symmetry_equiv_pos_site_id
 _symmetry_equiv_pos_as_xyz
  1  'x, y, z'
loop_
 _atom_site_type_symbol
 _atom_site_label
 _atom_site_symmetry_multiplicity
 _atom_site_fract_x
 _atom_site_fract_y
 _atom_site_fract_z
 _atom_site_occupancy
  Tb  Tb0  1  0.000000  0.000000  0.249994  1
  Ho  Ho1  1  0.000000  0.000000  0.749995  1
  Tl  Tl2  1  0.000000  0.000000  0.500067  1
  Tl  Tl3  1  0.000000  0.000000  0.999936  1
  Sb  Sb4  1  0.333333  0.666667  0.373099  1
  Sb  Sb5  1  0.666667  0.333333  0.627577  1
  Sb  Sb6  1  0.666667  0.333333  0.872426  1
  Sb  Sb7  1  0.333333  0.666667  0.126900  1
  Au  Au8  1  0.666667  0.333333  0.334372  1
  Au  Au9  1  0.333333  0.666667  0.667304  1
  Au  Au10  1  0.333333  0.666667  0.832715  1
  Au  Au11  1  0.666667  0.333333  0.165614  1
