# generated using pymatgen
data_Dy7HoCd3SnAu8
_symmetry_space_group_name_H-M   'P 1'
_cell_length_a   8.02126050
_cell_length_b   8.01579949
_cell_length_c   7.36365502
_cell_angle_alpha   89.99549191
_cell_angle_beta   89.99239366
_cell_angle_gamma   89.96029274
_symmetry_Int_Tables_number   1
_chemical_formula_structural   Dy7HoCd3SnAu8
_chemical_formula_sum   'Dy7 Ho1 Cd3 Sn1 Au8'
_cell_volume   473.45945121
_cell_formula_units_Z   1
loop_
 _symmetry_equiv_pos_site_id
 _symmetry_equiv_pos_as_xyz
  1  'x, y, z'
loop_
 _atom_site_type_symbol
 _atom_site_label
 _atom_site_symmetry_multiplicity
 _atom_site_fract_x
 _atom_site_fract_y
 _atom_site_fract_z
 _atom_site_occupancy
  Dy  Dy0  1  0.844500  0.167584  0.500689  1
  Dy  Dy1  1  0.155185  0.832573  0.500615  1
  Dy  Dy2  1  0.332287  0.344690  0.999434  1
  Dy  Dy3  1  0.667832  0.654837  0.999347  1
  Dy  Dy4  1  0.685156  0.673684  0.500298  1
  Dy  Dy5  1  0.315313  0.326013  0.500400  1
  Dy  Dy6  1  0.173814  0.815286  0.999601  1
  Ho  Ho7  1  0.826277  0.184626  0.999632  1
  Cd  Cd8  1  0.500049  0.999974  0.250039  1
  Cd  Cd9  1  0.999913  0.499835  0.750005  1
  Cd  Cd10  1  0.499993  0.999953  0.749974  1
  Sn  Sn11  1  0.000178  0.500274  0.250062  1
  Au  Au12  1  0.621452  0.364254  0.268215  1
  Au  Au13  1  0.379375  0.635255  0.269467  1
  Au  Au14  1  0.131740  0.125255  0.768811  1
  Au  Au15  1  0.867327  0.875469  0.768796  1
  Au  Au16  1  0.375261  0.632442  0.731623  1
  Au  Au17  1  0.625339  0.367019  0.732782  1
  Au  Au18  1  0.864571  0.879535  0.230025  1
  Au  Au19  1  0.134439  0.121442  0.230181  1
