# generated using pymatgen
data_K3ScP2
_symmetry_space_group_name_H-M   'P 1'
_cell_length_a   8.93729410
_cell_length_b   8.93729499
_cell_length_c   8.93729429
_cell_angle_alpha   135.16329595
_cell_angle_beta   128.40514123
_cell_angle_gamma   70.71074565
_symmetry_Int_Tables_number   1
_chemical_formula_structural   K3ScP2
_chemical_formula_sum   'K6 Sc2 P4'
_cell_volume   386.51489479
_cell_formula_units_Z   2
loop_
 _symmetry_equiv_pos_site_id
 _symmetry_equiv_pos_as_xyz
  1  'x, y, z'
loop_
 _atom_site_type_symbol
 _atom_site_label
 _atom_site_symmetry_multiplicity
 _atom_site_fract_x
 _atom_site_fract_y
 _atom_site_fract_z
 _atom_site_occupancy
  K  K0  1  0.012521  0.809399  0.203122  1
  K  K1  1  0.500000  0.750000  0.250000  1
  K  K2  1  0.606278  0.309399  0.296878  1
  K  K3  1  0.393722  0.690601  0.703122  1
  K  K4  1  0.500000  0.250000  0.750000  1
  K  K5  1  0.987479  0.190601  0.796878  1
  Sc  Sc6  1  0.000000  0.250000  0.250000  1
  Sc  Sc7  1  0.000000  0.750000  0.750000  1
  P  P8  1  0.090769  0.406599  0.684171  1
  P  P9  1  0.909231  0.593401  0.315829  1
  P  P10  1  0.277571  0.093401  0.184171  1
  P  P11  1  0.722429  0.906599  0.815829  1
