# generated using pymatgen
data_Li2NiF5
_symmetry_space_group_name_H-M   'P 1'
_cell_length_a   5.00605704
_cell_length_b   10.42079866
_cell_length_c   7.51941225
_cell_angle_alpha   76.25311581
_cell_angle_beta   70.55902252
_cell_angle_gamma   103.88175626
_symmetry_Int_Tables_number   1
_chemical_formula_structural   Li2NiF5
_chemical_formula_sum   'Li8 Ni4 F20'
_cell_volume   336.80970728
_cell_formula_units_Z   4
loop_
 _symmetry_equiv_pos_site_id
 _symmetry_equiv_pos_as_xyz
  1  'x, y, z'
loop_
 _atom_site_type_symbol
 _atom_site_label
 _atom_site_symmetry_multiplicity
 _atom_site_fract_x
 _atom_site_fract_y
 _atom_site_fract_z
 _atom_site_occupancy
  Li  Li0  1  0.352848  0.729762  0.010447  1
  Li  Li1  1  0.352701  0.229573  0.510857  1
  Li  Li2  1  0.366244  0.479666  0.760305  1
  Li  Li3  1  0.366141  0.979556  0.260894  1
  Li  Li4  1  0.633682  0.520397  0.239462  1
  Li  Li5  1  0.633983  0.020436  0.739345  1
  Li  Li6  1  0.647491  0.270419  0.989036  1
  Li  Li7  1  0.646946  0.770283  0.489628  1
  Ni  Ni8  1  0.999758  0.749786  0.750323  1
  Ni  Ni9  1  0.000062  0.500042  0.499634  1
  Ni  Ni10  1  0.000145  0.250226  0.249881  1
  Ni  Ni11  1  0.999990  0.999919  0.000253  1
  F  F12  1  0.816504  0.875008  0.875223  1
  F  F13  1  0.816729  0.375268  0.374515  1
  F  F14  1  0.183565  0.124883  0.125244  1
  F  F15  1  0.182720  0.624796  0.625022  1
  F  F16  1  0.231789  0.893131  0.065406  1
  F  F17  1  0.232019  0.393272  0.564496  1
  F  F18  1  0.596224  0.643265  0.815210  1
  F  F19  1  0.596826  0.143388  0.315076  1
  F  F20  1  0.403839  0.356826  0.184672  1
  F  F21  1  0.402988  0.856550  0.685471  1
  F  F22  1  0.768418  0.106721  0.935096  1
  F  F23  1  0.768197  0.606748  0.434692  1
  F  F24  1  0.973426  0.643515  0.999736  1
  F  F25  1  0.973559  0.143513  0.499842  1
  F  F26  1  0.329717  0.606435  0.250164  1
  F  F27  1  0.330029  0.106518  0.750240  1
  F  F28  1  0.670190  0.393417  0.749350  1
  F  F29  1  0.670225  0.893522  0.250036  1
  F  F30  1  0.026776  0.356539  0.999954  1
  F  F31  1  0.026269  0.856622  0.500488  1
