# generated using pymatgen
data_Sm3Th(Si5Os3)2
_symmetry_space_group_name_H-M   'P 1'
_cell_length_a   8.19612482
_cell_length_b   8.18804527
_cell_length_c   5.87597560
_cell_angle_alpha   70.41844160
_cell_angle_beta   70.49906029
_cell_angle_gamma   93.79471363
_symmetry_Int_Tables_number   1
_chemical_formula_structural   Sm3Th(Si5Os3)2
_chemical_formula_sum   'Sm3 Th1 Si10 Os6'
_cell_volume   343.10803095
_cell_formula_units_Z   1
loop_
 _symmetry_equiv_pos_site_id
 _symmetry_equiv_pos_as_xyz
  1  'x, y, z'
loop_
 _atom_site_type_symbol
 _atom_site_label
 _atom_site_symmetry_multiplicity
 _atom_site_fract_x
 _atom_site_fract_y
 _atom_site_fract_z
 _atom_site_occupancy
  Sm  Sm0  1  0.867868  0.602117  0.755232  1
  Sm  Sm1  1  0.396870  0.133337  0.743776  1
  Sm  Sm2  1  0.133052  0.398087  0.243783  1
  Th  Th3  1  0.601440  0.867511  0.257402  1
  Si  Si4  1  0.063434  0.260813  0.835260  1
  Si  Si5  1  0.740707  0.937708  0.663742  1
  Si  Si6  1  0.939722  0.737186  0.163857  1
  Si  Si7  1  0.259733  0.063459  0.336293  1
  Si  Si8  1  0.207262  0.792111  0.750482  1
  Si  Si9  1  0.794821  0.210650  0.249500  1
  Si  Si10  1  0.512609  0.485879  0.752421  1
  Si  Si11  1  0.485806  0.509391  0.251101  1
  Si  Si12  1  0.772447  0.230816  0.746387  1
  Si  Si13  1  0.224992  0.772639  0.250567  1
  Os  Os14  1  0.257013  0.542742  0.631058  1
  Os  Os15  1  0.458260  0.744551  0.867412  1
  Os  Os16  1  0.742507  0.458472  0.366150  1
  Os  Os17  1  0.544028  0.254174  0.132531  1
  Os  Os18  1  0.002153  0.996130  0.751546  1
  Os  Os19  1  0.995276  0.002227  0.251501  1
