# generated using pymatgen
data_Dy7Tm3(Bi2Ir)2
_symmetry_space_group_name_H-M   'P 1'
_cell_length_a   7.96294713
_cell_length_b   9.01506165
_cell_length_c   12.50214479
_cell_angle_alpha   89.95076788
_cell_angle_beta   90.15681613
_cell_angle_gamma   90.07320764
_symmetry_Int_Tables_number   1
_chemical_formula_structural   Dy7Tm3(Bi2Ir)2
_chemical_formula_sum   'Dy14 Tm6 Bi8 Ir4'
_cell_volume   897.48028605
_cell_formula_units_Z   2
loop_
 _symmetry_equiv_pos_site_id
 _symmetry_equiv_pos_as_xyz
  1  'x, y, z'
loop_
 _atom_site_type_symbol
 _atom_site_label
 _atom_site_symmetry_multiplicity
 _atom_site_fract_x
 _atom_site_fract_y
 _atom_site_fract_z
 _atom_site_occupancy
  Dy  Dy0  1  0.841039  0.750344  0.792931  1
  Dy  Dy1  1  0.158961  0.249656  0.207069  1
  Dy  Dy2  1  0.341818  0.249815  0.706502  1
  Dy  Dy3  1  0.658182  0.750185  0.293498  1
  Dy  Dy4  1  0.377105  0.750060  0.692296  1
  Dy  Dy5  1  0.622895  0.249940  0.307704  1
  Dy  Dy6  1  0.876573  0.249388  0.806978  1
  Dy  Dy7  1  0.123427  0.750612  0.193022  1
  Dy  Dy8  1  0.945435  0.750082  0.501616  1
  Dy  Dy9  1  0.054565  0.249918  0.498384  1
  Dy  Dy10  1  0.446214  0.249107  0.998483  1
  Dy  Dy11  1  0.553786  0.750893  0.001517  1
  Dy  Dy12  1  0.823087  0.457916  0.066072  1
  Dy  Dy13  1  0.176913  0.542084  0.933928  1
  Tm  Tm14  1  0.673237  0.041786  0.565275  1
  Tm  Tm15  1  0.326763  0.958214  0.434725  1
  Tm  Tm16  1  0.173409  0.957995  0.934642  1
  Tm  Tm17  1  0.326743  0.541777  0.434782  1
  Tm  Tm18  1  0.826591  0.042005  0.065358  1
  Tm  Tm19  1  0.673257  0.458223  0.565218  1
  Bi  Bi20  1  0.569312  0.490836  0.827133  1
  Bi  Bi21  1  0.430688  0.509164  0.172867  1
  Bi  Bi22  1  0.067999  0.509026  0.672319  1
  Bi  Bi23  1  0.431740  0.990930  0.172647  1
  Bi  Bi24  1  0.932001  0.490974  0.327681  1
  Bi  Bi25  1  0.568260  0.009070  0.827353  1
  Bi  Bi26  1  0.931776  0.009036  0.327466  1
  Bi  Bi27  1  0.068224  0.990964  0.672534  1
  Ir  Ir28  1  0.569572  0.750018  0.508596  1
  Ir  Ir29  1  0.430428  0.249982  0.491404  1
  Ir  Ir30  1  0.070367  0.247708  0.991060  1
  Ir  Ir31  1  0.929633  0.752292  0.008940  1
