# generated using pymatgen
data_SrP6SeO18
_symmetry_space_group_name_H-M   'P 1'
_cell_length_a   6.90902200
_cell_length_b   6.90902151
_cell_length_c   10.57306600
_cell_angle_alpha   90.00000000
_cell_angle_beta   90.00000000
_cell_angle_gamma   120.00000235
_symmetry_Int_Tables_number   1
_chemical_formula_structural   SrP6SeO18
_chemical_formula_sum   'Sr1 P6 Se1 O18'
_cell_volume   437.08377456
_cell_formula_units_Z   1
loop_
 _symmetry_equiv_pos_site_id
 _symmetry_equiv_pos_as_xyz
  1  'x, y, z'
loop_
 _atom_site_type_symbol
 _atom_site_label
 _atom_site_symmetry_multiplicity
 _atom_site_fract_x
 _atom_site_fract_y
 _atom_site_fract_z
 _atom_site_occupancy
  Sr  Sr0  1  0.000000  0.000000  0.500000  1
  P  P1  1  0.730617  0.125474  0.782045  1
  P  P2  1  0.874526  0.269383  0.217955  1
  P  P3  1  0.730617  0.605145  0.217955  1
  P  P4  1  0.874526  0.605145  0.782045  1
  P  P5  1  0.394855  0.269383  0.782045  1
  P  P6  1  0.394855  0.125474  0.217955  1
  Se  Se7  1  0.000000  0.000000  0.000000  1
  O  O8  1  0.899207  0.510965  0.192559  1
  O  O9  1  0.899207  0.388243  0.807441  1
  O  O10  1  0.489035  0.100793  0.807441  1
  O  O11  1  0.611757  0.100793  0.192559  1
  O  O12  1  0.754201  0.058538  0.652681  1
  O  O13  1  0.754139  0.995791  0.893157  1
  O  O14  1  0.489035  0.388243  0.192559  1
  O  O15  1  0.754201  0.695664  0.347319  1
  O  O16  1  0.754139  0.758347  0.106843  1
  O  O17  1  0.611757  0.510965  0.807441  1
  O  O18  1  0.941462  0.245799  0.347319  1
  O  O19  1  0.004209  0.245861  0.106843  1
  O  O20  1  0.241653  0.245861  0.893157  1
  O  O21  1  0.304336  0.245799  0.652681  1
  O  O22  1  0.004209  0.758347  0.893157  1
  O  O23  1  0.941462  0.695664  0.652681  1
  O  O24  1  0.241653  0.995791  0.106843  1
  O  O25  1  0.304336  0.058538  0.347319  1
