# generated using pymatgen
data_Nd2Al2NiIr
_symmetry_space_group_name_H-M   'P 1'
_cell_length_a   4.36259300
_cell_length_b   6.98568978
_cell_length_c   7.96239501
_cell_angle_alpha   88.65419933
_cell_angle_beta   90.00000000
_cell_angle_gamma   90.00000000
_symmetry_Int_Tables_number   1
_chemical_formula_structural   Nd2Al2NiIr
_chemical_formula_sum   'Nd4 Al4 Ni2 Ir2'
_cell_volume   242.59279494
_cell_formula_units_Z   2
loop_
 _symmetry_equiv_pos_site_id
 _symmetry_equiv_pos_as_xyz
  1  'x, y, z'
loop_
 _atom_site_type_symbol
 _atom_site_label
 _atom_site_symmetry_multiplicity
 _atom_site_fract_x
 _atom_site_fract_y
 _atom_site_fract_z
 _atom_site_occupancy
  Nd  Nd0  1  0.250000  0.538156  0.175692  1
  Nd  Nd1  1  0.750000  0.461844  0.824308  1
  Nd  Nd2  1  0.750000  0.963110  0.681996  1
  Nd  Nd3  1  0.250000  0.036890  0.318004  1
  Al  Al4  1  0.250000  0.636199  0.561081  1
  Al  Al5  1  0.750000  0.363801  0.438919  1
  Al  Al6  1  0.750000  0.864167  0.060302  1
  Al  Al7  1  0.250000  0.135833  0.939698  1
  Ni  Ni8  1  0.250000  0.779884  0.882053  1
  Ni  Ni9  1  0.750000  0.220116  0.117947  1
  Ir  Ir10  1  0.750000  0.728832  0.381033  1
  Ir  Ir11  1  0.250000  0.271168  0.618967  1
