# generated using pymatgen
data_Ce16Nd(Al3Zn)3
_symmetry_space_group_name_H-M   'P 1'
_cell_length_a   9.57378150
_cell_length_b   9.57378113
_cell_length_c   9.57107522
_cell_angle_alpha   109.58642547
_cell_angle_beta   109.58642922
_cell_angle_gamma   109.29884771
_symmetry_Int_Tables_number   1
_chemical_formula_structural   Ce16Nd(Al3Zn)3
_chemical_formula_sum   'Ce16 Nd1 Al9 Zn3'
_cell_volume   674.82573685
_cell_formula_units_Z   1
loop_
 _symmetry_equiv_pos_site_id
 _symmetry_equiv_pos_as_xyz
  1  'x, y, z'
loop_
 _atom_site_type_symbol
 _atom_site_label
 _atom_site_symmetry_multiplicity
 _atom_site_fract_x
 _atom_site_fract_y
 _atom_site_fract_z
 _atom_site_occupancy
  Ce  Ce0  1  0.998118  0.373844  0.002014  1
  Ce  Ce1  1  0.304002  0.582606  0.999684  1
  Ce  Ce2  1  0.373844  0.998118  0.002014  1
  Ce  Ce3  1  0.582606  0.304002  0.999684  1
  Ce  Ce4  1  0.418081  0.418081  0.723993  1
  Ce  Ce5  1  0.695632  0.280801  0.697328  1
  Ce  Ce6  1  0.280801  0.695632  0.697328  1
  Ce  Ce7  1  0.624726  0.624726  0.620132  1
  Ce  Ce8  1  0.000732  0.305887  0.585985  1
  Ce  Ce9  1  0.305887  0.000732  0.585985  1
  Ce  Ce10  1  0.719986  0.415438  0.414176  1
  Ce  Ce11  1  0.415438  0.719986  0.414176  1
  Ce  Ce12  1  0.004256  0.004256  0.378171  1
  Ce  Ce13  1  0.999186  0.585323  0.303676  1
  Ce  Ce14  1  0.585323  0.999186  0.303676  1
  Ce  Ce15  1  0.693927  0.693927  0.275265  1
  Nd  Nd16  1  0.998137  0.998137  0.999379  1
  Al  Al17  1  0.998222  0.641397  0.820332  1
  Al  Al18  1  0.641397  0.998222  0.820332  1
  Al  Al19  1  0.001445  0.821874  0.642344  1
  Al  Al20  1  0.821874  0.001445  0.642344  1
  Al  Al21  1  0.359138  0.179010  0.358727  1
  Al  Al22  1  0.179010  0.359138  0.358727  1
  Al  Al23  1  0.820974  0.178240  0.179554  1
  Al  Al24  1  0.178240  0.820974  0.179554  1
  Al  Al25  1  0.355734  0.355734  0.174499  1
  Zn  Zn26  1  0.821073  0.644565  0.999627  1
  Zn  Zn27  1  0.644565  0.821073  0.999627  1
  Zn  Zn28  1  0.177645  0.177645  0.821667  1
