# generated using pymatgen
data_Ag3As2O7
_symmetry_space_group_name_H-M   'P 1'
_cell_length_a   8.95834735
_cell_length_b   8.96250580
_cell_length_c   8.94866135
_cell_angle_alpha   61.94813350
_cell_angle_beta   61.97417142
_cell_angle_gamma   39.01664952
_symmetry_Int_Tables_number   1
_chemical_formula_structural   Ag3As2O7
_chemical_formula_sum   'Ag6 As4 O14'
_cell_volume   392.05720377
_cell_formula_units_Z   2
loop_
 _symmetry_equiv_pos_site_id
 _symmetry_equiv_pos_as_xyz
  1  'x, y, z'
loop_
 _atom_site_type_symbol
 _atom_site_label
 _atom_site_symmetry_multiplicity
 _atom_site_fract_x
 _atom_site_fract_y
 _atom_site_fract_z
 _atom_site_occupancy
  Ag  Ag0  1  0.000000  0.000000  0.500000  1
  Ag  Ag1  1  0.000000  0.000000  0.000000  1
  Ag  Ag2  1  0.415859  0.061048  0.713147  1
  Ag  Ag3  1  0.584141  0.938952  0.286853  1
  Ag  Ag4  1  0.938303  0.584485  0.786966  1
  Ag  Ag5  1  0.061697  0.415515  0.213034  1
  As  As6  1  0.532451  0.250735  0.856487  1
  As  As7  1  0.467549  0.749265  0.143513  1
  As  As8  1  0.749515  0.467393  0.643276  1
  As  As9  1  0.250485  0.532607  0.356724  1
  O  O10  1  0.496564  0.503340  0.749881  1
  O  O11  1  0.503436  0.496660  0.250119  1
  O  O12  1  0.677770  0.100427  0.024813  1
  O  O13  1  0.322230  0.899573  0.975187  1
  O  O14  1  0.899578  0.322200  0.475052  1
  O  O15  1  0.100422  0.677800  0.524948  1
  O  O16  1  0.690928  0.077808  0.706415  1
  O  O17  1  0.309072  0.922192  0.293585  1
  O  O18  1  0.922548  0.308923  0.793441  1
  O  O19  1  0.077452  0.691077  0.206559  1
  O  O20  1  0.629188  0.750348  0.566041  1
  O  O21  1  0.370812  0.249652  0.433959  1
  O  O22  1  0.249662  0.370714  0.933521  1
  O  O23  1  0.750338  0.629286  0.066479  1
