# generated using pymatgen
data_Er3Cd2In3Os
_symmetry_space_group_name_H-M   'P 1'
_cell_length_a   8.22836700
_cell_length_b   8.22836897
_cell_length_c   3.62737900
_cell_angle_alpha   90.00000000
_cell_angle_beta   90.00000000
_cell_angle_gamma   119.99998696
_symmetry_Int_Tables_number   1
_chemical_formula_structural   Er3Cd2In3Os
_chemical_formula_sum   'Er3 Cd2 In3 Os1'
_cell_volume   212.69194117
_cell_formula_units_Z   1
loop_
 _symmetry_equiv_pos_site_id
 _symmetry_equiv_pos_as_xyz
  1  'x, y, z'
loop_
 _atom_site_type_symbol
 _atom_site_label
 _atom_site_symmetry_multiplicity
 _atom_site_fract_x
 _atom_site_fract_y
 _atom_site_fract_z
 _atom_site_occupancy
  Er  Er0  1  0.044196  0.631257  0.500000  1
  Er  Er1  1  0.368743  0.412939  0.500000  1
  Er  Er2  1  0.587061  0.955804  0.500000  1
  Cd  Cd3  1  0.666667  0.333333  0.000000  1
  Cd  Cd4  1  0.000000  0.000000  0.500000  1
  In  In5  1  0.291705  0.004859  0.000000  1
  In  In6  1  0.713154  0.708295  0.000000  1
  In  In7  1  0.995141  0.286846  0.000000  1
  Os  Os8  1  0.333333  0.666667  0.000000  1
