# generated using pymatgen
data_Ce10Bi3Ru2Pb3
_symmetry_space_group_name_H-M   'P 1'
_cell_length_a   6.43906400
_cell_length_b   9.67866702
_cell_length_c   9.67883094
_cell_angle_alpha   119.99944084
_cell_angle_beta   90.00108996
_cell_angle_gamma   89.99781629
_symmetry_Int_Tables_number   1
_chemical_formula_structural   Ce10Bi3Ru2Pb3
_chemical_formula_sum   'Ce10 Bi3 Ru2 Pb3'
_cell_volume   522.38930008
_cell_formula_units_Z   1
loop_
 _symmetry_equiv_pos_site_id
 _symmetry_equiv_pos_as_xyz
  1  'x, y, z'
loop_
 _atom_site_type_symbol
 _atom_site_label
 _atom_site_symmetry_multiplicity
 _atom_site_fract_x
 _atom_site_fract_y
 _atom_site_fract_z
 _atom_site_occupancy
  Ce  Ce0  1  0.502984  0.333355  0.666621  1
  Ce  Ce1  1  0.502984  0.666734  0.333379  1
  Ce  Ce2  1  0.996952  0.666703  0.333356  1
  Ce  Ce3  1  0.996952  0.333346  0.666644  1
  Ce  Ce4  1  0.749950  0.240574  0.000000  1
  Ce  Ce5  1  0.749987  0.759426  0.759452  1
  Ce  Ce6  1  0.749987  0.999974  0.240548  1
  Ce  Ce7  1  0.250064  0.760488  0.000000  1
  Ce  Ce8  1  0.250035  0.239481  0.239525  1
  Ce  Ce9  1  0.250035  0.999955  0.760475  1
  Bi  Bi10  1  0.250046  0.393794  0.000000  1
  Bi  Bi11  1  0.250046  0.606250  0.606248  1
  Bi  Bi12  1  0.250046  0.000001  0.393752  1
  Ru  Ru13  1  0.500710  0.999973  0.000000  1
  Ru  Ru14  1  0.999348  0.999953  0.000000  1
  Pb  Pb15  1  0.749960  0.607762  0.000000  1
  Pb  Pb16  1  0.749958  0.392211  0.392193  1
  Pb  Pb17  1  0.749958  0.000019  0.607807  1
