# generated using pymatgen
data_TbSm2(DyRh6)3
_symmetry_space_group_name_H-M   'P 1'
_cell_length_a   5.28995104
_cell_length_b   5.29141761
_cell_length_c   17.56383700
_cell_angle_alpha   89.99945862
_cell_angle_beta   90.00065113
_cell_angle_gamma   120.04972718
_symmetry_Int_Tables_number   1
_chemical_formula_structural   TbSm2(DyRh6)3
_chemical_formula_sum   'Tb1 Sm2 Dy3 Rh18'
_cell_volume   425.55518300
_cell_formula_units_Z   1
loop_
 _symmetry_equiv_pos_site_id
 _symmetry_equiv_pos_as_xyz
  1  'x, y, z'
loop_
 _atom_site_type_symbol
 _atom_site_label
 _atom_site_symmetry_multiplicity
 _atom_site_fract_x
 _atom_site_fract_y
 _atom_site_fract_z
 _atom_site_occupancy
  Tb  Tb0  1  0.333324  0.666668  0.957856  1
  Sm  Sm1  1  0.333335  0.666666  0.749987  1
  Sm  Sm2  1  0.666663  0.333335  0.250003  1
  Dy  Dy3  1  0.666675  0.333332  0.042178  1
  Dy  Dy4  1  0.666675  0.333331  0.457833  1
  Dy  Dy5  1  0.333327  0.666666  0.542164  1
  Rh  Rh6  1  0.167322  0.832675  0.374351  1
  Rh  Rh7  1  0.167318  0.334650  0.374364  1
  Rh  Rh8  1  0.665352  0.832681  0.374371  1
  Rh  Rh9  1  0.832682  0.167324  0.625641  1
  Rh  Rh10  1  0.832689  0.665368  0.625630  1
  Rh  Rh11  1  0.334631  0.167311  0.625623  1
  Rh  Rh12  1  0.832673  0.167328  0.874316  1
  Rh  Rh13  1  0.832680  0.665350  0.874327  1
  Rh  Rh14  1  0.334649  0.167319  0.874334  1
  Rh  Rh15  1  0.167327  0.832669  0.125675  1
  Rh  Rh16  1  0.167320  0.334652  0.125664  1
  Rh  Rh17  1  0.665351  0.832680  0.125658  1
  Rh  Rh18  1  0.333368  0.666663  0.249996  1
  Rh  Rh19  1  0.666630  0.333341  0.750008  1
  Rh  Rh20  1  0.000015  0.999991  0.250006  1
  Rh  Rh21  1  0.999991  0.000006  0.750005  1
  Rh  Rh22  1  0.000007  0.999994  0.499994  1
  Rh  Rh23  1  0.999999  0.000000  0.000016  1
