# generated using pymatgen
data_Y5Pa3(TcB6)4
_symmetry_space_group_name_H-M   'P 1'
_cell_length_a   3.71519900
_cell_length_b   9.19898688
_cell_length_c   11.54233501
_cell_angle_alpha   89.83978786
_cell_angle_beta   90.00000000
_cell_angle_gamma   90.00000000
_symmetry_Int_Tables_number   1
_chemical_formula_structural   Y5Pa3(TcB6)4
_chemical_formula_sum   'Y5 Pa3 Tc4 B24'
_cell_volume   394.47007094
_cell_formula_units_Z   1
loop_
 _symmetry_equiv_pos_site_id
 _symmetry_equiv_pos_as_xyz
  1  'x, y, z'
loop_
 _atom_site_type_symbol
 _atom_site_label
 _atom_site_symmetry_multiplicity
 _atom_site_fract_x
 _atom_site_fract_y
 _atom_site_fract_z
 _atom_site_occupancy
  Y  Y0  1  0.000000  0.677589  0.587238  1
  Y  Y1  1  0.000000  0.445609  0.125116  1
  Y  Y2  1  0.000000  0.555255  0.872928  1
  Y  Y3  1  0.000000  0.943776  0.375070  1
  Y  Y4  1  0.000000  0.053538  0.625902  1
  Pa  Pa5  1  0.000000  0.823235  0.087106  1
  Pa  Pa6  1  0.000000  0.176288  0.912281  1
  Pa  Pa7  1  0.000000  0.324996  0.413477  1
  Tc  Tc8  1  0.000000  0.138562  0.177811  1
  Tc  Tc9  1  0.000000  0.864138  0.825377  1
  Tc  Tc10  1  0.000000  0.637834  0.319238  1
  Tc  Tc11  1  0.000000  0.359064  0.678434  1
  B  B12  1  0.500000  0.053162  0.067572  1
  B  B13  1  0.500000  0.947803  0.933694  1
  B  B14  1  0.500000  0.552430  0.431709  1
  B  B15  1  0.500000  0.445679  0.566865  1
  B  B16  1  0.500000  0.247285  0.079202  1
  B  B17  1  0.500000  0.753384  0.920322  1
  B  B18  1  0.500000  0.746865  0.420567  1
  B  B19  1  0.500000  0.252954  0.579102  1
  B  B20  1  0.500000  0.292748  0.233728  1
  B  B21  1  0.500000  0.708187  0.766962  1
  B  B22  1  0.500000  0.792662  0.267020  1
  B  B23  1  0.500000  0.206780  0.733570  1
  B  B24  1  0.500000  0.134058  0.314521  1
  B  B25  1  0.500000  0.866690  0.686529  1
  B  B26  1  0.500000  0.634171  0.185525  1
  B  B27  1  0.500000  0.365774  0.813320  1
  B  B28  1  0.500000  0.483163  0.286766  1
  B  B29  1  0.500000  0.516648  0.713143  1
  B  B30  1  0.500000  0.983535  0.213922  1
  B  B31  1  0.500000  0.016424  0.786648  1
  B  B32  1  0.500000  0.114238  0.468143  1
  B  B33  1  0.500000  0.885597  0.531975  1
  B  B34  1  0.500000  0.616228  0.031786  1
  B  B35  1  0.500000  0.383651  0.967431  1
