# generated using pymatgen
data_Er5Lu5(GaSb)4
_symmetry_space_group_name_H-M   'P 1'
_cell_length_a   8.43778411
_cell_length_b   8.68956015
_cell_length_c   7.84246000
_cell_angle_alpha   90.10346077
_cell_angle_beta   90.13409659
_cell_angle_gamma   125.55808514
_symmetry_Int_Tables_number   1
_chemical_formula_structural   Er5Lu5(GaSb)4
_chemical_formula_sum   'Er5 Lu5 Ga4 Sb4'
_cell_volume   467.78434632
_cell_formula_units_Z   1
loop_
 _symmetry_equiv_pos_site_id
 _symmetry_equiv_pos_as_xyz
  1  'x, y, z'
loop_
 _atom_site_type_symbol
 _atom_site_label
 _atom_site_symmetry_multiplicity
 _atom_site_fract_x
 _atom_site_fract_y
 _atom_site_fract_z
 _atom_site_occupancy
  Er  Er0  1  0.814771  0.546920  0.172555  1
  Er  Er1  1  0.532931  0.786334  0.164893  1
  Er  Er2  1  0.187032  0.453890  0.827399  1
  Er  Er3  1  0.686615  0.953544  0.671328  1
  Er  Er4  1  0.312541  0.045314  0.329099  1
  Lu  Lu5  1  0.031913  0.282375  0.336562  1
  Lu  Lu6  1  0.966590  0.715928  0.663719  1
  Lu  Lu7  1  0.468191  0.216686  0.836645  1
  Lu  Lu8  1  0.000780  0.001017  0.999354  1
  Lu  Lu9  1  0.499343  0.498660  0.500169  1
  Ga  Ga10  1  0.374548  0.371654  0.127662  1
  Ga  Ga11  1  0.626036  0.627585  0.872576  1
  Ga  Ga12  1  0.123992  0.126854  0.626461  1
  Ga  Ga13  1  0.875383  0.871880  0.373215  1
  Sb  Sb14  1  0.785813  0.197503  0.013404  1
  Sb  Sb15  1  0.216369  0.806693  0.983358  1
  Sb  Sb16  1  0.717340  0.304804  0.515267  1
  Sb  Sb17  1  0.279810  0.692356  0.486334  1
