# generated using pymatgen
data_CaNdNp(Si3Pd10)2
_symmetry_space_group_name_H-M   'P 1'
_cell_length_a   8.74929721
_cell_length_b   8.74929601
_cell_length_c   8.74929500
_cell_angle_alpha   60.00000004
_cell_angle_beta   60.00000458
_cell_angle_gamma   59.99999633
_symmetry_Int_Tables_number   1
_chemical_formula_structural   CaNdNp(Si3Pd10)2
_chemical_formula_sum   'Ca1 Nd1 Np1 Si6 Pd20'
_cell_volume   473.59198614
_cell_formula_units_Z   1
loop_
 _symmetry_equiv_pos_site_id
 _symmetry_equiv_pos_as_xyz
  1  'x, y, z'
loop_
 _atom_site_type_symbol
 _atom_site_label
 _atom_site_symmetry_multiplicity
 _atom_site_fract_x
 _atom_site_fract_y
 _atom_site_fract_z
 _atom_site_occupancy
  Ca  Ca0  1  0.000000  0.000000  0.000000  1
  Nd  Nd1  1  0.750000  0.750000  0.750000  1
  Np  Np2  1  0.250000  0.250000  0.250000  1
  Si  Si3  1  0.734593  0.265407  0.265407  1
  Si  Si4  1  0.265407  0.734593  0.734593  1
  Si  Si5  1  0.265407  0.734593  0.265407  1
  Si  Si6  1  0.734593  0.265407  0.734593  1
  Si  Si7  1  0.265407  0.265407  0.734593  1
  Si  Si8  1  0.734593  0.734593  0.265407  1
  Pd  Pd9  1  0.345244  0.001521  0.001521  1
  Pd  Pd10  1  0.651715  0.001521  0.001521  1
  Pd  Pd11  1  0.001521  0.345244  0.651715  1
  Pd  Pd12  1  0.001521  0.651715  0.345244  1
  Pd  Pd13  1  0.001521  0.345244  0.001521  1
  Pd  Pd14  1  0.651715  0.001521  0.345244  1
  Pd  Pd15  1  0.001521  0.651715  0.001521  1
  Pd  Pd16  1  0.345244  0.001521  0.651715  1
  Pd  Pd17  1  0.001521  0.001521  0.345244  1
  Pd  Pd18  1  0.001521  0.001521  0.651715  1
  Pd  Pd19  1  0.651715  0.345244  0.001521  1
  Pd  Pd20  1  0.345244  0.651715  0.001521  1
  Pd  Pd21  1  0.382914  0.382914  0.382914  1
  Pd  Pd22  1  0.613433  0.613433  0.613433  1
  Pd  Pd23  1  0.382914  0.382914  0.851256  1
  Pd  Pd24  1  0.382914  0.851256  0.382914  1
  Pd  Pd25  1  0.613433  0.613433  0.159700  1
  Pd  Pd26  1  0.613433  0.159700  0.613433  1
  Pd  Pd27  1  0.851256  0.382914  0.382914  1
  Pd  Pd28  1  0.159700  0.613433  0.613433  1
