# generated using pymatgen
data_Ca6Zn13Rh3N
_symmetry_space_group_name_H-M   'P 1'
_cell_length_a   8.16830076
_cell_length_b   8.14057820
_cell_length_c   8.14057900
_cell_angle_alpha   109.40213660
_cell_angle_beta   109.54022614
_cell_angle_gamma   109.54021896
_symmetry_Int_Tables_number   1
_chemical_formula_structural   Ca6Zn13Rh3N
_chemical_formula_sum   'Ca6 Zn13 Rh3 N1'
_cell_volume   416.34159528
_cell_formula_units_Z   1
loop_
 _symmetry_equiv_pos_site_id
 _symmetry_equiv_pos_as_xyz
  1  'x, y, z'
loop_
 _atom_site_type_symbol
 _atom_site_label
 _atom_site_symmetry_multiplicity
 _atom_site_fract_x
 _atom_site_fract_y
 _atom_site_fract_z
 _atom_site_occupancy
  Ca  Ca0  1  0.008073  0.258933  0.258933  1
  Ca  Ca1  1  0.250859  0.000000  0.258933  1
  Ca  Ca2  1  0.749141  0.000000  0.741067  1
  Ca  Ca3  1  0.749141  0.741067  0.000000  1
  Ca  Ca4  1  0.250859  0.258933  0.000000  1
  Ca  Ca5  1  0.991927  0.741067  0.741067  1
  Zn  Zn6  1  0.500000  0.000000  0.000000  1
  Zn  Zn7  1  0.674017  0.338682  0.338682  1
  Zn  Zn8  1  0.335335  0.000000  0.661318  1
  Zn  Zn9  1  0.336047  0.672094  0.336047  1
  Zn  Zn10  1  0.336047  0.336047  0.672094  1
  Zn  Zn11  1  0.335335  0.661318  0.000000  1
  Zn  Zn12  1  0.000000  0.336047  0.663953  1
  Zn  Zn13  1  0.000000  0.663953  0.336047  1
  Zn  Zn14  1  0.663953  0.663953  0.327906  1
  Zn  Zn15  1  0.664665  0.000000  0.338682  1
  Zn  Zn16  1  0.664665  0.338682  0.000000  1
  Zn  Zn17  1  0.663953  0.327906  0.663953  1
  Zn  Zn18  1  0.325983  0.661318  0.661318  1
  Rh  Rh19  1  0.500000  0.500000  0.500000  1
  Rh  Rh20  1  0.000000  0.500000  0.000000  1
  Rh  Rh21  1  0.000000  0.000000  0.500000  1
  N  N22  1  0.000000  0.000000  0.000000  1
