# generated using pymatgen
data_Rb(SnS2)4
_symmetry_space_group_name_H-M   'P 1'
_cell_length_a   7.50221369
_cell_length_b   7.50506339
_cell_length_c   9.52194858
_cell_angle_alpha   66.90624580
_cell_angle_beta   66.89127896
_cell_angle_gamma   59.95317440
_symmetry_Int_Tables_number   1
_chemical_formula_structural   Rb(SnS2)4
_chemical_formula_sum   'Rb1 Sn4 S8'
_cell_volume   413.74663192
_cell_formula_units_Z   1
loop_
 _symmetry_equiv_pos_site_id
 _symmetry_equiv_pos_as_xyz
  1  'x, y, z'
loop_
 _atom_site_type_symbol
 _atom_site_label
 _atom_site_symmetry_multiplicity
 _atom_site_fract_x
 _atom_site_fract_y
 _atom_site_fract_z
 _atom_site_occupancy
  Rb  Rb0  1  0.000000  0.000000  0.000000  1
  Sn  Sn1  1  0.000000  0.500000  0.500000  1
  Sn  Sn2  1  0.500000  0.000000  0.500000  1
  Sn  Sn3  1  0.000000  0.000000  0.500000  1
  Sn  Sn4  1  0.500000  0.500000  0.500000  1
  S  S5  1  0.223706  0.224003  0.326514  1
  S  S6  1  0.727893  0.727487  0.325740  1
  S  S7  1  0.728581  0.217437  0.325891  1
  S  S8  1  0.217360  0.728383  0.325951  1
  S  S9  1  0.271419  0.782563  0.674109  1
  S  S10  1  0.782640  0.271617  0.674049  1
  S  S11  1  0.776294  0.775997  0.673486  1
  S  S12  1  0.272107  0.272513  0.674260  1
