# generated using pymatgen
data_TiMn3Co4
_symmetry_space_group_name_H-M   'P 1'
_cell_length_a   7.06194786
_cell_length_b   7.06194715
_cell_length_c   7.06194870
_cell_angle_alpha   33.66694404
_cell_angle_beta   33.66694932
_cell_angle_gamma   33.66694943
_symmetry_Int_Tables_number   1
_chemical_formula_structural   TiMn3Co4
_chemical_formula_sum   'Ti1 Mn3 Co4'
_cell_volume   96.42409033
_cell_formula_units_Z   1
loop_
 _symmetry_equiv_pos_site_id
 _symmetry_equiv_pos_as_xyz
  1  'x, y, z'
loop_
 _atom_site_type_symbol
 _atom_site_label
 _atom_site_symmetry_multiplicity
 _atom_site_fract_x
 _atom_site_fract_y
 _atom_site_fract_z
 _atom_site_occupancy
  Ti  Ti0  1  0.000000  0.000000  0.000000  1
  Mn  Mn1  1  0.248697  0.248697  0.248697  1
  Mn  Mn2  1  0.751303  0.751303  0.751303  1
  Mn  Mn3  1  0.500000  0.500000  0.500000  1
  Co  Co4  1  0.623900  0.623900  0.623900  1
  Co  Co5  1  0.125480  0.125480  0.125480  1
  Co  Co6  1  0.874520  0.874520  0.874520  1
  Co  Co7  1  0.376100  0.376100  0.376100  1
