# generated using pymatgen
data_Ti6FeCo9B4
_symmetry_space_group_name_H-M   'P 1'
_cell_length_a   8.43266558
_cell_length_b   8.45827255
_cell_length_c   3.04527000
_cell_angle_alpha   90.00000000
_cell_angle_beta   90.00000000
_cell_angle_gamma   89.93025104
_symmetry_Int_Tables_number   1
_chemical_formula_structural   Ti6FeCo9B4
_chemical_formula_sum   'Ti6 Fe1 Co9 B4'
_cell_volume   217.20610866
_cell_formula_units_Z   1
loop_
 _symmetry_equiv_pos_site_id
 _symmetry_equiv_pos_as_xyz
  1  'x, y, z'
loop_
 _atom_site_type_symbol
 _atom_site_label
 _atom_site_symmetry_multiplicity
 _atom_site_fract_x
 _atom_site_fract_y
 _atom_site_fract_z
 _atom_site_occupancy
  Ti  Ti0  1  0.999813  0.999851  0.000000  1
  Ti  Ti1  1  0.500803  0.499529  0.000000  1
  Ti  Ti2  1  0.828157  0.323752  0.000000  1
  Ti  Ti3  1  0.322667  0.174625  0.000000  1
  Ti  Ti4  1  0.674353  0.825541  0.000000  1
  Ti  Ti5  1  0.174656  0.674000  0.000000  1
  Fe  Fe6  1  0.071419  0.220552  0.500000  1
  Co  Co7  1  0.499322  0.999833  0.500000  1
  Co  Co8  1  0.000454  0.502373  0.500000  1
  Co  Co9  1  0.220477  0.926766  0.500000  1
  Co  Co10  1  0.778177  0.070060  0.500000  1
  Co  Co11  1  0.927712  0.780241  0.500000  1
  Co  Co12  1  0.429868  0.720700  0.500000  1
  Co  Co13  1  0.571165  0.279108  0.500000  1
  Co  Co14  1  0.720506  0.571097  0.500000  1
  Co  Co15  1  0.280769  0.430967  0.500000  1
  B  B16  1  0.619834  0.120089  0.000000  1
  B  B17  1  0.120684  0.380969  0.000000  1
  B  B18  1  0.879645  0.620176  0.000000  1
  B  B19  1  0.379520  0.879771  0.000000  1
