# generated using pymatgen
data_Ac3AgHg2Pd3
_symmetry_space_group_name_H-M   'P 1'
_cell_length_a   7.97328700
_cell_length_b   7.97328643
_cell_length_c   4.12344600
_cell_angle_alpha   90.00000000
_cell_angle_beta   90.00000000
_cell_angle_gamma   119.79571269
_symmetry_Int_Tables_number   1
_chemical_formula_structural   Ac3AgHg2Pd3
_chemical_formula_sum   'Ac3 Ag1 Hg2 Pd3'
_cell_volume   227.48671552
_cell_formula_units_Z   1
loop_
 _symmetry_equiv_pos_site_id
 _symmetry_equiv_pos_as_xyz
  1  'x, y, z'
loop_
 _atom_site_type_symbol
 _atom_site_label
 _atom_site_symmetry_multiplicity
 _atom_site_fract_x
 _atom_site_fract_y
 _atom_site_fract_z
 _atom_site_occupancy
  Ac  Ac0  1  0.399956  0.399956  0.500000  1
  Ac  Ac1  1  0.604428  0.996786  0.500000  1
  Ac  Ac2  1  0.996786  0.604428  0.500000  1
  Ag  Ag3  1  0.744371  0.744371  0.000000  1
  Hg  Hg4  1  0.256165  0.998644  0.000000  1
  Hg  Hg5  1  0.998644  0.256165  0.000000  1
  Pd  Pd6  1  0.665068  0.334324  0.000000  1
  Pd  Pd7  1  0.334324  0.665068  0.000000  1
  Pd  Pd8  1  0.000259  0.000259  0.500000  1
