# generated using pymatgen
data_Ta4MnSi4IrPt2
_symmetry_space_group_name_H-M   'P 1'
_cell_length_a   3.78479100
_cell_length_b   6.41167869
_cell_length_c   7.33323089
_cell_angle_alpha   88.77974505
_cell_angle_beta   90.00000000
_cell_angle_gamma   90.00000000
_symmetry_Int_Tables_number   1
_chemical_formula_structural   Ta4MnSi4IrPt2
_chemical_formula_sum   'Ta4 Mn1 Si4 Ir1 Pt2'
_cell_volume   177.91415819
_cell_formula_units_Z   1
loop_
 _symmetry_equiv_pos_site_id
 _symmetry_equiv_pos_as_xyz
  1  'x, y, z'
loop_
 _atom_site_type_symbol
 _atom_site_label
 _atom_site_symmetry_multiplicity
 _atom_site_fract_x
 _atom_site_fract_y
 _atom_site_fract_z
 _atom_site_occupancy
  Ta  Ta0  1  0.250000  0.514789  0.184075  1
  Ta  Ta1  1  0.750000  0.473205  0.821353  1
  Ta  Ta2  1  0.750000  0.980001  0.659927  1
  Ta  Ta3  1  0.250000  0.032525  0.337508  1
  Mn  Mn4  1  0.750000  0.357327  0.438117  1
  Si  Si5  1  0.250000  0.760106  0.871689  1
  Si  Si6  1  0.750000  0.238216  0.137984  1
  Si  Si7  1  0.750000  0.725073  0.377345  1
  Si  Si8  1  0.250000  0.273802  0.613078  1
  Ir  Ir9  1  0.250000  0.644435  0.562005  1
  Pt  Pt10  1  0.750000  0.852016  0.065377  1
  Pt  Pt11  1  0.250000  0.148506  0.931543  1
