# generated using pymatgen
data_Ba4ScMn3O12
_symmetry_space_group_name_H-M   'P 1'
_cell_length_a   5.80940315
_cell_length_b   5.80940467
_cell_length_c   10.10883791
_cell_angle_alpha   73.30106910
_cell_angle_beta   73.30106269
_cell_angle_gamma   60.00000483
_symmetry_Int_Tables_number   1
_chemical_formula_structural   Ba4ScMn3O12
_chemical_formula_sum   'Ba4 Sc1 Mn3 O12'
_cell_volume   278.72031063
_cell_formula_units_Z   1
loop_
 _symmetry_equiv_pos_site_id
 _symmetry_equiv_pos_as_xyz
  1  'x, y, z'
loop_
 _atom_site_type_symbol
 _atom_site_label
 _atom_site_symmetry_multiplicity
 _atom_site_fract_x
 _atom_site_fract_y
 _atom_site_fract_z
 _atom_site_occupancy
  Ba  Ba0  1  0.286483  0.286483  0.140552  1
  Ba  Ba1  1  0.127865  0.127865  0.616406  1
  Ba  Ba2  1  0.713517  0.713517  0.859448  1
  Ba  Ba3  1  0.872135  0.872135  0.383594  1
  Sc  Sc4  1  0.000000  0.000000  0.000000  1
  Mn  Mn5  1  0.410370  0.410370  0.768891  1
  Mn  Mn6  1  0.589630  0.589630  0.231109  1
  Mn  Mn7  1  0.500000  0.500000  0.500000  1
  O  O8  1  0.785224  0.785224  0.126464  1
  O  O9  1  0.214776  0.214776  0.873536  1
  O  O10  1  0.785224  0.303087  0.126464  1
  O  O11  1  0.837104  0.396132  0.370631  1
  O  O12  1  0.214776  0.696913  0.873536  1
  O  O13  1  0.396132  0.837104  0.370631  1
  O  O14  1  0.396132  0.396132  0.370631  1
  O  O15  1  0.603868  0.162896  0.629369  1
  O  O16  1  0.603868  0.603868  0.629369  1
  O  O17  1  0.303087  0.785224  0.126464  1
  O  O18  1  0.162896  0.603868  0.629369  1
  O  O19  1  0.696913  0.214776  0.873536  1
