# generated using pymatgen
data_Mg2MnFeB8
_symmetry_space_group_name_H-M   'P 1'
_cell_length_a   5.81177900
_cell_length_b   11.18040700
_cell_length_c   3.19755900
_cell_angle_alpha   90.00000000
_cell_angle_beta   90.00000000
_cell_angle_gamma   90.00000000
_symmetry_Int_Tables_number   1
_chemical_formula_structural   Mg2MnFeB8
_chemical_formula_sum   'Mg4 Mn2 Fe2 B16'
_cell_volume   207.77116333
_cell_formula_units_Z   2
loop_
 _symmetry_equiv_pos_site_id
 _symmetry_equiv_pos_as_xyz
  1  'x, y, z'
loop_
 _atom_site_type_symbol
 _atom_site_label
 _atom_site_symmetry_multiplicity
 _atom_site_fract_x
 _atom_site_fract_y
 _atom_site_fract_z
 _atom_site_occupancy
  Mg  Mg0  1  0.375306  0.150802  0.000000  1
  Mg  Mg1  1  0.875305  0.349198  0.000000  1
  Mg  Mg2  1  0.123930  0.651808  0.000000  1
  Mg  Mg3  1  0.623931  0.848193  0.000000  1
  Mn  Mn4  1  0.869618  0.083483  0.000000  1
  Mn  Mn5  1  0.369617  0.416517  0.000000  1
  Fe  Fe6  1  0.629753  0.584944  0.000000  1
  Fe  Fe7  1  0.129754  0.915056  0.000000  1
  B  B8  1  0.633012  0.030078  0.500000  1
  B  B9  1  0.116580  0.047871  0.500000  1
  B  B10  1  0.709195  0.185114  0.500000  1
  B  B11  1  0.019826  0.194789  0.500000  1
  B  B12  1  0.519826  0.305211  0.500000  1
  B  B13  1  0.209194  0.314886  0.500000  1
  B  B14  1  0.616579  0.452129  0.500000  1
  B  B15  1  0.133011  0.469922  0.500000  1
  B  B16  1  0.865591  0.531664  0.500000  1
  B  B17  1  0.387132  0.550583  0.500000  1
  B  B18  1  0.789090  0.684475  0.500000  1
  B  B19  1  0.480961  0.695190  0.500000  1
  B  B20  1  0.980962  0.804811  0.500000  1
  B  B21  1  0.289091  0.815525  0.500000  1
  B  B22  1  0.887133  0.949417  0.500000  1
  B  B23  1  0.365592  0.968336  0.500000  1
