# generated using pymatgen
data_Li3La4ZnPd4
_symmetry_space_group_name_H-M   'P 1'
_cell_length_a   7.39902827
_cell_length_b   4.17943600
_cell_length_c   8.69971039
_cell_angle_alpha   90.00000000
_cell_angle_beta   89.84488624
_cell_angle_gamma   90.00000000
_symmetry_Int_Tables_number   1
_chemical_formula_structural   Li3La4ZnPd4
_chemical_formula_sum   'Li3 La4 Zn1 Pd4'
_cell_volume   269.02681481
_cell_formula_units_Z   1
loop_
 _symmetry_equiv_pos_site_id
 _symmetry_equiv_pos_as_xyz
  1  'x, y, z'
loop_
 _atom_site_type_symbol
 _atom_site_label
 _atom_site_symmetry_multiplicity
 _atom_site_fract_x
 _atom_site_fract_y
 _atom_site_fract_z
 _atom_site_occupancy
  Li  Li0  1  0.631945  0.250000  0.557978  1
  Li  Li1  1  0.123482  0.250000  0.943907  1
  Li  Li2  1  0.371577  0.750000  0.443020  1
  La  La3  1  0.041894  0.250000  0.306059  1
  La  La4  1  0.551261  0.250000  0.188200  1
  La  La5  1  0.955003  0.750000  0.691777  1
  La  La6  1  0.455520  0.750000  0.809908  1
  Zn  Zn7  1  0.868838  0.750000  0.060473  1
  Pd  Pd8  1  0.246981  0.250000  0.617429  1
  Pd  Pd9  1  0.753061  0.250000  0.887402  1
  Pd  Pd10  1  0.753041  0.750000  0.380559  1
  Pd  Pd11  1  0.247397  0.750000  0.113287  1
