# generated using pymatgen
data_Ba2Nd2Mn4O11
_symmetry_space_group_name_H-M   'P 1'
_cell_length_a   3.88715700
_cell_length_b   8.24367124
_cell_length_c   8.85350045
_cell_angle_alpha   117.75198653
_cell_angle_beta   90.00001871
_cell_angle_gamma   90.00001274
_symmetry_Int_Tables_number   1
_chemical_formula_structural   Ba2Nd2Mn4O11
_chemical_formula_sum   'Ba2 Nd2 Mn4 O11'
_cell_volume   251.07128228
_cell_formula_units_Z   1
loop_
 _symmetry_equiv_pos_site_id
 _symmetry_equiv_pos_as_xyz
  1  'x, y, z'
loop_
 _atom_site_type_symbol
 _atom_site_label
 _atom_site_symmetry_multiplicity
 _atom_site_fract_x
 _atom_site_fract_y
 _atom_site_fract_z
 _atom_site_occupancy
  Ba  Ba0  1  0.500005  0.499986  0.499986  1
  Ba  Ba1  1  0.500006  0.000004  0.500006  1
  Nd  Nd2  1  0.500003  0.228383  0.000003  1
  Nd  Nd3  1  0.500005  0.771616  0.999992  1
  Mn  Mn4  1  0.999999  0.382564  0.765121  1
  Mn  Mn5  1  0.000030  0.617480  0.234938  1
  Mn  Mn6  1  0.999988  0.125049  0.250142  1
  Mn  Mn7  1  0.999941  0.874935  0.749860  1
  O  O8  1  0.499999  0.409810  0.819519  1
  O  O9  1  0.500022  0.590197  0.180481  1
  O  O10  1  0.499991  0.115188  0.230388  1
  O  O11  1  0.499952  0.884790  0.769595  1
  O  O12  1  0.000006  0.248192  0.496477  1
  O  O13  1  0.000005  0.751798  0.503519  1
  O  O14  1  0.000018  0.371115  0.207195  1
  O  O15  1  0.000001  0.628892  0.792794  1
  O  O16  1  0.000018  0.836083  0.207180  1
  O  O17  1  0.000000  0.163924  0.792806  1
  O  O18  1  0.000010  0.999993  0.999998  1
