# generated using pymatgen
data_SrY2NiIr8
_symmetry_space_group_name_H-M   'P 1'
_cell_length_a   5.31847586
_cell_length_b   5.31847494
_cell_length_c   9.17196300
_cell_angle_alpha   73.14616089
_cell_angle_beta   73.14616387
_cell_angle_gamma   60.00000480
_symmetry_Int_Tables_number   1
_chemical_formula_structural   SrY2NiIr8
_chemical_formula_sum   'Sr1 Y2 Ni1 Ir8'
_cell_volume   211.71622407
_cell_formula_units_Z   1
loop_
 _symmetry_equiv_pos_site_id
 _symmetry_equiv_pos_as_xyz
  1  'x, y, z'
loop_
 _atom_site_type_symbol
 _atom_site_label
 _atom_site_symmetry_multiplicity
 _atom_site_fract_x
 _atom_site_fract_y
 _atom_site_fract_z
 _atom_site_occupancy
  Sr  Sr0  1  0.000256  0.000256  0.999230  1
  Y  Y1  1  0.140260  0.140260  0.579221  1
  Y  Y2  1  0.861460  0.861460  0.415619  1
  Ni  Ni3  1  0.667103  0.667103  0.998689  1
  Ir  Ir4  1  0.078384  0.583065  0.755483  1
  Ir  Ir5  1  0.583065  0.583065  0.755483  1
  Ir  Ir6  1  0.583065  0.078384  0.755483  1
  Ir  Ir7  1  0.913840  0.420798  0.244566  1
  Ir  Ir8  1  0.420798  0.420798  0.244566  1
  Ir  Ir9  1  0.420798  0.913840  0.244566  1
  Ir  Ir10  1  0.331916  0.331916  0.004252  1
  Ir  Ir11  1  0.499052  0.499052  0.502842  1
