# generated using pymatgen
data_Hf3Sc5Nb12Si15P
_symmetry_space_group_name_H-M   'P 1'
_cell_length_a   6.68235948
_cell_length_b   6.86970294
_cell_length_c   13.12579667
_cell_angle_alpha   90.02422537
_cell_angle_beta   90.00581718
_cell_angle_gamma   90.07911997
_symmetry_Int_Tables_number   1
_chemical_formula_structural   Hf3Sc5Nb12Si15P
_chemical_formula_sum   'Hf3 Sc5 Nb12 Si15 P1'
_cell_volume   602.54988775
_cell_formula_units_Z   1
loop_
 _symmetry_equiv_pos_site_id
 _symmetry_equiv_pos_as_xyz
  1  'x, y, z'
loop_
 _atom_site_type_symbol
 _atom_site_label
 _atom_site_symmetry_multiplicity
 _atom_site_fract_x
 _atom_site_fract_y
 _atom_site_fract_z
 _atom_site_occupancy
  Hf  Hf0  1  0.499947  0.678124  0.593788  1
  Hf  Hf1  1  0.998840  0.825537  0.905031  1
  Hf  Hf2  1  0.499918  0.325687  0.094956  1
  Sc  Sc3  1  0.998477  0.173085  0.406336  1
  Sc  Sc4  1  0.501071  0.323338  0.407115  1
  Sc  Sc5  1  0.002010  0.172792  0.093520  1
  Sc  Sc6  1  0.498216  0.673269  0.906874  1
  Sc  Sc7  1  0.995807  0.825550  0.593501  1
  Nb  Nb8  1  0.663720  0.166822  0.621643  1
  Nb  Nb9  1  0.165215  0.328432  0.875798  1
  Nb  Nb10  1  0.336681  0.828306  0.124068  1
  Nb  Nb11  1  0.833396  0.674955  0.376912  1
  Nb  Nb12  1  0.340559  0.828827  0.377276  1
  Nb  Nb13  1  0.835033  0.672036  0.123904  1
  Nb  Nb14  1  0.664661  0.170619  0.875475  1
  Nb  Nb15  1  0.165857  0.331236  0.624044  1
  Nb  Nb16  1  0.838417  0.495638  0.750449  1
  Nb  Nb17  1  0.338499  0.004235  0.748856  1
  Nb  Nb18  1  0.162829  0.505550  0.250003  1
  Nb  Nb19  1  0.661731  0.996027  0.250393  1
  Si  Si20  1  0.169245  0.534392  0.038955  1
  Si  Si21  1  0.330224  0.034122  0.960865  1
  Si  Si22  1  0.830788  0.466164  0.539975  1
  Si  Si23  1  0.322887  0.036017  0.540104  1
  Si  Si24  1  0.829412  0.464861  0.960989  1
  Si  Si25  1  0.670924  0.965927  0.039315  1
  Si  Si26  1  0.169879  0.534642  0.460317  1
  Si  Si27  1  0.462385  0.386962  0.749352  1
  Si  Si28  1  0.960636  0.113662  0.748698  1
  Si  Si29  1  0.539086  0.612040  0.250176  1
  Si  Si30  1  0.040698  0.885554  0.250419  1
  Si  Si31  1  0.704966  0.860142  0.750432  1
  Si  Si32  1  0.206011  0.639608  0.749959  1
  Si  Si33  1  0.293873  0.139625  0.250430  1
  Si  Si34  1  0.796383  0.361301  0.250425  1
  P  P35  1  0.671721  0.964918  0.459648  1
