# generated using pymatgen
data_YLu15
_symmetry_space_group_name_H-M   'P 1'
_cell_length_a   7.08367100
_cell_length_b   7.08367072
_cell_length_c   10.93515100
_cell_angle_alpha   90.00000000
_cell_angle_beta   90.00000000
_cell_angle_gamma   119.99999665
_symmetry_Int_Tables_number   1
_chemical_formula_structural   YLu15
_chemical_formula_sum   'Y1 Lu15'
_cell_volume   475.19534531
_cell_formula_units_Z   1
loop_
 _symmetry_equiv_pos_site_id
 _symmetry_equiv_pos_as_xyz
  1  'x, y, z'
loop_
 _atom_site_type_symbol
 _atom_site_label
 _atom_site_symmetry_multiplicity
 _atom_site_fract_x
 _atom_site_fract_y
 _atom_site_fract_z
 _atom_site_occupancy
  Y  Y0  1  0.000000  0.000000  0.500000  1
  Lu  Lu1  1  0.000000  0.000000  0.000000  1
  Lu  Lu2  1  0.003020  0.501510  0.500000  1
  Lu  Lu3  1  0.999411  0.499705  0.000000  1
  Lu  Lu4  1  0.498490  0.501510  0.500000  1
  Lu  Lu5  1  0.500295  0.499705  0.000000  1
  Lu  Lu6  1  0.498490  0.996980  0.500000  1
  Lu  Lu7  1  0.500295  0.000589  0.000000  1
  Lu  Lu8  1  0.167109  0.334218  0.248294  1
  Lu  Lu9  1  0.167109  0.334218  0.751706  1
  Lu  Lu10  1  0.167109  0.832891  0.248294  1
  Lu  Lu11  1  0.167109  0.832891  0.751706  1
  Lu  Lu12  1  0.665782  0.832891  0.248294  1
  Lu  Lu13  1  0.665782  0.832891  0.751706  1
  Lu  Lu14  1  0.666667  0.333333  0.251744  1
  Lu  Lu15  1  0.666667  0.333333  0.748256  1
