# generated using pymatgen
data_Tb11DyIn2FeTc2
_symmetry_space_group_name_H-M   'P 1'
_cell_length_a   8.46364010
_cell_length_b   8.46213310
_cell_length_c   8.46213254
_cell_angle_alpha   108.83029836
_cell_angle_beta   108.84216919
_cell_angle_gamma   110.74140667
_symmetry_Int_Tables_number   1
_chemical_formula_structural   Tb11DyIn2FeTc2
_chemical_formula_sum   'Tb11 Dy1 In2 Fe1 Tc2'
_cell_volume   466.41567675
_cell_formula_units_Z   1
loop_
 _symmetry_equiv_pos_site_id
 _symmetry_equiv_pos_as_xyz
  1  'x, y, z'
loop_
 _atom_site_type_symbol
 _atom_site_label
 _atom_site_symmetry_multiplicity
 _atom_site_fract_x
 _atom_site_fract_y
 _atom_site_fract_z
 _atom_site_occupancy
  Tb  Tb0  1  0.303073  0.303435  0.609873  1
  Tb  Tb1  1  0.693204  0.693553  0.390444  1
  Tb  Tb2  1  0.693204  0.302760  0.999651  1
  Tb  Tb3  1  0.303073  0.693200  0.999638  1
  Tb  Tb4  1  0.191564  0.432639  0.241504  1
  Tb  Tb5  1  0.805587  0.567940  0.761892  1
  Tb  Tb6  1  0.191564  0.950059  0.758925  1
  Tb  Tb7  1  0.950067  0.190874  0.759194  1
  Tb  Tb8  1  0.805587  0.043696  0.237647  1
  Tb  Tb9  1  0.043954  0.805686  0.238267  1
  Tb  Tb10  1  0.432601  0.191388  0.241211  1
  Dy  Dy11  1  0.567977  0.806095  0.761882  1
  In  In12  1  0.998206  0.498111  0.500095  1
  In  In13  1  0.497836  0.998041  0.499795  1
  Fe  Fe14  1  0.630192  0.630309  0.999883  1
  Tc  Tc15  1  0.391941  0.391878  0.000063  1
  Tc  Tc16  1  0.000374  0.000336  0.000038  1
