# generated using pymatgen
data_Ce8Zn3Si12Hg
_symmetry_space_group_name_H-M   'P 1'
_cell_length_a   8.23654900
_cell_length_b   8.23654903
_cell_length_c   8.45674400
_cell_angle_alpha   90.00000000
_cell_angle_beta   90.00000000
_cell_angle_gamma   119.99999585
_symmetry_Int_Tables_number   1
_chemical_formula_structural   Ce8Zn3Si12Hg
_chemical_formula_sum   'Ce8 Zn3 Si12 Hg1'
_cell_volume   496.84898666
_cell_formula_units_Z   1
loop_
 _symmetry_equiv_pos_site_id
 _symmetry_equiv_pos_as_xyz
  1  'x, y, z'
loop_
 _atom_site_type_symbol
 _atom_site_label
 _atom_site_symmetry_multiplicity
 _atom_site_fract_x
 _atom_site_fract_y
 _atom_site_fract_z
 _atom_site_occupancy
  Ce  Ce0  1  0.000000  0.000000  0.251256  1
  Ce  Ce1  1  0.000000  0.000000  0.748773  1
  Ce  Ce2  1  0.503086  0.496914  0.252664  1
  Ce  Ce3  1  0.503086  0.006170  0.252664  1
  Ce  Ce4  1  0.993830  0.496914  0.252664  1
  Ce  Ce5  1  0.500772  0.499228  0.747416  1
  Ce  Ce6  1  0.500772  0.001545  0.747416  1
  Ce  Ce7  1  0.998455  0.499228  0.747416  1
  Zn  Zn8  1  0.333333  0.666667  0.494555  1
  Zn  Zn9  1  0.666667  0.333333  0.505902  1
  Zn  Zn10  1  0.666667  0.333333  0.995015  1
  Si  Si11  1  0.165842  0.834158  0.500424  1
  Si  Si12  1  0.165842  0.331685  0.500424  1
  Si  Si13  1  0.668315  0.834158  0.500424  1
  Si  Si14  1  0.833923  0.166077  0.499489  1
  Si  Si15  1  0.833923  0.667845  0.499489  1
  Si  Si16  1  0.332155  0.166077  0.499489  1
  Si  Si17  1  0.831882  0.168118  0.999991  1
  Si  Si18  1  0.831882  0.663763  0.999991  1
  Si  Si19  1  0.336237  0.168118  0.999991  1
  Si  Si20  1  0.157919  0.842081  0.000037  1
  Si  Si21  1  0.157919  0.315838  0.000037  1
  Si  Si22  1  0.684162  0.842081  0.000037  1
  Hg  Hg23  1  0.333333  0.666667  0.004435  1
