# generated using pymatgen
data_Tb3YHo4(ReB6)4
_symmetry_space_group_name_H-M   'P 1'
_cell_length_a   3.68226400
_cell_length_b   9.17247700
_cell_length_c   11.56424600
_cell_angle_alpha   90.00127628
_cell_angle_beta   90.00000000
_cell_angle_gamma   90.00000000
_symmetry_Int_Tables_number   1
_chemical_formula_structural   Tb3YHo4(ReB6)4
_chemical_formula_sum   'Tb3 Y1 Ho4 Re4 B24'
_cell_volume   390.58798081
_cell_formula_units_Z   1
loop_
 _symmetry_equiv_pos_site_id
 _symmetry_equiv_pos_as_xyz
  1  'x, y, z'
loop_
 _atom_site_type_symbol
 _atom_site_label
 _atom_site_symmetry_multiplicity
 _atom_site_fract_x
 _atom_site_fract_y
 _atom_site_fract_z
 _atom_site_occupancy
  Tb  Tb0  1  0.000000  0.323450  0.413950  1
  Tb  Tb1  1  0.000000  0.676533  0.586049  1
  Tb  Tb2  1  0.000000  0.823443  0.086021  1
  Y  Y3  1  0.000000  0.176550  0.914025  1
  Ho  Ho4  1  0.000000  0.943105  0.369985  1
  Ho  Ho5  1  0.000000  0.056913  0.630018  1
  Ho  Ho6  1  0.000000  0.443109  0.129965  1
  Ho  Ho7  1  0.000000  0.556882  0.870041  1
  Re  Re8  1  0.000000  0.638809  0.320557  1
  Re  Re9  1  0.000000  0.361153  0.679488  1
  Re  Re10  1  0.000000  0.138802  0.179391  1
  Re  Re11  1  0.000000  0.861197  0.820549  1
  B  B12  1  0.500000  0.553545  0.432541  1
  B  B13  1  0.500000  0.446442  0.567457  1
  B  B14  1  0.500000  0.053478  0.067412  1
  B  B15  1  0.500000  0.946457  0.932583  1
  B  B16  1  0.500000  0.749320  0.418202  1
  B  B17  1  0.500000  0.250677  0.581798  1
  B  B18  1  0.500000  0.249361  0.081735  1
  B  B19  1  0.500000  0.750698  0.918189  1
  B  B20  1  0.500000  0.792005  0.265681  1
  B  B21  1  0.500000  0.207908  0.734333  1
  B  B22  1  0.500000  0.292026  0.234311  1
  B  B23  1  0.500000  0.707969  0.765691  1
  B  B24  1  0.500000  0.630694  0.185736  1
  B  B25  1  0.500000  0.369317  0.814290  1
  B  B26  1  0.500000  0.130713  0.314250  1
  B  B27  1  0.500000  0.869318  0.685766  1
  B  B28  1  0.500000  0.982545  0.212154  1
  B  B29  1  0.500000  0.017570  0.787853  1
  B  B30  1  0.500000  0.482533  0.287827  1
  B  B31  1  0.500000  0.517498  0.712172  1
  B  B32  1  0.500000  0.599468  0.027796  1
  B  B33  1  0.500000  0.400478  0.972179  1
  B  B34  1  0.500000  0.099422  0.472213  1
  B  B35  1  0.500000  0.900611  0.527788  1
