# generated using pymatgen
data_Tb3Er2GaSb2
_symmetry_space_group_name_H-M   'P 1'
_cell_length_a   8.83983537
_cell_length_b   8.84726223
_cell_length_c   6.38475700
_cell_angle_alpha   90.00000000
_cell_angle_beta   90.00000000
_cell_angle_gamma   120.02778133
_symmetry_Int_Tables_number   1
_chemical_formula_structural   Tb3Er2GaSb2
_chemical_formula_sum   'Tb6 Er4 Ga2 Sb4'
_cell_volume   432.32110280
_cell_formula_units_Z   2
loop_
 _symmetry_equiv_pos_site_id
 _symmetry_equiv_pos_as_xyz
  1  'x, y, z'
loop_
 _atom_site_type_symbol
 _atom_site_label
 _atom_site_symmetry_multiplicity
 _atom_site_fract_x
 _atom_site_fract_y
 _atom_site_fract_z
 _atom_site_occupancy
  Tb  Tb0  1  0.010981  0.766268  0.750000  1
  Tb  Tb1  1  0.010981  0.244712  0.250000  1
  Tb  Tb2  1  0.752270  0.753012  0.250000  1
  Tb  Tb3  1  0.752270  0.999259  0.750000  1
  Tb  Tb4  1  0.244437  0.233266  0.750000  1
  Tb  Tb5  1  0.244437  0.011171  0.250000  1
  Er  Er6  1  0.336587  0.668294  0.500000  1
  Er  Er7  1  0.653303  0.326652  0.000000  1
  Er  Er8  1  0.653303  0.326652  0.500000  1
  Er  Er9  1  0.336587  0.668294  0.000000  1
  Ga  Ga10  1  0.395558  0.997580  0.750000  1
  Ga  Ga11  1  0.395558  0.397978  0.250000  1
  Sb  Sb12  1  0.999139  0.606439  0.250000  1
  Sb  Sb13  1  0.999139  0.392699  0.750000  1
  Sb  Sb14  1  0.607725  0.606241  0.750000  1
  Sb  Sb15  1  0.607725  0.001484  0.250000  1
