# generated using pymatgen
data_Ho2Co2Ni3MoP4
_symmetry_space_group_name_H-M   'P 1'
_cell_length_a   3.72979200
_cell_length_b   10.67897907
_cell_length_c   12.37715600
_cell_angle_alpha   89.71759399
_cell_angle_beta   90.00000000
_cell_angle_gamma   90.00000000
_symmetry_Int_Tables_number   1
_chemical_formula_structural   Ho2Co2Ni3MoP4
_chemical_formula_sum   'Ho6 Co6 Ni9 Mo3 P12'
_cell_volume   492.98072362
_cell_formula_units_Z   3
loop_
 _symmetry_equiv_pos_site_id
 _symmetry_equiv_pos_as_xyz
  1  'x, y, z'
loop_
 _atom_site_type_symbol
 _atom_site_label
 _atom_site_symmetry_multiplicity
 _atom_site_fract_x
 _atom_site_fract_y
 _atom_site_fract_z
 _atom_site_occupancy
  Ho  Ho0  1  0.000000  0.513347  0.526726  1
  Ho  Ho1  1  0.500000  0.989500  0.476388  1
  Ho  Ho2  1  0.500000  0.817247  0.203718  1
  Ho  Ho3  1  0.500000  0.177375  0.198928  1
  Ho  Ho4  1  0.000000  0.682158  0.795817  1
  Ho  Ho5  1  0.000000  0.320717  0.799163  1
  Co  Co6  1  0.000000  0.500731  0.986137  1
  Co  Co7  1  0.500000  0.999630  0.013340  1
  Co  Co8  1  0.500000  0.333388  0.987911  1
  Co  Co9  1  0.500000  0.666378  0.989945  1
  Co  Co10  1  0.000000  0.166180  0.010372  1
  Co  Co11  1  0.000000  0.833271  0.010305  1
  Ni  Ni12  1  0.500000  0.699633  0.427675  1
  Ni  Ni13  1  0.000000  0.194176  0.572536  1
  Ni  Ni14  1  0.000000  0.802359  0.573387  1
  Ni  Ni15  1  0.500000  0.880793  0.712542  1
  Ni  Ni16  1  0.500000  0.124191  0.711584  1
  Ni  Ni17  1  0.000000  0.623155  0.285981  1
  Ni  Ni18  1  0.000000  0.378250  0.284278  1
  Ni  Ni19  1  0.500000  0.502723  0.705355  1
  Ni  Ni20  1  0.000000  0.996674  0.295242  1
  Mo  Mo21  1  0.500000  0.300306  0.432275  1
  Mo  Mo22  1  0.500000  0.498586  0.151432  1
  Mo  Mo23  1  0.000000  0.000195  0.847517  1
  P  P24  1  0.500000  0.317509  0.622900  1
  P  P25  1  0.500000  0.687366  0.615953  1
  P  P26  1  0.000000  0.176399  0.380853  1
  P  P27  1  0.000000  0.813139  0.384487  1
  P  P28  1  0.500000  0.501605  0.881957  1
  P  P29  1  0.000000  0.998523  0.117654  1
  P  P30  1  0.500000  0.843892  0.896432  1
  P  P31  1  0.500000  0.155924  0.896216  1
  P  P32  1  0.000000  0.656234  0.103081  1
  P  P33  1  0.000000  0.344419  0.102128  1
  P  P34  1  0.500000  0.505896  0.346400  1
  P  P35  1  0.000000  0.998131  0.653384  1
