# generated using pymatgen
data_Y24Tc7Te
_symmetry_space_group_name_H-M   'P 1'
_cell_length_a   6.29749099
_cell_length_b   9.24493300
_cell_length_c   15.19929952
_cell_angle_alpha   90.00000000
_cell_angle_beta   89.20194723
_cell_angle_gamma   90.00000000
_symmetry_Int_Tables_number   1
_chemical_formula_structural   Y24Tc7Te
_chemical_formula_sum   'Y24 Tc7 Te1'
_cell_volume   884.81559134
_cell_formula_units_Z   1
loop_
 _symmetry_equiv_pos_site_id
 _symmetry_equiv_pos_as_xyz
  1  'x, y, z'
loop_
 _atom_site_type_symbol
 _atom_site_label
 _atom_site_symmetry_multiplicity
 _atom_site_fract_x
 _atom_site_fract_y
 _atom_site_fract_z
 _atom_site_occupancy
  Y  Y0  1  0.528037  0.750000  0.354039  1
  Y  Y1  1  0.034260  0.250000  0.148019  1
  Y  Y2  1  0.461597  0.250000  0.647433  1
  Y  Y3  1  0.960145  0.750000  0.863010  1
  Y  Y4  1  0.777845  0.750000  0.110995  1
  Y  Y5  1  0.273409  0.250000  0.385247  1
  Y  Y6  1  0.222848  0.250000  0.891911  1
  Y  Y7  1  0.714499  0.750000  0.602083  1
  Y  Y8  1  0.466704  0.940461  0.802295  1
  Y  Y9  1  0.932909  0.072320  0.708052  1
  Y  Y10  1  0.558724  0.434814  0.212417  1
  Y  Y11  1  0.057486  0.565628  0.285927  1
  Y  Y12  1  0.558724  0.065186  0.212417  1
  Y  Y13  1  0.057486  0.934372  0.285927  1
  Y  Y14  1  0.466704  0.559539  0.802295  1
  Y  Y15  1  0.932909  0.427680  0.708052  1
  Y  Y16  1  0.227281  0.945125  0.518597  1
  Y  Y17  1  0.746851  0.066489  0.970846  1
  Y  Y18  1  0.746168  0.433621  0.462277  1
  Y  Y19  1  0.259666  0.563498  0.039275  1
  Y  Y20  1  0.746168  0.066379  0.462277  1
  Y  Y21  1  0.259666  0.936502  0.039275  1
  Y  Y22  1  0.227281  0.554875  0.518597  1
  Y  Y23  1  0.746851  0.433511  0.970846  1
  Tc  Tc24  1  0.924296  0.750000  0.437394  1
  Tc  Tc25  1  0.427556  0.250000  0.059839  1
  Tc  Tc26  1  0.068429  0.250000  0.554901  1
  Tc  Tc27  1  0.570705  0.750000  0.946229  1
  Tc  Tc28  1  0.355954  0.750000  0.185657  1
  Tc  Tc29  1  0.850184  0.250000  0.314726  1
  Tc  Tc30  1  0.649691  0.250000  0.816989  1
  Te  Te31  1  0.188968  0.750000  0.682151  1
