# generated using pymatgen
data_TbYb3(MgPt)4
_symmetry_space_group_name_H-M   'P 1'
_cell_length_a   7.25142585
_cell_length_b   4.19695100
_cell_length_c   8.50883700
_cell_angle_alpha   90.00000000
_cell_angle_beta   89.94445190
_cell_angle_gamma   90.00000000
_symmetry_Int_Tables_number   1
_chemical_formula_structural   TbYb3(MgPt)4
_chemical_formula_sum   'Tb1 Yb3 Mg4 Pt4'
_cell_volume   258.95679382
_cell_formula_units_Z   1
loop_
 _symmetry_equiv_pos_site_id
 _symmetry_equiv_pos_as_xyz
  1  'x, y, z'
loop_
 _atom_site_type_symbol
 _atom_site_label
 _atom_site_symmetry_multiplicity
 _atom_site_fract_x
 _atom_site_fract_y
 _atom_site_fract_z
 _atom_site_occupancy
  Tb  Tb0  1  0.463573  0.250000  0.174515  1
  Yb  Yb1  1  0.964603  0.250000  0.326347  1
  Yb  Yb2  1  0.033779  0.749999  0.674985  1
  Yb  Yb3  1  0.535414  0.749999  0.823005  1
  Mg  Mg4  1  0.135666  0.749999  0.061301  1
  Mg  Mg5  1  0.641200  0.749999  0.440284  1
  Mg  Mg6  1  0.361757  0.250000  0.563774  1
  Mg  Mg7  1  0.860680  0.250000  0.936546  1
  Pt  Pt8  1  0.754822  0.749999  0.126869  1
  Pt  Pt9  1  0.269542  0.749999  0.367783  1
  Pt  Pt10  1  0.737932  0.250000  0.626285  1
  Pt  Pt11  1  0.241034  0.250000  0.878303  1
