# generated using pymatgen
data_Li4CeTh3Si8
_symmetry_space_group_name_H-M   'P 1'
_cell_length_a   7.75377411
_cell_length_b   3.87729000
_cell_length_c   10.44026216
_cell_angle_alpha   90.00000000
_cell_angle_beta   90.01958334
_cell_angle_gamma   90.00000000
_symmetry_Int_Tables_number   1
_chemical_formula_structural   Li4CeTh3Si8
_chemical_formula_sum   'Li4 Ce1 Th3 Si8'
_cell_volume   313.87216880
_cell_formula_units_Z   1
loop_
 _symmetry_equiv_pos_site_id
 _symmetry_equiv_pos_as_xyz
  1  'x, y, z'
loop_
 _atom_site_type_symbol
 _atom_site_label
 _atom_site_symmetry_multiplicity
 _atom_site_fract_x
 _atom_site_fract_y
 _atom_site_fract_z
 _atom_site_occupancy
  Li  Li0  1  0.508842  0.750001  0.105227  1
  Li  Li1  1  0.007874  0.750001  0.394599  1
  Li  Li2  1  0.991311  0.250000  0.606801  1
  Li  Li3  1  0.491724  0.250000  0.894789  1
  Ce  Ce4  1  0.863515  0.750001  0.863203  1
  Th  Th5  1  0.136241  0.250000  0.137190  1
  Th  Th6  1  0.636530  0.250000  0.362223  1
  Th  Th7  1  0.364170  0.750001  0.637275  1
  Si  Si8  1  0.735566  0.250000  0.067238  1
  Si  Si9  1  0.836035  0.750001  0.181313  1
  Si  Si10  1  0.336705  0.750001  0.317389  1
  Si  Si11  1  0.232607  0.250000  0.430903  1
  Si  Si12  1  0.766310  0.750001  0.569644  1
  Si  Si13  1  0.664759  0.250000  0.682900  1
  Si  Si14  1  0.160639  0.250000  0.818748  1
  Si  Si15  1  0.267170  0.750001  0.930558  1
