# generated using pymatgen
data_Zr6Zn15Ag8P
_symmetry_space_group_name_H-M   'P 1'
_cell_length_a   8.93008658
_cell_length_b   8.93008550
_cell_length_c   8.93008600
_cell_angle_alpha   59.99999816
_cell_angle_beta   60.00000214
_cell_angle_gamma   59.99999745
_symmetry_Int_Tables_number   1
_chemical_formula_structural   Zr6Zn15Ag8P
_chemical_formula_sum   'Zr6 Zn15 Ag8 P1'
_cell_volume   503.56080907
_cell_formula_units_Z   1
loop_
 _symmetry_equiv_pos_site_id
 _symmetry_equiv_pos_as_xyz
  1  'x, y, z'
loop_
 _atom_site_type_symbol
 _atom_site_label
 _atom_site_symmetry_multiplicity
 _atom_site_fract_x
 _atom_site_fract_y
 _atom_site_fract_z
 _atom_site_occupancy
  Zr  Zr0  1  0.702642  0.297358  0.297358  1
  Zr  Zr1  1  0.297358  0.702642  0.702642  1
  Zr  Zr2  1  0.297358  0.702642  0.297358  1
  Zr  Zr3  1  0.702642  0.297358  0.702642  1
  Zr  Zr4  1  0.297358  0.297358  0.702642  1
  Zr  Zr5  1  0.702642  0.702642  0.297358  1
  Zn  Zn6  1  0.500000  0.000000  0.000000  1
  Zn  Zn7  1  0.000000  0.500000  0.500000  1
  Zn  Zn8  1  0.000000  0.500000  0.000000  1
  Zn  Zn9  1  0.500000  0.000000  0.500000  1
  Zn  Zn10  1  0.000000  0.000000  0.500000  1
  Zn  Zn11  1  0.500000  0.500000  0.000000  1
  Zn  Zn12  1  0.335299  0.335299  0.335299  1
  Zn  Zn13  1  0.664701  0.664701  0.664701  1
  Zn  Zn14  1  0.335299  0.335299  0.994106  1
  Zn  Zn15  1  0.335299  0.994106  0.335299  1
  Zn  Zn16  1  0.664701  0.664701  0.005894  1
  Zn  Zn17  1  0.664701  0.005894  0.664701  1
  Zn  Zn18  1  0.994106  0.335299  0.335299  1
  Zn  Zn19  1  0.005894  0.664701  0.664701  1
  Zn  Zn20  1  0.000000  0.000000  0.000000  1
  Ag  Ag21  1  0.120926  0.120926  0.120926  1
  Ag  Ag22  1  0.879074  0.879074  0.879074  1
  Ag  Ag23  1  0.120926  0.120926  0.637223  1
  Ag  Ag24  1  0.120926  0.637223  0.120926  1
  Ag  Ag25  1  0.879074  0.879074  0.362777  1
  Ag  Ag26  1  0.879074  0.362777  0.879074  1
  Ag  Ag27  1  0.637223  0.120926  0.120926  1
  Ag  Ag28  1  0.362777  0.879074  0.879074  1
  P  P29  1  0.500000  0.500000  0.500000  1
