# generated using pymatgen
data_HfZr5(GaPd)6
_symmetry_space_group_name_H-M   'P 1'
_cell_length_a   7.24322568
_cell_length_b   7.26004575
_cell_length_c   7.02210300
_cell_angle_alpha   90.00000000
_cell_angle_beta   90.00000000
_cell_angle_gamma   120.18325783
_symmetry_Int_Tables_number   1
_chemical_formula_structural   HfZr5(GaPd)6
_chemical_formula_sum   'Hf1 Zr5 Ga6 Pd6'
_cell_volume   319.20100918
_cell_formula_units_Z   1
loop_
 _symmetry_equiv_pos_site_id
 _symmetry_equiv_pos_as_xyz
  1  'x, y, z'
loop_
 _atom_site_type_symbol
 _atom_site_label
 _atom_site_symmetry_multiplicity
 _atom_site_fract_x
 _atom_site_fract_y
 _atom_site_fract_z
 _atom_site_occupancy
  Hf  Hf0  1  0.980097  0.388096  0.250000  1
  Zr  Zr1  1  0.612861  0.592789  0.250000  1
  Zr  Zr2  1  0.020762  0.407563  0.750000  1
  Zr  Zr3  1  0.407510  0.020143  0.250000  1
  Zr  Zr4  1  0.387754  0.979864  0.750000  1
  Zr  Zr5  1  0.592745  0.612182  0.750000  1
  Ga  Ga6  1  0.268812  0.268718  0.499983  1
  Ga  Ga7  1  0.730977  0.999913  0.499876  1
  Ga  Ga8  1  0.999978  0.731474  0.499442  1
  Ga  Ga9  1  0.730977  0.999913  0.000124  1
  Ga  Ga10  1  0.268812  0.268718  0.000017  1
  Ga  Ga11  1  0.999978  0.731474  0.000558  1
  Pd  Pd12  1  0.330820  0.664618  0.467756  1
  Pd  Pd13  1  0.000109  0.000135  0.750000  1
  Pd  Pd14  1  0.000177  0.002769  0.250000  1
  Pd  Pd15  1  0.330820  0.664618  0.032244  1
  Pd  Pd16  1  0.668406  0.333507  0.528864  1
  Pd  Pd17  1  0.668406  0.333507  0.971136  1
