# generated using pymatgen
data_Pb4W4O13
_symmetry_space_group_name_H-M   'P 1'
_cell_length_a   7.65353996
_cell_length_b   7.65354000
_cell_length_c   7.65353984
_cell_angle_alpha   58.89708544
_cell_angle_beta   58.89708636
_cell_angle_gamma   58.89708502
_symmetry_Int_Tables_number   1
_chemical_formula_structural   Pb4W4O13
_chemical_formula_sum   'Pb4 W4 O13'
_cell_volume   309.02924751
_cell_formula_units_Z   1
loop_
 _symmetry_equiv_pos_site_id
 _symmetry_equiv_pos_as_xyz
  1  'x, y, z'
loop_
 _atom_site_type_symbol
 _atom_site_label
 _atom_site_symmetry_multiplicity
 _atom_site_fract_x
 _atom_site_fract_y
 _atom_site_fract_z
 _atom_site_occupancy
  Pb  Pb0  1  0.621179  0.126343  0.126343  1
  Pb  Pb1  1  0.126343  0.621179  0.126343  1
  Pb  Pb2  1  0.126343  0.126343  0.621179  1
  Pb  Pb3  1  0.122589  0.122589  0.122589  1
  W  W4  1  0.625654  0.625654  0.625654  1
  W  W5  1  0.124821  0.625382  0.625382  1
  W  W6  1  0.625382  0.124821  0.625382  1
  W  W7  1  0.625382  0.625382  0.124821  1
  O  O8  1  0.295968  0.295968  0.694188  1
  O  O9  1  0.692829  0.692829  0.317848  1
  O  O10  1  0.295968  0.694188  0.295968  1
  O  O11  1  0.692829  0.317848  0.692829  1
  O  O12  1  0.694188  0.295968  0.295968  1
  O  O13  1  0.317848  0.692829  0.692829  1
  O  O14  1  0.951538  0.951538  0.561158  1
  O  O15  1  0.560160  0.560160  0.930631  1
  O  O16  1  0.951538  0.561158  0.951538  1
  O  O17  1  0.560160  0.930631  0.560160  1
  O  O18  1  0.561158  0.951538  0.951538  1
  O  O19  1  0.930631  0.560160  0.560160  1
  O  O20  1  0.997495  0.997495  0.997495  1
