# generated using pymatgen
data_Dy3YTmSi3
_symmetry_space_group_name_H-M   'P 1'
_cell_length_a   8.42152202
_cell_length_b   8.42152205
_cell_length_c   6.33876300
_cell_angle_alpha   90.00058626
_cell_angle_beta   90.00058176
_cell_angle_gamma   120.00801475
_symmetry_Int_Tables_number   1
_chemical_formula_structural   Dy3YTmSi3
_chemical_formula_sum   'Dy6 Y2 Tm2 Si6'
_cell_volume   389.29716810
_cell_formula_units_Z   2
loop_
 _symmetry_equiv_pos_site_id
 _symmetry_equiv_pos_as_xyz
  1  'x, y, z'
loop_
 _atom_site_type_symbol
 _atom_site_label
 _atom_site_symmetry_multiplicity
 _atom_site_fract_x
 _atom_site_fract_y
 _atom_site_fract_z
 _atom_site_occupancy
  Dy  Dy0  1  0.666617  0.333329  0.499958  1
  Dy  Dy1  1  0.333329  0.666617  0.499958  1
  Dy  Dy2  1  0.755989  0.755989  0.248272  1
  Dy  Dy3  1  0.244016  0.000113  0.248268  1
  Dy  Dy4  1  0.000113  0.244016  0.248268  1
  Dy  Dy5  1  0.244198  0.244198  0.751742  1
  Y  Y6  1  0.755985  0.000039  0.751767  1
  Y  Y7  1  0.000039  0.755985  0.751767  1
  Tm  Tm8  1  0.333330  0.666637  0.999995  1
  Tm  Tm9  1  0.666637  0.333330  0.999995  1
  Si  Si10  1  0.394564  0.394564  0.244947  1
  Si  Si11  1  0.605329  0.999943  0.244965  1
  Si  Si12  1  0.999943  0.605329  0.244965  1
  Si  Si13  1  0.605345  0.605345  0.755043  1
  Si  Si14  1  0.394536  0.000030  0.755046  1
  Si  Si15  1  0.000030  0.394536  0.755046  1
