# generated using pymatgen
data_PrNd5Al24(Ru3Rh)2
_symmetry_space_group_name_H-M   'P 1'
_cell_length_a   8.90813685
_cell_length_b   8.90508484
_cell_length_c   9.69406900
_cell_angle_alpha   90.00000000
_cell_angle_beta   90.00000000
_cell_angle_gamma   119.56270165
_symmetry_Int_Tables_number   1
_chemical_formula_structural   PrNd5Al24(Ru3Rh)2
_chemical_formula_sum   'Pr1 Nd5 Al24 Ru6 Rh2'
_cell_volume   668.89597955
_cell_formula_units_Z   1
loop_
 _symmetry_equiv_pos_site_id
 _symmetry_equiv_pos_as_xyz
  1  'x, y, z'
loop_
 _atom_site_type_symbol
 _atom_site_label
 _atom_site_symmetry_multiplicity
 _atom_site_fract_x
 _atom_site_fract_y
 _atom_site_fract_z
 _atom_site_occupancy
  Pr  Pr0  1  0.189486  0.383988  0.250000  1
  Nd  Nd1  1  0.810523  0.615950  0.750000  1
  Nd  Nd2  1  0.616056  0.810628  0.250000  1
  Nd  Nd3  1  0.384097  0.189510  0.750000  1
  Nd  Nd4  1  0.193949  0.806129  0.250000  1
  Nd  Nd5  1  0.806035  0.194000  0.750000  1
  Al  Al6  1  0.332501  0.667856  0.011206  1
  Al  Al7  1  0.667630  0.332383  0.988520  1
  Al  Al8  1  0.667630  0.332383  0.511480  1
  Al  Al9  1  0.332501  0.667856  0.488794  1
  Al  Al10  1  0.161380  0.324001  0.576935  1
  Al  Al11  1  0.838592  0.675953  0.423347  1
  Al  Al12  1  0.675972  0.838590  0.576687  1
  Al  Al13  1  0.838592  0.675953  0.076653  1
  Al  Al14  1  0.324127  0.161228  0.423440  1
  Al  Al15  1  0.161380  0.324001  0.923065  1
  Al  Al16  1  0.162767  0.837231  0.576217  1
  Al  Al17  1  0.324127  0.161228  0.076560  1
  Al  Al18  1  0.836965  0.162592  0.423935  1
  Al  Al19  1  0.675972  0.838590  0.923313  1
  Al  Al20  1  0.836965  0.162592  0.076065  1
  Al  Al21  1  0.162767  0.837231  0.923783  1
  Al  Al22  1  0.562021  0.125637  0.250000  1
  Al  Al23  1  0.437974  0.874373  0.750000  1
  Al  Al24  1  0.873957  0.438023  0.250000  1
  Al  Al25  1  0.125617  0.562045  0.750000  1
  Al  Al26  1  0.562752  0.437721  0.250000  1
  Al  Al27  1  0.437707  0.562355  0.750000  1
  Al  Al28  1  0.999421  0.999924  0.250000  1
  Al  Al29  1  0.000356  0.999677  0.750000  1
  Ru  Ru30  1  0.500048  0.000093  0.999949  1
  Ru  Ru31  1  0.999887  0.500121  0.999844  1
  Ru  Ru32  1  0.500048  0.000093  0.500051  1
  Ru  Ru33  1  0.999887  0.500121  0.500156  1
  Ru  Ru34  1  0.999958  0.999915  0.999913  1
  Ru  Ru35  1  0.999958  0.999915  0.500087  1
  Rh  Rh36  1  0.500200  0.500057  0.999836  1
  Rh  Rh37  1  0.500200  0.500057  0.500164  1
