# generated using pymatgen
data_Tb3Er2Si12Ir19
_symmetry_space_group_name_H-M   'P 1'
_cell_length_a   12.83686000
_cell_length_b   12.83686071
_cell_length_c   3.98539200
_cell_angle_alpha   90.00000000
_cell_angle_beta   90.00000000
_cell_angle_gamma   119.99968288
_symmetry_Int_Tables_number   1
_chemical_formula_structural   Tb3Er2Si12Ir19
_chemical_formula_sum   'Tb3 Er2 Si12 Ir19'
_cell_volume   568.74906745
_cell_formula_units_Z   1
loop_
 _symmetry_equiv_pos_site_id
 _symmetry_equiv_pos_as_xyz
  1  'x, y, z'
loop_
 _atom_site_type_symbol
 _atom_site_label
 _atom_site_symmetry_multiplicity
 _atom_site_fract_x
 _atom_site_fract_y
 _atom_site_fract_z
 _atom_site_occupancy
  Tb  Tb0  1  0.666655  0.333350  0.000000  1
  Tb  Tb1  1  0.333350  0.666655  0.000000  1
  Tb  Tb2  1  0.814841  0.814841  0.500000  1
  Er  Er3  1  0.185184  0.999997  0.500000  1
  Er  Er4  1  0.999997  0.185184  0.500000  1
  Si  Si5  1  0.688090  0.168753  0.500000  1
  Si  Si6  1  0.831301  0.519420  0.500000  1
  Si  Si7  1  0.480548  0.311871  0.500000  1
  Si  Si8  1  0.168753  0.688090  0.500000  1
  Si  Si9  1  0.519420  0.831301  0.500000  1
  Si  Si10  1  0.311871  0.480548  0.500000  1
  Si  Si11  1  0.631777  0.631777  0.000000  1
  Si  Si12  1  0.367850  0.999994  0.000000  1
  Si  Si13  1  0.999994  0.367850  0.000000  1
  Si  Si14  1  0.181098  0.181098  0.000000  1
  Si  Si15  1  0.819015  0.000380  0.000000  1
  Si  Si16  1  0.000380  0.819015  0.000000  1
  Ir  Ir17  1  0.806420  0.182567  0.000000  1
  Ir  Ir18  1  0.817597  0.623434  0.000000  1
  Ir  Ir19  1  0.376092  0.193597  0.000000  1
  Ir  Ir20  1  0.182567  0.806420  0.000000  1
  Ir  Ir21  1  0.623434  0.817597  0.000000  1
  Ir  Ir22  1  0.193597  0.376092  0.000000  1
  Ir  Ir23  1  0.446991  0.446991  0.000000  1
  Ir  Ir24  1  0.552870  0.999979  0.000000  1
  Ir  Ir25  1  0.999979  0.552870  0.000000  1
  Ir  Ir26  1  0.282401  0.282401  0.500000  1
  Ir  Ir27  1  0.717465  0.000234  0.500000  1
  Ir  Ir28  1  0.000234  0.717465  0.500000  1
  Ir  Ir29  1  0.873913  0.361586  0.500000  1
  Ir  Ir30  1  0.638302  0.512204  0.500000  1
  Ir  Ir31  1  0.487618  0.126072  0.500000  1
  Ir  Ir32  1  0.361586  0.873913  0.500000  1
  Ir  Ir33  1  0.512204  0.638302  0.500000  1
  Ir  Ir34  1  0.126072  0.487618  0.500000  1
  Ir  Ir35  1  0.000532  0.000532  0.000000  1
