# generated using pymatgen
data_Ca2Sc2ReB12Ir
_symmetry_space_group_name_H-M   'P 1'
_cell_length_a   3.53501100
_cell_length_b   9.04621234
_cell_length_c   11.44957161
_cell_angle_alpha   90.13199423
_cell_angle_beta   90.00000000
_cell_angle_gamma   90.00000000
_symmetry_Int_Tables_number   1
_chemical_formula_structural   Ca2Sc2ReB12Ir
_chemical_formula_sum   'Ca4 Sc4 Re2 B24 Ir2'
_cell_volume   366.13869797
_cell_formula_units_Z   2
loop_
 _symmetry_equiv_pos_site_id
 _symmetry_equiv_pos_as_xyz
  1  'x, y, z'
loop_
 _atom_site_type_symbol
 _atom_site_label
 _atom_site_symmetry_multiplicity
 _atom_site_fract_x
 _atom_site_fract_y
 _atom_site_fract_z
 _atom_site_occupancy
  Ca  Ca0  1  0.500000  0.320005  0.414336  1
  Ca  Ca1  1  0.500000  0.679995  0.585664  1
  Ca  Ca2  1  0.500000  0.177712  0.915583  1
  Ca  Ca3  1  0.500000  0.822288  0.084417  1
  Sc  Sc4  1  0.500000  0.441687  0.127770  1
  Sc  Sc5  1  0.500000  0.558313  0.872230  1
  Sc  Sc6  1  0.500000  0.053367  0.629481  1
  Sc  Sc7  1  0.500000  0.946633  0.370519  1
  Re  Re8  1  0.500000  0.141115  0.183482  1
  Re  Re9  1  0.500000  0.858885  0.816518  1
  B  B10  1  0.000000  0.095014  0.474712  1
  B  B11  1  0.000000  0.904986  0.525288  1
  B  B12  1  0.000000  0.404553  0.973917  1
  B  B13  1  0.000000  0.595447  0.026083  1
  B  B14  1  0.000000  0.129397  0.318411  1
  B  B15  1  0.000000  0.870603  0.681589  1
  B  B16  1  0.000000  0.370595  0.816634  1
  B  B17  1  0.000000  0.629405  0.183366  1
  B  B18  1  0.000000  0.053654  0.067467  1
  B  B19  1  0.000000  0.946346  0.932533  1
  B  B20  1  0.000000  0.444692  0.567212  1
  B  B21  1  0.000000  0.555308  0.432788  1
  B  B22  1  0.000000  0.482733  0.286780  1
  B  B23  1  0.000000  0.517267  0.713220  1
  B  B24  1  0.000000  0.019766  0.785887  1
  B  B25  1  0.000000  0.980234  0.214113  1
  B  B26  1  0.000000  0.254260  0.081576  1
  B  B27  1  0.000000  0.745740  0.918424  1
  B  B28  1  0.000000  0.246946  0.582069  1
  B  B29  1  0.000000  0.753054  0.417931  1
  B  B30  1  0.000000  0.296621  0.236136  1
  B  B31  1  0.000000  0.703379  0.763864  1
  B  B32  1  0.000000  0.206279  0.735057  1
  B  B33  1  0.000000  0.793721  0.264943  1
  Ir  Ir34  1  0.500000  0.359235  0.681346  1
  Ir  Ir35  1  0.500000  0.640765  0.318654  1
