# generated using pymatgen
data_Lu6Al24Fe5Cu2Ru
_symmetry_space_group_name_H-M   'P 1'
_cell_length_a   8.68254075
_cell_length_b   8.69119765
_cell_length_c   9.29959144
_cell_angle_alpha   90.11958325
_cell_angle_beta   90.00707225
_cell_angle_gamma   119.56245914
_symmetry_Int_Tables_number   1
_chemical_formula_structural   Lu6Al24Fe5Cu2Ru
_chemical_formula_sum   'Lu6 Al24 Fe5 Cu2 Ru1'
_cell_volume   610.40429142
_cell_formula_units_Z   1
loop_
 _symmetry_equiv_pos_site_id
 _symmetry_equiv_pos_as_xyz
  1  'x, y, z'
loop_
 _atom_site_type_symbol
 _atom_site_label
 _atom_site_symmetry_multiplicity
 _atom_site_fract_x
 _atom_site_fract_y
 _atom_site_fract_z
 _atom_site_occupancy
  Lu  Lu0  1  0.388010  0.189452  0.250869  1
  Lu  Lu1  1  0.803169  0.196667  0.250993  1
  Lu  Lu2  1  0.810577  0.612302  0.251739  1
  Lu  Lu3  1  0.611990  0.810548  0.749131  1
  Lu  Lu4  1  0.196831  0.803333  0.749007  1
  Lu  Lu5  1  0.189423  0.387698  0.748261  1
  Al  Al6  1  0.440483  0.880959  0.255112  1
  Al  Al7  1  0.115539  0.557690  0.250487  1
  Al  Al8  1  0.438416  0.560838  0.250277  1
  Al  Al9  1  0.559517  0.119041  0.744888  1
  Al  Al10  1  0.884461  0.442310  0.749513  1
  Al  Al11  1  0.561584  0.439162  0.749723  1
  Al  Al12  1  0.161341  0.837908  0.423241  1
  Al  Al13  1  0.151826  0.319694  0.423276  1
  Al  Al14  1  0.680655  0.848046  0.423935  1
  Al  Al15  1  0.838659  0.162092  0.576759  1
  Al  Al16  1  0.848174  0.680306  0.576724  1
  Al  Al17  1  0.319345  0.151954  0.576065  1
  Al  Al18  1  0.841438  0.164031  0.921894  1
  Al  Al19  1  0.848827  0.681044  0.923062  1
  Al  Al20  1  0.317898  0.154599  0.921905  1
  Al  Al21  1  0.158562  0.835969  0.078106  1
  Al  Al22  1  0.151173  0.318956  0.076938  1
  Al  Al23  1  0.682102  0.845401  0.078095  1
  Al  Al24  1  0.329141  0.670896  0.517162  1
  Al  Al25  1  0.670859  0.329104  0.482838  1
  Al  Al26  1  0.674550  0.335805  0.017295  1
  Al  Al27  1  0.325450  0.664195  0.982705  1
  Al  Al28  1  0.001217  0.998700  0.250513  1
  Al  Al29  1  0.998783  0.001300  0.749487  1
  Fe  Fe30  1  0.000000  0.000000  0.500000  1
  Fe  Fe31  1  0.000000  0.000000  0.000000  1
  Fe  Fe32  1  0.500000  0.000000  0.500000  1
  Fe  Fe33  1  0.000000  0.500000  0.500000  1
  Fe  Fe34  1  0.000000  0.500000  0.000000  1
  Cu  Cu35  1  0.500000  0.500000  0.500000  1
  Cu  Cu36  1  0.500000  0.500000  0.000000  1
  Ru  Ru37  1  0.500000  0.000000  0.000000  1
