# generated using pymatgen
data_YbHfNiP2
_symmetry_space_group_name_H-M   'P 1'
_cell_length_a   3.88720500
_cell_length_b   3.88720487
_cell_length_c   13.15206200
_cell_angle_alpha   90.00000000
_cell_angle_beta   90.00000000
_cell_angle_gamma   119.99997554
_symmetry_Int_Tables_number   1
_chemical_formula_structural   YbHfNiP2
_chemical_formula_sum   'Yb2 Hf2 Ni2 P4'
_cell_volume   172.10736736
_cell_formula_units_Z   2
loop_
 _symmetry_equiv_pos_site_id
 _symmetry_equiv_pos_as_xyz
  1  'x, y, z'
loop_
 _atom_site_type_symbol
 _atom_site_label
 _atom_site_symmetry_multiplicity
 _atom_site_fract_x
 _atom_site_fract_y
 _atom_site_fract_z
 _atom_site_occupancy
  Yb  Yb0  1  0.666667  0.333333  0.386817  1
  Yb  Yb1  1  0.333333  0.666667  0.886817  1
  Hf  Hf2  1  0.333333  0.666667  0.620130  1
  Hf  Hf3  1  0.666667  0.333333  0.120130  1
  Ni  Ni4  1  0.000000  0.000000  0.720272  1
  Ni  Ni5  1  0.000000  0.000000  0.220272  1
  P  P6  1  0.333333  0.666667  0.252030  1
  P  P7  1  0.000000  0.000000  0.020753  1
  P  P8  1  0.000000  0.000000  0.520753  1
  P  P9  1  0.666667  0.333333  0.752030  1
