# generated using pymatgen
data_Tb2TiPdF14
_symmetry_space_group_name_H-M   'P 1'
_cell_length_a   5.54814852
_cell_length_b   8.90257036
_cell_length_c   11.88978100
_cell_angle_alpha   62.70409872
_cell_angle_beta   89.76287054
_cell_angle_gamma   89.92275292
_symmetry_Int_Tables_number   1
_chemical_formula_structural   Tb2TiPdF14
_chemical_formula_sum   'Tb4 Ti2 Pd2 F28'
_cell_volume   521.87237784
_cell_formula_units_Z   2
loop_
 _symmetry_equiv_pos_site_id
 _symmetry_equiv_pos_as_xyz
  1  'x, y, z'
loop_
 _atom_site_type_symbol
 _atom_site_label
 _atom_site_symmetry_multiplicity
 _atom_site_fract_x
 _atom_site_fract_y
 _atom_site_fract_z
 _atom_site_occupancy
  Tb  Tb0  1  0.261467  0.812393  0.265096  1
  Tb  Tb1  1  0.738533  0.187607  0.734904  1
  Tb  Tb2  1  0.758617  0.186904  0.235114  1
  Tb  Tb3  1  0.241383  0.813096  0.764886  1
  Ti  Ti4  1  0.253379  0.275158  0.456472  1
  Ti  Ti5  1  0.746621  0.724842  0.543528  1
  Pd  Pd6  1  0.758020  0.725920  0.044651  1
  Pd  Pd7  1  0.241980  0.274080  0.955349  1
  F  F8  1  0.956404  0.710225  0.424289  1
  F  F9  1  0.043596  0.289775  0.575711  1
  F  F10  1  0.434570  0.300125  0.081645  1
  F  F11  1  0.565430  0.699875  0.918355  1
  F  F12  1  0.466130  0.726009  0.135724  1
  F  F13  1  0.533870  0.273991  0.864276  1
  F  F14  1  0.986470  0.264749  0.362465  1
  F  F15  1  0.013530  0.735251  0.637535  1
  F  F16  1  0.944236  0.744173  0.176932  1
  F  F17  1  0.055764  0.255827  0.823068  1
  F  F18  1  0.457082  0.252208  0.335871  1
  F  F19  1  0.542918  0.747792  0.664129  1
  F  F20  1  0.768824  0.480387  0.145587  1
  F  F21  1  0.231176  0.519613  0.854413  1
  F  F22  1  0.265448  0.512369  0.362170  1
  F  F23  1  0.734552  0.487631  0.637830  1
  F  F24  1  0.944169  0.285017  0.039174  1
  F  F25  1  0.055831  0.714983  0.960826  1
  F  F26  1  0.468378  0.715627  0.452761  1
  F  F27  1  0.531622  0.284373  0.547239  1
  F  F28  1  0.741021  0.962081  0.446669  1
  F  F29  1  0.258979  0.037919  0.553331  1
  F  F30  1  0.242618  0.028901  0.047387  1
  F  F31  1  0.757382  0.971099  0.952613  1
  F  F32  1  0.583346  0.972753  0.228019  1
  F  F33  1  0.416654  0.027247  0.771981  1
  F  F34  1  0.086486  0.031523  0.266271  1
  F  F35  1  0.913514  0.968477  0.733729  1
