# generated using pymatgen
data_Tm6Al24Ru5Pt3
_symmetry_space_group_name_H-M   'P 1'
_cell_length_a   8.77717259
_cell_length_b   8.84437311
_cell_length_c   9.48220267
_cell_angle_alpha   89.81727347
_cell_angle_beta   90.24626758
_cell_angle_gamma   120.01827098
_symmetry_Int_Tables_number   1
_chemical_formula_structural   Tm6Al24Ru5Pt3
_chemical_formula_sum   'Tm6 Al24 Ru5 Pt3'
_cell_volume   637.34890956
_cell_formula_units_Z   1
loop_
 _symmetry_equiv_pos_site_id
 _symmetry_equiv_pos_as_xyz
  1  'x, y, z'
loop_
 _atom_site_type_symbol
 _atom_site_label
 _atom_site_symmetry_multiplicity
 _atom_site_fract_x
 _atom_site_fract_y
 _atom_site_fract_z
 _atom_site_occupancy
  Tm  Tm0  1  0.801821  0.189903  0.748388  1
  Tm  Tm1  1  0.198179  0.810097  0.251612  1
  Tm  Tm2  1  0.389426  0.192906  0.749417  1
  Tm  Tm3  1  0.610574  0.807094  0.250583  1
  Tm  Tm4  1  0.805020  0.613969  0.749345  1
  Tm  Tm5  1  0.194980  0.386031  0.250655  1
  Al  Al6  1  0.663865  0.327818  0.972114  1
  Al  Al7  1  0.336135  0.672182  0.027886  1
  Al  Al8  1  0.339124  0.669611  0.473181  1
  Al  Al9  1  0.660876  0.330389  0.526819  1
  Al  Al10  1  0.833059  0.158064  0.421511  1
  Al  Al11  1  0.166941  0.841936  0.578489  1
  Al  Al12  1  0.326501  0.163755  0.420997  1
  Al  Al13  1  0.166616  0.842548  0.920227  1
  Al  Al14  1  0.673499  0.836245  0.579003  1
  Al  Al15  1  0.833384  0.157452  0.079773  1
  Al  Al16  1  0.833207  0.676450  0.421011  1
  Al  Al17  1  0.674745  0.842192  0.919953  1
  Al  Al18  1  0.166793  0.323550  0.578989  1
  Al  Al19  1  0.325255  0.157808  0.080047  1
  Al  Al20  1  0.160479  0.322082  0.919310  1
  Al  Al21  1  0.839521  0.677918  0.080690  1
  Al  Al22  1  0.437741  0.561987  0.746823  1
  Al  Al23  1  0.562259  0.438013  0.253177  1
  Al  Al24  1  0.126457  0.563512  0.750465  1
  Al  Al25  1  0.873543  0.436488  0.249535  1
  Al  Al26  1  0.438988  0.878533  0.750387  1
  Al  Al27  1  0.561012  0.121467  0.249613  1
  Al  Al28  1  0.997712  0.997722  0.749859  1
  Al  Al29  1  0.002288  0.002278  0.250141  1
  Ru  Ru30  1  0.500000  0.500000  0.500000  1
  Ru  Ru31  1  0.500000  0.000000  0.000000  1
  Ru  Ru32  1  0.500000  0.000000  0.500000  1
  Ru  Ru33  1  0.000000  0.000000  0.000000  1
  Ru  Ru34  1  0.000000  0.000000  0.500000  1
  Pt  Pt35  1  0.500000  0.500000  0.000000  1
  Pt  Pt36  1  0.000000  0.500000  0.000000  1
  Pt  Pt37  1  0.000000  0.500000  0.500000  1
