# generated using pymatgen
data_PrYHo2(Ir2O7)2
_symmetry_space_group_name_H-M   'P 1'
_cell_length_a   7.31692272
_cell_length_b   7.26553608
_cell_length_c   7.26553741
_cell_angle_alpha   59.96367990
_cell_angle_beta   60.20842245
_cell_angle_gamma   60.20842318
_symmetry_Int_Tables_number   1
_chemical_formula_structural   PrYHo2(Ir2O7)2
_chemical_formula_sum   'Pr1 Y1 Ho2 Ir4 O14'
_cell_volume   273.89858220
_cell_formula_units_Z   1
loop_
 _symmetry_equiv_pos_site_id
 _symmetry_equiv_pos_as_xyz
  1  'x, y, z'
loop_
 _atom_site_type_symbol
 _atom_site_label
 _atom_site_symmetry_multiplicity
 _atom_site_fract_x
 _atom_site_fract_y
 _atom_site_fract_z
 _atom_site_occupancy
  Pr  Pr0  1  0.625000  0.125000  0.125000  1
  Y  Y1  1  0.125000  0.125000  0.125000  1
  Ho  Ho2  1  0.125000  0.125000  0.625000  1
  Ho  Ho3  1  0.125000  0.625000  0.125000  1
  Ir  Ir4  1  0.625000  0.625000  0.625000  1
  Ir  Ir5  1  0.125000  0.625000  0.625000  1
  Ir  Ir6  1  0.625000  0.125000  0.625000  1
  Ir  Ir7  1  0.625000  0.625000  0.125000  1
  O  O8  1  0.962434  0.538197  0.538197  1
  O  O9  1  0.287965  0.289230  0.710682  1
  O  O10  1  0.962035  0.539318  0.960770  1
  O  O11  1  0.719501  0.289400  0.289400  1
  O  O12  1  0.529297  0.548584  0.961062  1
  O  O13  1  0.529297  0.961062  0.548584  1
  O  O14  1  0.530499  0.960600  0.960600  1
  O  O15  1  0.237249  0.255120  0.255120  1
  O  O16  1  0.287566  0.711803  0.711803  1
  O  O17  1  0.720703  0.288938  0.701416  1
  O  O18  1  0.012751  0.994880  0.994880  1
  O  O19  1  0.962035  0.960770  0.539318  1
  O  O20  1  0.287965  0.710682  0.289230  1
  O  O21  1  0.720703  0.701416  0.288938  1
