# generated using pymatgen
data_Tb6Dy10Cd4TcNi3
_symmetry_space_group_name_H-M   'P 1'
_cell_length_a   9.60360360
_cell_length_b   9.60360308
_cell_length_c   9.60360400
_cell_angle_alpha   59.44765880
_cell_angle_beta   59.44765838
_cell_angle_gamma   59.44765600
_symmetry_Int_Tables_number   1
_chemical_formula_structural   Tb6Dy10Cd4TcNi3
_chemical_formula_sum   'Tb6 Dy10 Cd4 Tc1 Ni3'
_cell_volume   618.43757874
_cell_formula_units_Z   1
loop_
 _symmetry_equiv_pos_site_id
 _symmetry_equiv_pos_as_xyz
  1  'x, y, z'
loop_
 _atom_site_type_symbol
 _atom_site_label
 _atom_site_symmetry_multiplicity
 _atom_site_fract_x
 _atom_site_fract_y
 _atom_site_fract_z
 _atom_site_occupancy
  Tb  Tb0  1  0.936244  0.565008  0.565008  1
  Tb  Tb1  1  0.555475  0.939228  0.939228  1
  Tb  Tb2  1  0.565008  0.936244  0.565008  1
  Tb  Tb3  1  0.939228  0.555475  0.939228  1
  Tb  Tb4  1  0.565008  0.565008  0.936244  1
  Tb  Tb5  1  0.939228  0.939228  0.555475  1
  Dy  Dy6  1  0.347475  0.347475  0.347475  1
  Dy  Dy7  1  0.351430  0.351430  0.954172  1
  Dy  Dy8  1  0.351430  0.954172  0.351430  1
  Dy  Dy9  1  0.954172  0.351430  0.351430  1
  Dy  Dy10  1  0.810818  0.187684  0.187684  1
  Dy  Dy11  1  0.187124  0.810938  0.810938  1
  Dy  Dy12  1  0.187684  0.810818  0.187684  1
  Dy  Dy13  1  0.810938  0.187124  0.810938  1
  Dy  Dy14  1  0.187684  0.187684  0.810818  1
  Dy  Dy15  1  0.810938  0.810938  0.187124  1
  Cd  Cd16  1  0.579861  0.579861  0.579861  1
  Cd  Cd17  1  0.579732  0.579732  0.256222  1
  Cd  Cd18  1  0.579732  0.256222  0.579732  1
  Cd  Cd19  1  0.256222  0.579732  0.579732  1
  Tc  Tc20  1  0.143483  0.143483  0.143483  1
  Ni  Ni21  1  0.142779  0.142779  0.575530  1
  Ni  Ni22  1  0.142779  0.575530  0.142779  1
  Ni  Ni23  1  0.575530  0.142779  0.142779  1
