# generated using pymatgen
data_Tb4Hg2Pd3Au
_symmetry_space_group_name_H-M   'P 1'
_cell_length_a   3.76566100
_cell_length_b   7.77740613
_cell_length_c   7.77740619
_cell_angle_alpha   89.77971294
_cell_angle_beta   90.00000000
_cell_angle_gamma   90.00000000
_symmetry_Int_Tables_number   1
_chemical_formula_structural   Tb4Hg2Pd3Au
_chemical_formula_sum   'Tb4 Hg2 Pd3 Au1'
_cell_volume   227.77579431
_cell_formula_units_Z   1
loop_
 _symmetry_equiv_pos_site_id
 _symmetry_equiv_pos_as_xyz
  1  'x, y, z'
loop_
 _atom_site_type_symbol
 _atom_site_label
 _atom_site_symmetry_multiplicity
 _atom_site_fract_x
 _atom_site_fract_y
 _atom_site_fract_z
 _atom_site_occupancy
  Tb  Tb0  1  0.500000  0.172837  0.672837  1
  Tb  Tb1  1  0.500000  0.835157  0.335157  1
  Tb  Tb2  1  0.500000  0.319650  0.169149  1
  Tb  Tb3  1  0.500000  0.669149  0.819650  1
  Hg  Hg4  1  0.000000  0.003690  0.998589  1
  Hg  Hg5  1  0.000000  0.498589  0.503690  1
  Pd  Pd6  1  0.000000  0.370616  0.870616  1
  Pd  Pd7  1  0.000000  0.873906  0.630071  1
  Pd  Pd8  1  0.000000  0.130071  0.373906  1
  Au  Au9  1  0.000000  0.626335  0.126335  1
