# generated using pymatgen
data_Pr2Y2LuPb4
_symmetry_space_group_name_H-M   'P 1'
_cell_length_a   8.24443700
_cell_length_b   8.36383300
_cell_length_c   15.77265700
_cell_angle_alpha   90.00000000
_cell_angle_beta   90.00000000
_cell_angle_gamma   90.00000000
_symmetry_Int_Tables_number   1
_chemical_formula_structural   Pr2Y2LuPb4
_chemical_formula_sum   'Pr8 Y8 Lu4 Pb16'
_cell_volume   1087.60504996
_cell_formula_units_Z   4
loop_
 _symmetry_equiv_pos_site_id
 _symmetry_equiv_pos_as_xyz
  1  'x, y, z'
loop_
 _atom_site_type_symbol
 _atom_site_label
 _atom_site_symmetry_multiplicity
 _atom_site_fract_x
 _atom_site_fract_y
 _atom_site_fract_z
 _atom_site_occupancy
  Pr  Pr0  1  0.476248  0.677590  0.597161  1
  Pr  Pr1  1  0.976248  0.822410  0.902839  1
  Pr  Pr2  1  0.523752  0.322410  0.097161  1
  Pr  Pr3  1  0.023752  0.177590  0.402839  1
  Pr  Pr4  1  0.523752  0.322410  0.402839  1
  Pr  Pr5  1  0.023752  0.177590  0.097161  1
  Pr  Pr6  1  0.476248  0.677590  0.902839  1
  Pr  Pr7  1  0.976248  0.822410  0.597161  1
  Y  Y8  1  0.633044  0.158355  0.622253  1
  Y  Y9  1  0.133044  0.341645  0.877747  1
  Y  Y10  1  0.366956  0.841645  0.122253  1
  Y  Y11  1  0.866956  0.658355  0.377747  1
  Y  Y12  1  0.366956  0.841645  0.377747  1
  Y  Y13  1  0.866956  0.658355  0.122253  1
  Y  Y14  1  0.633044  0.158355  0.877747  1
  Y  Y15  1  0.133044  0.341645  0.622253  1
  Lu  Lu16  1  0.798863  0.495018  0.750000  1
  Lu  Lu17  1  0.298863  0.004982  0.750000  1
  Lu  Lu18  1  0.201137  0.504982  0.250000  1
  Lu  Lu19  1  0.701137  0.995018  0.250000  1
  Pb  Pb20  1  0.705280  0.959525  0.455894  1
  Pb  Pb21  1  0.205280  0.540475  0.044106  1
  Pb  Pb22  1  0.294720  0.040475  0.955894  1
  Pb  Pb23  1  0.794720  0.459525  0.544106  1
  Pb  Pb24  1  0.294720  0.040475  0.544106  1
  Pb  Pb25  1  0.794720  0.459525  0.955894  1
  Pb  Pb26  1  0.705280  0.959525  0.044106  1
  Pb  Pb27  1  0.205280  0.540475  0.455894  1
  Pb  Pb28  1  0.437421  0.371671  0.750000  1
  Pb  Pb29  1  0.937421  0.128329  0.750000  1
  Pb  Pb30  1  0.562579  0.628329  0.250000  1
  Pb  Pb31  1  0.062579  0.871671  0.250000  1
  Pb  Pb32  1  0.664040  0.849340  0.750000  1
  Pb  Pb33  1  0.164040  0.650660  0.750000  1
  Pb  Pb34  1  0.335960  0.150660  0.250000  1
  Pb  Pb35  1  0.835960  0.349340  0.250000  1
