# generated using pymatgen
data_Lu8Nb12Si15As
_symmetry_space_group_name_H-M   'P 1'
_cell_length_a   6.82160350
_cell_length_b   7.01966986
_cell_length_c   13.32718602
_cell_angle_alpha   89.96078703
_cell_angle_beta   90.24591826
_cell_angle_gamma   90.10802293
_symmetry_Int_Tables_number   1
_chemical_formula_structural   Lu8Nb12Si15As
_chemical_formula_sum   'Lu8 Nb12 Si15 As1'
_cell_volume   638.17053474
_cell_formula_units_Z   1
loop_
 _symmetry_equiv_pos_site_id
 _symmetry_equiv_pos_as_xyz
  1  'x, y, z'
loop_
 _atom_site_type_symbol
 _atom_site_label
 _atom_site_symmetry_multiplicity
 _atom_site_fract_x
 _atom_site_fract_y
 _atom_site_fract_z
 _atom_site_occupancy
  Lu  Lu0  1  0.499080  0.674736  0.595336  1
  Lu  Lu1  1  0.001439  0.827302  0.904435  1
  Lu  Lu2  1  0.498653  0.326833  0.094798  1
  Lu  Lu3  1  0.003601  0.175833  0.403251  1
  Lu  Lu4  1  0.499202  0.326172  0.404627  1
  Lu  Lu5  1  0.998887  0.172667  0.095108  1
  Lu  Lu6  1  0.501534  0.673182  0.905036  1
  Lu  Lu7  1  0.000595  0.824688  0.597192  1
  Nb  Nb8  1  0.659062  0.174588  0.626192  1
  Nb  Nb9  1  0.161451  0.325492  0.874671  1
  Nb  Nb10  1  0.338418  0.826002  0.125508  1
  Nb  Nb11  1  0.841117  0.670028  0.373575  1
  Nb  Nb12  1  0.339269  0.826910  0.375470  1
  Nb  Nb13  1  0.837922  0.674231  0.125290  1
  Nb  Nb14  1  0.661343  0.174491  0.874418  1
  Nb  Nb15  1  0.159479  0.326991  0.625795  1
  Nb  Nb16  1  0.836064  0.493214  0.749628  1
  Nb  Nb17  1  0.335661  0.006018  0.749846  1
  Nb  Nb18  1  0.163872  0.506673  0.250302  1
  Nb  Nb19  1  0.664849  0.992735  0.248761  1
  Si  Si20  1  0.165556  0.535799  0.040304  1
  Si  Si21  1  0.334457  0.035542  0.959235  1
  Si  Si22  1  0.832572  0.463782  0.540423  1
  Si  Si23  1  0.322365  0.038756  0.542253  1
  Si  Si24  1  0.834479  0.464657  0.959369  1
  Si  Si25  1  0.665442  0.964473  0.040527  1
  Si  Si26  1  0.167561  0.536749  0.460027  1
  Si  Si27  1  0.457130  0.380511  0.750393  1
  Si  Si28  1  0.957540  0.118851  0.750157  1
  Si  Si29  1  0.541472  0.619403  0.249888  1
  Si  Si30  1  0.042913  0.880035  0.249778  1
  Si  Si31  1  0.703010  0.867644  0.750563  1
  Si  Si32  1  0.203660  0.631445  0.750841  1
  Si  Si33  1  0.297484  0.132358  0.249408  1
  Si  Si34  1  0.797021  0.367697  0.248966  1
  As  As35  1  0.675842  0.963512  0.458627  1
