# generated using pymatgen
data_Tb7YRe(B8Ru)3
_symmetry_space_group_name_H-M   'P 1'
_cell_length_a   3.68642000
_cell_length_b   9.17506692
_cell_length_c   11.56229316
_cell_angle_alpha   89.85697307
_cell_angle_beta   90.00000000
_cell_angle_gamma   90.00000000
_symmetry_Int_Tables_number   1
_chemical_formula_structural   Tb7YRe(B8Ru)3
_chemical_formula_sum   'Tb7 Y1 Re1 B24 Ru3'
_cell_volume   391.07195960
_cell_formula_units_Z   1
loop_
 _symmetry_equiv_pos_site_id
 _symmetry_equiv_pos_as_xyz
  1  'x, y, z'
loop_
 _atom_site_type_symbol
 _atom_site_label
 _atom_site_symmetry_multiplicity
 _atom_site_fract_x
 _atom_site_fract_y
 _atom_site_fract_z
 _atom_site_occupancy
  Tb  Tb0  1  0.000000  0.823652  0.085034  1
  Tb  Tb1  1  0.000000  0.179362  0.911838  1
  Tb  Tb2  1  0.000000  0.323136  0.416302  1
  Tb  Tb3  1  0.000000  0.675802  0.586693  1
  Tb  Tb4  1  0.000000  0.442832  0.129106  1
  Tb  Tb5  1  0.000000  0.556839  0.872287  1
  Tb  Tb6  1  0.000000  0.942237  0.371284  1
  Y  Y7  1  0.000000  0.056176  0.627353  1
  Re  Re8  1  0.000000  0.362463  0.678674  1
  B  B9  1  0.500000  0.054063  0.067137  1
  B  B10  1  0.500000  0.946424  0.932426  1
  B  B11  1  0.500000  0.553597  0.432190  1
  B  B12  1  0.500000  0.447073  0.567146  1
  B  B13  1  0.500000  0.247526  0.080792  1
  B  B14  1  0.500000  0.753022  0.919479  1
  B  B15  1  0.500000  0.747150  0.418984  1
  B  B16  1  0.500000  0.252081  0.580826  1
  B  B17  1  0.500000  0.289359  0.233700  1
  B  B18  1  0.500000  0.710127  0.767252  1
  B  B19  1  0.500000  0.789802  0.266215  1
  B  B20  1  0.500000  0.208967  0.733708  1
  B  B21  1  0.500000  0.131006  0.314157  1
  B  B22  1  0.500000  0.868328  0.686021  1
  B  B23  1  0.500000  0.631892  0.185664  1
  B  B24  1  0.500000  0.368568  0.814093  1
  B  B25  1  0.500000  0.484043  0.287690  1
  B  B26  1  0.500000  0.517280  0.712594  1
  B  B27  1  0.500000  0.983802  0.211788  1
  B  B28  1  0.500000  0.016400  0.787344  1
  B  B29  1  0.500000  0.106696  0.469721  1
  B  B30  1  0.500000  0.891324  0.529740  1
  B  B31  1  0.500000  0.608903  0.030730  1
  B  B32  1  0.500000  0.392115  0.970784  1
  Ru  Ru33  1  0.000000  0.137460  0.178663  1
  Ru  Ru34  1  0.000000  0.862795  0.821696  1
  Ru  Ru35  1  0.000000  0.637702  0.320891  1
