# generated using pymatgen
data_Pr12Fe2Br17
_symmetry_space_group_name_H-M   'P 1'
_cell_length_a   9.58061402
_cell_length_b   11.51962735
_cell_length_c   11.60898687
_cell_angle_alpha   93.79973741
_cell_angle_beta   104.46298741
_cell_angle_gamma   114.36994714
_symmetry_Int_Tables_number   1
_chemical_formula_structural   Pr12Fe2Br17
_chemical_formula_sum   'Pr12 Fe2 Br17'
_cell_volume   1109.06569722
_cell_formula_units_Z   1
loop_
 _symmetry_equiv_pos_site_id
 _symmetry_equiv_pos_as_xyz
  1  'x, y, z'
loop_
 _atom_site_type_symbol
 _atom_site_label
 _atom_site_symmetry_multiplicity
 _atom_site_fract_x
 _atom_site_fract_y
 _atom_site_fract_z
 _atom_site_occupancy
  Pr  Pr0  1  0.062151  0.518352  0.322896  1
  Pr  Pr1  1  0.982235  0.810264  0.575469  1
  Pr  Pr2  1  0.641068  0.238611  0.286635  1
  Pr  Pr3  1  0.017765  0.189736  0.424531  1
  Pr  Pr4  1  0.230705  0.671737  0.995871  1
  Pr  Pr5  1  0.260655  0.994807  0.893152  1
  Pr  Pr6  1  0.358932  0.761389  0.713365  1
  Pr  Pr7  1  0.937849  0.481648  0.677104  1
  Pr  Pr8  1  0.739345  0.005193  0.106848  1
  Pr  Pr9  1  0.155012  0.287707  0.148301  1
  Pr  Pr10  1  0.769295  0.328263  0.004129  1
  Pr  Pr11  1  0.844988  0.712293  0.851699  1
  Fe  Fe12  1  0.104152  0.738846  0.786160  1
  Fe  Fe13  1  0.895848  0.261154  0.213840  1
  Br  Br14  1  0.792234  0.525838  0.421708  1
  Br  Br15  1  0.647419  0.424458  0.758878  1
  Br  Br16  1  0.846598  0.902039  0.325351  1
  Br  Br17  1  0.320012  0.213708  0.364751  1
  Br  Br18  1  0.153402  0.097961  0.674649  1
  Br  Br19  1  0.584561  0.049707  0.849938  1
  Br  Br20  1  0.758264  0.183681  0.533048  1
  Br  Br21  1  0.542537  0.706749  0.948072  1
  Br  Br22  1  0.352581  0.575542  0.241122  1
  Br  Br23  1  0.207766  0.474162  0.578292  1
  Br  Br24  1  0.054243  0.373252  0.901258  1
  Br  Br25  1  0.457463  0.293251  0.051928  1
  Br  Br26  1  0.000000  0.000000  0.000000  1
  Br  Br27  1  0.241736  0.816319  0.466952  1
  Br  Br28  1  0.415439  0.950293  0.150062  1
  Br  Br29  1  0.679988  0.786292  0.635249  1
  Br  Br30  1  0.945757  0.626748  0.098742  1
