# generated using pymatgen
data_HfTa4Si2Ge
_symmetry_space_group_name_H-M   'P 1'
_cell_length_a   7.68542905
_cell_length_b   7.68542787
_cell_length_c   7.68212204
_cell_angle_alpha   128.95523323
_cell_angle_beta   128.95522262
_cell_angle_gamma   75.11463796
_symmetry_Int_Tables_number   1
_chemical_formula_structural   HfTa4Si2Ge
_chemical_formula_sum   'Hf2 Ta8 Si4 Ge2'
_cell_volume   267.10987696
_cell_formula_units_Z   2
loop_
 _symmetry_equiv_pos_site_id
 _symmetry_equiv_pos_as_xyz
  1  'x, y, z'
loop_
 _atom_site_type_symbol
 _atom_site_label
 _atom_site_symmetry_multiplicity
 _atom_site_fract_x
 _atom_site_fract_y
 _atom_site_fract_z
 _atom_site_occupancy
  Hf  Hf0  1  0.015009  0.184033  0.500000  1
  Hf  Hf1  1  0.684033  0.515009  0.500000  1
  Ta  Ta2  1  0.514547  0.014547  0.825952  1
  Ta  Ta3  1  0.188597  0.688597  0.174049  1
  Ta  Ta4  1  0.984157  0.809174  0.500000  1
  Ta  Ta5  1  0.309174  0.484157  0.500000  1
  Ta  Ta6  1  0.485995  0.985995  0.172791  1
  Ta  Ta7  1  0.813202  0.313202  0.827207  1
  Ta  Ta8  1  0.003589  0.003589  0.000000  1
  Ta  Ta9  1  0.503589  0.503589  0.000000  1
  Si  Si10  1  0.371776  0.130535  0.500000  1
  Si  Si11  1  0.630535  0.871776  0.500000  1
  Si  Si12  1  0.869079  0.369079  0.237025  1
  Si  Si13  1  0.132054  0.632054  0.762975  1
  Ge  Ge14  1  0.747333  0.747333  0.000000  1
  Ge  Ge15  1  0.247333  0.247333  0.000000  1
