# generated using pymatgen
data_SmY2Co8MoP6
_symmetry_space_group_name_H-M   'P 1'
_cell_length_a   3.72807100
_cell_length_b   10.57201000
_cell_length_c   12.26627200
_cell_angle_alpha   90.00000000
_cell_angle_beta   90.00000000
_cell_angle_gamma   90.00000000
_symmetry_Int_Tables_number   1
_chemical_formula_structural   SmY2Co8MoP6
_chemical_formula_sum   'Sm2 Y4 Co16 Mo2 P12'
_cell_volume   483.45307934
_cell_formula_units_Z   2
loop_
 _symmetry_equiv_pos_site_id
 _symmetry_equiv_pos_as_xyz
  1  'x, y, z'
loop_
 _atom_site_type_symbol
 _atom_site_label
 _atom_site_symmetry_multiplicity
 _atom_site_fract_x
 _atom_site_fract_y
 _atom_site_fract_z
 _atom_site_occupancy
  Sm  Sm0  1  0.000000  0.500000  0.524634  1
  Sm  Sm1  1  0.500000  0.000000  0.475366  1
  Y  Y2  1  0.500000  0.818565  0.204446  1
  Y  Y3  1  0.500000  0.181435  0.204446  1
  Y  Y4  1  0.000000  0.681435  0.795554  1
  Y  Y5  1  0.000000  0.318565  0.795554  1
  Co  Co6  1  0.500000  0.500000  0.703027  1
  Co  Co7  1  0.000000  0.000000  0.296973  1
  Co  Co8  1  0.000000  0.500000  0.986468  1
  Co  Co9  1  0.500000  0.000000  0.013532  1
  Co  Co10  1  0.500000  0.332307  0.990317  1
  Co  Co11  1  0.500000  0.667693  0.990317  1
  Co  Co12  1  0.000000  0.167693  0.009683  1
  Co  Co13  1  0.000000  0.832307  0.009683  1
  Co  Co14  1  0.500000  0.295558  0.430671  1
  Co  Co15  1  0.500000  0.704442  0.430671  1
  Co  Co16  1  0.000000  0.204442  0.569329  1
  Co  Co17  1  0.000000  0.795558  0.569329  1
  Co  Co18  1  0.500000  0.878673  0.708277  1
  Co  Co19  1  0.500000  0.121327  0.708277  1
  Co  Co20  1  0.000000  0.621327  0.291723  1
  Co  Co21  1  0.000000  0.378673  0.291723  1
  Mo  Mo22  1  0.500000  0.500000  0.155022  1
  Mo  Mo23  1  0.000000  0.000000  0.844978  1
  P  P24  1  0.500000  0.500000  0.881729  1
  P  P25  1  0.000000  0.000000  0.118271  1
  P  P26  1  0.500000  0.500000  0.346758  1
  P  P27  1  0.000000  0.000000  0.653242  1
  P  P28  1  0.500000  0.309245  0.616452  1
  P  P29  1  0.500000  0.690755  0.616452  1
  P  P30  1  0.000000  0.190755  0.383548  1
  P  P31  1  0.000000  0.809245  0.383548  1
  P  P32  1  0.500000  0.845023  0.893766  1
  P  P33  1  0.500000  0.154977  0.893766  1
  P  P34  1  0.000000  0.654977  0.106234  1
  P  P35  1  0.000000  0.345023  0.106234  1
