# generated using pymatgen
data_La5Nd11Cd4OsPd3
_symmetry_space_group_name_H-M   'P 1'
_cell_length_a   10.09598088
_cell_length_b   10.12378118
_cell_length_c   10.12378232
_cell_angle_alpha   59.45742587
_cell_angle_beta   59.52349918
_cell_angle_gamma   59.52349002
_symmetry_Int_Tables_number   1
_chemical_formula_structural   La5Nd11Cd4OsPd3
_chemical_formula_sum   'La5 Nd11 Cd4 Os1 Pd3'
_cell_volume   723.38020784
_cell_formula_units_Z   1
loop_
 _symmetry_equiv_pos_site_id
 _symmetry_equiv_pos_as_xyz
  1  'x, y, z'
loop_
 _atom_site_type_symbol
 _atom_site_label
 _atom_site_symmetry_multiplicity
 _atom_site_fract_x
 _atom_site_fract_y
 _atom_site_fract_z
 _atom_site_occupancy
  La  La0  1  0.351357  0.352895  0.352895  1
  La  La1  1  0.347707  0.347671  0.949645  1
  La  La2  1  0.347707  0.949645  0.347671  1
  La  La3  1  0.949902  0.348526  0.348526  1
  La  La4  1  0.820101  0.187309  0.187309  1
  Nd  Nd5  1  0.188268  0.809071  0.809071  1
  Nd  Nd6  1  0.189362  0.816233  0.187951  1
  Nd  Nd7  1  0.808953  0.188389  0.808032  1
  Nd  Nd8  1  0.189362  0.187951  0.816233  1
  Nd  Nd9  1  0.808953  0.808032  0.188389  1
  Nd  Nd10  1  0.934950  0.565882  0.565882  1
  Nd  Nd11  1  0.558128  0.936773  0.936773  1
  Nd  Nd12  1  0.565079  0.934770  0.566373  1
  Nd  Nd13  1  0.937500  0.558612  0.936336  1
  Nd  Nd14  1  0.565079  0.566373  0.934770  1
  Nd  Nd15  1  0.937500  0.936336  0.558612  1
  Cd  Cd16  1  0.580269  0.580223  0.580223  1
  Cd  Cd17  1  0.580012  0.581306  0.257068  1
  Cd  Cd18  1  0.580012  0.257068  0.581306  1
  Cd  Cd19  1  0.256899  0.580493  0.580493  1
  Os  Os20  1  0.140928  0.144560  0.144560  1
  Pd  Pd21  1  0.144916  0.144927  0.571829  1
  Pd  Pd22  1  0.144916  0.571829  0.144927  1
  Pd  Pd23  1  0.572141  0.145126  0.145126  1
