# generated using pymatgen
data_Se5N4
_symmetry_space_group_name_H-M   'P 1'
_cell_length_a   4.86381692
_cell_length_b   7.10582942
_cell_length_c   10.22591380
_cell_angle_alpha   98.86000433
_cell_angle_beta   97.47682273
_cell_angle_gamma   94.80982520
_symmetry_Int_Tables_number   1
_chemical_formula_structural   Se5N4
_chemical_formula_sum   'Se5 N4'
_cell_volume   344.28379957
_cell_formula_units_Z   1
loop_
 _symmetry_equiv_pos_site_id
 _symmetry_equiv_pos_as_xyz
  1  'x, y, z'
loop_
 _atom_site_type_symbol
 _atom_site_label
 _atom_site_symmetry_multiplicity
 _atom_site_fract_x
 _atom_site_fract_y
 _atom_site_fract_z
 _atom_site_occupancy
  Se  Se0  1  0.778487  0.245391  0.486530  1
  Se  Se1  1  0.702134  0.500045  0.209409  1
  Se  Se2  1  0.601377  0.014651  0.291396  1
  Se  Se3  1  0.483923  0.457737  0.391687  1
  Se  Se4  1  0.775438  0.160479  0.127914  1
  N  N5  1  0.873841  0.764905  0.809269  1
  N  N6  1  0.240809  0.328812  0.868200  1
  N  N7  1  0.360548  0.400755  0.800719  1
  N  N8  1  0.867369  0.807501  0.708693  1
