# generated using pymatgen
data_Pr3Nd2SiSe4
_symmetry_space_group_name_H-M   'P 1'
_cell_length_a   7.41284348
_cell_length_b   7.41284333
_cell_length_c   7.41453249
_cell_angle_alpha   99.35227018
_cell_angle_beta   99.42538794
_cell_angle_gamma   132.35007235
_symmetry_Int_Tables_number   1
_chemical_formula_structural   Pr3Nd2SiSe4
_chemical_formula_sum   'Pr3 Nd2 Si1 Se4'
_cell_volume   275.46124135
_cell_formula_units_Z   1
loop_
 _symmetry_equiv_pos_site_id
 _symmetry_equiv_pos_as_xyz
  1  'x, y, z'
loop_
 _atom_site_type_symbol
 _atom_site_label
 _atom_site_symmetry_multiplicity
 _atom_site_fract_x
 _atom_site_fract_y
 _atom_site_fract_z
 _atom_site_occupancy
  Pr  Pr0  1  0.404314  0.789801  0.194113  1
  Pr  Pr1  1  0.595856  0.210304  0.806161  1
  Pr  Pr2  1  0.210332  0.404226  0.614558  1
  Nd  Nd3  1  0.000165  0.000042  0.000207  1
  Nd  Nd4  1  0.789186  0.595398  0.384584  1
  Si  Si5  1  0.501265  0.500454  0.001719  1
  Se  Se6  1  0.096206  0.699105  0.795311  1
  Se  Se7  1  0.699967  0.901385  0.601351  1
  Se  Se8  1  0.300523  0.097424  0.397949  1
  Se  Se9  1  0.902185  0.301862  0.204048  1
