# generated using pymatgen
data_Dy4Al3ZnRu4
_symmetry_space_group_name_H-M   'P 1'
_cell_length_a   4.06166000
_cell_length_b   6.98667900
_cell_length_c   8.03073270
_cell_angle_alpha   90.16005268
_cell_angle_beta   90.00000000
_cell_angle_gamma   90.00000000
_symmetry_Int_Tables_number   1
_chemical_formula_structural   Dy4Al3ZnRu4
_chemical_formula_sum   'Dy4 Al3 Zn1 Ru4'
_cell_volume   227.89134524
_cell_formula_units_Z   1
loop_
 _symmetry_equiv_pos_site_id
 _symmetry_equiv_pos_as_xyz
  1  'x, y, z'
loop_
 _atom_site_type_symbol
 _atom_site_label
 _atom_site_symmetry_multiplicity
 _atom_site_fract_x
 _atom_site_fract_y
 _atom_site_fract_z
 _atom_site_occupancy
  Dy  Dy0  1  0.250000  0.031378  0.318566  1
  Dy  Dy1  1  0.250000  0.524263  0.179049  1
  Dy  Dy2  1  0.750000  0.973007  0.681688  1
  Dy  Dy3  1  0.750000  0.469828  0.822274  1
  Al  Al4  1  0.250000  0.641657  0.559837  1
  Al  Al5  1  0.750000  0.856538  0.060191  1
  Al  Al6  1  0.750000  0.360083  0.438819  1
  Zn  Zn7  1  0.250000  0.143968  0.937322  1
  Ru  Ru8  1  0.250000  0.274502  0.620676  1
  Ru  Ru9  1  0.250000  0.767332  0.873935  1
  Ru  Ru10  1  0.750000  0.730051  0.375074  1
  Ru  Ru11  1  0.750000  0.227396  0.132569  1
