# generated using pymatgen
data_Ba4Sr2La2Fe4O15
_symmetry_space_group_name_H-M   'P 1'
_cell_length_a   11.90012983
_cell_length_b   11.90012917
_cell_length_c   7.09445919
_cell_angle_alpha   89.88102775
_cell_angle_beta   89.88103296
_cell_angle_gamma   119.94884998
_symmetry_Int_Tables_number   1
_chemical_formula_structural   Ba4Sr2La2Fe4O15
_chemical_formula_sum   'Ba8 Sr4 La4 Fe8 O30'
_cell_volume   870.50882102
_cell_formula_units_Z   2
loop_
 _symmetry_equiv_pos_site_id
 _symmetry_equiv_pos_as_xyz
  1  'x, y, z'
loop_
 _atom_site_type_symbol
 _atom_site_label
 _atom_site_symmetry_multiplicity
 _atom_site_fract_x
 _atom_site_fract_y
 _atom_site_fract_z
 _atom_site_occupancy
  Ba  Ba0  1  0.666559  0.330233  0.977601  1
  Ba  Ba1  1  0.330233  0.666559  0.477601  1
  Ba  Ba2  1  0.343390  0.167728  0.666304  1
  Ba  Ba3  1  0.831201  0.657610  0.659843  1
  Ba  Ba4  1  0.826230  0.171744  0.662911  1
  Ba  Ba5  1  0.657610  0.831201  0.159843  1
  Ba  Ba6  1  0.167728  0.343390  0.166304  1
  Ba  Ba7  1  0.171744  0.826230  0.162911  1
  Sr  Sr8  1  0.999909  0.000359  0.480089  1
  Sr  Sr9  1  0.000359  0.999909  0.980089  1
  Sr  Sr10  1  0.956079  0.478421  0.329045  1
  Sr  Sr11  1  0.478421  0.956079  0.829045  1
  La  La12  1  0.521166  0.042584  0.328124  1
  La  La13  1  0.521338  0.478602  0.331589  1
  La  La14  1  0.042584  0.521166  0.828124  1
  La  La15  1  0.478602  0.521338  0.831589  1
  Fe  Fe16  1  0.350731  0.176725  0.161074  1
  Fe  Fe17  1  0.823328  0.646460  0.156547  1
  Fe  Fe18  1  0.825334  0.178286  0.159070  1
  Fe  Fe19  1  0.646460  0.823328  0.656547  1
  Fe  Fe20  1  0.176725  0.350731  0.661074  1
  Fe  Fe21  1  0.178286  0.825334  0.659070  1
  Fe  Fe22  1  0.668691  0.335108  0.521855  1
  Fe  Fe23  1  0.335108  0.668691  0.021855  1
  O  O24  1  0.606033  0.669414  0.521295  1
  O  O25  1  0.066152  0.392855  0.529178  1
  O  O26  1  0.326756  0.936379  0.511021  1
  O  O27  1  0.331606  0.393902  0.524063  1
  O  O28  1  0.609565  0.934829  0.511173  1
  O  O29  1  0.064820  0.673970  0.525888  1
  O  O30  1  0.393902  0.331606  0.024063  1
  O  O31  1  0.934829  0.609565  0.011173  1
  O  O32  1  0.673970  0.064820  0.025888  1
  O  O33  1  0.669414  0.606033  0.021295  1
  O  O34  1  0.392855  0.066152  0.029178  1
  O  O35  1  0.936379  0.326756  0.011021  1
  O  O36  1  0.830083  0.416338  0.671019  1
  O  O37  1  0.584379  0.170865  0.659182  1
  O  O38  1  0.583659  0.418226  0.664978  1
  O  O39  1  0.170865  0.584379  0.159182  1
  O  O40  1  0.416338  0.830083  0.171019  1
  O  O41  1  0.418226  0.583659  0.164978  1
  O  O42  1  0.493409  0.249492  0.338949  1
  O  O43  1  0.747034  0.503837  0.335343  1
  O  O44  1  0.748277  0.245891  0.335098  1
  O  O45  1  0.503837  0.747034  0.835343  1
  O  O46  1  0.249492  0.493409  0.838949  1
  O  O47  1  0.245891  0.748277  0.835098  1
  O  O48  1  0.816610  0.906768  0.747395  1
  O  O49  1  0.092826  0.179097  0.746022  1
  O  O50  1  0.094791  0.913145  0.747134  1
  O  O51  1  0.179097  0.092826  0.246022  1
  O  O52  1  0.906768  0.816610  0.247395  1
  O  O53  1  0.913145  0.094791  0.247134  1
