# generated using pymatgen
data_Li3Dy4TmPt4
_symmetry_space_group_name_H-M   'P 1'
_cell_length_a   4.06986300
_cell_length_b   7.15637329
_cell_length_c   8.71878074
_cell_angle_alpha   88.81098395
_cell_angle_beta   90.00000000
_cell_angle_gamma   90.00000000
_symmetry_Int_Tables_number   1
_chemical_formula_structural   Li3Dy4TmPt4
_chemical_formula_sum   'Li3 Dy4 Tm1 Pt4'
_cell_volume   253.88381173
_cell_formula_units_Z   1
loop_
 _symmetry_equiv_pos_site_id
 _symmetry_equiv_pos_as_xyz
  1  'x, y, z'
loop_
 _atom_site_type_symbol
 _atom_site_label
 _atom_site_symmetry_multiplicity
 _atom_site_fract_x
 _atom_site_fract_y
 _atom_site_fract_z
 _atom_site_occupancy
  Li  Li0  1  0.250000  0.375547  0.555936  1
  Li  Li1  1  0.250000  0.854542  0.930719  1
  Li  Li2  1  0.750000  0.624531  0.446430  1
  Dy  Dy3  1  0.250000  0.944218  0.338235  1
  Dy  Dy4  1  0.250000  0.475442  0.190564  1
  Dy  Dy5  1  0.750000  0.042817  0.669956  1
  Dy  Dy6  1  0.750000  0.555458  0.818884  1
  Tm  Tm7  1  0.750000  0.125783  0.056607  1
  Pt  Pt8  1  0.250000  0.263828  0.871359  1
  Pt  Pt9  1  0.250000  0.751734  0.626506  1
  Pt  Pt10  1  0.750000  0.746000  0.125991  1
  Pt  Pt11  1  0.750000  0.240096  0.368811  1
