# generated using pymatgen
data_K(TlSe8)3
_symmetry_space_group_name_H-M   'P 1'
_cell_length_a   11.12953766
_cell_length_b   11.12953693
_cell_length_c   11.16107500
_cell_angle_alpha   129.34670507
_cell_angle_beta   120.84109139
_cell_angle_gamma   81.37772820
_symmetry_Int_Tables_number   1
_chemical_formula_structural   K(TlSe8)3
_chemical_formula_sum   'K1 Tl3 Se24'
_cell_volume   885.42897228
_cell_formula_units_Z   1
loop_
 _symmetry_equiv_pos_site_id
 _symmetry_equiv_pos_as_xyz
  1  'x, y, z'
loop_
 _atom_site_type_symbol
 _atom_site_label
 _atom_site_symmetry_multiplicity
 _atom_site_fract_x
 _atom_site_fract_y
 _atom_site_fract_z
 _atom_site_occupancy
  K  K0  1  0.000000  0.000000  0.000000  1
  Tl  Tl1  1  0.500000  0.500000  0.000000  1
  Tl  Tl2  1  0.750630  0.250630  0.500000  1
  Tl  Tl3  1  0.249370  0.749370  0.500000  1
  Se  Se4  1  0.644150  0.751392  0.894713  1
  Se  Se5  1  0.856680  0.749436  0.105287  1
  Se  Se6  1  0.355850  0.248608  0.105287  1
  Se  Se7  1  0.143320  0.250564  0.894713  1
  Se  Se8  1  0.246061  0.135461  0.676702  1
  Se  Se9  1  0.255434  0.929508  0.889188  1
  Se  Se10  1  0.040321  0.366246  0.110812  1
  Se  Se11  1  0.458759  0.569359  0.323298  1
  Se  Se12  1  0.753939  0.864539  0.323298  1
  Se  Se13  1  0.744566  0.070492  0.110812  1
  Se  Se14  1  0.959679  0.633754  0.889188  1
  Se  Se15  1  0.541241  0.430641  0.676702  1
  Se  Se16  1  0.925566  0.824829  0.527907  1
  Se  Se17  1  0.573752  0.104440  0.899960  1
  Se  Se18  1  0.204480  0.673793  0.100040  1
  Se  Se19  1  0.296921  0.397658  0.472093  1
  Se  Se20  1  0.074434  0.175171  0.472093  1
  Se  Se21  1  0.426248  0.895560  0.100040  1
  Se  Se22  1  0.795521  0.326207  0.899960  1
  Se  Se23  1  0.703079  0.602342  0.527907  1
  Se  Se24  1  0.669266  0.062096  0.731362  1
  Se  Se25  1  0.832488  0.560910  0.393398  1
  Se  Se26  1  0.167512  0.439090  0.606602  1
  Se  Se27  1  0.330734  0.937904  0.268638  1
