# generated using pymatgen
data_LuMg4P12Ru19
_symmetry_space_group_name_H-M   'P 1'
_cell_length_a   12.41412300
_cell_length_b   12.41412298
_cell_length_c   3.95002000
_cell_angle_alpha   90.00000000
_cell_angle_beta   90.00000000
_cell_angle_gamma   120.00000342
_symmetry_Int_Tables_number   1
_chemical_formula_structural   LuMg4P12Ru19
_chemical_formula_sum   'Lu1 Mg4 P12 Ru19'
_cell_volume   527.18373049
_cell_formula_units_Z   1
loop_
 _symmetry_equiv_pos_site_id
 _symmetry_equiv_pos_as_xyz
  1  'x, y, z'
loop_
 _atom_site_type_symbol
 _atom_site_label
 _atom_site_symmetry_multiplicity
 _atom_site_fract_x
 _atom_site_fract_y
 _atom_site_fract_z
 _atom_site_occupancy
  Lu  Lu0  1  0.333333  0.666667  0.000000  1
  Mg  Mg1  1  0.814078  0.000518  0.500000  1
  Mg  Mg2  1  0.999482  0.813559  0.500000  1
  Mg  Mg3  1  0.186441  0.185922  0.500000  1
  Mg  Mg4  1  0.666667  0.333333  0.000000  1
  P  P5  1  0.180181  0.999790  0.000000  1
  P  P6  1  0.000210  0.180390  0.000000  1
  P  P7  1  0.819610  0.819819  0.000000  1
  P  P8  1  0.526694  0.699630  0.500000  1
  P  P9  1  0.300370  0.827065  0.500000  1
  P  P10  1  0.172935  0.473306  0.500000  1
  P  P11  1  0.468558  0.168453  0.500000  1
  P  P12  1  0.699895  0.531442  0.500000  1
  P  P13  1  0.831547  0.300105  0.500000  1
  P  P14  1  0.616653  0.002151  0.000000  1
  P  P15  1  0.997849  0.614501  0.000000  1
  P  P16  1  0.385499  0.383347  0.000000  1
  Ru  Ru17  1  0.433999  0.997094  0.000000  1
  Ru  Ru18  1  0.002906  0.436905  0.000000  1
  Ru  Ru19  1  0.563095  0.566001  0.000000  1
  Ru  Ru20  1  0.271557  0.998333  0.500000  1
  Ru  Ru21  1  0.001667  0.273224  0.500000  1
  Ru  Ru22  1  0.726776  0.728443  0.500000  1
  Ru  Ru23  1  0.634266  0.824163  0.000000  1
  Ru  Ru24  1  0.175837  0.810103  0.000000  1
  Ru  Ru25  1  0.189897  0.365734  0.000000  1
  Ru  Ru26  1  0.367554  0.188106  0.000000  1
  Ru  Ru27  1  0.820552  0.632446  0.000000  1
  Ru  Ru28  1  0.811894  0.179448  0.000000  1
  Ru  Ru29  1  0.504111  0.874596  0.500000  1
  Ru  Ru30  1  0.125404  0.629515  0.500000  1
  Ru  Ru31  1  0.370485  0.495889  0.500000  1
  Ru  Ru32  1  0.501640  0.370089  0.500000  1
  Ru  Ru33  1  0.868449  0.498360  0.500000  1
  Ru  Ru34  1  0.629911  0.131551  0.500000  1
  Ru  Ru35  1  0.000000  0.000000  0.000000  1
