# generated using pymatgen
data_Co8Si3Mo12PN4
_symmetry_space_group_name_H-M   'P 1'
_cell_length_a   7.80823760
_cell_length_b   7.80823744
_cell_length_c   7.78355260
_cell_angle_alpha   59.89503673
_cell_angle_beta   59.89503416
_cell_angle_gamma   59.99999820
_symmetry_Int_Tables_number   1
_chemical_formula_structural   Co8Si3Mo12PN4
_chemical_formula_sum   'Co8 Si3 Mo12 P1 N4'
_cell_volume   335.02563749
_cell_formula_units_Z   1
loop_
 _symmetry_equiv_pos_site_id
 _symmetry_equiv_pos_as_xyz
  1  'x, y, z'
loop_
 _atom_site_type_symbol
 _atom_site_label
 _atom_site_symmetry_multiplicity
 _atom_site_fract_x
 _atom_site_fract_y
 _atom_site_fract_z
 _atom_site_occupancy
  Co  Co0  1  0.248274  0.920636  0.910455  1
  Co  Co1  1  0.920636  0.248274  0.910455  1
  Co  Co2  1  0.920636  0.920636  0.910455  1
  Co  Co3  1  0.917456  0.917456  0.247634  1
  Co  Co4  1  0.001726  0.329364  0.339545  1
  Co  Co5  1  0.332544  0.332544  0.002366  1
  Co  Co6  1  0.329364  0.001726  0.339545  1
  Co  Co7  1  0.329364  0.329364  0.339545  1
  Si  Si8  1  0.625000  0.125000  0.125000  1
  Si  Si9  1  0.125000  0.625000  0.125000  1
  Si  Si10  1  0.125000  0.125000  0.125000  1
  Mo  Mo11  1  0.695099  0.304123  0.696656  1
  Mo  Mo12  1  0.553087  0.553087  0.947106  1
  Mo  Mo13  1  0.554901  0.945877  0.553344  1
  Mo  Mo14  1  0.945877  0.945877  0.553344  1
  Mo  Mo15  1  0.945877  0.554901  0.553344  1
  Mo  Mo16  1  0.946720  0.553087  0.947106  1
  Mo  Mo17  1  0.696913  0.303280  0.302894  1
  Mo  Mo18  1  0.303280  0.696913  0.302894  1
  Mo  Mo19  1  0.304123  0.304123  0.696656  1
  Mo  Mo20  1  0.304123  0.695099  0.696656  1
  Mo  Mo21  1  0.696913  0.696913  0.302894  1
  Mo  Mo22  1  0.553087  0.946720  0.947106  1
  P  P23  1  0.125000  0.125000  0.625000  1
  N  N24  1  0.625000  0.625000  0.625000  1
  N  N25  1  0.125000  0.625000  0.625000  1
  N  N26  1  0.625000  0.125000  0.625000  1
  N  N27  1  0.625000  0.625000  0.125000  1
