# generated using pymatgen
data_BaCaAs2O7
_symmetry_space_group_name_H-M   'P 1'
_cell_length_a   6.02650452
_cell_length_b   7.43358657
_cell_length_c   7.92960739
_cell_angle_alpha   100.77891259
_cell_angle_beta   90.65491306
_cell_angle_gamma   96.94757416
_symmetry_Int_Tables_number   1
_chemical_formula_structural   BaCaAs2O7
_chemical_formula_sum   'Ba2 Ca2 As4 O14'
_cell_volume   346.19349573
_cell_formula_units_Z   2
loop_
 _symmetry_equiv_pos_site_id
 _symmetry_equiv_pos_as_xyz
  1  'x, y, z'
loop_
 _atom_site_type_symbol
 _atom_site_label
 _atom_site_symmetry_multiplicity
 _atom_site_fract_x
 _atom_site_fract_y
 _atom_site_fract_z
 _atom_site_occupancy
  Ba  Ba0  1  0.706101  0.274998  0.932449  1
  Ba  Ba1  1  0.293899  0.725002  0.067551  1
  Ca  Ca2  1  0.312627  0.834578  0.604333  1
  Ca  Ca3  1  0.687373  0.165422  0.395667  1
  As  As4  1  0.812372  0.775613  0.814428  1
  As  As5  1  0.187628  0.224387  0.185572  1
  As  As6  1  0.789028  0.669933  0.396371  1
  As  As7  1  0.210972  0.330067  0.603629  1
  O  O8  1  0.946432  0.230476  0.626427  1
  O  O9  1  0.053568  0.769524  0.373573  1
  O  O10  1  0.783583  0.641566  0.966030  1
  O  O11  1  0.216417  0.358434  0.033970  1
  O  O12  1  0.780331  0.616627  0.610668  1
  O  O13  1  0.219669  0.383373  0.389332  1
  O  O14  1  0.597127  0.906531  0.819458  1
  O  O15  1  0.402873  0.093469  0.180542  1
  O  O16  1  0.593848  0.820613  0.388791  1
  O  O17  1  0.406152  0.179387  0.611209  1
  O  O18  1  0.284810  0.544790  0.720138  1
  O  O19  1  0.715190  0.455210  0.279862  1
  O  O20  1  0.071828  0.896439  0.825120  1
  O  O21  1  0.928172  0.103561  0.174880  1
