# generated using pymatgen
data_Ti6C4N
_symmetry_space_group_name_H-M   'P 1'
_cell_length_a   5.28391578
_cell_length_b   5.28391635
_cell_length_c   5.29983327
_cell_angle_alpha   99.66339056
_cell_angle_beta   99.66339888
_cell_angle_gamma   119.68072805
_symmetry_Int_Tables_number   1
_chemical_formula_structural   Ti6C4N
_chemical_formula_sum   'Ti6 C4 N1'
_cell_volume   121.16864924
_cell_formula_units_Z   1
loop_
 _symmetry_equiv_pos_site_id
 _symmetry_equiv_pos_as_xyz
  1  'x, y, z'
loop_
 _atom_site_type_symbol
 _atom_site_label
 _atom_site_symmetry_multiplicity
 _atom_site_fract_x
 _atom_site_fract_y
 _atom_site_fract_z
 _atom_site_occupancy
  Ti  Ti0  1  0.436295  0.086005  0.253698  1
  Ti  Ti1  1  0.086005  0.436295  0.253698  1
  Ti  Ti2  1  0.734173  0.734173  0.265051  1
  Ti  Ti3  1  0.265828  0.265828  0.734950  1
  Ti  Ti4  1  0.913996  0.563706  0.746301  1
  Ti  Ti5  1  0.563706  0.913996  0.746301  1
  C  C6  1  0.666829  0.333170  0.000000  1
  C  C7  1  0.333170  0.666829  0.000000  1
  C  C8  1  0.833434  0.166567  0.500000  1
  C  C9  1  0.166567  0.833434  0.500000  1
  N  N10  1  0.500000  0.500000  0.500000  1
