# generated using pymatgen
data_CeYSe2
_symmetry_space_group_name_H-M   'P 1'
_cell_length_a   7.29303582
_cell_length_b   7.29303552
_cell_length_c   7.29303680
_cell_angle_alpha   32.80319069
_cell_angle_beta   32.80319609
_cell_angle_gamma   32.80319289
_symmetry_Int_Tables_number   1
_chemical_formula_structural   CeYSe2
_chemical_formula_sum   'Ce1 Y1 Se2'
_cell_volume   101.28401730
_cell_formula_units_Z   1
loop_
 _symmetry_equiv_pos_site_id
 _symmetry_equiv_pos_as_xyz
  1  'x, y, z'
loop_
 _atom_site_type_symbol
 _atom_site_label
 _atom_site_symmetry_multiplicity
 _atom_site_fract_x
 _atom_site_fract_y
 _atom_site_fract_z
 _atom_site_occupancy
  Ce  Ce0  1  0.000000  0.000000  0.000000  1
  Y  Y1  1  0.500000  0.500000  0.500000  1
  Se  Se2  1  0.246299  0.246299  0.246299  1
  Se  Se3  1  0.753701  0.753701  0.753701  1
