# generated using pymatgen
data_TiNb5Pt6
_symmetry_space_group_name_H-M   'P 1'
_cell_length_a   13.94578500
_cell_length_b   2.81256500
_cell_length_c   5.01360900
_cell_angle_alpha   90.00000000
_cell_angle_beta   90.00000000
_cell_angle_gamma   90.00000000
_symmetry_Int_Tables_number   1
_chemical_formula_structural   TiNb5Pt6
_chemical_formula_sum   'Ti1 Nb5 Pt6'
_cell_volume   196.65092556
_cell_formula_units_Z   1
loop_
 _symmetry_equiv_pos_site_id
 _symmetry_equiv_pos_as_xyz
  1  'x, y, z'
loop_
 _atom_site_type_symbol
 _atom_site_label
 _atom_site_symmetry_multiplicity
 _atom_site_fract_x
 _atom_site_fract_y
 _atom_site_fract_z
 _atom_site_occupancy
  Ti  Ti0  1  0.250000  0.000000  0.995751  1
  Nb  Nb1  1  0.083119  0.000000  0.343347  1
  Nb  Nb2  1  0.416881  0.000000  0.343347  1
  Nb  Nb3  1  0.580533  0.000000  0.658905  1
  Nb  Nb4  1  0.919467  0.000000  0.658905  1
  Nb  Nb5  1  0.750000  0.000000  0.991902  1
  Pt  Pt6  1  0.583895  0.499998  0.158439  1
  Pt  Pt7  1  0.916105  0.499998  0.158439  1
  Pt  Pt8  1  0.750000  0.499998  0.496632  1
  Pt  Pt9  1  0.250000  0.499998  0.501653  1
  Pt  Pt10  1  0.086340  0.499998  0.846342  1
  Pt  Pt11  1  0.413660  0.499998  0.846342  1
