# generated using pymatgen
data_Cs2P2RuRh
_symmetry_space_group_name_H-M   'P 1'
_cell_length_a   4.04722400
_cell_length_b   4.04722400
_cell_length_c   12.45242000
_cell_angle_alpha   90.00000000
_cell_angle_beta   90.00000000
_cell_angle_gamma   90.00000000
_symmetry_Int_Tables_number   1
_chemical_formula_structural   Cs2P2RuRh
_chemical_formula_sum   'Cs2 P2 Ru1 Rh1'
_cell_volume   203.97091488
_cell_formula_units_Z   1
loop_
 _symmetry_equiv_pos_site_id
 _symmetry_equiv_pos_as_xyz
  1  'x, y, z'
loop_
 _atom_site_type_symbol
 _atom_site_label
 _atom_site_symmetry_multiplicity
 _atom_site_fract_x
 _atom_site_fract_y
 _atom_site_fract_z
 _atom_site_occupancy
  Cs  Cs0  1  0.500000  0.000000  0.733874  1
  Cs  Cs1  1  0.000000  0.500000  0.266126  1
  P  P2  1  0.500000  0.000000  0.095665  1
  P  P3  1  0.000000  0.500000  0.904335  1
  Ru  Ru4  1  0.500000  0.500000  0.000000  1
  Rh  Rh5  1  0.000000  0.000000  0.000000  1
