# generated using pymatgen
data_Ho6Er6Mn2In3
_symmetry_space_group_name_H-M   'P 1'
_cell_length_a   8.40746989
_cell_length_b   8.40384362
_cell_length_c   8.40747082
_cell_angle_alpha   110.26460151
_cell_angle_beta   110.33622888
_cell_angle_gamma   107.84222530
_symmetry_Int_Tables_number   1
_chemical_formula_structural   Ho6Er6Mn2In3
_chemical_formula_sum   'Ho6 Er6 Mn2 In3'
_cell_volume   456.90978137
_cell_formula_units_Z   1
loop_
 _symmetry_equiv_pos_site_id
 _symmetry_equiv_pos_as_xyz
  1  'x, y, z'
loop_
 _atom_site_type_symbol
 _atom_site_label
 _atom_site_symmetry_multiplicity
 _atom_site_fract_x
 _atom_site_fract_y
 _atom_site_fract_z
 _atom_site_occupancy
  Ho  Ho0  1  0.211200  0.457932  0.246732  1
  Ho  Ho1  1  0.788800  0.542068  0.753268  1
  Ho  Ho2  1  0.302147  0.301973  0.604587  1
  Ho  Ho3  1  0.697853  0.698027  0.395413  1
  Ho  Ho4  1  0.302614  0.698027  0.000174  1
  Ho  Ho5  1  0.697386  0.301973  0.999826  1
  Er  Er6  1  0.457657  0.210967  0.245982  1
  Er  Er7  1  0.542343  0.789033  0.754018  1
  Er  Er8  1  0.964984  0.210967  0.753309  1
  Er  Er9  1  0.211278  0.964708  0.753429  1
  Er  Er10  1  0.035016  0.789033  0.246691  1
  Er  Er11  1  0.788722  0.035292  0.246571  1
  Mn  Mn12  1  0.394538  0.394538  0.000000  1
  Mn  Mn13  1  0.605462  0.605462  0.000000  1
  In  In14  1  0.500000  0.000000  0.500000  1
  In  In15  1  0.000000  0.500000  0.500000  1
  In  In16  1  0.000000  0.000000  0.000000  1
