# generated using pymatgen
data_Dy13Th7Sn16
_symmetry_space_group_name_H-M   'P 1'
_cell_length_a   8.11810587
_cell_length_b   8.23006569
_cell_length_c   15.55153427
_cell_angle_alpha   90.06615380
_cell_angle_beta   90.26950562
_cell_angle_gamma   89.89708559
_symmetry_Int_Tables_number   1
_chemical_formula_structural   Dy13Th7Sn16
_chemical_formula_sum   'Dy13 Th7 Sn16'
_cell_volume   1039.02372381
_cell_formula_units_Z   1
loop_
 _symmetry_equiv_pos_site_id
 _symmetry_equiv_pos_as_xyz
  1  'x, y, z'
loop_
 _atom_site_type_symbol
 _atom_site_label
 _atom_site_symmetry_multiplicity
 _atom_site_fract_x
 _atom_site_fract_y
 _atom_site_fract_z
 _atom_site_occupancy
  Dy  Dy0  1  0.364669  0.835519  0.876470  1
  Dy  Dy1  1  0.863115  0.662781  0.623679  1
  Dy  Dy2  1  0.635822  0.163918  0.376892  1
  Dy  Dy3  1  0.133389  0.336232  0.122632  1
  Dy  Dy4  1  0.634544  0.164272  0.122592  1
  Dy  Dy5  1  0.136510  0.336302  0.376800  1
  Dy  Dy6  1  0.363827  0.837279  0.624269  1
  Dy  Dy7  1  0.865765  0.663191  0.876878  1
  Dy  Dy8  1  0.525366  0.322897  0.900267  1
  Dy  Dy9  1  0.194053  0.498509  0.750489  1
  Dy  Dy10  1  0.694985  0.001484  0.750354  1
  Dy  Dy11  1  0.805726  0.501968  0.250000  1
  Dy  Dy12  1  0.305664  0.997881  0.250066  1
  Th  Th13  1  0.021145  0.180530  0.597891  1
  Th  Th14  1  0.479616  0.680371  0.403149  1
  Th  Th15  1  0.977959  0.820221  0.096651  1
  Th  Th16  1  0.479232  0.680228  0.097292  1
  Th  Th17  1  0.979951  0.819810  0.403672  1
  Th  Th18  1  0.519270  0.319254  0.595936  1
  Th  Th19  1  0.019865  0.178937  0.903186  1
  Sn  Sn20  1  0.294997  0.036363  0.042639  1
  Sn  Sn21  1  0.796638  0.461061  0.458246  1
  Sn  Sn22  1  0.703627  0.961241  0.542095  1
  Sn  Sn23  1  0.209124  0.534540  0.957338  1
  Sn  Sn24  1  0.702196  0.962362  0.957506  1
  Sn  Sn25  1  0.202665  0.540209  0.541647  1
  Sn  Sn26  1  0.296353  0.038774  0.458619  1
  Sn  Sn27  1  0.793189  0.460238  0.040715  1
  Sn  Sn28  1  0.561206  0.621939  0.749441  1
  Sn  Sn29  1  0.061166  0.878212  0.750229  1
  Sn  Sn30  1  0.438388  0.377119  0.249664  1
  Sn  Sn31  1  0.938386  0.122615  0.249799  1
  Sn  Sn32  1  0.330280  0.145148  0.752372  1
  Sn  Sn33  1  0.825356  0.358154  0.750373  1
  Sn  Sn34  1  0.673634  0.858685  0.250169  1
  Sn  Sn35  1  0.172318  0.641756  0.249984  1
