# generated using pymatgen
data_Er2Sn(PIr2)6
_symmetry_space_group_name_H-M   'P 1'
_cell_length_a   9.72923300
_cell_length_b   9.72923294
_cell_length_c   3.98664700
_cell_angle_alpha   90.00000000
_cell_angle_beta   90.00000000
_cell_angle_gamma   119.99999863
_symmetry_Int_Tables_number   1
_chemical_formula_structural   Er2Sn(PIr2)6
_chemical_formula_sum   'Er2 Sn1 P6 Ir12'
_cell_volume   326.81021737
_cell_formula_units_Z   1
loop_
 _symmetry_equiv_pos_site_id
 _symmetry_equiv_pos_as_xyz
  1  'x, y, z'
loop_
 _atom_site_type_symbol
 _atom_site_label
 _atom_site_symmetry_multiplicity
 _atom_site_fract_x
 _atom_site_fract_y
 _atom_site_fract_z
 _atom_site_occupancy
  Er  Er0  1  0.333333  0.666667  0.763018  1
  Er  Er1  1  0.666667  0.333333  0.236982  1
  Sn  Sn2  1  0.000000  0.000000  0.500000  1
  P  P3  1  0.407179  0.282050  0.734450  1
  P  P4  1  0.717950  0.125131  0.734450  1
  P  P5  1  0.874869  0.592821  0.734450  1
  P  P6  1  0.592821  0.717950  0.265550  1
  P  P7  1  0.282050  0.874869  0.265550  1
  P  P8  1  0.125131  0.407179  0.265550  1
  Ir  Ir9  1  0.459951  0.070484  0.742446  1
  Ir  Ir10  1  0.929516  0.389466  0.742446  1
  Ir  Ir11  1  0.610534  0.540049  0.742446  1
  Ir  Ir12  1  0.540049  0.929516  0.257554  1
  Ir  Ir13  1  0.070484  0.610534  0.257554  1
  Ir  Ir14  1  0.389466  0.459951  0.257554  1
  Ir  Ir15  1  0.166324  0.291111  0.776284  1
  Ir  Ir16  1  0.708889  0.875214  0.776284  1
  Ir  Ir17  1  0.124786  0.833676  0.776284  1
  Ir  Ir18  1  0.833676  0.708889  0.223716  1
  Ir  Ir19  1  0.291111  0.124786  0.223716  1
  Ir  Ir20  1  0.875214  0.166324  0.223716  1
