# generated using pymatgen
data_LiHf(ZrIr)3
_symmetry_space_group_name_H-M   'P 1'
_cell_length_a   7.91955300
_cell_length_b   7.91955354
_cell_length_c   5.38257500
_cell_angle_alpha   90.00000000
_cell_angle_beta   90.00000000
_cell_angle_gamma   119.99999356
_symmetry_Int_Tables_number   1
_chemical_formula_structural   LiHf(ZrIr)3
_chemical_formula_sum   'Li2 Hf2 Zr6 Ir6'
_cell_volume   292.36280419
_cell_formula_units_Z   2
loop_
 _symmetry_equiv_pos_site_id
 _symmetry_equiv_pos_as_xyz
  1  'x, y, z'
loop_
 _atom_site_type_symbol
 _atom_site_label
 _atom_site_symmetry_multiplicity
 _atom_site_fract_x
 _atom_site_fract_y
 _atom_site_fract_z
 _atom_site_occupancy
  Li  Li0  1  0.666667  0.333333  0.000000  1
  Li  Li1  1  0.333333  0.666667  0.000000  1
  Hf  Hf2  1  0.333333  0.666667  0.500000  1
  Hf  Hf3  1  0.666667  0.333333  0.500000  1
  Zr  Zr4  1  0.753763  0.753763  0.751544  1
  Zr  Zr5  1  0.246237  0.000000  0.751544  1
  Zr  Zr6  1  0.000000  0.246237  0.751544  1
  Zr  Zr7  1  0.246237  0.246237  0.248456  1
  Zr  Zr8  1  0.753763  0.000000  0.248456  1
  Zr  Zr9  1  0.000000  0.753763  0.248456  1
  Ir  Ir10  1  0.399268  0.399268  0.758490  1
  Ir  Ir11  1  0.600732  0.000000  0.758490  1
  Ir  Ir12  1  0.000000  0.600732  0.758490  1
  Ir  Ir13  1  0.600732  0.600732  0.241510  1
  Ir  Ir14  1  0.399268  0.000000  0.241510  1
  Ir  Ir15  1  0.000000  0.399268  0.241510  1
