# generated using pymatgen
data_Cs4HfSe4
_symmetry_space_group_name_H-M   'P 1'
_cell_length_a   8.74187144
_cell_length_b   8.52446782
_cell_length_c   12.97716215
_cell_angle_alpha   79.22207174
_cell_angle_beta   72.05387240
_cell_angle_gamma   66.49348522
_symmetry_Int_Tables_number   1
_chemical_formula_structural   Cs4HfSe4
_chemical_formula_sum   'Cs8 Hf2 Se8'
_cell_volume   841.37728577
_cell_formula_units_Z   2
loop_
 _symmetry_equiv_pos_site_id
 _symmetry_equiv_pos_as_xyz
  1  'x, y, z'
loop_
 _atom_site_type_symbol
 _atom_site_label
 _atom_site_symmetry_multiplicity
 _atom_site_fract_x
 _atom_site_fract_y
 _atom_site_fract_z
 _atom_site_occupancy
  Cs  Cs0  1  0.767183  0.244730  0.035737  1
  Cs  Cs1  1  0.583727  0.752883  0.156730  1
  Cs  Cs2  1  0.030918  0.787083  0.380064  1
  Cs  Cs3  1  0.498156  0.291447  0.433536  1
  Cs  Cs4  1  0.501769  0.708581  0.566498  1
  Cs  Cs5  1  0.969064  0.212921  0.619947  1
  Cs  Cs6  1  0.416240  0.247157  0.843287  1
  Cs  Cs7  1  0.232813  0.755310  0.964287  1
  Hf  Hf8  1  0.161927  0.266147  0.251979  1
  Hf  Hf9  1  0.838126  0.733829  0.747994  1
  Se  Se10  1  0.168829  0.113819  0.100490  1
  Se  Se11  1  0.336867  0.458674  0.188172  1
  Se  Se12  1  0.858153  0.444203  0.350302  1
  Se  Se13  1  0.306255  0.029661  0.379206  1
  Se  Se14  1  0.693757  0.970329  0.620796  1
  Se  Se15  1  0.141889  0.555693  0.649672  1
  Se  Se16  1  0.663130  0.541350  0.811823  1
  Se  Se17  1  0.831199  0.886186  0.899476  1
