# generated using pymatgen
data_LaNdOsO6
_symmetry_space_group_name_H-M   'P 1'
_cell_length_a   5.47965000
_cell_length_b   9.45096600
_cell_length_c   10.29162100
_cell_angle_alpha   90.00000000
_cell_angle_beta   90.00000000
_cell_angle_gamma   90.00000000
_symmetry_Int_Tables_number   1
_chemical_formula_structural   LaNdOsO6
_chemical_formula_sum   'La4 Nd4 Os4 O24'
_cell_volume   532.98232264
_cell_formula_units_Z   4
loop_
 _symmetry_equiv_pos_site_id
 _symmetry_equiv_pos_as_xyz
  1  'x, y, z'
loop_
 _atom_site_type_symbol
 _atom_site_label
 _atom_site_symmetry_multiplicity
 _atom_site_fract_x
 _atom_site_fract_y
 _atom_site_fract_z
 _atom_site_occupancy
  La  La0  1  0.531912  0.218820  0.363241  1
  La  La1  1  0.031912  0.281180  0.636759  1
  La  La2  1  0.468088  0.718820  0.136759  1
  La  La3  1  0.968088  0.781180  0.863241  1
  Nd  Nd4  1  0.522882  0.102421  0.960242  1
  Nd  Nd5  1  0.022882  0.397579  0.039758  1
  Nd  Nd6  1  0.477118  0.602421  0.539758  1
  Nd  Nd7  1  0.977118  0.897579  0.460242  1
  Os  Os8  1  0.460232  0.995773  0.642203  1
  Os  Os9  1  0.960232  0.504227  0.357797  1
  Os  Os10  1  0.539768  0.495773  0.857797  1
  Os  Os11  1  0.039768  0.004227  0.142203  1
  O  O12  1  0.306081  0.133184  0.173678  1
  O  O13  1  0.806081  0.366816  0.826322  1
  O  O14  1  0.693919  0.633184  0.326322  1
  O  O15  1  0.193919  0.866816  0.673678  1
  O  O16  1  0.723898  0.107973  0.563963  1
  O  O17  1  0.223898  0.392027  0.436037  1
  O  O18  1  0.276102  0.607973  0.936037  1
  O  O19  1  0.776102  0.892027  0.063963  1
  O  O20  1  0.674061  0.636248  0.743428  1
  O  O21  1  0.174061  0.863752  0.256572  1
  O  O22  1  0.325939  0.136248  0.756572  1
  O  O23  1  0.825939  0.363752  0.243428  1
  O  O24  1  0.665956  0.945954  0.784112  1
  O  O25  1  0.165956  0.554046  0.215888  1
  O  O26  1  0.334044  0.445954  0.715888  1
  O  O27  1  0.834044  0.054046  0.284112  1
  O  O28  1  0.250194  0.087085  0.505548  1
  O  O29  1  0.750194  0.412915  0.494452  1
  O  O30  1  0.749806  0.587085  0.994452  1
  O  O31  1  0.249806  0.912915  0.005548  1
  O  O32  1  0.074252  0.652135  0.476940  1
  O  O33  1  0.574252  0.847865  0.523060  1
  O  O34  1  0.925748  0.152135  0.023060  1
  O  O35  1  0.425748  0.347865  0.976940  1
