# generated using pymatgen
data_Y12TlNi4Pd
_symmetry_space_group_name_H-M   'P 1'
_cell_length_a   8.40454402
_cell_length_b   8.40432065
_cell_length_c   8.40454600
_cell_angle_alpha   107.33654278
_cell_angle_beta   109.35194458
_cell_angle_gamma   111.75659168
_symmetry_Int_Tables_number   1
_chemical_formula_structural   Y12TlNi4Pd
_chemical_formula_sum   'Y12 Tl1 Ni4 Pd1'
_cell_volume   456.30345112
_cell_formula_units_Z   1
loop_
 _symmetry_equiv_pos_site_id
 _symmetry_equiv_pos_as_xyz
  1  'x, y, z'
loop_
 _atom_site_type_symbol
 _atom_site_label
 _atom_site_symmetry_multiplicity
 _atom_site_fract_x
 _atom_site_fract_y
 _atom_site_fract_z
 _atom_site_occupancy
  Y  Y0  1  0.694166  0.283831  0.978001  1
  Y  Y1  1  0.305834  0.716169  0.021999  1
  Y  Y2  1  0.694170  0.716169  0.410335  1
  Y  Y3  1  0.305830  0.283831  0.589665  1
  Y  Y4  1  0.805923  0.128842  0.322920  1
  Y  Y5  1  0.805926  0.483012  0.677085  1
  Y  Y6  1  0.194077  0.871158  0.677080  1
  Y  Y7  1  0.194074  0.516988  0.322915  1
  Y  Y8  1  0.613217  0.795900  0.817313  1
  Y  Y9  1  0.978588  0.795900  0.182683  1
  Y  Y10  1  0.021412  0.204100  0.817317  1
  Y  Y11  1  0.386783  0.204100  0.182687  1
  Tl  Tl12  1  0.500000  0.000000  0.500000  1
  Ni  Ni13  1  0.864095  0.500000  0.364095  1
  Ni  Ni14  1  0.135905  0.500000  0.635905  1
  Ni  Ni15  1  0.999999  0.123845  0.123846  1
  Ni  Ni16  1  0.000001  0.876155  0.876154  1
  Pd  Pd17  1  0.500000  0.500000  0.000000  1
