# generated using pymatgen
data_LaHg3Bi3SbO14
_symmetry_space_group_name_H-M   'P 1'
_cell_length_a   7.85505654
_cell_length_b   7.76453943
_cell_length_c   7.85505623
_cell_angle_alpha   59.07282307
_cell_angle_beta   58.84195988
_cell_angle_gamma   59.07281907
_symmetry_Int_Tables_number   1
_chemical_formula_structural   LaHg3Bi3SbO14
_chemical_formula_sum   'La1 Hg3 Bi3 Sb1 O14'
_cell_volume   331.00239685
_cell_formula_units_Z   1
loop_
 _symmetry_equiv_pos_site_id
 _symmetry_equiv_pos_as_xyz
  1  'x, y, z'
loop_
 _atom_site_type_symbol
 _atom_site_label
 _atom_site_symmetry_multiplicity
 _atom_site_fract_x
 _atom_site_fract_y
 _atom_site_fract_z
 _atom_site_occupancy
  La  La0  1  0.125000  0.125000  0.125000  1
  Hg  Hg1  1  0.625000  0.125000  0.125000  1
  Hg  Hg2  1  0.125000  0.625000  0.125000  1
  Hg  Hg3  1  0.125000  0.125000  0.625000  1
  Bi  Bi4  1  0.625000  0.625000  0.125000  1
  Bi  Bi5  1  0.625000  0.625000  0.625000  1
  Bi  Bi6  1  0.125000  0.625000  0.625000  1
  Sb  Sb7  1  0.625000  0.125000  0.625000  1
  O  O8  1  0.712710  0.292524  0.313607  1
  O  O9  1  0.700250  0.715976  0.288175  1
  O  O10  1  0.292609  0.728792  0.292609  1
  O  O11  1  0.995759  0.997043  0.995759  1
  O  O12  1  0.696394  0.289275  0.696394  1
  O  O13  1  0.961825  0.534024  0.549750  1
  O  O14  1  0.288175  0.715976  0.700250  1
  O  O15  1  0.553606  0.960725  0.553606  1
  O  O16  1  0.254241  0.252957  0.254241  1
  O  O17  1  0.957391  0.521208  0.957391  1
  O  O18  1  0.549750  0.534024  0.961825  1
  O  O19  1  0.936393  0.957476  0.537290  1
  O  O20  1  0.537290  0.957476  0.936393  1
  O  O21  1  0.313607  0.292524  0.712710  1
