# generated using pymatgen
data_Ti10ZnSn6Ge
_symmetry_space_group_name_H-M   'P 1'
_cell_length_a   8.26498600
_cell_length_b   8.26498527
_cell_length_c   5.56245200
_cell_angle_alpha   90.00000000
_cell_angle_beta   90.00000000
_cell_angle_gamma   120.00000290
_symmetry_Int_Tables_number   1
_chemical_formula_structural   Ti10ZnSn6Ge
_chemical_formula_sum   'Ti10 Zn1 Sn6 Ge1'
_cell_volume   329.06455250
_cell_formula_units_Z   1
loop_
 _symmetry_equiv_pos_site_id
 _symmetry_equiv_pos_as_xyz
  1  'x, y, z'
loop_
 _atom_site_type_symbol
 _atom_site_label
 _atom_site_symmetry_multiplicity
 _atom_site_fract_x
 _atom_site_fract_y
 _atom_site_fract_z
 _atom_site_occupancy
  Ti  Ti0  1  0.266930  0.000000  0.743822  1
  Ti  Ti1  1  0.733070  0.000000  0.256178  1
  Ti  Ti2  1  0.000000  0.266930  0.743822  1
  Ti  Ti3  1  0.000000  0.733070  0.256178  1
  Ti  Ti4  1  0.733070  0.733070  0.743822  1
  Ti  Ti5  1  0.266930  0.266930  0.256178  1
  Ti  Ti6  1  0.333333  0.666667  0.500000  1
  Ti  Ti7  1  0.666667  0.333333  0.500000  1
  Ti  Ti8  1  0.666667  0.333333  0.000000  1
  Ti  Ti9  1  0.333333  0.666667  0.000000  1
  Zn  Zn10  1  0.000000  0.000000  0.000000  1
  Sn  Sn11  1  0.611478  0.000000  0.753529  1
  Sn  Sn12  1  0.388522  0.000000  0.246471  1
  Sn  Sn13  1  0.000000  0.611478  0.753529  1
  Sn  Sn14  1  0.000000  0.388522  0.246471  1
  Sn  Sn15  1  0.388522  0.388522  0.753529  1
  Sn  Sn16  1  0.611478  0.611478  0.246471  1
  Ge  Ge17  1  0.000000  0.000000  0.500000  1
