# generated using pymatgen
data_UTa5NbBr18
_symmetry_space_group_name_H-M   'P 1'
_cell_length_a   10.69373039
_cell_length_b   10.69312598
_cell_length_c   10.69038500
_cell_angle_alpha   56.06608041
_cell_angle_beta   56.07315394
_cell_angle_gamma   56.04370836
_symmetry_Int_Tables_number   1
_chemical_formula_structural   UTa5NbBr18
_chemical_formula_sum   'U1 Ta5 Nb1 Br18'
_cell_volume   785.53588004
_cell_formula_units_Z   1
loop_
 _symmetry_equiv_pos_site_id
 _symmetry_equiv_pos_as_xyz
  1  'x, y, z'
loop_
 _atom_site_type_symbol
 _atom_site_label
 _atom_site_symmetry_multiplicity
 _atom_site_fract_x
 _atom_site_fract_y
 _atom_site_fract_z
 _atom_site_occupancy
  U  U0  1  0.000403  0.999770  0.999828  1
  Ta  Ta1  1  0.414644  0.314399  0.639092  1
  Ta  Ta2  1  0.359971  0.585926  0.686687  1
  Ta  Ta3  1  0.686229  0.360328  0.585539  1
  Ta  Ta4  1  0.313910  0.639942  0.414250  1
  Ta  Ta5  1  0.640156  0.414360  0.313156  1
  Nb  Nb6  1  0.586216  0.687538  0.359494  1
  Br  Br7  1  0.568171  0.161308  0.441727  1
  Br  Br8  1  0.222690  0.371745  0.907853  1
  Br  Br9  1  0.907810  0.222520  0.371935  1
  Br  Br10  1  0.369300  0.908794  0.222427  1
  Br  Br11  1  0.778170  0.626932  0.090727  1
  Br  Br12  1  0.092132  0.777320  0.628200  1
  Br  Br13  1  0.704396  0.961393  0.157440  1
  Br  Br14  1  0.959667  0.158654  0.703702  1
  Br  Br15  1  0.160279  0.700862  0.959526  1
  Br  Br16  1  0.295868  0.041740  0.840819  1
  Br  Br17  1  0.040095  0.839931  0.296836  1
  Br  Br18  1  0.839676  0.298031  0.041327  1
  Br  Br19  1  0.558250  0.431963  0.838456  1
  Br  Br20  1  0.161359  0.442222  0.567635  1
  Br  Br21  1  0.441823  0.567939  0.161531  1
  Br  Br22  1  0.430182  0.838807  0.560650  1
  Br  Br23  1  0.840194  0.555647  0.433677  1
  Br  Br24  1  0.628407  0.091934  0.777485  1
