# generated using pymatgen
data_La3Nd13Cd4CoPt3
_symmetry_space_group_name_H-M   'P 1'
_cell_length_a   10.00828282
_cell_length_b   10.02483530
_cell_length_c   10.02483500
_cell_angle_alpha   60.04121556
_cell_angle_beta   60.12001649
_cell_angle_gamma   60.12001972
_symmetry_Int_Tables_number   1
_chemical_formula_structural   La3Nd13Cd4CoPt3
_chemical_formula_sum   'La3 Nd13 Cd4 Co1 Pt3'
_cell_volume   712.72189170
_cell_formula_units_Z   1
loop_
 _symmetry_equiv_pos_site_id
 _symmetry_equiv_pos_as_xyz
  1  'x, y, z'
loop_
 _atom_site_type_symbol
 _atom_site_label
 _atom_site_symmetry_multiplicity
 _atom_site_fract_x
 _atom_site_fract_y
 _atom_site_fract_z
 _atom_site_occupancy
  La  La0  1  0.350217  0.350939  0.350939  1
  La  La1  1  0.342569  0.344379  0.954486  1
  La  La2  1  0.342569  0.954486  0.344379  1
  Nd  Nd3  1  0.949354  0.347306  0.347306  1
  Nd  Nd4  1  0.822410  0.188450  0.188450  1
  Nd  Nd5  1  0.190783  0.809658  0.809658  1
  Nd  Nd6  1  0.188976  0.819964  0.188567  1
  Nd  Nd7  1  0.809680  0.189891  0.809385  1
  Nd  Nd8  1  0.188976  0.188567  0.819964  1
  Nd  Nd9  1  0.809680  0.809385  0.189891  1
  Nd  Nd10  1  0.937964  0.563216  0.563216  1
  Nd  Nd11  1  0.563580  0.934566  0.934566  1
  Nd  Nd12  1  0.563132  0.937448  0.562537  1
  Nd  Nd13  1  0.934644  0.563590  0.934784  1
  Nd  Nd14  1  0.563132  0.562537  0.937448  1
  Nd  Nd15  1  0.934644  0.934784  0.563590  1
  Cd  Cd16  1  0.580521  0.579628  0.579628  1
  Cd  Cd17  1  0.583287  0.581038  0.256589  1
  Cd  Cd18  1  0.583287  0.256589  0.581038  1
  Cd  Cd19  1  0.256407  0.581573  0.581573  1
  Co  Co20  1  0.145210  0.141911  0.141911  1
  Pt  Pt21  1  0.142866  0.143742  0.572698  1
  Pt  Pt22  1  0.142866  0.572698  0.143742  1
  Pt  Pt23  1  0.573242  0.143651  0.143651  1
