# generated using pymatgen
data_Sr2Cd(H6Ir)2
_symmetry_space_group_name_H-M   'P 1'
_cell_length_a   4.97998600
_cell_length_b   4.97998603
_cell_length_c   8.95190200
_cell_angle_alpha   90.00000000
_cell_angle_beta   90.00000000
_cell_angle_gamma   119.99998651
_symmetry_Int_Tables_number   1
_chemical_formula_structural   Sr2Cd(H6Ir)2
_chemical_formula_sum   'Sr2 Cd1 H12 Ir2'
_cell_volume   192.26589606
_cell_formula_units_Z   1
loop_
 _symmetry_equiv_pos_site_id
 _symmetry_equiv_pos_as_xyz
  1  'x, y, z'
loop_
 _atom_site_type_symbol
 _atom_site_label
 _atom_site_symmetry_multiplicity
 _atom_site_fract_x
 _atom_site_fract_y
 _atom_site_fract_z
 _atom_site_occupancy
  Sr  Sr0  1  0.000000  0.000000  0.964032  1
  Sr  Sr1  1  0.333333  0.666667  0.620135  1
  Cd  Cd2  1  0.666667  0.333333  0.287609  1
  H  H3  1  0.174278  0.825722  0.363116  1
  H  H4  1  0.651443  0.825722  0.363116  1
  H  H5  1  0.174278  0.348557  0.363116  1
  H  H6  1  0.827326  0.172674  0.664807  1
  H  H7  1  0.345348  0.172674  0.664807  1
  H  H8  1  0.827326  0.654652  0.664807  1
  H  H9  1  0.505365  0.010730  0.875326  1
  H  H10  1  0.505365  0.494635  0.875326  1
  H  H11  1  0.989270  0.494635  0.875326  1
  H  H12  1  0.477915  0.955830  0.130256  1
  H  H13  1  0.477915  0.522085  0.130256  1
  H  H14  1  0.044170  0.522085  0.130256  1
  Ir  Ir15  1  0.666667  0.333333  0.770357  1
  Ir  Ir16  1  0.333333  0.666667  0.257352  1
