# generated using pymatgen
data_Nd2In2Si2Ir3Ru
_symmetry_space_group_name_H-M   'P 1'
_cell_length_a   4.27025200
_cell_length_b   4.27025200
_cell_length_c   10.63555100
_cell_angle_alpha   90.00000000
_cell_angle_beta   90.00000000
_cell_angle_gamma   90.00000000
_symmetry_Int_Tables_number   1
_chemical_formula_structural   Nd2In2Si2Ir3Ru
_chemical_formula_sum   'Nd2 In2 Si2 Ir3 Ru1'
_cell_volume   193.93982706
_cell_formula_units_Z   1
loop_
 _symmetry_equiv_pos_site_id
 _symmetry_equiv_pos_as_xyz
  1  'x, y, z'
loop_
 _atom_site_type_symbol
 _atom_site_label
 _atom_site_symmetry_multiplicity
 _atom_site_fract_x
 _atom_site_fract_y
 _atom_site_fract_z
 _atom_site_occupancy
  Nd  Nd0  1  0.000000  0.500000  0.231785  1
  Nd  Nd1  1  0.500000  0.000000  0.768215  1
  In  In2  1  0.000000  0.000000  0.500000  1
  In  In3  1  0.500000  0.500000  0.500000  1
  Si  Si4  1  0.000000  0.500000  0.889671  1
  Si  Si5  1  0.500000  0.000000  0.110329  1
  Ir  Ir6  1  0.500000  0.500000  0.000000  1
  Ir  Ir7  1  0.000000  0.500000  0.667685  1
  Ir  Ir8  1  0.500000  0.000000  0.332315  1
  Ru  Ru9  1  0.000000  0.000000  0.000000  1
