# generated using pymatgen
data_Cs3Re2NCl10
_symmetry_space_group_name_H-M   'P 1'
_cell_length_a   7.54209267
_cell_length_b   7.54209321
_cell_length_c   10.38647600
_cell_angle_alpha   111.28902839
_cell_angle_beta   111.28902996
_cell_angle_gamma   90.00000055
_symmetry_Int_Tables_number   1
_chemical_formula_structural   Cs3Re2NCl10
_chemical_formula_sum   'Cs3 Re2 N1 Cl10'
_cell_volume   506.98600161
_cell_formula_units_Z   1
loop_
 _symmetry_equiv_pos_site_id
 _symmetry_equiv_pos_as_xyz
  1  'x, y, z'
loop_
 _atom_site_type_symbol
 _atom_site_label
 _atom_site_symmetry_multiplicity
 _atom_site_fract_x
 _atom_site_fract_y
 _atom_site_fract_z
 _atom_site_occupancy
  Cs  Cs0  1  0.499999  0.499999  0.000000  1
  Cs  Cs1  1  0.749999  0.250000  0.500000  1
  Cs  Cs2  1  0.250000  0.749999  0.500000  1
  Re  Re3  1  0.101824  0.101824  0.203647  1
  Re  Re4  1  0.898176  0.898176  0.796354  1
  N  N5  1  0.000000  0.000000  0.000000  1
  Cl  Cl6  1  0.332253  0.332253  0.220386  1
  Cl  Cl7  1  0.888133  0.332253  0.220386  1
  Cl  Cl8  1  0.332253  0.888133  0.220386  1
  Cl  Cl9  1  0.888133  0.888133  0.220386  1
  Cl  Cl10  1  0.240926  0.240926  0.481853  1
  Cl  Cl11  1  0.759073  0.759073  0.518148  1
  Cl  Cl12  1  0.111867  0.111867  0.779612  1
  Cl  Cl13  1  0.667746  0.111867  0.779612  1
  Cl  Cl14  1  0.111867  0.667746  0.779612  1
  Cl  Cl15  1  0.667746  0.667746  0.779612  1
