# generated using pymatgen
data_Zr6Ti5Al11Ir7
_symmetry_space_group_name_H-M   'P 1'
_cell_length_a   8.81417931
_cell_length_b   8.81417996
_cell_length_c   8.79712627
_cell_angle_alpha   59.93584877
_cell_angle_beta   59.93584811
_cell_angle_gamma   60.00000289
_symmetry_Int_Tables_number   1
_chemical_formula_structural   Zr6Ti5Al11Ir7
_chemical_formula_sum   'Zr6 Ti5 Al11 Ir7'
_cell_volume   482.80064014
_cell_formula_units_Z   1
loop_
 _symmetry_equiv_pos_site_id
 _symmetry_equiv_pos_as_xyz
  1  'x, y, z'
loop_
 _atom_site_type_symbol
 _atom_site_label
 _atom_site_symmetry_multiplicity
 _atom_site_fract_x
 _atom_site_fract_y
 _atom_site_fract_z
 _atom_site_occupancy
  Zr  Zr0  1  0.693159  0.693159  0.308249  1
  Zr  Zr1  1  0.305433  0.693159  0.308249  1
  Zr  Zr2  1  0.693159  0.305433  0.308249  1
  Zr  Zr3  1  0.311036  0.311036  0.691273  1
  Zr  Zr4  1  0.686654  0.311036  0.691273  1
  Zr  Zr5  1  0.311036  0.686654  0.691273  1
  Ti  Ti6  1  0.880387  0.880387  0.358841  1
  Ti  Ti7  1  0.876669  0.362155  0.884508  1
  Ti  Ti8  1  0.362155  0.876669  0.884508  1
  Ti  Ti9  1  0.876669  0.876669  0.884508  1
  Ti  Ti10  1  0.122253  0.122253  0.633240  1
  Al  Al11  1  0.119623  0.640568  0.120185  1
  Al  Al12  1  0.640568  0.119623  0.120185  1
  Al  Al13  1  0.119623  0.119623  0.120185  1
  Al  Al14  1  0.661798  0.661798  0.014604  1
  Al  Al15  1  0.663743  0.011680  0.660832  1
  Al  Al16  1  0.011680  0.663743  0.660832  1
  Al  Al17  1  0.663743  0.663743  0.660832  1
  Al  Al18  1  0.335649  0.335649  0.993053  1
  Al  Al19  1  0.337329  0.990140  0.335203  1
  Al  Al20  1  0.990140  0.337329  0.335203  1
  Al  Al21  1  0.337329  0.337329  0.335203  1
  Ir  Ir22  1  0.003023  0.003023  0.990931  1
  Ir  Ir23  1  0.999010  0.999010  0.504710  1
  Ir  Ir24  1  0.497270  0.999010  0.504710  1
  Ir  Ir25  1  0.999010  0.497270  0.504710  1
  Ir  Ir26  1  0.501397  0.501397  0.998151  1
  Ir  Ir27  1  0.999056  0.501397  0.998151  1
  Ir  Ir28  1  0.501397  0.999056  0.998151  1
