# generated using pymatgen
data_LaHfP7Ru12
_symmetry_space_group_name_H-M   'P 1'
_cell_length_a   9.44796000
_cell_length_b   9.44795868
_cell_length_c   3.93518200
_cell_angle_alpha   90.00000000
_cell_angle_beta   90.00000000
_cell_angle_gamma   119.99999669
_symmetry_Int_Tables_number   1
_chemical_formula_structural   LaHfP7Ru12
_chemical_formula_sum   'La1 Hf1 P7 Ru12'
_cell_volume   304.20860895
_cell_formula_units_Z   1
loop_
 _symmetry_equiv_pos_site_id
 _symmetry_equiv_pos_as_xyz
  1  'x, y, z'
loop_
 _atom_site_type_symbol
 _atom_site_label
 _atom_site_symmetry_multiplicity
 _atom_site_fract_x
 _atom_site_fract_y
 _atom_site_fract_z
 _atom_site_occupancy
  La  La0  1  0.333333  0.666667  0.000000  1
  Hf  Hf1  1  0.666667  0.333333  0.500000  1
  P  P2  1  0.606137  0.720045  0.500000  1
  P  P3  1  0.000000  0.000000  0.000000  1
  P  P4  1  0.279955  0.886092  0.500000  1
  P  P5  1  0.113908  0.393863  0.500000  1
  P  P6  1  0.886476  0.569976  0.000000  1
  P  P7  1  0.430024  0.316499  0.000000  1
  P  P8  1  0.683501  0.113524  0.000000  1
  Ru  Ru9  1  0.560936  0.961069  0.500000  1
  Ru  Ru10  1  0.400133  0.439064  0.500000  1
  Ru  Ru11  1  0.914129  0.119690  0.500000  1
  Ru  Ru12  1  0.205561  0.085871  0.500000  1
  Ru  Ru13  1  0.880310  0.794439  0.500000  1
  Ru  Ru14  1  0.727416  0.890775  0.000000  1
  Ru  Ru15  1  0.109225  0.836640  0.000000  1
  Ru  Ru16  1  0.163360  0.272584  0.000000  1
  Ru  Ru17  1  0.426041  0.077044  0.000000  1
  Ru  Ru18  1  0.922956  0.348999  0.000000  1
  Ru  Ru19  1  0.651001  0.573959  0.000000  1
  Ru  Ru20  1  0.038931  0.599867  0.500000  1
