# generated using pymatgen
data_NaNd6RhBr12
_symmetry_space_group_name_H-M   'P 1'
_cell_length_a   9.68455431
_cell_length_b   9.50728076
_cell_length_c   9.52578730
_cell_angle_alpha   106.80044936
_cell_angle_beta   107.41369613
_cell_angle_gamma   107.21534744
_symmetry_Int_Tables_number   1
_chemical_formula_structural   NaNd6RhBr12
_chemical_formula_sum   'Na1 Nd6 Rh1 Br12'
_cell_volume   727.54841934
_cell_formula_units_Z   1
loop_
 _symmetry_equiv_pos_site_id
 _symmetry_equiv_pos_as_xyz
  1  'x, y, z'
loop_
 _atom_site_type_symbol
 _atom_site_label
 _atom_site_symmetry_multiplicity
 _atom_site_fract_x
 _atom_site_fract_y
 _atom_site_fract_z
 _atom_site_occupancy
  Na  Na0  1  0.500000  0.500000  0.500000  1
  Nd  Nd1  1  0.328050  0.116312  0.030830  1
  Nd  Nd2  1  0.029120  0.315880  0.110426  1
  Nd  Nd3  1  0.109415  0.029623  0.317172  1
  Nd  Nd4  1  0.890584  0.970377  0.682828  1
  Nd  Nd5  1  0.970880  0.684120  0.889573  1
  Nd  Nd6  1  0.671950  0.883688  0.969169  1
  Rh  Rh7  1  0.000000  0.000000  0.000000  1
  Br  Br8  1  0.685832  0.218370  0.072956  1
  Br  Br9  1  0.368823  0.453875  0.154782  1
  Br  Br10  1  0.073381  0.683457  0.219214  1
  Br  Br11  1  0.783141  0.926813  0.316619  1
  Br  Br12  1  0.450632  0.153714  0.371257  1
  Br  Br13  1  0.156676  0.371737  0.453741  1
  Br  Br14  1  0.843325  0.628263  0.546260  1
  Br  Br15  1  0.549368  0.846287  0.628743  1
  Br  Br16  1  0.216858  0.073187  0.683381  1
  Br  Br17  1  0.926619  0.316543  0.780785  1
  Br  Br18  1  0.631178  0.546126  0.845218  1
  Br  Br19  1  0.314168  0.781629  0.927044  1
