# generated using pymatgen
data_Sc4Co9P12Rh7W4
_symmetry_space_group_name_H-M   'P 1'
_cell_length_a   3.72956200
_cell_length_b   10.54729626
_cell_length_c   12.05950004
_cell_angle_alpha   89.93739641
_cell_angle_beta   90.00000000
_cell_angle_gamma   90.00000000
_symmetry_Int_Tables_number   1
_chemical_formula_structural   Sc4Co9P12Rh7W4
_chemical_formula_sum   'Sc4 Co9 P12 Rh7 W4'
_cell_volume   474.38180146
_cell_formula_units_Z   1
loop_
 _symmetry_equiv_pos_site_id
 _symmetry_equiv_pos_as_xyz
  1  'x, y, z'
loop_
 _atom_site_type_symbol
 _atom_site_label
 _atom_site_symmetry_multiplicity
 _atom_site_fract_x
 _atom_site_fract_y
 _atom_site_fract_z
 _atom_site_occupancy
  Sc  Sc0  1  0.250000  0.581755  0.709429  1
  Sc  Sc1  1  0.250000  0.913726  0.211410  1
  Sc  Sc2  1  0.750000  0.420773  0.290073  1
  Sc  Sc3  1  0.750000  0.080950  0.789606  1
  Co  Co4  1  0.750000  0.725720  0.320257  1
  Co  Co5  1  0.250000  0.887434  0.694890  1
  Co  Co6  1  0.250000  0.618378  0.198834  1
  Co  Co7  1  0.750000  0.107720  0.303386  1
  Co  Co8  1  0.750000  0.388829  0.802711  1
  Co  Co9  1  0.250000  0.465442  0.934170  1
  Co  Co10  1  0.250000  0.034162  0.433284  1
  Co  Co11  1  0.750000  0.535667  0.068017  1
  Co  Co12  1  0.750000  0.964670  0.563497  1
  P  P13  1  0.250000  0.430621  0.116315  1
  P  P14  1  0.250000  0.071862  0.614100  1
  P  P15  1  0.750000  0.572235  0.886378  1
  P  P16  1  0.750000  0.919745  0.381651  1
  P  P17  1  0.250000  0.270681  0.869773  1
  P  P18  1  0.250000  0.229734  0.369491  1
  P  P19  1  0.750000  0.728868  0.139251  1
  P  P20  1  0.750000  0.770212  0.629889  1
  P  P21  1  0.250000  0.601582  0.379412  1
  P  P22  1  0.250000  0.902815  0.882426  1
  P  P23  1  0.750000  0.404603  0.616485  1
  P  P24  1  0.750000  0.096030  0.117932  1
  Rh  Rh25  1  0.250000  0.407605  0.479150  1
  Rh  Rh26  1  0.250000  0.093421  0.980625  1
  Rh  Rh27  1  0.750000  0.596165  0.516312  1
  Rh  Rh28  1  0.750000  0.903497  0.022275  1
  Rh  Rh29  1  0.250000  0.227491  0.182514  1
  Rh  Rh30  1  0.250000  0.272756  0.681762  1
  Rh  Rh31  1  0.750000  0.773117  0.818096  1
  W  W32  1  0.250000  0.707594  0.988066  1
  W  W33  1  0.250000  0.793739  0.482821  1
  W  W34  1  0.750000  0.293289  0.013521  1
  W  W35  1  0.750000  0.207113  0.512188  1
