# generated using pymatgen
data_Sc8Ta2Ti7Si16W3
_symmetry_space_group_name_H-M   'P 1'
_cell_length_a   6.64987619
_cell_length_b   6.79424372
_cell_length_c   12.98527629
_cell_angle_alpha   89.98132346
_cell_angle_beta   90.01554863
_cell_angle_gamma   90.05552679
_symmetry_Int_Tables_number   1
_chemical_formula_structural   Sc8Ta2Ti7Si16W3
_chemical_formula_sum   'Sc8 Ta2 Ti7 Si16 W3'
_cell_volume   586.68587618
_cell_formula_units_Z   1
loop_
 _symmetry_equiv_pos_site_id
 _symmetry_equiv_pos_as_xyz
  1  'x, y, z'
loop_
 _atom_site_type_symbol
 _atom_site_label
 _atom_site_symmetry_multiplicity
 _atom_site_fract_x
 _atom_site_fract_y
 _atom_site_fract_z
 _atom_site_occupancy
  Sc  Sc0  1  0.501417  0.675178  0.595441  1
  Sc  Sc1  1  0.000905  0.826217  0.904750  1
  Sc  Sc2  1  0.499586  0.325529  0.096497  1
  Sc  Sc3  1  0.998858  0.174021  0.403867  1
  Sc  Sc4  1  0.500004  0.325216  0.404190  1
  Sc  Sc5  1  0.999274  0.174108  0.096579  1
  Sc  Sc6  1  0.501090  0.674879  0.904739  1
  Sc  Sc7  1  0.999697  0.827576  0.595316  1
  Ta  Ta8  1  0.664683  0.173337  0.625752  1
  Ta  Ta9  1  0.838076  0.492334  0.749919  1
  Ti  Ti10  1  0.164782  0.325751  0.874151  1
  Ti  Ti11  1  0.333982  0.826344  0.126856  1
  Ti  Ti12  1  0.836003  0.672403  0.372239  1
  Ti  Ti13  1  0.334488  0.826177  0.372773  1
  Ti  Ti14  1  0.834405  0.673139  0.126986  1
  Ti  Ti15  1  0.665166  0.172205  0.874242  1
  Ti  Ti16  1  0.165343  0.324816  0.625771  1
  Si  Si17  1  0.666530  0.962206  0.457644  1
  Si  Si18  1  0.165553  0.534838  0.041456  1
  Si  Si19  1  0.334534  0.035515  0.959696  1
  Si  Si20  1  0.834539  0.468521  0.538256  1
  Si  Si21  1  0.331721  0.033772  0.539290  1
  Si  Si22  1  0.833923  0.464584  0.961145  1
  Si  Si23  1  0.666129  0.964375  0.041165  1
  Si  Si24  1  0.166384  0.534123  0.458346  1
  Si  Si25  1  0.459335  0.384307  0.751594  1
  Si  Si26  1  0.965353  0.114574  0.751282  1
  Si  Si27  1  0.537038  0.616232  0.249857  1
  Si  Si28  1  0.036689  0.884723  0.249831  1
  Si  Si29  1  0.703746  0.862753  0.750948  1
  Si  Si30  1  0.206252  0.640026  0.749756  1
  Si  Si31  1  0.296109  0.138594  0.250009  1
  Si  Si32  1  0.796167  0.361459  0.250080  1
  W  W33  1  0.339073  0.008934  0.750127  1
  W  W34  1  0.161808  0.509188  0.249842  1
  W  W35  1  0.661353  0.992048  0.249608  1
