# generated using pymatgen
data_Eu6BiPbN2
_symmetry_space_group_name_H-M   'P 1'
_cell_length_a   7.15168100
_cell_length_b   7.15168002
_cell_length_c   6.13903500
_cell_angle_alpha   90.00000000
_cell_angle_beta   90.00000000
_cell_angle_gamma   120.00000918
_symmetry_Int_Tables_number   1
_chemical_formula_structural   Eu6BiPbN2
_chemical_formula_sum   'Eu6 Bi1 Pb1 N2'
_cell_volume   271.92360563
_cell_formula_units_Z   1
loop_
 _symmetry_equiv_pos_site_id
 _symmetry_equiv_pos_as_xyz
  1  'x, y, z'
loop_
 _atom_site_type_symbol
 _atom_site_label
 _atom_site_symmetry_multiplicity
 _atom_site_fract_x
 _atom_site_fract_y
 _atom_site_fract_z
 _atom_site_occupancy
  Eu  Eu0  1  0.158034  0.841966  0.250000  1
  Eu  Eu1  1  0.843116  0.686231  0.750000  1
  Eu  Eu2  1  0.313769  0.156884  0.750000  1
  Eu  Eu3  1  0.843116  0.156884  0.750000  1
  Eu  Eu4  1  0.683932  0.841966  0.250000  1
  Eu  Eu5  1  0.158034  0.316068  0.250000  1
  Bi  Bi6  1  0.666667  0.333333  0.250000  1
  Pb  Pb7  1  0.333333  0.666667  0.750000  1
  N  N8  1  0.000000  0.000000  0.000699  1
  N  N9  1  0.000000  0.000000  0.499301  1
