# generated using pymatgen
data_Zr2AlSbRu4
_symmetry_space_group_name_H-M   'P 1'
_cell_length_a   4.53893800
_cell_length_b   6.40417700
_cell_length_c   13.54144100
_cell_angle_alpha   90.00000000
_cell_angle_beta   89.99994944
_cell_angle_gamma   90.00000000
_symmetry_Int_Tables_number   1
_chemical_formula_structural   Zr2AlSbRu4
_chemical_formula_sum   'Zr6 Al3 Sb3 Ru12'
_cell_volume   393.62480536
_cell_formula_units_Z   3
loop_
 _symmetry_equiv_pos_site_id
 _symmetry_equiv_pos_as_xyz
  1  'x, y, z'
loop_
 _atom_site_type_symbol
 _atom_site_label
 _atom_site_symmetry_multiplicity
 _atom_site_fract_x
 _atom_site_fract_y
 _atom_site_fract_z
 _atom_site_occupancy
  Zr  Zr0  1  0.000003  0.500001  0.992575  1
  Zr  Zr1  1  0.499989  0.000000  0.166665  1
  Zr  Zr2  1  0.999990  0.500001  0.340744  1
  Zr  Zr3  1  0.500001  0.000000  0.507692  1
  Zr  Zr4  1  0.000009  0.500001  0.666694  1
  Zr  Zr5  1  0.500013  0.000000  0.825648  1
  Al  Al6  1  0.500000  0.500001  0.504902  1
  Al  Al7  1  0.000017  0.000000  0.666652  1
  Al  Al8  1  0.500008  0.500001  0.828486  1
  Sb  Sb9  1  0.000000  0.000000  0.994790  1
  Sb  Sb10  1  0.499988  0.500001  0.166671  1
  Sb  Sb11  1  0.999994  0.000000  0.338551  1
  Ru  Ru12  1  0.499998  0.252839  0.999027  1
  Ru  Ru13  1  0.499998  0.747160  0.999027  1
  Ru  Ru14  1  0.999982  0.248048  0.166634  1
  Ru  Ru15  1  0.999982  0.751952  0.166634  1
  Ru  Ru16  1  0.499994  0.252861  0.334301  1
  Ru  Ru17  1  0.499994  0.747139  0.334301  1
  Ru  Ru18  1  0.000000  0.251784  0.501640  1
  Ru  Ru19  1  0.000000  0.748216  0.501640  1
  Ru  Ru20  1  0.500010  0.251740  0.666665  1
  Ru  Ru21  1  0.500010  0.748260  0.666665  1
  Ru  Ru22  1  0.000009  0.251748  0.831700  1
  Ru  Ru23  1  0.000009  0.748252  0.831700  1
