# generated using pymatgen
data_RbAlCdF6
_symmetry_space_group_name_H-M   'P 1'
_cell_length_a   7.29165800
_cell_length_b   7.57419300
_cell_length_c   10.30156600
_cell_angle_alpha   90.00000000
_cell_angle_beta   90.00000000
_cell_angle_gamma   90.00000000
_symmetry_Int_Tables_number   1
_chemical_formula_structural   RbAlCdF6
_chemical_formula_sum   'Rb4 Al4 Cd4 F24'
_cell_volume   568.93926503
_cell_formula_units_Z   4
loop_
 _symmetry_equiv_pos_site_id
 _symmetry_equiv_pos_as_xyz
  1  'x, y, z'
loop_
 _atom_site_type_symbol
 _atom_site_label
 _atom_site_symmetry_multiplicity
 _atom_site_fract_x
 _atom_site_fract_y
 _atom_site_fract_z
 _atom_site_occupancy
  Rb  Rb0  1  0.250000  0.482648  0.868099  1
  Rb  Rb1  1  0.750000  0.017352  0.368099  1
  Rb  Rb2  1  0.750000  0.517352  0.131901  1
  Rb  Rb3  1  0.250000  0.982648  0.631901  1
  Al  Al4  1  0.000000  0.500000  0.500000  1
  Al  Al5  1  0.500000  0.500000  0.500000  1
  Al  Al6  1  0.500000  0.000000  0.000000  1
  Al  Al7  1  0.000000  0.000000  0.000000  1
  Cd  Cd8  1  0.750000  0.218026  0.742265  1
  Cd  Cd9  1  0.750000  0.718026  0.757735  1
  Cd  Cd10  1  0.250000  0.281974  0.242265  1
  Cd  Cd11  1  0.250000  0.781974  0.257735  1
  F  F12  1  0.530869  0.797232  0.908109  1
  F  F13  1  0.030869  0.202768  0.091891  1
  F  F14  1  0.969131  0.297232  0.591891  1
  F  F15  1  0.469131  0.702768  0.408109  1
  F  F16  1  0.469131  0.202768  0.091891  1
  F  F17  1  0.969131  0.797232  0.908109  1
  F  F18  1  0.030869  0.702768  0.408109  1
  F  F19  1  0.530869  0.297232  0.591891  1
  F  F20  1  0.014222  0.625503  0.651081  1
  F  F21  1  0.514222  0.374497  0.348919  1
  F  F22  1  0.485778  0.125503  0.848919  1
  F  F23  1  0.985778  0.874497  0.151081  1
  F  F24  1  0.750000  0.959721  0.640944  1
  F  F25  1  0.250000  0.040279  0.359056  1
  F  F26  1  0.750000  0.459721  0.859056  1
  F  F27  1  0.250000  0.540279  0.140944  1
  F  F28  1  0.750000  0.037521  0.001746  1
  F  F29  1  0.250000  0.962479  0.998254  1
  F  F30  1  0.750000  0.537521  0.498254  1
  F  F31  1  0.250000  0.462479  0.501746  1
  F  F32  1  0.014222  0.125503  0.848919  1
  F  F33  1  0.514222  0.874497  0.151081  1
  F  F34  1  0.485778  0.625503  0.651081  1
  F  F35  1  0.985778  0.374497  0.348919  1
