# generated using pymatgen
data_Eu2Co4B4Ir
_symmetry_space_group_name_H-M   'P 1'
_cell_length_a   7.27805132
_cell_length_b   5.95559710
_cell_length_c   5.56597259
_cell_angle_alpha   78.26919357
_cell_angle_beta   53.24526626
_cell_angle_gamma   48.48553687
_symmetry_Int_Tables_number   1
_chemical_formula_structural   Eu2Co4B4Ir
_chemical_formula_sum   'Eu2 Co4 B4 Ir1'
_cell_volume   137.01922631
_cell_formula_units_Z   1
loop_
 _symmetry_equiv_pos_site_id
 _symmetry_equiv_pos_as_xyz
  1  'x, y, z'
loop_
 _atom_site_type_symbol
 _atom_site_label
 _atom_site_symmetry_multiplicity
 _atom_site_fract_x
 _atom_site_fract_y
 _atom_site_fract_z
 _atom_site_occupancy
  Eu  Eu0  1  0.851406  0.851406  0.148594  1
  Eu  Eu1  1  0.148594  0.148594  0.851406  1
  Co  Co2  1  0.500000  0.500000  0.000000  1
  Co  Co3  1  0.750000  0.750000  0.750000  1
  Co  Co4  1  0.250000  0.250000  0.250000  1
  Co  Co5  1  0.000000  0.000000  0.500000  1
  B  B6  1  0.200577  0.539266  0.460734  1
  B  B7  1  0.799423  0.460734  0.539266  1
  B  B8  1  0.539266  0.200577  0.799423  1
  B  B9  1  0.460734  0.799423  0.200577  1
  Ir  Ir10  1  0.500000  0.500000  0.500000  1
