# generated using pymatgen
data_Nd2Sm5Dy(Si3Rh)4
_symmetry_space_group_name_H-M   'P 1'
_cell_length_a   8.24694300
_cell_length_b   8.24791204
_cell_length_c   8.17973100
_cell_angle_alpha   90.00000000
_cell_angle_beta   90.00000000
_cell_angle_gamma   120.00387419
_symmetry_Int_Tables_number   1
_chemical_formula_structural   Nd2Sm5Dy(Si3Rh)4
_chemical_formula_sum   'Nd2 Sm5 Dy1 Si12 Rh4'
_cell_volume   481.82542286
_cell_formula_units_Z   1
loop_
 _symmetry_equiv_pos_site_id
 _symmetry_equiv_pos_as_xyz
  1  'x, y, z'
loop_
 _atom_site_type_symbol
 _atom_site_label
 _atom_site_symmetry_multiplicity
 _atom_site_fract_x
 _atom_site_fract_y
 _atom_site_fract_z
 _atom_site_occupancy
  Nd  Nd0  1  0.999933  0.999967  0.250000  1
  Nd  Nd1  1  0.000294  0.000148  0.750000  1
  Sm  Sm2  1  0.507165  0.492958  0.250000  1
  Sm  Sm3  1  0.507165  0.014208  0.250000  1
  Sm  Sm4  1  0.986104  0.493052  0.250000  1
  Sm  Sm5  1  0.492005  0.507569  0.750000  1
  Sm  Sm6  1  0.492005  0.984435  0.750000  1
  Dy  Dy7  1  0.013227  0.506612  0.750000  1
  Si  Si8  1  0.166861  0.831997  0.502715  1
  Si  Si9  1  0.166861  0.334866  0.502715  1
  Si  Si10  1  0.665566  0.832784  0.500705  1
  Si  Si11  1  0.832797  0.167916  0.500391  1
  Si  Si12  1  0.832797  0.664881  0.500391  1
  Si  Si13  1  0.335406  0.167702  0.499768  1
  Si  Si14  1  0.832797  0.167916  0.999609  1
  Si  Si15  1  0.832797  0.664881  0.999609  1
  Si  Si16  1  0.335406  0.167702  0.000232  1
  Si  Si17  1  0.166861  0.831997  0.997285  1
  Si  Si18  1  0.166861  0.334866  0.997285  1
  Si  Si19  1  0.665566  0.832784  0.999295  1
  Rh  Rh20  1  0.332526  0.666263  0.473086  1
  Rh  Rh21  1  0.668236  0.334117  0.533456  1
  Rh  Rh22  1  0.668236  0.334117  0.966544  1
  Rh  Rh23  1  0.332526  0.666263  0.026914  1
