# generated using pymatgen
data_Sm7Pu(Pt2Pb)4
_symmetry_space_group_name_H-M   'P 1'
_cell_length_a   8.07804200
_cell_length_b   8.07804222
_cell_length_c   7.36770200
_cell_angle_alpha   90.00000000
_cell_angle_beta   90.00000000
_cell_angle_gamma   89.35350772
_symmetry_Int_Tables_number   1
_chemical_formula_structural   Sm7Pu(Pt2Pb)4
_chemical_formula_sum   'Sm7 Pu1 Pt8 Pb4'
_cell_volume   480.74705304
_cell_formula_units_Z   1
loop_
 _symmetry_equiv_pos_site_id
 _symmetry_equiv_pos_as_xyz
  1  'x, y, z'
loop_
 _atom_site_type_symbol
 _atom_site_label
 _atom_site_symmetry_multiplicity
 _atom_site_fract_x
 _atom_site_fract_y
 _atom_site_fract_z
 _atom_site_occupancy
  Sm  Sm0  1  0.673866  0.670535  0.000000  1
  Sm  Sm1  1  0.332728  0.335741  0.500000  1
  Sm  Sm2  1  0.828168  0.171832  0.500000  1
  Sm  Sm3  1  0.664259  0.667272  0.500000  1
  Sm  Sm4  1  0.329465  0.326134  0.000000  1
  Sm  Sm5  1  0.173247  0.826753  0.500000  1
  Sm  Sm6  1  0.832059  0.167941  0.000000  1
  Pu  Pu7  1  0.166488  0.833512  0.000000  1
  Pt  Pt8  1  0.876003  0.872419  0.745901  1
  Pt  Pt9  1  0.127581  0.123997  0.745901  1
  Pt  Pt10  1  0.625154  0.374846  0.754535  1
  Pt  Pt11  1  0.625154  0.374846  0.245465  1
  Pt  Pt12  1  0.370255  0.629745  0.236876  1
  Pt  Pt13  1  0.127581  0.123997  0.254099  1
  Pt  Pt14  1  0.876003  0.872419  0.254099  1
  Pt  Pt15  1  0.370255  0.629745  0.763124  1
  Pb  Pb16  1  0.501525  0.000658  0.749374  1
  Pb  Pb17  1  0.501525  0.000658  0.250626  1
  Pb  Pb18  1  0.999342  0.498475  0.749374  1
  Pb  Pb19  1  0.999342  0.498475  0.250626  1
