# generated using pymatgen
data_Tb2Ga2Te
_symmetry_space_group_name_H-M   'P 1'
_cell_length_a   4.22054200
_cell_length_b   4.22054136
_cell_length_c   16.11414200
_cell_angle_alpha   90.00000000
_cell_angle_beta   90.00000000
_cell_angle_gamma   119.99997370
_symmetry_Int_Tables_number   1
_chemical_formula_structural   Tb2Ga2Te
_chemical_formula_sum   'Tb4 Ga4 Te2'
_cell_volume   248.58465691
_cell_formula_units_Z   2
loop_
 _symmetry_equiv_pos_site_id
 _symmetry_equiv_pos_as_xyz
  1  'x, y, z'
loop_
 _atom_site_type_symbol
 _atom_site_label
 _atom_site_symmetry_multiplicity
 _atom_site_fract_x
 _atom_site_fract_y
 _atom_site_fract_z
 _atom_site_occupancy
  Tb  Tb0  1  0.000000  0.000000  0.125083  1
  Tb  Tb1  1  0.000000  0.000000  0.625083  1
  Tb  Tb2  1  0.000000  0.000000  0.374917  1
  Tb  Tb3  1  0.000000  0.000000  0.874917  1
  Ga  Ga4  1  0.666667  0.333333  0.979702  1
  Ga  Ga5  1  0.333333  0.666667  0.020298  1
  Ga  Ga6  1  0.666667  0.333333  0.520298  1
  Ga  Ga7  1  0.333333  0.666667  0.479702  1
  Te  Te8  1  0.666667  0.333333  0.250000  1
  Te  Te9  1  0.333333  0.666667  0.750000  1
