# generated using pymatgen
data_DyEr5(Si3Ru2)2
_symmetry_space_group_name_H-M   'P 1'
_cell_length_a   5.70647213
_cell_length_b   5.70647293
_cell_length_c   13.71164000
_cell_angle_alpha   90.00000000
_cell_angle_beta   90.00000000
_cell_angle_gamma   137.21594966
_symmetry_Int_Tables_number   1
_chemical_formula_structural   DyEr5(Si3Ru2)2
_chemical_formula_sum   'Dy1 Er5 Si6 Ru4'
_cell_volume   303.28170760
_cell_formula_units_Z   1
loop_
 _symmetry_equiv_pos_site_id
 _symmetry_equiv_pos_as_xyz
  1  'x, y, z'
loop_
 _atom_site_type_symbol
 _atom_site_label
 _atom_site_symmetry_multiplicity
 _atom_site_fract_x
 _atom_site_fract_y
 _atom_site_fract_z
 _atom_site_occupancy
  Dy  Dy0  1  0.640329  0.359671  0.250000  1
  Er  Er1  1  0.359041  0.640959  0.750000  1
  Er  Er2  1  0.922701  0.077299  0.114209  1
  Er  Er3  1  0.077293  0.922707  0.885706  1
  Er  Er4  1  0.077293  0.922707  0.614294  1
  Er  Er5  1  0.922701  0.077299  0.385791  1
  Si  Si6  1  0.329512  0.670488  0.250000  1
  Si  Si7  1  0.670937  0.329063  0.750000  1
  Si  Si8  1  0.616562  0.383438  0.038128  1
  Si  Si9  1  0.383391  0.616609  0.961520  1
  Si  Si10  1  0.383391  0.616609  0.538480  1
  Si  Si11  1  0.616562  0.383438  0.461872  1
  Ru  Ru12  1  0.787236  0.212764  0.581678  1
  Ru  Ru13  1  0.212907  0.787093  0.418757  1
  Ru  Ru14  1  0.212907  0.787093  0.081243  1
  Ru  Ru15  1  0.787236  0.212764  0.918322  1
