# generated using pymatgen
data_Ba2CrNi3As4
_symmetry_space_group_name_H-M   'P 1'
_cell_length_a   5.66630700
_cell_length_b   6.94895946
_cell_length_c   5.67785707
_cell_angle_alpha   65.73700519
_cell_angle_beta   90.00004045
_cell_angle_gamma   90.00004133
_symmetry_Int_Tables_number   1
_chemical_formula_structural   Ba2CrNi3As4
_chemical_formula_sum   'Ba2 Cr1 Ni3 As4'
_cell_volume   203.81749499
_cell_formula_units_Z   1
loop_
 _symmetry_equiv_pos_site_id
 _symmetry_equiv_pos_as_xyz
  1  'x, y, z'
loop_
 _atom_site_type_symbol
 _atom_site_label
 _atom_site_symmetry_multiplicity
 _atom_site_fract_x
 _atom_site_fract_y
 _atom_site_fract_z
 _atom_site_occupancy
  Ba  Ba0  1  0.993088  0.000001  0.999999  1
  Ba  Ba1  1  0.506830  0.999999  0.500000  1
  Cr  Cr2  1  0.250291  0.500000  0.500002  1
  Ni  Ni3  1  0.250106  0.499999  0.000000  1
  Ni  Ni4  1  0.749807  0.500001  0.000000  1
  Ni  Ni5  1  0.749847  0.499999  0.500000  1
  As  As6  1  0.495395  0.700776  0.152789  1
  As  As7  1  0.004620  0.699954  0.645753  1
  As  As8  1  0.004621  0.300045  0.354246  1
  As  As9  1  0.495397  0.299223  0.847211  1
