# generated using pymatgen
data_Rb8Bi4Pb
_symmetry_space_group_name_H-M   'P 1'
_cell_length_a   12.45380208
_cell_length_b   12.45380221
_cell_length_c   12.45380200
_cell_angle_alpha   60.00000056
_cell_angle_beta   60.00000022
_cell_angle_gamma   60.00000049
_symmetry_Int_Tables_number   1
_chemical_formula_structural   Rb8Bi4Pb
_chemical_formula_sum   'Rb16 Bi8 Pb2'
_cell_volume   1365.81188213
_cell_formula_units_Z   2
loop_
 _symmetry_equiv_pos_site_id
 _symmetry_equiv_pos_as_xyz
  1  'x, y, z'
loop_
 _atom_site_type_symbol
 _atom_site_label
 _atom_site_symmetry_multiplicity
 _atom_site_fract_x
 _atom_site_fract_y
 _atom_site_fract_z
 _atom_site_occupancy
  Rb  Rb0  1  0.625000  0.125000  0.625000  1
  Rb  Rb1  1  0.625000  0.625000  0.125000  1
  Rb  Rb2  1  0.125000  0.625000  0.625000  1
  Rb  Rb3  1  0.625000  0.625000  0.625000  1
  Rb  Rb4  1  0.022729  0.022729  0.477271  1
  Rb  Rb5  1  0.772729  0.227271  0.227271  1
  Rb  Rb6  1  0.227271  0.772729  0.772729  1
  Rb  Rb7  1  0.772729  0.772729  0.227271  1
  Rb  Rb8  1  0.772729  0.227271  0.772729  1
  Rb  Rb9  1  0.227271  0.772729  0.227271  1
  Rb  Rb10  1  0.477271  0.022729  0.477271  1
  Rb  Rb11  1  0.477271  0.022729  0.022729  1
  Rb  Rb12  1  0.022729  0.477271  0.477271  1
  Rb  Rb13  1  0.022729  0.477271  0.022729  1
  Rb  Rb14  1  0.227271  0.227271  0.772729  1
  Rb  Rb15  1  0.477271  0.477271  0.022729  1
  Bi  Bi16  1  0.396839  0.809483  0.396839  1
  Bi  Bi17  1  0.853161  0.853161  0.440517  1
  Bi  Bi18  1  0.440517  0.853161  0.853161  1
  Bi  Bi19  1  0.853161  0.853161  0.853161  1
  Bi  Bi20  1  0.809483  0.396839  0.396839  1
  Bi  Bi21  1  0.396839  0.396839  0.396839  1
  Bi  Bi22  1  0.396839  0.396839  0.809483  1
  Bi  Bi23  1  0.853161  0.440517  0.853161  1
  Pb  Pb24  1  0.750000  0.750000  0.750000  1
  Pb  Pb25  1  0.500000  0.500000  0.500000  1
