# generated using pymatgen
data_Th4CuSi5Pd2
_symmetry_space_group_name_H-M   'P 1'
_cell_length_a   8.36566433
_cell_length_b   8.36566544
_cell_length_c   8.28717600
_cell_angle_alpha   90.00177354
_cell_angle_beta   89.99823025
_cell_angle_gamma   120.18854380
_symmetry_Int_Tables_number   1
_chemical_formula_structural   Th4CuSi5Pd2
_chemical_formula_sum   'Th8 Cu2 Si10 Pd4'
_cell_volume   501.31404069
_cell_formula_units_Z   2
loop_
 _symmetry_equiv_pos_site_id
 _symmetry_equiv_pos_as_xyz
  1  'x, y, z'
loop_
 _atom_site_type_symbol
 _atom_site_label
 _atom_site_symmetry_multiplicity
 _atom_site_fract_x
 _atom_site_fract_y
 _atom_site_fract_z
 _atom_site_occupancy
  Th  Th0  1  0.499935  0.500065  0.755366  1
  Th  Th1  1  0.500065  0.499935  0.244634  1
  Th  Th2  1  0.000119  0.500054  0.760121  1
  Th  Th3  1  0.999881  0.499946  0.239879  1
  Th  Th4  1  0.499946  0.999881  0.760121  1
  Th  Th5  1  0.500054  0.000119  0.239879  1
  Th  Th6  1  0.000005  0.999995  0.747798  1
  Th  Th7  1  0.999995  0.000005  0.252202  1
  Cu  Cu8  1  0.839910  0.160090  0.999951  1
  Cu  Cu9  1  0.160090  0.839910  0.000049  1
  Si  Si10  1  0.325208  0.161262  0.999936  1
  Si  Si11  1  0.165443  0.834557  0.499853  1
  Si  Si12  1  0.674792  0.838738  0.000064  1
  Si  Si13  1  0.834557  0.165443  0.500147  1
  Si  Si14  1  0.838738  0.674792  0.999936  1
  Si  Si15  1  0.667360  0.833125  0.499890  1
  Si  Si16  1  0.161262  0.325208  0.000064  1
  Si  Si17  1  0.332640  0.166875  0.500110  1
  Si  Si18  1  0.166875  0.332640  0.499890  1
  Si  Si19  1  0.833125  0.667360  0.500110  1
  Pd  Pd20  1  0.662537  0.337463  0.999789  1
  Pd  Pd21  1  0.337463  0.662537  0.000211  1
  Pd  Pd22  1  0.332603  0.667397  0.499822  1
  Pd  Pd23  1  0.667397  0.332603  0.500178  1
