# generated using pymatgen
data_Hf4Al5Re2Au
_symmetry_space_group_name_H-M   'P 1'
_cell_length_a   5.30106900
_cell_length_b   5.24492661
_cell_length_c   8.66257300
_cell_angle_alpha   90.00000000
_cell_angle_beta   90.00000000
_cell_angle_gamma   120.35471975
_symmetry_Int_Tables_number   1
_chemical_formula_structural   Hf4Al5Re2Au
_chemical_formula_sum   'Hf4 Al5 Re2 Au1'
_cell_volume   207.83416925
_cell_formula_units_Z   1
loop_
 _symmetry_equiv_pos_site_id
 _symmetry_equiv_pos_as_xyz
  1  'x, y, z'
loop_
 _atom_site_type_symbol
 _atom_site_label
 _atom_site_symmetry_multiplicity
 _atom_site_fract_x
 _atom_site_fract_y
 _atom_site_fract_z
 _atom_site_occupancy
  Hf  Hf0  1  0.335066  0.670133  0.429344  1
  Hf  Hf1  1  0.663691  0.327381  0.947682  1
  Hf  Hf2  1  0.663691  0.327381  0.552318  1
  Hf  Hf3  1  0.335066  0.670133  0.070656  1
  Al  Al4  1  0.653412  0.821538  0.750000  1
  Al  Al5  1  0.003699  0.007400  0.001236  1
  Al  Al6  1  0.003699  0.007400  0.498764  1
  Al  Al7  1  0.832121  0.664243  0.250000  1
  Al  Al8  1  0.168125  0.821538  0.750000  1
  Re  Re9  1  0.835944  0.174809  0.250000  1
  Re  Re10  1  0.338867  0.174809  0.250000  1
  Au  Au11  1  0.166618  0.333236  0.750000  1
