# generated using pymatgen
data_Y5Er3Sc2Si5Ge
_symmetry_space_group_name_H-M   'P 1'
_cell_length_a   8.35922823
_cell_length_b   8.35922921
_cell_length_c   6.19891301
_cell_angle_alpha   89.98992793
_cell_angle_beta   89.98992111
_cell_angle_gamma   119.99083833
_symmetry_Int_Tables_number   1
_chemical_formula_structural   Y5Er3Sc2Si5Ge
_chemical_formula_sum   'Y5 Er3 Sc2 Si5 Ge1'
_cell_volume   375.16183318
_cell_formula_units_Z   1
loop_
 _symmetry_equiv_pos_site_id
 _symmetry_equiv_pos_as_xyz
  1  'x, y, z'
loop_
 _atom_site_type_symbol
 _atom_site_label
 _atom_site_symmetry_multiplicity
 _atom_site_fract_x
 _atom_site_fract_y
 _atom_site_fract_z
 _atom_site_occupancy
  Y  Y0  1  0.244319  0.998361  0.503372  1
  Y  Y1  1  0.998361  0.244319  0.503372  1
  Y  Y2  1  0.245405  0.245405  0.996807  1
  Y  Y3  1  0.754961  0.999182  0.996884  1
  Y  Y4  1  0.999182  0.754961  0.996884  1
  Er  Er5  1  0.667989  0.333370  0.249082  1
  Er  Er6  1  0.333370  0.667989  0.249082  1
  Er  Er7  1  0.755228  0.755228  0.504382  1
  Sc  Sc8  1  0.332783  0.668609  0.750734  1
  Sc  Sc9  1  0.668609  0.332783  0.750734  1
  Si  Si10  1  0.602748  0.998781  0.513475  1
  Si  Si11  1  0.998781  0.602748  0.513475  1
  Si  Si12  1  0.602767  0.602767  0.985696  1
  Si  Si13  1  0.397361  0.000278  0.986423  1
  Si  Si14  1  0.000278  0.397361  0.986423  1
  Ge  Ge15  1  0.397906  0.397906  0.513176  1
