# generated using pymatgen
data_Yb5Y3(Si3Pd)4
_symmetry_space_group_name_H-M   'P 1'
_cell_length_a   8.24278473
_cell_length_b   8.24278308
_cell_length_c   8.13908600
_cell_angle_alpha   90.00000000
_cell_angle_beta   90.00000000
_cell_angle_gamma   120.19379796
_symmetry_Int_Tables_number   1
_chemical_formula_structural   Yb5Y3(Si3Pd)4
_chemical_formula_sum   'Yb5 Y3 Si12 Pd4'
_cell_volume   477.97224060
_cell_formula_units_Z   1
loop_
 _symmetry_equiv_pos_site_id
 _symmetry_equiv_pos_as_xyz
  1  'x, y, z'
loop_
 _atom_site_type_symbol
 _atom_site_label
 _atom_site_symmetry_multiplicity
 _atom_site_fract_x
 _atom_site_fract_y
 _atom_site_fract_z
 _atom_site_occupancy
  Yb  Yb0  1  0.502007  0.003726  0.250000  1
  Yb  Yb1  1  0.497768  0.996344  0.750000  1
  Yb  Yb2  1  0.996274  0.497993  0.250000  1
  Yb  Yb3  1  0.003656  0.502232  0.750000  1
  Yb  Yb4  1  0.501903  0.498097  0.250000  1
  Y  Y5  1  0.498336  0.501664  0.750000  1
  Y  Y6  1  0.999839  0.000161  0.250000  1
  Y  Y7  1  0.000036  0.999964  0.750000  1
  Si  Si8  1  0.164558  0.328416  0.999699  1
  Si  Si9  1  0.835422  0.671583  0.997055  1
  Si  Si10  1  0.671584  0.835442  0.999699  1
  Si  Si11  1  0.835422  0.671583  0.502945  1
  Si  Si12  1  0.328417  0.164578  0.997055  1
  Si  Si13  1  0.164558  0.328416  0.500301  1
  Si  Si14  1  0.164329  0.835671  0.000546  1
  Si  Si15  1  0.328417  0.164578  0.502945  1
  Si  Si16  1  0.835614  0.164386  0.996555  1
  Si  Si17  1  0.671584  0.835442  0.500301  1
  Si  Si18  1  0.835614  0.164386  0.503445  1
  Si  Si19  1  0.164329  0.835671  0.499454  1
  Pd  Pd20  1  0.333627  0.666373  0.002714  1
  Pd  Pd21  1  0.666541  0.333459  0.995100  1
  Pd  Pd22  1  0.666541  0.333459  0.504900  1
  Pd  Pd23  1  0.333627  0.666373  0.497286  1
