# generated using pymatgen
data_Th4Zn3Ga21Cu2
_symmetry_space_group_name_H-M   'P 1'
_cell_length_a   6.11532700
_cell_length_b   6.11532700
_cell_length_c   15.32427800
_cell_angle_alpha   90.00000000
_cell_angle_beta   90.00000000
_cell_angle_gamma   90.00000000
_symmetry_Int_Tables_number   1
_chemical_formula_structural   Th4Zn3Ga21Cu2
_chemical_formula_sum   'Th4 Zn3 Ga21 Cu2'
_cell_volume   573.08546186
_cell_formula_units_Z   1
loop_
 _symmetry_equiv_pos_site_id
 _symmetry_equiv_pos_as_xyz
  1  'x, y, z'
loop_
 _atom_site_type_symbol
 _atom_site_label
 _atom_site_symmetry_multiplicity
 _atom_site_fract_x
 _atom_site_fract_y
 _atom_site_fract_z
 _atom_site_occupancy
  Th  Th0  1  0.000000  0.500000  0.753870  1
  Th  Th1  1  0.500000  0.000000  0.753870  1
  Th  Th2  1  0.000000  0.500000  0.246364  1
  Th  Th3  1  0.500000  0.000000  0.246364  1
  Zn  Zn4  1  0.500000  0.500000  0.179365  1
  Zn  Zn5  1  0.500000  0.500000  0.821958  1
  Zn  Zn6  1  0.000000  0.000000  0.822268  1
  Ga  Ga7  1  0.669326  0.173377  0.428750  1
  Ga  Ga8  1  0.675806  0.825200  0.571503  1
  Ga  Ga9  1  0.174800  0.675806  0.571503  1
  Ga  Ga10  1  0.825200  0.324194  0.571503  1
  Ga  Ga11  1  0.000000  0.000000  0.178554  1
  Ga  Ga12  1  0.500000  0.500000  0.337577  1
  Ga  Ga13  1  0.500000  0.500000  0.662727  1
  Ga  Ga14  1  0.000000  0.000000  0.663101  1
  Ga  Ga15  1  0.000000  0.000000  0.340246  1
  Ga  Ga16  1  0.250901  0.750670  0.912909  1
  Ga  Ga17  1  0.249330  0.250901  0.912909  1
  Ga  Ga18  1  0.750670  0.749099  0.912909  1
  Ga  Ga19  1  0.254876  0.253197  0.085506  1
  Ga  Ga20  1  0.745124  0.746803  0.085506  1
  Ga  Ga21  1  0.749099  0.249330  0.912909  1
  Ga  Ga22  1  0.746803  0.254876  0.085506  1
  Ga  Ga23  1  0.253197  0.745124  0.085506  1
  Ga  Ga24  1  0.330674  0.826623  0.428750  1
  Ga  Ga25  1  0.173377  0.330674  0.428750  1
  Ga  Ga26  1  0.826623  0.669326  0.428750  1
  Ga  Ga27  1  0.324194  0.174800  0.571503  1
  Cu  Cu28  1  0.500000  0.000000  0.999533  1
  Cu  Cu29  1  0.000000  0.500000  0.999533  1
