# generated using pymatgen
data_DyY7Ti9Si16Mo3
_symmetry_space_group_name_H-M   'P 1'
_cell_length_a   7.01760624
_cell_length_b   7.01757364
_cell_length_c   12.90221702
_cell_angle_alpha   89.98421832
_cell_angle_beta   90.01693504
_cell_angle_gamma   89.98252314
_symmetry_Int_Tables_number   1
_chemical_formula_structural   DyY7Ti9Si16Mo3
_chemical_formula_sum   'Dy1 Y7 Ti9 Si16 Mo3'
_cell_volume   635.38983307
_cell_formula_units_Z   1
loop_
 _symmetry_equiv_pos_site_id
 _symmetry_equiv_pos_as_xyz
  1  'x, y, z'
loop_
 _atom_site_type_symbol
 _atom_site_label
 _atom_site_symmetry_multiplicity
 _atom_site_fract_x
 _atom_site_fract_y
 _atom_site_fract_z
 _atom_site_occupancy
  Dy  Dy0  1  0.340413  0.000384  0.466856  1
  Y  Y1  1  0.997922  0.660133  0.033501  1
  Y  Y2  1  0.000500  0.340372  0.533112  1
  Y  Y3  1  0.660132  0.997920  0.966505  1
  Y  Y4  1  0.158520  0.501309  0.781878  1
  Y  Y5  1  0.840948  0.499628  0.283325  1
  Y  Y6  1  0.501314  0.158501  0.218130  1
  Y  Y7  1  0.499633  0.840958  0.716666  1
  Ti  Ti8  1  0.347147  0.509192  0.374389  1
  Ti  Ti9  1  0.847279  0.990961  0.376363  1
  Ti  Ti10  1  0.008454  0.151896  0.124800  1
  Ti  Ti11  1  0.991020  0.847307  0.623605  1
  Ti  Ti12  1  0.509190  0.347101  0.625582  1
  Ti  Ti13  1  0.151906  0.008460  0.875210  1
  Ti  Ti14  1  0.326809  0.326818  0.000011  1
  Ti  Ti15  1  0.491682  0.653756  0.127436  1
  Ti  Ti16  1  0.653769  0.491701  0.872566  1
  Si  Si17  1  0.047135  0.708634  0.434952  1
  Si  Si18  1  0.951907  0.291831  0.934052  1
  Si  Si19  1  0.708507  0.047064  0.565056  1
  Si  Si20  1  0.209089  0.453393  0.184888  1
  Si  Si21  1  0.791185  0.547528  0.684602  1
  Si  Si22  1  0.453389  0.209094  0.815104  1
  Si  Si23  1  0.547477  0.791264  0.315433  1
  Si  Si24  1  0.291819  0.951911  0.065963  1
  Si  Si25  1  0.798417  0.870689  0.184720  1
  Si  Si26  1  0.299166  0.629889  0.565235  1
  Si  Si27  1  0.702086  0.370012  0.065216  1
  Si  Si28  1  0.629748  0.299094  0.434757  1
  Si  Si29  1  0.370015  0.702081  0.934797  1
  Si  Si30  1  0.129621  0.201131  0.314950  1
  Si  Si31  1  0.201196  0.129537  0.685044  1
  Si  Si32  1  0.870679  0.798412  0.815268  1
  Mo  Mo33  1  0.672858  0.672985  0.500001  1
  Mo  Mo34  1  0.826104  0.172932  0.749316  1
  Mo  Mo35  1  0.172959  0.826119  0.250711  1
