# generated using pymatgen
data_Eu2Al2SiO7
_symmetry_space_group_name_H-M   'P 1'
_cell_length_a   7.89721924
_cell_length_b   5.30959856
_cell_length_c   7.91609570
_cell_angle_alpha   90.36785249
_cell_angle_beta   89.97506784
_cell_angle_gamma   90.01369818
_symmetry_Int_Tables_number   1
_chemical_formula_structural   Eu2Al2SiO7
_chemical_formula_sum   'Eu4 Al4 Si2 O14'
_cell_volume   331.92343336
_cell_formula_units_Z   2
loop_
 _symmetry_equiv_pos_site_id
 _symmetry_equiv_pos_as_xyz
  1  'x, y, z'
loop_
 _atom_site_type_symbol
 _atom_site_label
 _atom_site_symmetry_multiplicity
 _atom_site_fract_x
 _atom_site_fract_y
 _atom_site_fract_z
 _atom_site_occupancy
  Eu  Eu0  1  0.840588  0.514302  0.078032  1
  Eu  Eu1  1  0.340615  0.485659  0.921939  1
  Eu  Eu2  1  0.164428  0.509824  0.401375  1
  Eu  Eu3  1  0.664431  0.490159  0.598635  1
  Al  Al4  1  0.499572  0.999873  0.251085  1
  Al  Al5  1  0.999593  0.000283  0.748889  1
  Al  Al6  1  0.641846  0.966074  0.892548  1
  Al  Al7  1  0.141909  0.033911  0.107397  1
  Si  Si8  1  0.358045  0.959856  0.608078  1
  Si  Si9  1  0.857992  0.040126  0.391975  1
  O  O10  1  0.991120  0.162541  0.253840  1
  O  O11  1  0.491078  0.837507  0.746145  1
  O  O12  1  0.642304  0.293323  0.888246  1
  O  O13  1  0.142386  0.706667  0.111718  1
  O  O14  1  0.358803  0.264692  0.604675  1
  O  O15  1  0.858742  0.735305  0.395384  1
  O  O16  1  0.583461  0.814799  0.084841  1
  O  O17  1  0.083540  0.185173  0.915156  1
  O  O18  1  0.414177  0.823807  0.425574  1
  O  O19  1  0.914178  0.176177  0.574437  1
  O  O20  1  0.673144  0.171882  0.343476  1
  O  O21  1  0.173114  0.828057  0.656575  1
  O  O22  1  0.332487  0.188875  0.174088  1
  O  O23  1  0.832443  0.811129  0.825893  1
