# generated using pymatgen
data_Y5HoBr18
_symmetry_space_group_name_H-M   'P 1'
_cell_length_a   7.27623035
_cell_length_b   7.27917630
_cell_length_c   22.91553170
_cell_angle_alpha   90.04516383
_cell_angle_beta   89.97740822
_cell_angle_gamma   120.01339764
_symmetry_Int_Tables_number   1
_chemical_formula_structural   Y5HoBr18
_chemical_formula_sum   'Y5 Ho1 Br18'
_cell_volume   1050.97035381
_cell_formula_units_Z   1
loop_
 _symmetry_equiv_pos_site_id
 _symmetry_equiv_pos_as_xyz
  1  'x, y, z'
loop_
 _atom_site_type_symbol
 _atom_site_label
 _atom_site_symmetry_multiplicity
 _atom_site_fract_x
 _atom_site_fract_y
 _atom_site_fract_z
 _atom_site_occupancy
  Y  Y0  1  0.555797  0.777897  0.000000  1
  Y  Y1  1  0.222262  0.444362  0.333312  1
  Y  Y2  1  0.888866  0.778073  0.333339  1
  Y  Y3  1  0.888867  0.110794  0.666660  1
  Y  Y4  1  0.222260  0.777899  0.666687  1
  Ho  Ho5  1  0.222019  0.111010  0.000000  1
  Br  Br6  1  0.516211  0.441735  0.070645  1
  Br  Br7  1  0.890642  0.074585  0.070439  1
  Br  Br8  1  0.257959  0.816375  0.070688  1
  Br  Br9  1  0.186175  0.742636  0.262433  1
  Br  Br10  1  0.925421  0.112242  0.262524  1
  Br  Br11  1  0.555869  0.480755  0.262499  1
  Br  Br12  1  0.925015  0.480746  0.404126  1
  Br  Br13  1  0.186674  0.111750  0.404106  1
  Br  Br14  1  0.556000  0.742364  0.404207  1
  Br  Br15  1  0.556000  0.813635  0.595793  1
  Br  Br16  1  0.186673  0.074924  0.595894  1
  Br  Br17  1  0.925015  0.444269  0.595874  1
  Br  Br18  1  0.555869  0.075116  0.737501  1
  Br  Br19  1  0.925421  0.813178  0.737476  1
  Br  Br20  1  0.186174  0.443538  0.737567  1
  Br  Br21  1  0.257960  0.441584  0.929312  1
  Br  Br22  1  0.890641  0.816057  0.929561  1
  Br  Br23  1  0.516210  0.074477  0.929355  1
