# generated using pymatgen
data_Na4HfAs2O9
_symmetry_space_group_name_H-M   'P 1'
_cell_length_a   8.94318609
_cell_length_b   8.94318571
_cell_length_c   7.93890965
_cell_angle_alpha   89.83325648
_cell_angle_beta   89.83325322
_cell_angle_gamma   49.74320602
_symmetry_Int_Tables_number   1
_chemical_formula_structural   Na4HfAs2O9
_chemical_formula_sum   'Na8 Hf2 As4 O18'
_cell_volume   484.56983918
_cell_formula_units_Z   2
loop_
 _symmetry_equiv_pos_site_id
 _symmetry_equiv_pos_as_xyz
  1  'x, y, z'
loop_
 _atom_site_type_symbol
 _atom_site_label
 _atom_site_symmetry_multiplicity
 _atom_site_fract_x
 _atom_site_fract_y
 _atom_site_fract_z
 _atom_site_occupancy
  Na  Na0  1  0.745064  0.254936  0.000000  1
  Na  Na1  1  0.627078  0.627078  0.282923  1
  Na  Na2  1  0.892879  0.892879  0.239180  1
  Na  Na3  1  0.107121  0.107121  0.760820  1
  Na  Na4  1  0.500000  0.000000  0.500000  1
  Na  Na5  1  0.254936  0.745064  0.000000  1
  Na  Na6  1  0.372922  0.372922  0.717077  1
  Na  Na7  1  0.000000  0.500000  0.500000  1
  Hf  Hf8  1  0.000000  0.500000  0.000000  1
  Hf  Hf9  1  0.500000  0.000000  0.000000  1
  As  As10  1  0.126543  0.126543  0.282508  1
  As  As11  1  0.391760  0.391760  0.243265  1
  As  As12  1  0.873457  0.873457  0.717492  1
  As  As13  1  0.608240  0.608240  0.756735  1
  O  O14  1  0.550366  0.169704  0.132792  1
  O  O15  1  0.504595  0.504595  0.782408  1
  O  O16  1  0.449634  0.830296  0.867208  1
  O  O17  1  0.139786  0.139786  0.493694  1
  O  O18  1  0.371169  0.986617  0.216293  1
  O  O19  1  0.986617  0.371169  0.216293  1
  O  O20  1  0.830296  0.449634  0.867208  1
  O  O21  1  0.966866  0.966866  0.814169  1
  O  O22  1  0.169704  0.550366  0.132792  1
  O  O23  1  0.240423  0.240423  0.908729  1
  O  O24  1  0.013383  0.628831  0.783707  1
  O  O25  1  0.759577  0.759577  0.091271  1
  O  O26  1  0.860214  0.860214  0.506306  1
  O  O27  1  0.495405  0.495405  0.217592  1
  O  O28  1  0.628831  0.013383  0.783707  1
  O  O29  1  0.654321  0.654321  0.564227  1
  O  O30  1  0.033134  0.033134  0.185831  1
  O  O31  1  0.345679  0.345679  0.435773  1
