# generated using pymatgen
data_CsNaTi2O5
_symmetry_space_group_name_H-M   'P 1'
_cell_length_a   14.41525100
_cell_length_b   5.66967913
_cell_length_c   8.28293690
_cell_angle_alpha   89.74656866
_cell_angle_beta   90.00000000
_cell_angle_gamma   90.00000000
_symmetry_Int_Tables_number   1
_chemical_formula_structural   CsNaTi2O5
_chemical_formula_sum   'Cs4 Na4 Ti8 O20'
_cell_volume   676.95654991
_cell_formula_units_Z   4
loop_
 _symmetry_equiv_pos_site_id
 _symmetry_equiv_pos_as_xyz
  1  'x, y, z'
loop_
 _atom_site_type_symbol
 _atom_site_label
 _atom_site_symmetry_multiplicity
 _atom_site_fract_x
 _atom_site_fract_y
 _atom_site_fract_z
 _atom_site_occupancy
  Cs  Cs0  1  0.813923  0.297813  0.780720  1
  Cs  Cs1  1  0.686077  0.297813  0.280720  1
  Cs  Cs2  1  0.313923  0.702187  0.719280  1
  Cs  Cs3  1  0.186077  0.702187  0.219280  1
  Na  Na4  1  0.091382  0.195351  0.958082  1
  Na  Na5  1  0.408618  0.195351  0.458082  1
  Na  Na6  1  0.908618  0.804649  0.041918  1
  Na  Na7  1  0.591382  0.804649  0.541918  1
  Ti  Ti8  1  0.547612  0.301333  0.780014  1
  Ti  Ti9  1  0.636826  0.799162  0.966766  1
  Ti  Ti10  1  0.136826  0.200838  0.533234  1
  Ti  Ti11  1  0.047612  0.698667  0.719986  1
  Ti  Ti12  1  0.363174  0.200838  0.033234  1
  Ti  Ti13  1  0.452388  0.698667  0.219986  1
  Ti  Ti14  1  0.952388  0.301333  0.280014  1
  Ti  Ti15  1  0.863174  0.799162  0.466766  1
  O  O16  1  0.917523  0.617640  0.302162  1
  O  O17  1  0.060258  0.782931  0.921113  1
  O  O18  1  0.582477  0.617640  0.802162  1
  O  O19  1  0.123725  0.881040  0.587218  1
  O  O20  1  0.560258  0.217069  0.578887  1
  O  O21  1  0.082477  0.382360  0.697838  1
  O  O22  1  0.576899  0.739778  0.164366  1
  O  O23  1  0.923101  0.739778  0.664366  1
  O  O24  1  0.753012  0.733318  0.988012  1
  O  O25  1  0.876275  0.118960  0.412782  1
  O  O26  1  0.076899  0.260222  0.335634  1
  O  O27  1  0.417523  0.382360  0.197838  1
  O  O28  1  0.423101  0.260222  0.835634  1
  O  O29  1  0.623725  0.118960  0.912782  1
  O  O30  1  0.246988  0.266682  0.011988  1
  O  O31  1  0.439742  0.782931  0.421113  1
  O  O32  1  0.746988  0.733318  0.488012  1
  O  O33  1  0.939742  0.217069  0.078887  1
  O  O34  1  0.376275  0.881040  0.087218  1
  O  O35  1  0.253012  0.266682  0.511988  1
