# generated using pymatgen
data_Y6Ho2Re3RuC8
_symmetry_space_group_name_H-M   'P 1'
_cell_length_a   5.12035100
_cell_length_b   6.57314859
_cell_length_c   9.85617403
_cell_angle_alpha   90.10351452
_cell_angle_beta   90.00000000
_cell_angle_gamma   90.00000000
_symmetry_Int_Tables_number   1
_chemical_formula_structural   Y6Ho2Re3RuC8
_chemical_formula_sum   'Y6 Ho2 Re3 Ru1 C8'
_cell_volume   331.72701221
_cell_formula_units_Z   1
loop_
 _symmetry_equiv_pos_site_id
 _symmetry_equiv_pos_as_xyz
  1  'x, y, z'
loop_
 _atom_site_type_symbol
 _atom_site_label
 _atom_site_symmetry_multiplicity
 _atom_site_fract_x
 _atom_site_fract_y
 _atom_site_fract_z
 _atom_site_occupancy
  Y  Y0  1  0.250000  0.467546  0.784424  1
  Y  Y1  1  0.750000  0.033395  0.284581  1
  Y  Y2  1  0.250000  0.968196  0.716830  1
  Y  Y3  1  0.750000  0.531456  0.213375  1
  Y  Y4  1  0.750000  0.679665  0.555886  1
  Y  Y5  1  0.750000  0.179866  0.943433  1
  Ho  Ho6  1  0.250000  0.826179  0.055828  1
  Ho  Ho7  1  0.250000  0.320923  0.442427  1
  Re  Re8  1  0.750000  0.220983  0.632938  1
  Re  Re9  1  0.250000  0.779481  0.365309  1
  Re  Re10  1  0.750000  0.721374  0.866557  1
  Ru  Ru11  1  0.250000  0.279200  0.134584  1
  C  C12  1  0.250000  0.172974  0.952013  1
  C  C13  1  0.750000  0.821941  0.051159  1
  C  C14  1  0.250000  0.675274  0.549001  1
  C  C15  1  0.750000  0.322026  0.448920  1
  C  C16  1  0.250000  0.044929  0.259876  1
  C  C17  1  0.750000  0.453945  0.759031  1
  C  C18  1  0.250000  0.547396  0.243336  1
  C  C19  1  0.750000  0.953252  0.740494  1
