# generated using pymatgen
data_Tb3Dy5(ReB6)4
_symmetry_space_group_name_H-M   'P 1'
_cell_length_a   3.69315700
_cell_length_b   9.18870000
_cell_length_c   11.57740200
_cell_angle_alpha   89.99791445
_cell_angle_beta   90.00000000
_cell_angle_gamma   90.00000000
_symmetry_Int_Tables_number   1
_chemical_formula_structural   Tb3Dy5(ReB6)4
_chemical_formula_sum   'Tb3 Dy5 Re4 B24'
_cell_volume   392.88274572
_cell_formula_units_Z   1
loop_
 _symmetry_equiv_pos_site_id
 _symmetry_equiv_pos_as_xyz
  1  'x, y, z'
loop_
 _atom_site_type_symbol
 _atom_site_label
 _atom_site_symmetry_multiplicity
 _atom_site_fract_x
 _atom_site_fract_y
 _atom_site_fract_z
 _atom_site_occupancy
  Tb  Tb0  1  0.000000  0.323714  0.413741  1
  Tb  Tb1  1  0.000000  0.676284  0.586301  1
  Tb  Tb2  1  0.000000  0.823745  0.086213  1
  Dy  Dy3  1  0.000000  0.176144  0.913770  1
  Dy  Dy4  1  0.000000  0.943311  0.369902  1
  Dy  Dy5  1  0.000000  0.056725  0.630117  1
  Dy  Dy6  1  0.000000  0.443235  0.129943  1
  Dy  Dy7  1  0.000000  0.556707  0.870015  1
  Re  Re8  1  0.000000  0.638920  0.320605  1
  Re  Re9  1  0.000000  0.361026  0.679548  1
  Re  Re10  1  0.000000  0.138875  0.179082  1
  Re  Re11  1  0.000000  0.861296  0.820760  1
  B  B12  1  0.500000  0.553517  0.432621  1
  B  B13  1  0.500000  0.446422  0.567442  1
  B  B14  1  0.500000  0.053611  0.067159  1
  B  B15  1  0.500000  0.946716  0.932646  1
  B  B16  1  0.500000  0.748876  0.418304  1
  B  B17  1  0.500000  0.251096  0.581806  1
  B  B18  1  0.500000  0.248822  0.081388  1
  B  B19  1  0.500000  0.751226  0.918277  1
  B  B20  1  0.500000  0.792033  0.265860  1
  B  B21  1  0.500000  0.207823  0.734361  1
  B  B22  1  0.500000  0.291988  0.233983  1
  B  B23  1  0.500000  0.708023  0.765923  1
  B  B24  1  0.500000  0.631076  0.185967  1
  B  B25  1  0.500000  0.368699  0.814229  1
  B  B26  1  0.500000  0.131122  0.313927  1
  B  B27  1  0.500000  0.868998  0.686083  1
  B  B28  1  0.500000  0.983108  0.211933  1
  B  B29  1  0.500000  0.017251  0.788128  1
  B  B30  1  0.500000  0.482992  0.287929  1
  B  B31  1  0.500000  0.516917  0.712116  1
  B  B32  1  0.500000  0.600276  0.028039  1
  B  B33  1  0.500000  0.399376  0.971831  1
  B  B34  1  0.500000  0.100215  0.471975  1
  B  B35  1  0.500000  0.899839  0.528077  1
