# generated using pymatgen
data_Ti10BeSn6As
_symmetry_space_group_name_H-M   'P 1'
_cell_length_a   8.23086100
_cell_length_b   8.23086199
_cell_length_c   5.51109000
_cell_angle_alpha   90.00000000
_cell_angle_beta   90.00000000
_cell_angle_gamma   120.00000807
_symmetry_Int_Tables_number   1
_chemical_formula_structural   Ti10BeSn6As
_chemical_formula_sum   'Ti10 Be1 Sn6 As1'
_cell_volume   323.33944399
_cell_formula_units_Z   1
loop_
 _symmetry_equiv_pos_site_id
 _symmetry_equiv_pos_as_xyz
  1  'x, y, z'
loop_
 _atom_site_type_symbol
 _atom_site_label
 _atom_site_symmetry_multiplicity
 _atom_site_fract_x
 _atom_site_fract_y
 _atom_site_fract_z
 _atom_site_occupancy
  Ti  Ti0  1  0.257360  0.000000  0.758578  1
  Ti  Ti1  1  0.742640  0.000000  0.241422  1
  Ti  Ti2  1  0.000000  0.257360  0.758578  1
  Ti  Ti3  1  0.000000  0.742640  0.241422  1
  Ti  Ti4  1  0.742640  0.742640  0.758578  1
  Ti  Ti5  1  0.257360  0.257360  0.241422  1
  Ti  Ti6  1  0.333333  0.666667  0.500000  1
  Ti  Ti7  1  0.666667  0.333333  0.500000  1
  Ti  Ti8  1  0.666667  0.333333  0.000000  1
  Ti  Ti9  1  0.333333  0.666667  0.000000  1
  Be  Be10  1  0.000000  0.000000  0.000000  1
  Sn  Sn11  1  0.607363  0.000000  0.751394  1
  Sn  Sn12  1  0.392637  0.000000  0.248606  1
  Sn  Sn13  1  0.000000  0.607363  0.751394  1
  Sn  Sn14  1  0.000000  0.392637  0.248606  1
  Sn  Sn15  1  0.392637  0.392637  0.751394  1
  Sn  Sn16  1  0.607363  0.607363  0.248606  1
  As  As17  1  0.000000  0.000000  0.500000  1
