# generated using pymatgen
data_AgP2PbO7
_symmetry_space_group_name_H-M   'P 1'
_cell_length_a   5.55725202
_cell_length_b   7.47335883
_cell_length_c   7.46247681
_cell_angle_alpha   103.41870242
_cell_angle_beta   91.15639511
_cell_angle_gamma   95.44893430
_symmetry_Int_Tables_number   1
_chemical_formula_structural   AgP2PbO7
_chemical_formula_sum   'Ag2 P4 Pb2 O14'
_cell_volume   299.81807458
_cell_formula_units_Z   2
loop_
 _symmetry_equiv_pos_site_id
 _symmetry_equiv_pos_as_xyz
  1  'x, y, z'
loop_
 _atom_site_type_symbol
 _atom_site_label
 _atom_site_symmetry_multiplicity
 _atom_site_fract_x
 _atom_site_fract_y
 _atom_site_fract_z
 _atom_site_occupancy
  Ag  Ag0  1  0.804585  0.831792  0.594198  1
  Ag  Ag1  1  0.195415  0.168208  0.405802  1
  P  P2  1  0.275861  0.667941  0.387747  1
  P  P3  1  0.724139  0.332059  0.612253  1
  P  P4  1  0.300526  0.759588  0.795926  1
  P  P5  1  0.699474  0.240412  0.204074  1
  Pb  Pb6  1  0.773518  0.717863  0.058800  1
  Pb  Pb7  1  0.226482  0.282137  0.941200  1
  O  O8  1  0.526039  0.772452  0.371101  1
  O  O9  1  0.473961  0.227548  0.628899  1
  O  O10  1  0.273698  0.622912  0.591670  1
  O  O11  1  0.726302  0.377088  0.408330  1
  O  O12  1  0.285248  0.635703  0.933155  1
  O  O13  1  0.714752  0.364297  0.066845  1
  O  O14  1  0.226418  0.480304  0.257209  1
  O  O15  1  0.773582  0.519696  0.742791  1
  O  O16  1  0.904807  0.111451  0.186878  1
  O  O17  1  0.095193  0.888549  0.813122  1
  O  O18  1  0.449879  0.124321  0.185202  1
  O  O19  1  0.550121  0.875679  0.814798  1
  O  O20  1  0.924863  0.201438  0.618398  1
  O  O21  1  0.075137  0.798562  0.381602  1
