# generated using pymatgen
data_Dy6VFeB14
_symmetry_space_group_name_H-M   'P 1'
_cell_length_a   8.09416424
_cell_length_b   8.09416457
_cell_length_c   9.34670900
_cell_angle_alpha   90.00000000
_cell_angle_beta   90.00000000
_cell_angle_gamma   155.50949007
_symmetry_Int_Tables_number   1
_chemical_formula_structural   Dy6VFeB14
_chemical_formula_sum   'Dy6 V1 Fe1 B14'
_cell_volume   253.84688881
_cell_formula_units_Z   1
loop_
 _symmetry_equiv_pos_site_id
 _symmetry_equiv_pos_as_xyz
  1  'x, y, z'
loop_
 _atom_site_type_symbol
 _atom_site_label
 _atom_site_symmetry_multiplicity
 _atom_site_fract_x
 _atom_site_fract_y
 _atom_site_fract_z
 _atom_site_occupancy
  Dy  Dy0  1  0.893908  0.106092  0.441761  1
  Dy  Dy1  1  0.104999  0.895001  0.563014  1
  Dy  Dy2  1  0.893908  0.106092  0.058239  1
  Dy  Dy3  1  0.104999  0.895001  0.936986  1
  Dy  Dy4  1  0.243640  0.756360  0.250000  1
  Dy  Dy5  1  0.758408  0.241592  0.750000  1
  V  V6  1  0.052509  0.947491  0.250000  1
  Fe  Fe7  1  0.945410  0.054590  0.750000  1
  B  B8  1  0.727936  0.272064  0.468672  1
  B  B9  1  0.273255  0.726745  0.534402  1
  B  B10  1  0.727936  0.272064  0.031328  1
  B  B11  1  0.273255  0.726745  0.965598  1
  B  B12  1  0.632861  0.367139  0.149074  1
  B  B13  1  0.370615  0.629385  0.846742  1
  B  B14  1  0.632861  0.367139  0.350926  1
  B  B15  1  0.370615  0.629385  0.653258  1
  B  B16  1  0.520542  0.479458  0.093572  1
  B  B17  1  0.478091  0.521909  0.902048  1
  B  B18  1  0.520542  0.479458  0.406428  1
  B  B19  1  0.478091  0.521909  0.597952  1
  B  B20  1  0.457619  0.542381  0.250000  1
  B  B21  1  0.538003  0.461997  0.750000  1
