# generated using pymatgen
data_Hf6Al16Ir4Au3
_symmetry_space_group_name_H-M   'P 1'
_cell_length_a   8.81529690
_cell_length_b   8.80191662
_cell_length_c   8.77960143
_cell_angle_alpha   59.96122529
_cell_angle_beta   60.03319752
_cell_angle_gamma   59.78221382
_symmetry_Int_Tables_number   1
_chemical_formula_structural   Hf6Al16Ir4Au3
_chemical_formula_sum   'Hf6 Al16 Ir4 Au3'
_cell_volume   480.87864397
_cell_formula_units_Z   1
loop_
 _symmetry_equiv_pos_site_id
 _symmetry_equiv_pos_as_xyz
  1  'x, y, z'
loop_
 _atom_site_type_symbol
 _atom_site_label
 _atom_site_symmetry_multiplicity
 _atom_site_fract_x
 _atom_site_fract_y
 _atom_site_fract_z
 _atom_site_occupancy
  Hf  Hf0  1  0.681720  0.318280  0.318280  1
  Hf  Hf1  1  0.318280  0.681720  0.681720  1
  Hf  Hf2  1  0.317852  0.679570  0.320430  1
  Hf  Hf3  1  0.682148  0.320430  0.679570  1
  Hf  Hf4  1  0.316612  0.319298  0.680702  1
  Hf  Hf5  1  0.683388  0.680702  0.319298  1
  Al  Al6  1  0.332786  0.341295  0.333431  1
  Al  Al7  1  0.667214  0.658705  0.666569  1
  Al  Al8  1  0.338276  0.339022  0.993350  1
  Al  Al9  1  0.329351  0.993350  0.339022  1
  Al  Al10  1  0.661724  0.660978  0.006650  1
  Al  Al11  1  0.670649  0.006650  0.660978  1
  Al  Al12  1  0.992488  0.333431  0.341295  1
  Al  Al13  1  0.007512  0.666569  0.658705  1
  Al  Al14  1  0.109066  0.113030  0.131239  1
  Al  Al15  1  0.890934  0.886970  0.868761  1
  Al  Al16  1  0.107209  0.127004  0.642945  1
  Al  Al17  1  0.122842  0.642945  0.127004  1
  Al  Al18  1  0.892791  0.872996  0.357055  1
  Al  Al19  1  0.877158  0.357055  0.872996  1
  Al  Al20  1  0.646665  0.131239  0.113030  1
  Al  Al21  1  0.353335  0.868761  0.886970  1
  Ir  Ir22  1  0.000000  0.500000  0.500000  1
  Ir  Ir23  1  0.000000  0.000000  0.500000  1
  Ir  Ir24  1  0.500000  0.500000  0.000000  1
  Ir  Ir25  1  0.000000  0.000000  0.000000  1
  Au  Au26  1  0.500000  0.000000  0.000000  1
  Au  Au27  1  0.000000  0.500000  0.000000  1
  Au  Au28  1  0.500000  0.000000  0.500000  1
