# generated using pymatgen
data_Y19HoCoBi8Os3
_symmetry_space_group_name_H-M   'P 1'
_cell_length_a   7.99352298
_cell_length_b   9.03805024
_cell_length_c   12.47490151
_cell_angle_alpha   89.99848234
_cell_angle_beta   89.77405802
_cell_angle_gamma   89.97383185
_symmetry_Int_Tables_number   1
_chemical_formula_structural   Y19HoCoBi8Os3
_chemical_formula_sum   'Y19 Ho1 Co1 Bi8 Os3'
_cell_volume   901.25291447
_cell_formula_units_Z   1
loop_
 _symmetry_equiv_pos_site_id
 _symmetry_equiv_pos_as_xyz
  1  'x, y, z'
loop_
 _atom_site_type_symbol
 _atom_site_label
 _atom_site_symmetry_multiplicity
 _atom_site_fract_x
 _atom_site_fract_y
 _atom_site_fract_z
 _atom_site_occupancy
  Y  Y0  1  0.344073  0.750083  0.702375  1
  Y  Y1  1  0.658421  0.249931  0.292001  1
  Y  Y2  1  0.842203  0.249680  0.790582  1
  Y  Y3  1  0.156502  0.750121  0.207130  1
  Y  Y4  1  0.878398  0.750243  0.805173  1
  Y  Y5  1  0.121081  0.249681  0.194210  1
  Y  Y6  1  0.377740  0.249806  0.693688  1
  Y  Y7  1  0.617693  0.750019  0.311508  1
  Y  Y8  1  0.676476  0.541522  0.564620  1
  Y  Y9  1  0.324791  0.460811  0.436328  1
  Y  Y10  1  0.175164  0.458325  0.935430  1
  Y  Y11  1  0.324809  0.039168  0.436308  1
  Y  Y12  1  0.823895  0.542774  0.064908  1
  Y  Y13  1  0.676476  0.958421  0.564650  1
  Y  Y14  1  0.823659  0.957213  0.065016  1
  Y  Y15  1  0.054467  0.750042  0.496921  1
  Y  Y16  1  0.946161  0.249939  0.502922  1
  Y  Y17  1  0.556853  0.249526  0.003449  1
  Y  Y18  1  0.443037  0.750675  0.995631  1
  Ho  Ho19  1  0.173151  0.041804  0.936207  1
  Co  Co20  1  0.429105  0.749979  0.491055  1
  Bi  Bi21  1  0.570061  0.508494  0.827450  1
  Bi  Bi22  1  0.429791  0.492364  0.172760  1
  Bi  Bi23  1  0.071356  0.492085  0.671654  1
  Bi  Bi24  1  0.429899  0.007672  0.172967  1
  Bi  Bi25  1  0.929506  0.508893  0.328524  1
  Bi  Bi26  1  0.569816  0.991459  0.827380  1
  Bi  Bi27  1  0.929467  0.991026  0.328599  1
  Bi  Bi28  1  0.071533  0.007898  0.671750  1
  Os  Os29  1  0.075802  0.751108  0.988706  1
  Os  Os30  1  0.924945  0.249244  0.009854  1
  Os  Os31  1  0.573672  0.249993  0.510245  1
