# generated using pymatgen
data_Y3HoLu4In3Co
_symmetry_space_group_name_H-M   'P 1'
_cell_length_a   10.19143300
_cell_length_b   10.19143285
_cell_length_c   7.05208600
_cell_angle_alpha   90.00000000
_cell_angle_beta   90.00000000
_cell_angle_gamma   119.99999723
_symmetry_Int_Tables_number   1
_chemical_formula_structural   Y3HoLu4In3Co
_chemical_formula_sum   'Y6 Ho2 Lu8 In6 Co2'
_cell_volume   634.33510266
_cell_formula_units_Z   2
loop_
 _symmetry_equiv_pos_site_id
 _symmetry_equiv_pos_as_xyz
  1  'x, y, z'
loop_
 _atom_site_type_symbol
 _atom_site_label
 _atom_site_symmetry_multiplicity
 _atom_site_fract_x
 _atom_site_fract_y
 _atom_site_fract_z
 _atom_site_occupancy
  Y  Y0  1  0.534449  0.068898  0.504954  1
  Y  Y1  1  0.931102  0.465551  0.504954  1
  Y  Y2  1  0.534449  0.465551  0.504954  1
  Y  Y3  1  0.465551  0.931102  0.004954  1
  Y  Y4  1  0.068898  0.534449  0.004954  1
  Y  Y5  1  0.465551  0.534449  0.004954  1
  Ho  Ho6  1  0.000000  0.000000  0.493023  1
  Ho  Ho7  1  0.000000  0.000000  0.993023  1
  Lu  Lu8  1  0.179317  0.358634  0.709318  1
  Lu  Lu9  1  0.641366  0.820683  0.709318  1
  Lu  Lu10  1  0.179317  0.820683  0.709318  1
  Lu  Lu11  1  0.820683  0.641366  0.209318  1
  Lu  Lu12  1  0.358634  0.179317  0.209318  1
  Lu  Lu13  1  0.820683  0.179317  0.209318  1
  Lu  Lu14  1  0.666667  0.333333  0.899382  1
  Lu  Lu15  1  0.333333  0.666667  0.399382  1
  In  In16  1  0.836798  0.673598  0.756554  1
  In  In17  1  0.326402  0.163202  0.756554  1
  In  In18  1  0.836798  0.163202  0.756554  1
  In  In19  1  0.163202  0.326402  0.256554  1
  In  In20  1  0.673598  0.836798  0.256554  1
  In  In21  1  0.163202  0.836798  0.256554  1
  Co  Co22  1  0.666667  0.333333  0.274140  1
  Co  Co23  1  0.333333  0.666667  0.774140  1
