# generated using pymatgen
data_Ce2PaO6
_symmetry_space_group_name_H-M   'P 1'
_cell_length_a   6.68675291
_cell_length_b   6.68675354
_cell_length_c   6.68675304
_cell_angle_alpha   146.15955609
_cell_angle_beta   131.44239339
_cell_angle_gamma   60.49771613
_symmetry_Int_Tables_number   1
_chemical_formula_structural   Ce2PaO6
_chemical_formula_sum   'Ce2 Pa1 O6'
_cell_volume   123.62987633
_cell_formula_units_Z   1
loop_
 _symmetry_equiv_pos_site_id
 _symmetry_equiv_pos_as_xyz
  1  'x, y, z'
loop_
 _atom_site_type_symbol
 _atom_site_label
 _atom_site_symmetry_multiplicity
 _atom_site_fract_x
 _atom_site_fract_y
 _atom_site_fract_z
 _atom_site_occupancy
  Ce  Ce0  1  0.666706  0.666706  0.000000  1
  Ce  Ce1  1  0.333294  0.333294  0.000000  1
  Pa  Pa2  1  0.000000  0.000000  0.000000  1
  O  O3  1  0.596874  0.840025  0.756847  1
  O  O4  1  0.236423  0.500000  0.736423  1
  O  O5  1  0.916822  0.159975  0.756847  1
  O  O6  1  0.763577  0.500000  0.263577  1
  O  O7  1  0.403126  0.159975  0.243153  1
  O  O8  1  0.083178  0.840025  0.243153  1
