# generated using pymatgen
data_RbFeIO6
_symmetry_space_group_name_H-M   'P 1'
_cell_length_a   5.22818300
_cell_length_b   5.22818163
_cell_length_c   12.72674700
_cell_angle_alpha   90.00000000
_cell_angle_beta   90.00000000
_cell_angle_gamma   120.00000234
_symmetry_Int_Tables_number   1
_chemical_formula_structural   RbFeIO6
_chemical_formula_sum   'Rb2 Fe2 I2 O12'
_cell_volume   301.26555485
_cell_formula_units_Z   2
loop_
 _symmetry_equiv_pos_site_id
 _symmetry_equiv_pos_as_xyz
  1  'x, y, z'
loop_
 _atom_site_type_symbol
 _atom_site_label
 _atom_site_symmetry_multiplicity
 _atom_site_fract_x
 _atom_site_fract_y
 _atom_site_fract_z
 _atom_site_occupancy
  Rb  Rb0  1  0.000000  0.000000  0.000000  1
  Rb  Rb1  1  0.000000  0.000000  0.500000  1
  Fe  Fe2  1  0.666667  0.333333  0.250000  1
  Fe  Fe3  1  0.333333  0.666667  0.750000  1
  I  I4  1  0.333333  0.666667  0.250000  1
  I  I5  1  0.666667  0.333333  0.750000  1
  O  O6  1  0.012551  0.397575  0.336483  1
  O  O7  1  0.385023  0.397575  0.163517  1
  O  O8  1  0.614977  0.012551  0.836483  1
  O  O9  1  0.987449  0.602425  0.836483  1
  O  O10  1  0.602425  0.987449  0.163517  1
  O  O11  1  0.397575  0.385023  0.836483  1
  O  O12  1  0.397575  0.012551  0.663517  1
  O  O13  1  0.012551  0.614977  0.163517  1
  O  O14  1  0.602425  0.614977  0.336483  1
  O  O15  1  0.987449  0.385023  0.663517  1
  O  O16  1  0.614977  0.602425  0.663517  1
  O  O17  1  0.385023  0.987449  0.336483  1
