# generated using pymatgen
data_Zr8In4PtAu7
_symmetry_space_group_name_H-M   'P 1'
_cell_length_a   7.62215339
_cell_length_b   7.62215339
_cell_length_c   7.12903605
_cell_angle_alpha   89.99054735
_cell_angle_beta   89.99054735
_cell_angle_gamma   90.06858479
_symmetry_Int_Tables_number   1
_chemical_formula_structural   Zr8In4PtAu7
_chemical_formula_sum   'Zr8 In4 Pt1 Au7'
_cell_volume   414.17688421
_cell_formula_units_Z   1
loop_
 _symmetry_equiv_pos_site_id
 _symmetry_equiv_pos_as_xyz
  1  'x, y, z'
loop_
 _atom_site_type_symbol
 _atom_site_label
 _atom_site_symmetry_multiplicity
 _atom_site_fract_x
 _atom_site_fract_y
 _atom_site_fract_z
 _atom_site_occupancy
  Zr  Zr0  1  0.150551  0.150551  0.005258  1
  Zr  Zr1  1  0.854040  0.854040  0.999315  1
  Zr  Zr2  1  0.641624  0.350724  0.494867  1
  Zr  Zr3  1  0.350724  0.641624  0.494867  1
  Zr  Zr4  1  0.690050  0.303701  0.003652  1
  Zr  Zr5  1  0.303701  0.690050  0.003652  1
  Zr  Zr6  1  0.804147  0.804147  0.499547  1
  Zr  Zr7  1  0.200675  0.200675  0.494631  1
  In  In8  1  0.499478  0.002505  0.248623  1
  In  In9  1  0.499572  0.999014  0.749375  1
  In  In10  1  0.002505  0.499478  0.248623  1
  In  In11  1  0.999014  0.499572  0.749375  1
  Pt  Pt12  1  0.371000  0.371000  0.209249  1
  Au  Au13  1  0.629395  0.629395  0.793841  1
  Au  Au14  1  0.630082  0.630082  0.204149  1
  Au  Au15  1  0.871045  0.131055  0.706367  1
  Au  Au16  1  0.871165  0.129851  0.295736  1
  Au  Au17  1  0.370324  0.370324  0.796770  1
  Au  Au18  1  0.129851  0.871165  0.295736  1
  Au  Au19  1  0.131055  0.871045  0.706367  1
