# generated using pymatgen
data_CaLu2(GeRh2)3
_symmetry_space_group_name_H-M   'P 1'
_cell_length_a   5.58662600
_cell_length_b   5.58662597
_cell_length_c   15.40353200
_cell_angle_alpha   90.00000000
_cell_angle_beta   90.00000000
_cell_angle_gamma   120.00000019
_symmetry_Int_Tables_number   1
_chemical_formula_structural   CaLu2(GeRh2)3
_chemical_formula_sum   'Ca2 Lu4 Ge6 Rh12'
_cell_volume   416.34191930
_cell_formula_units_Z   2
loop_
 _symmetry_equiv_pos_site_id
 _symmetry_equiv_pos_as_xyz
  1  'x, y, z'
loop_
 _atom_site_type_symbol
 _atom_site_label
 _atom_site_symmetry_multiplicity
 _atom_site_fract_x
 _atom_site_fract_y
 _atom_site_fract_z
 _atom_site_occupancy
  Ca  Ca0  1  0.333333  0.666667  0.750000  1
  Ca  Ca1  1  0.666667  0.333333  0.250000  1
  Lu  Lu2  1  0.333333  0.666667  0.540315  1
  Lu  Lu3  1  0.666667  0.333333  0.459685  1
  Lu  Lu4  1  0.666667  0.333333  0.040315  1
  Lu  Lu5  1  0.333333  0.666667  0.959685  1
  Ge  Ge6  1  0.000000  0.000000  0.250000  1
  Ge  Ge7  1  0.000000  0.000000  0.750000  1
  Ge  Ge8  1  0.333333  0.666667  0.250000  1
  Ge  Ge9  1  0.666667  0.333333  0.750000  1
  Ge  Ge10  1  0.000000  0.000000  0.000000  1
  Ge  Ge11  1  0.000000  0.000000  0.500000  1
  Rh  Rh12  1  0.168858  0.337716  0.125117  1
  Rh  Rh13  1  0.831142  0.662284  0.874883  1
  Rh  Rh14  1  0.662284  0.831142  0.125117  1
  Rh  Rh15  1  0.831142  0.662284  0.625117  1
  Rh  Rh16  1  0.337716  0.168858  0.874883  1
  Rh  Rh17  1  0.168858  0.337716  0.374883  1
  Rh  Rh18  1  0.168858  0.831142  0.125117  1
  Rh  Rh19  1  0.337716  0.168858  0.625117  1
  Rh  Rh20  1  0.831142  0.168858  0.874883  1
  Rh  Rh21  1  0.662284  0.831142  0.374883  1
  Rh  Rh22  1  0.831142  0.168858  0.625117  1
  Rh  Rh23  1  0.168858  0.831142  0.374883  1
