# generated using pymatgen
data_Tb6Y2In7Hg
_symmetry_space_group_name_H-M   'P 1'
_cell_length_a   6.52351039
_cell_length_b   6.52328042
_cell_length_c   10.74422100
_cell_angle_alpha   90.00000000
_cell_angle_beta   90.00000000
_cell_angle_gamma   109.84634062
_symmetry_Int_Tables_number   1
_chemical_formula_structural   Tb6Y2In7Hg
_chemical_formula_sum   'Tb6 Y2 In7 Hg1'
_cell_volume   430.06124847
_cell_formula_units_Z   1
loop_
 _symmetry_equiv_pos_site_id
 _symmetry_equiv_pos_as_xyz
  1  'x, y, z'
loop_
 _atom_site_type_symbol
 _atom_site_label
 _atom_site_symmetry_multiplicity
 _atom_site_fract_x
 _atom_site_fract_y
 _atom_site_fract_z
 _atom_site_occupancy
  Tb  Tb0  1  0.501496  0.501224  0.250000  1
  Tb  Tb1  1  0.498521  0.498560  0.750000  1
  Tb  Tb2  1  0.252356  0.750413  0.498604  1
  Tb  Tb3  1  0.252356  0.750413  0.001396  1
  Tb  Tb4  1  0.747666  0.249652  0.498636  1
  Tb  Tb5  1  0.747666  0.249652  0.001364  1
  Y  Y6  1  0.997559  0.997270  0.250000  1
  Y  Y7  1  0.002821  0.002890  0.750000  1
  In  In8  1  0.248118  0.247329  0.002323  1
  In  In9  1  0.751760  0.752697  0.000045  1
  In  In10  1  0.248118  0.247329  0.497677  1
  In  In11  1  0.751760  0.752697  0.499955  1
  In  In12  1  0.999194  0.502207  0.750000  1
  In  In13  1  0.502136  0.999132  0.750000  1
  In  In14  1  0.000841  0.497806  0.250000  1
  Hg  Hg15  1  0.497632  0.000730  0.250000  1
