# generated using pymatgen
data_Er3LuReTcB12
_symmetry_space_group_name_H-M   'P 1'
_cell_length_a   3.64734600
_cell_length_b   9.10699861
_cell_length_c   11.47686912
_cell_angle_alpha   90.06601409
_cell_angle_beta   90.00000000
_cell_angle_gamma   90.00000000
_symmetry_Int_Tables_number   1
_chemical_formula_structural   Er3LuReTcB12
_chemical_formula_sum   'Er6 Lu2 Re2 Tc2 B24'
_cell_volume   381.21973511
_cell_formula_units_Z   2
loop_
 _symmetry_equiv_pos_site_id
 _symmetry_equiv_pos_as_xyz
  1  'x, y, z'
loop_
 _atom_site_type_symbol
 _atom_site_label
 _atom_site_symmetry_multiplicity
 _atom_site_fract_x
 _atom_site_fract_y
 _atom_site_fract_z
 _atom_site_occupancy
  Er  Er0  1  0.000000  0.323799  0.413881  1
  Er  Er1  1  0.000000  0.676201  0.586119  1
  Er  Er2  1  0.000000  0.822980  0.085978  1
  Er  Er3  1  0.000000  0.177020  0.914022  1
  Er  Er4  1  0.000000  0.942257  0.369838  1
  Er  Er5  1  0.000000  0.057743  0.630162  1
  Lu  Lu6  1  0.000000  0.443959  0.130153  1
  Lu  Lu7  1  0.000000  0.556041  0.869847  1
  Re  Re8  1  0.000000  0.139817  0.179143  1
  Re  Re9  1  0.000000  0.860183  0.820857  1
  Tc  Tc10  1  0.000000  0.638270  0.319786  1
  Tc  Tc11  1  0.000000  0.361730  0.680214  1
  B  B12  1  0.500000  0.553023  0.432928  1
  B  B13  1  0.500000  0.446977  0.567072  1
  B  B14  1  0.500000  0.053572  0.066638  1
  B  B15  1  0.500000  0.946428  0.933362  1
  B  B16  1  0.500000  0.748994  0.418710  1
  B  B17  1  0.500000  0.251006  0.581290  1
  B  B18  1  0.500000  0.251184  0.080931  1
  B  B19  1  0.500000  0.748816  0.919069  1
  B  B20  1  0.500000  0.791898  0.264799  1
  B  B21  1  0.500000  0.208102  0.735201  1
  B  B22  1  0.500000  0.293730  0.234660  1
  B  B23  1  0.500000  0.706270  0.765340  1
  B  B24  1  0.500000  0.629881  0.184507  1
  B  B25  1  0.500000  0.370119  0.815493  1
  B  B26  1  0.500000  0.131068  0.314801  1
  B  B27  1  0.500000  0.868932  0.685199  1
  B  B28  1  0.500000  0.981793  0.211655  1
  B  B29  1  0.500000  0.018207  0.788345  1
  B  B30  1  0.500000  0.481402  0.287520  1
  B  B31  1  0.500000  0.518598  0.712480  1
  B  B32  1  0.500000  0.598126  0.027293  1
  B  B33  1  0.500000  0.401874  0.972707  1
  B  B34  1  0.500000  0.100203  0.472018  1
  B  B35  1  0.500000  0.899797  0.527982  1
