# generated using pymatgen
data_Ho3Mg2ZnAu3
_symmetry_space_group_name_H-M   'P 1'
_cell_length_a   7.65958892
_cell_length_b   7.66407710
_cell_length_c   3.89650600
_cell_angle_alpha   90.00000000
_cell_angle_beta   90.00000000
_cell_angle_gamma   120.01938648
_symmetry_Int_Tables_number   1
_chemical_formula_structural   Ho3Mg2ZnAu3
_chemical_formula_sum   'Ho3 Mg2 Zn1 Au3'
_cell_volume   198.05528478
_cell_formula_units_Z   1
loop_
 _symmetry_equiv_pos_site_id
 _symmetry_equiv_pos_as_xyz
  1  'x, y, z'
loop_
 _atom_site_type_symbol
 _atom_site_label
 _atom_site_symmetry_multiplicity
 _atom_site_fract_x
 _atom_site_fract_y
 _atom_site_fract_z
 _atom_site_occupancy
  Ho  Ho0  1  0.394001  0.406050  0.500000  1
  Ho  Ho1  1  0.605999  0.012049  0.500000  1
  Ho  Ho2  1  0.000000  0.571351  0.500000  1
  Mg  Mg3  1  0.751302  0.746930  0.000000  1
  Mg  Mg4  1  0.248698  0.995628  0.000000  1
  Zn  Zn5  1  0.000000  0.257548  0.000000  1
  Au  Au6  1  0.660910  0.334888  0.000000  1
  Au  Au7  1  0.339090  0.673980  0.000000  1
  Au  Au8  1  0.000000  0.001575  0.500000  1
