# generated using pymatgen
data_CePa(TcB4)2
_symmetry_space_group_name_H-M   'P 1'
_cell_length_a   3.66591900
_cell_length_b   5.98484614
_cell_length_c   11.58426308
_cell_angle_alpha   89.93171723
_cell_angle_beta   90.00000000
_cell_angle_gamma   90.00000000
_symmetry_Int_Tables_number   1
_chemical_formula_structural   CePa(TcB4)2
_chemical_formula_sum   'Ce2 Pa2 Tc4 B16'
_cell_volume   254.15810198
_cell_formula_units_Z   2
loop_
 _symmetry_equiv_pos_site_id
 _symmetry_equiv_pos_as_xyz
  1  'x, y, z'
loop_
 _atom_site_type_symbol
 _atom_site_label
 _atom_site_symmetry_multiplicity
 _atom_site_fract_x
 _atom_site_fract_y
 _atom_site_fract_z
 _atom_site_occupancy
  Ce  Ce0  1  0.000000  0.626986  0.350597  1
  Ce  Ce1  1  0.000000  0.373014  0.649403  1
  Pa  Pa2  1  0.000000  0.127460  0.150592  1
  Pa  Pa3  1  0.000000  0.872540  0.849408  1
  Tc  Tc4  1  0.000000  0.136340  0.406886  1
  Tc  Tc5  1  0.000000  0.863660  0.593114  1
  Tc  Tc6  1  0.000000  0.639107  0.092155  1
  Tc  Tc7  1  0.000000  0.360893  0.907845  1
  B  B8  1  0.500000  0.527947  0.809669  1
  B  B9  1  0.500000  0.472053  0.190331  1
  B  B10  1  0.500000  0.024314  0.691625  1
  B  B11  1  0.500000  0.975686  0.308375  1
  B  B12  1  0.500000  0.387501  0.045944  1
  B  B13  1  0.500000  0.612499  0.954056  1
  B  B14  1  0.500000  0.888430  0.454290  1
  B  B15  1  0.500000  0.111570  0.545710  1
  B  B16  1  0.500000  0.210806  0.814652  1
  B  B17  1  0.500000  0.789194  0.185348  1
  B  B18  1  0.500000  0.714424  0.686643  1
  B  B19  1  0.500000  0.285576  0.313357  1
  B  B20  1  0.500000  0.135038  0.968255  1
  B  B21  1  0.500000  0.864962  0.031745  1
  B  B22  1  0.500000  0.637894  0.531937  1
  B  B23  1  0.500000  0.362106  0.468063  1
