# generated using pymatgen
data_TbY2Al12Ru3Pt
_symmetry_space_group_name_H-M   'P 1'
_cell_length_a   8.84401028
_cell_length_b   8.79937419
_cell_length_c   9.55892215
_cell_angle_alpha   90.00000140
_cell_angle_beta   90.06376228
_cell_angle_gamma   119.83319283
_symmetry_Int_Tables_number   1
_chemical_formula_structural   TbY2Al12Ru3Pt
_chemical_formula_sum   'Tb2 Y4 Al24 Ru6 Pt2'
_cell_volume   645.30905713
_cell_formula_units_Z   2
loop_
 _symmetry_equiv_pos_site_id
 _symmetry_equiv_pos_as_xyz
  1  'x, y, z'
loop_
 _atom_site_type_symbol
 _atom_site_label
 _atom_site_symmetry_multiplicity
 _atom_site_fract_x
 _atom_site_fract_y
 _atom_site_fract_z
 _atom_site_occupancy
  Tb  Tb0  1  0.190756  0.805497  0.751863  1
  Tb  Tb1  1  0.190756  0.385261  0.751863  1
  Y  Y2  1  0.383763  0.191881  0.248800  1
  Y  Y3  1  0.808982  0.194579  0.248158  1
  Y  Y4  1  0.808982  0.614403  0.248158  1
  Y  Y5  1  0.616155  0.808078  0.751215  1
  Al  Al6  1  0.437771  0.874922  0.247279  1
  Al  Al7  1  0.121996  0.560998  0.250955  1
  Al  Al8  1  0.437771  0.562849  0.247279  1
  Al  Al9  1  0.562376  0.125145  0.752761  1
  Al  Al10  1  0.877582  0.438791  0.748888  1
  Al  Al11  1  0.562376  0.437230  0.752761  1
  Al  Al12  1  0.158000  0.832936  0.421145  1
  Al  Al13  1  0.158000  0.325065  0.421145  1
  Al  Al14  1  0.677118  0.838560  0.420808  1
  Al  Al15  1  0.841950  0.166970  0.578673  1
  Al  Al16  1  0.841950  0.674979  0.578673  1
  Al  Al17  1  0.322810  0.161405  0.579117  1
  Al  Al18  1  0.836362  0.163156  0.923135  1
  Al  Al19  1  0.836362  0.673205  0.923135  1
  Al  Al20  1  0.326448  0.163223  0.924273  1
  Al  Al21  1  0.163577  0.836764  0.077072  1
  Al  Al22  1  0.163577  0.326814  0.077072  1
  Al  Al23  1  0.673582  0.836792  0.075863  1
  Al  Al24  1  0.327079  0.663541  0.523420  1
  Al  Al25  1  0.673022  0.336510  0.476464  1
  Al  Al26  1  0.667001  0.333500  0.022153  1
  Al  Al27  1  0.333306  0.666654  0.978022  1
  Al  Al28  1  0.002286  0.001142  0.249554  1
  Al  Al29  1  0.997797  0.998899  0.750475  1
  Ru  Ru30  1  0.999939  0.999970  0.499929  1
  Ru  Ru31  1  0.999958  0.999979  0.000080  1
  Ru  Ru32  1  0.999892  0.499946  0.499823  1
  Ru  Ru33  1  0.500126  0.000177  0.000126  1
  Ru  Ru34  1  0.000053  0.500026  0.999813  1
  Ru  Ru35  1  0.500126  0.499948  0.000126  1
  Pt  Pt36  1  0.500206  0.000205  0.499963  1
  Pt  Pt37  1  0.500206  0.500001  0.499963  1
