# generated using pymatgen
data_Nd2Gd5Th(Si3Pd)4
_symmetry_space_group_name_H-M   'P 1'
_cell_length_a   8.21555300
_cell_length_b   8.20537124
_cell_length_c   8.34515300
_cell_angle_alpha   90.00000000
_cell_angle_beta   90.00000000
_cell_angle_gamma   120.04106002
_symmetry_Int_Tables_number   1
_chemical_formula_structural   Nd2Gd5Th(Si3Pd)4
_chemical_formula_sum   'Nd2 Gd5 Th1 Si12 Pd4'
_cell_volume   486.99010225
_cell_formula_units_Z   1
loop_
 _symmetry_equiv_pos_site_id
 _symmetry_equiv_pos_as_xyz
  1  'x, y, z'
loop_
 _atom_site_type_symbol
 _atom_site_label
 _atom_site_symmetry_multiplicity
 _atom_site_fract_x
 _atom_site_fract_y
 _atom_site_fract_z
 _atom_site_occupancy
  Nd  Nd0  1  0.000010  0.000019  0.250000  1
  Nd  Nd1  1  0.999963  0.999927  0.750000  1
  Gd  Gd2  1  0.499826  0.999654  0.750000  1
  Gd  Gd3  1  0.999696  0.499804  0.250000  1
  Gd  Gd4  1  0.000331  0.500187  0.750000  1
  Gd  Gd5  1  0.500109  0.499804  0.250000  1
  Gd  Gd6  1  0.499853  0.500187  0.750000  1
  Th  Th7  1  0.500220  0.000438  0.250000  1
  Si  Si8  1  0.166537  0.333075  0.000999  1
  Si  Si9  1  0.833432  0.666864  0.000175  1
  Si  Si10  1  0.668449  0.833587  0.998825  1
  Si  Si11  1  0.833432  0.666864  0.499825  1
  Si  Si12  1  0.331614  0.166437  0.997976  1
  Si  Si13  1  0.166537  0.333075  0.499001  1
  Si  Si14  1  0.165137  0.833587  0.998825  1
  Si  Si15  1  0.331614  0.166437  0.502024  1
  Si  Si16  1  0.834822  0.166437  0.997976  1
  Si  Si17  1  0.668449  0.833587  0.501175  1
  Si  Si18  1  0.834822  0.166437  0.502024  1
  Si  Si19  1  0.165137  0.833587  0.501175  1
  Pd  Pd20  1  0.333537  0.667075  0.998086  1
  Pd  Pd21  1  0.666465  0.332930  0.996783  1
  Pd  Pd22  1  0.666465  0.332930  0.503217  1
  Pd  Pd23  1  0.333537  0.667075  0.501914  1
