# generated using pymatgen
data_Rb5Lu(MoH9)3
_symmetry_space_group_name_H-M   'P 1'
_cell_length_a   9.71805723
_cell_length_b   9.48575419
_cell_length_c   5.58350100
_cell_angle_alpha   90.00000000
_cell_angle_beta   90.00000000
_cell_angle_gamma   119.21237367
_symmetry_Int_Tables_number   1
_chemical_formula_structural   Rb5Lu(MoH9)3
_chemical_formula_sum   'Rb5 Lu1 Mo3 H27'
_cell_volume   449.24263217
_cell_formula_units_Z   1
loop_
 _symmetry_equiv_pos_site_id
 _symmetry_equiv_pos_as_xyz
  1  'x, y, z'
loop_
 _atom_site_type_symbol
 _atom_site_label
 _atom_site_symmetry_multiplicity
 _atom_site_fract_x
 _atom_site_fract_y
 _atom_site_fract_z
 _atom_site_occupancy
  Rb  Rb0  1  0.732802  0.746287  0.500000  1
  Rb  Rb1  1  0.267198  0.013485  0.500000  1
  Rb  Rb2  1  0.000000  0.608480  0.000000  1
  Rb  Rb3  1  0.422604  0.394645  0.000000  1
  Rb  Rb4  1  0.577396  0.972041  0.000000  1
  Lu  Lu5  1  0.000000  0.254167  0.500000  1
  Mo  Mo6  1  0.717339  0.326489  0.500000  1
  Mo  Mo7  1  0.282661  0.609152  0.500000  1
  Mo  Mo8  1  0.000000  0.048918  0.000000  1
  H  H9  1  0.849078  0.323522  0.721042  1
  H  H10  1  0.723004  0.454286  0.727796  1
  H  H11  1  0.564942  0.202604  0.698011  1
  H  H12  1  0.150922  0.474445  0.278958  1
  H  H13  1  0.564942  0.202604  0.301989  1
  H  H14  1  0.849078  0.323522  0.278958  1
  H  H15  1  0.723004  0.454286  0.272204  1
  H  H16  1  0.276996  0.731283  0.727796  1
  H  H17  1  0.435058  0.637663  0.698011  1
  H  H18  1  0.175672  0.044892  0.000000  1
  H  H19  1  0.824328  0.869220  0.000000  1
  H  H20  1  0.000000  0.234321  0.000000  1
  H  H21  1  0.874510  0.048055  0.235426  1
  H  H22  1  0.125490  0.173544  0.764574  1
  H  H23  1  0.000000  0.911397  0.790608  1
  H  H24  1  0.000000  0.911397  0.209392  1
  H  H25  1  0.125490  0.173544  0.235426  1
  H  H26  1  0.874510  0.048055  0.764574  1
  H  H27  1  0.139337  0.672147  0.500000  1
  H  H28  1  0.425737  0.812321  0.500000  1
  H  H29  1  0.284145  0.422295  0.500000  1
  H  H30  1  0.574263  0.386584  0.500000  1
  H  H31  1  0.860663  0.532810  0.500000  1
  H  H32  1  0.715855  0.138150  0.500000  1
  H  H33  1  0.150922  0.474445  0.721042  1
  H  H34  1  0.276996  0.731283  0.272204  1
  H  H35  1  0.435058  0.637663  0.301989  1
