# generated using pymatgen
data_Ho10Al3GaRu6
_symmetry_space_group_name_H-M   'P 1'
_cell_length_a   8.31907571
_cell_length_b   8.31907504
_cell_length_c   8.31907614
_cell_angle_alpha   109.53482435
_cell_angle_beta   109.53482432
_cell_angle_gamma   109.53482282
_symmetry_Int_Tables_number   1
_chemical_formula_structural   Ho10Al3GaRu6
_chemical_formula_sum   'Ho10 Al3 Ga1 Ru6'
_cell_volume   442.15689249
_cell_formula_units_Z   1
loop_
 _symmetry_equiv_pos_site_id
 _symmetry_equiv_pos_as_xyz
  1  'x, y, z'
loop_
 _atom_site_type_symbol
 _atom_site_label
 _atom_site_symmetry_multiplicity
 _atom_site_fract_x
 _atom_site_fract_y
 _atom_site_fract_z
 _atom_site_occupancy
  Ho  Ho0  1  0.784534  0.784534  0.784534  1
  Ho  Ho1  1  0.319308  0.568657  0.749217  1
  Ho  Ho2  1  0.749217  0.319308  0.568657  1
  Ho  Ho3  1  0.568657  0.749217  0.319308  1
  Ho  Ho4  1  0.713961  0.499495  0.000382  1
  Ho  Ho5  1  0.000382  0.713961  0.499495  1
  Ho  Ho6  1  0.499495  0.000382  0.713961  1
  Ho  Ho7  1  0.250476  0.181264  0.931509  1
  Ho  Ho8  1  0.931509  0.250476  0.181264  1
  Ho  Ho9  1  0.181264  0.931509  0.250476  1
  Al  Al10  1  0.089633  0.500370  0.999810  1
  Al  Al11  1  0.999810  0.089633  0.500370  1
  Al  Al12  1  0.500370  0.999810  0.089633  1
  Ga  Ga13  1  0.411873  0.411873  0.411873  1
  Ru  Ru14  1  0.876579  0.126574  0.749804  1
  Ru  Ru15  1  0.749804  0.876579  0.126574  1
  Ru  Ru16  1  0.126574  0.749804  0.876579  1
  Ru  Ru17  1  0.249506  0.624678  0.372370  1
  Ru  Ru18  1  0.372370  0.249506  0.624678  1
  Ru  Ru19  1  0.624678  0.372370  0.249506  1
