# generated using pymatgen
data_TbY7Ti12Si15Ge
_symmetry_space_group_name_H-M   'P 1'
_cell_length_a   7.07363731
_cell_length_b   7.06772568
_cell_length_c   12.99387034
_cell_angle_alpha   89.97964830
_cell_angle_beta   89.93574342
_cell_angle_gamma   89.96167879
_symmetry_Int_Tables_number   1
_chemical_formula_structural   TbY7Ti12Si15Ge
_chemical_formula_sum   'Tb1 Y7 Ti12 Si15 Ge1'
_cell_volume   649.62182090
_cell_formula_units_Z   1
loop_
 _symmetry_equiv_pos_site_id
 _symmetry_equiv_pos_as_xyz
  1  'x, y, z'
loop_
 _atom_site_type_symbol
 _atom_site_label
 _atom_site_symmetry_multiplicity
 _atom_site_fract_x
 _atom_site_fract_y
 _atom_site_fract_z
 _atom_site_occupancy
  Tb  Tb0  1  0.997514  0.659828  0.033425  1
  Y  Y1  1  0.340848  0.001728  0.465926  1
  Y  Y2  1  0.498923  0.839532  0.716790  1
  Y  Y3  1  0.502179  0.159925  0.216602  1
  Y  Y4  1  0.840178  0.497715  0.283380  1
  Y  Y5  1  0.159791  0.503299  0.783806  1
  Y  Y6  1  0.660090  0.997512  0.966764  1
  Y  Y7  1  0.000896  0.341429  0.532574  1
  Ti  Ti8  1  0.326866  0.327091  0.000055  1
  Ti  Ti9  1  0.172972  0.826899  0.250004  1
  Ti  Ti10  1  0.824236  0.173259  0.750448  1
  Ti  Ti11  1  0.672970  0.673053  0.499954  1
  Ti  Ti12  1  0.152627  0.008613  0.877768  1
  Ti  Ti13  1  0.491153  0.652275  0.126627  1
  Ti  Ti14  1  0.510638  0.348756  0.626511  1
  Ti  Ti15  1  0.652893  0.491271  0.873502  1
  Ti  Ti16  1  0.347639  0.508844  0.373492  1
  Ti  Ti17  1  0.847526  0.991251  0.376584  1
  Ti  Ti18  1  0.008948  0.152728  0.123441  1
  Ti  Ti19  1  0.989125  0.845055  0.622751  1
  Si  Si20  1  0.370573  0.702599  0.934862  1
  Si  Si21  1  0.629477  0.297517  0.434809  1
  Si  Si22  1  0.702319  0.370393  0.065180  1
  Si  Si23  1  0.297655  0.629581  0.565189  1
  Si  Si24  1  0.797228  0.870526  0.185001  1
  Si  Si25  1  0.129600  0.202534  0.315212  1
  Si  Si26  1  0.870543  0.797751  0.815125  1
  Si  Si27  1  0.290718  0.953068  0.064934  1
  Si  Si28  1  0.547162  0.790509  0.314758  1
  Si  Si29  1  0.455761  0.209910  0.816307  1
  Si  Si30  1  0.790916  0.546924  0.685194  1
  Si  Si31  1  0.209475  0.452890  0.185239  1
  Si  Si32  1  0.709382  0.046960  0.564843  1
  Si  Si33  1  0.953093  0.290334  0.935082  1
  Si  Si34  1  0.047021  0.709578  0.435119  1
  Ge  Ge35  1  0.201069  0.128859  0.682749  1
