# generated using pymatgen
data_TlRu3RhPb3O13
_symmetry_space_group_name_H-M   'P 1'
_cell_length_a   7.33842284
_cell_length_b   7.33109633
_cell_length_c   7.37183100
_cell_angle_alpha   59.81601964
_cell_angle_beta   59.84928544
_cell_angle_gamma   59.60581152
_symmetry_Int_Tables_number   1
_chemical_formula_structural   TlRu3RhPb3O13
_chemical_formula_sum   'Tl1 Ru3 Rh1 Pb3 O13'
_cell_volume   278.88477246
_cell_formula_units_Z   1
loop_
 _symmetry_equiv_pos_site_id
 _symmetry_equiv_pos_as_xyz
  1  'x, y, z'
loop_
 _atom_site_type_symbol
 _atom_site_label
 _atom_site_symmetry_multiplicity
 _atom_site_fract_x
 _atom_site_fract_y
 _atom_site_fract_z
 _atom_site_occupancy
  Tl  Tl0  1  0.886822  0.370646  0.371266  1
  Ru  Ru1  1  0.874175  0.875946  0.373798  1
  Ru  Ru2  1  0.874175  0.875946  0.876080  1
  Ru  Ru3  1  0.374107  0.875225  0.875334  1
  Rh  Rh4  1  0.874486  0.373902  0.875805  1
  Pb  Pb5  1  0.371940  0.375129  0.375583  1
  Pb  Pb6  1  0.371940  0.375129  0.877349  1
  Pb  Pb7  1  0.369693  0.880232  0.375038  1
  O  O8  1  0.199322  0.803919  0.798280  1
  O  O9  1  0.199322  0.803919  0.198478  1
  O  O10  1  0.554369  0.941835  0.948819  1
  O  O11  1  0.554369  0.941835  0.554976  1
  O  O12  1  0.948907  0.938793  0.556150  1
  O  O13  1  0.801879  0.809232  0.194444  1
  O  O14  1  0.545569  0.553604  0.950413  1
  O  O15  1  0.798545  0.197226  0.799768  1
  O  O16  1  0.798545  0.197226  0.204461  1
  O  O17  1  0.952784  0.553521  0.947131  1
  O  O18  1  0.952784  0.553521  0.546563  1
  O  O19  1  0.206729  0.198457  0.797407  1
  O  O20  1  0.489536  0.504757  0.502853  1
