# generated using pymatgen
data_Nd3Th2Bi3Br
_symmetry_space_group_name_H-M   'P 1'
_cell_length_a   9.67079300
_cell_length_b   9.67079376
_cell_length_c   6.71319400
_cell_angle_alpha   90.00000000
_cell_angle_beta   90.00000000
_cell_angle_gamma   120.00000083
_symmetry_Int_Tables_number   1
_chemical_formula_structural   Nd3Th2Bi3Br
_chemical_formula_sum   'Nd6 Th4 Bi6 Br2'
_cell_volume   543.73092547
_cell_formula_units_Z   2
loop_
 _symmetry_equiv_pos_site_id
 _symmetry_equiv_pos_as_xyz
  1  'x, y, z'
loop_
 _atom_site_type_symbol
 _atom_site_label
 _atom_site_symmetry_multiplicity
 _atom_site_fract_x
 _atom_site_fract_y
 _atom_site_fract_z
 _atom_site_occupancy
  Nd  Nd0  1  0.278318  0.000000  0.750000  1
  Nd  Nd1  1  0.721682  0.000000  0.250000  1
  Nd  Nd2  1  0.000000  0.278318  0.750000  1
  Nd  Nd3  1  0.000000  0.721682  0.250000  1
  Nd  Nd4  1  0.721682  0.721682  0.750000  1
  Nd  Nd5  1  0.278318  0.278318  0.250000  1
  Th  Th6  1  0.333333  0.666667  0.500000  1
  Th  Th7  1  0.666667  0.333333  0.500000  1
  Th  Th8  1  0.666667  0.333333  0.000000  1
  Th  Th9  1  0.333333  0.666667  0.000000  1
  Bi  Bi10  1  0.619198  0.000000  0.750000  1
  Bi  Bi11  1  0.380802  0.000000  0.250000  1
  Bi  Bi12  1  0.000000  0.619198  0.750000  1
  Bi  Bi13  1  0.000000  0.380802  0.250000  1
  Bi  Bi14  1  0.380802  0.380802  0.750000  1
  Bi  Bi15  1  0.619198  0.619198  0.250000  1
  Br  Br16  1  0.000000  0.000000  0.500000  1
  Br  Br17  1  0.000000  0.000000  0.000000  1
