# generated using pymatgen
data_Tb6Ho3Er(CoSb2)2
_symmetry_space_group_name_H-M   'P 1'
_cell_length_a   7.88549800
_cell_length_b   8.77737308
_cell_length_c   12.22040211
_cell_angle_alpha   90.01553499
_cell_angle_beta   90.00000000
_cell_angle_gamma   90.00000000
_symmetry_Int_Tables_number   1
_chemical_formula_structural   Tb6Ho3Er(CoSb2)2
_chemical_formula_sum   'Tb12 Ho6 Er2 Co4 Sb8'
_cell_volume   845.82236590
_cell_formula_units_Z   2
loop_
 _symmetry_equiv_pos_site_id
 _symmetry_equiv_pos_as_xyz
  1  'x, y, z'
loop_
 _atom_site_type_symbol
 _atom_site_label
 _atom_site_symmetry_multiplicity
 _atom_site_fract_x
 _atom_site_fract_y
 _atom_site_fract_z
 _atom_site_occupancy
  Tb  Tb0  1  0.153409  0.750108  0.202989  1
  Tb  Tb1  1  0.653409  0.249892  0.297011  1
  Tb  Tb2  1  0.846518  0.249944  0.797108  1
  Tb  Tb3  1  0.346518  0.750056  0.702892  1
  Tb  Tb4  1  0.454553  0.750089  0.997800  1
  Tb  Tb5  1  0.954553  0.249911  0.502200  1
  Tb  Tb6  1  0.545857  0.249861  0.002242  1
  Tb  Tb7  1  0.045857  0.750139  0.497758  1
  Tb  Tb8  1  0.622195  0.750068  0.307033  1
  Tb  Tb9  1  0.122195  0.249932  0.192967  1
  Tb  Tb10  1  0.377526  0.249863  0.692937  1
  Tb  Tb11  1  0.877526  0.750137  0.807063  1
  Ho  Ho12  1  0.177906  0.464742  0.934920  1
  Ho  Ho13  1  0.677906  0.535258  0.565080  1
  Ho  Ho14  1  0.177753  0.035253  0.934945  1
  Ho  Ho15  1  0.677753  0.964747  0.565055  1
  Ho  Ho16  1  0.822070  0.535316  0.065138  1
  Ho  Ho17  1  0.322070  0.464684  0.434862  1
  Er  Er18  1  0.822808  0.964701  0.065161  1
  Er  Er19  1  0.322808  0.035299  0.434839  1
  Co  Co20  1  0.435336  0.750174  0.490913  1
  Co  Co21  1  0.935336  0.249826  0.009087  1
  Co  Co22  1  0.564101  0.249785  0.508965  1
  Co  Co23  1  0.064101  0.750215  0.991035  1
  Sb  Sb24  1  0.928646  0.992106  0.326821  1
  Sb  Sb25  1  0.428646  0.007894  0.173179  1
  Sb  Sb26  1  0.071465  0.492061  0.673189  1
  Sb  Sb27  1  0.571465  0.507939  0.826811  1
  Sb  Sb28  1  0.071412  0.007934  0.673171  1
  Sb  Sb29  1  0.571412  0.992066  0.826829  1
  Sb  Sb30  1  0.928446  0.507940  0.326859  1
  Sb  Sb31  1  0.428446  0.492060  0.173141  1
