# generated using pymatgen
data_DyLu2Ga5Co
_symmetry_space_group_name_H-M   'P 1'
_cell_length_a   6.80208500
_cell_length_b   6.83878741
_cell_length_c   4.17522300
_cell_angle_alpha   90.00000000
_cell_angle_beta   90.00000000
_cell_angle_gamma   119.82264038
_symmetry_Int_Tables_number   1
_chemical_formula_structural   DyLu2Ga5Co
_chemical_formula_sum   'Dy1 Lu2 Ga5 Co1'
_cell_volume   168.50192361
_cell_formula_units_Z   1
loop_
 _symmetry_equiv_pos_site_id
 _symmetry_equiv_pos_as_xyz
  1  'x, y, z'
loop_
 _atom_site_type_symbol
 _atom_site_label
 _atom_site_symmetry_multiplicity
 _atom_site_fract_x
 _atom_site_fract_y
 _atom_site_fract_z
 _atom_site_occupancy
  Dy  Dy0  1  0.594727  0.000000  0.000000  1
  Lu  Lu1  1  0.999349  0.598231  0.000000  1
  Lu  Lu2  1  0.401117  0.401769  0.000000  1
  Ga  Ga3  1  0.231716  0.000000  0.500000  1
  Ga  Ga4  1  0.000757  0.232049  0.500000  1
  Ga  Ga5  1  0.768708  0.767951  0.500000  1
  Ga  Ga6  1  0.331470  0.663429  0.500000  1
  Ga  Ga7  1  0.668043  0.336571  0.500000  1
  Co  Co8  1  0.004114  0.000000  0.000000  1
