# generated using pymatgen
data_LaGd8HoSn6
_symmetry_space_group_name_H-M   'P 1'
_cell_length_a   9.26452925
_cell_length_b   9.26452936
_cell_length_c   9.26452900
_cell_angle_alpha   96.20764418
_cell_angle_beta   96.20765047
_cell_angle_gamma   141.60392069
_symmetry_Int_Tables_number   1
_chemical_formula_structural   LaGd8HoSn6
_chemical_formula_sum   'La1 Gd8 Ho1 Sn6'
_cell_volume   466.42065802
_cell_formula_units_Z   1
loop_
 _symmetry_equiv_pos_site_id
 _symmetry_equiv_pos_as_xyz
  1  'x, y, z'
loop_
 _atom_site_type_symbol
 _atom_site_label
 _atom_site_symmetry_multiplicity
 _atom_site_fract_x
 _atom_site_fract_y
 _atom_site_fract_z
 _atom_site_occupancy
  La  La0  1  0.750000  0.250000  0.500000  1
  Gd  Gd1  1  0.917955  0.217553  0.135561  1
  Gd  Gd2  1  0.217606  0.082045  0.299598  1
  Gd  Gd3  1  0.782447  0.918008  0.700402  1
  Gd  Gd4  1  0.081992  0.782394  0.864439  1
  Gd  Gd5  1  0.717553  0.417955  0.135561  1
  Gd  Gd6  1  0.282394  0.581992  0.864439  1
  Gd  Gd7  1  0.582045  0.717606  0.299598  1
  Gd  Gd8  1  0.418008  0.282447  0.700402  1
  Ho  Ho9  1  0.250000  0.750000  0.500000  1
  Sn  Sn10  1  0.750000  0.750000  0.000000  1
  Sn  Sn11  1  0.250000  0.250000  0.000000  1
  Sn  Sn12  1  0.847607  0.672201  0.500000  1
  Sn  Sn13  1  0.652393  0.152393  0.824595  1
  Sn  Sn14  1  0.327799  0.827799  0.175405  1
  Sn  Sn15  1  0.172201  0.347607  0.500000  1
