# generated using pymatgen
data_TbCe3(B4W)4
_symmetry_space_group_name_H-M   'P 1'
_cell_length_a   6.06699100
_cell_length_b   11.73408693
_cell_length_c   3.68132500
_cell_angle_alpha   90.00000000
_cell_angle_beta   90.00000000
_cell_angle_gamma   89.93436009
_symmetry_Int_Tables_number   1
_chemical_formula_structural   TbCe3(B4W)4
_chemical_formula_sum   'Tb1 Ce3 B16 W4'
_cell_volume   262.07556251
_cell_formula_units_Z   1
loop_
 _symmetry_equiv_pos_site_id
 _symmetry_equiv_pos_as_xyz
  1  'x, y, z'
loop_
 _atom_site_type_symbol
 _atom_site_label
 _atom_site_symmetry_multiplicity
 _atom_site_fract_x
 _atom_site_fract_y
 _atom_site_fract_z
 _atom_site_occupancy
  Tb  Tb0  1  0.874505  0.849656  0.000000  1
  Ce  Ce1  1  0.625150  0.349265  0.000000  1
  Ce  Ce2  1  0.374644  0.651283  0.000000  1
  Ce  Ce3  1  0.124863  0.150285  0.000000  1
  B  B4  1  0.786838  0.185056  0.500000  1
  B  B5  1  0.213892  0.814462  0.500000  1
  B  B6  1  0.286035  0.314345  0.500000  1
  B  B7  1  0.713751  0.685928  0.500000  1
  B  B8  1  0.864885  0.032164  0.500000  1
  B  B9  1  0.135386  0.967588  0.500000  1
  B  B10  1  0.364447  0.468121  0.500000  1
  B  B11  1  0.635683  0.532358  0.500000  1
  B  B12  1  0.886004  0.453490  0.500000  1
  B  B13  1  0.113649  0.547312  0.500000  1
  B  B14  1  0.386285  0.046192  0.500000  1
  B  B15  1  0.614958  0.952709  0.500000  1
  B  B16  1  0.974715  0.308163  0.500000  1
  B  B17  1  0.025234  0.692350  0.500000  1
  B  B18  1  0.475059  0.191508  0.500000  1
  B  B19  1  0.523426  0.808042  0.500000  1
  W  W20  1  0.630603  0.085232  0.000000  1
  W  W21  1  0.370255  0.914612  0.000000  1
  W  W22  1  0.131035  0.414432  0.000000  1
  W  W23  1  0.868698  0.585449  0.000000  1
