# generated using pymatgen
data_CdBi3Te10
_symmetry_space_group_name_H-M   'P 1'
_cell_length_a   23.51940250
_cell_length_b   23.51940122
_cell_length_c   3.14727800
_cell_angle_alpha   90.00000000
_cell_angle_beta   90.00000000
_cell_angle_gamma   165.95631565
_symmetry_Int_Tables_number   1
_chemical_formula_structural   CdBi3Te10
_chemical_formula_sum   'Cd1 Bi3 Te10'
_cell_volume   422.46305171
_cell_formula_units_Z   1
loop_
 _symmetry_equiv_pos_site_id
 _symmetry_equiv_pos_as_xyz
  1  'x, y, z'
loop_
 _atom_site_type_symbol
 _atom_site_label
 _atom_site_symmetry_multiplicity
 _atom_site_fract_x
 _atom_site_fract_y
 _atom_site_fract_z
 _atom_site_occupancy
  Cd  Cd0  1  0.108467  0.891533  0.750000  1
  Bi  Bi1  1  0.677349  0.322651  0.250000  1
  Bi  Bi2  1  0.319363  0.680637  0.750000  1
  Bi  Bi3  1  0.888277  0.111723  0.250000  1
  Te  Te4  1  0.613493  0.386507  0.250000  1
  Te  Te5  1  0.386589  0.613411  0.750000  1
  Te  Te6  1  0.821263  0.178737  0.250000  1
  Te  Te7  1  0.171831  0.828169  0.750000  1
  Te  Te8  1  0.957338  0.042662  0.750000  1
  Te  Te9  1  0.050312  0.949688  0.250000  1
  Te  Te10  1  0.546044  0.453956  0.750000  1
  Te  Te11  1  0.461253  0.538747  0.250000  1
  Te  Te12  1  0.747663  0.252337  0.750000  1
  Te  Te13  1  0.250756  0.749244  0.250000  1
