# generated using pymatgen
data_Er2Th(GaNi)3
_symmetry_space_group_name_H-M   'P 1'
_cell_length_a   7.09213000
_cell_length_b   6.99403641
_cell_length_c   3.80636500
_cell_angle_alpha   90.00000000
_cell_angle_beta   90.00000000
_cell_angle_gamma   120.46504857
_symmetry_Int_Tables_number   1
_chemical_formula_structural   Er2Th(GaNi)3
_chemical_formula_sum   'Er2 Th1 Ga3 Ni3'
_cell_volume   162.73888699
_cell_formula_units_Z   1
loop_
 _symmetry_equiv_pos_site_id
 _symmetry_equiv_pos_as_xyz
  1  'x, y, z'
loop_
 _atom_site_type_symbol
 _atom_site_label
 _atom_site_symmetry_multiplicity
 _atom_site_fract_x
 _atom_site_fract_y
 _atom_site_fract_z
 _atom_site_occupancy
  Er  Er0  1  0.999822  0.413769  0.500000  1
  Er  Er1  1  0.586053  0.586231  0.500000  1
  Th  Th2  1  0.418420  0.000000  0.500000  1
  Ga  Ga3  1  0.988658  0.747056  0.000000  1
  Ga  Ga4  1  0.241602  0.252944  0.000000  1
  Ga  Ga5  1  0.767831  0.000000  0.000000  1
  Ni  Ni6  1  0.333444  0.672489  0.000000  1
  Ni  Ni7  1  0.660956  0.327511  0.000000  1
  Ni  Ni8  1  0.003213  0.000000  0.500000  1
