# generated using pymatgen
data_SrCe2NdCu24
_symmetry_space_group_name_H-M   'P 1'
_cell_length_a   5.08791600
_cell_length_b   8.08542191
_cell_length_c   10.11703635
_cell_angle_alpha   90.07821473
_cell_angle_beta   90.00000000
_cell_angle_gamma   90.00000000
_symmetry_Int_Tables_number   1
_chemical_formula_structural   SrCe2NdCu24
_chemical_formula_sum   'Sr1 Ce2 Nd1 Cu24'
_cell_volume   416.19372261
_cell_formula_units_Z   1
loop_
 _symmetry_equiv_pos_site_id
 _symmetry_equiv_pos_as_xyz
  1  'x, y, z'
loop_
 _atom_site_type_symbol
 _atom_site_label
 _atom_site_symmetry_multiplicity
 _atom_site_fract_x
 _atom_site_fract_y
 _atom_site_fract_z
 _atom_site_occupancy
  Sr  Sr0  1  0.000000  0.260403  0.312252  1
  Ce  Ce1  1  0.500000  0.241526  0.815809  1
  Ce  Ce2  1  0.500000  0.740435  0.182628  1
  Nd  Nd3  1  0.000000  0.758945  0.687986  1
  Cu  Cu4  1  0.500000  0.354227  0.105146  1
  Cu  Cu5  1  0.500000  0.852742  0.893703  1
  Cu  Cu6  1  0.000000  0.649672  0.393979  1
  Cu  Cu7  1  0.000000  0.145771  0.609021  1
  Cu  Cu8  1  0.500000  0.682965  0.494219  1
  Cu  Cu9  1  0.500000  0.182320  0.507572  1
  Cu  Cu10  1  0.000000  0.317517  0.003998  1
  Cu  Cu11  1  0.000000  0.817724  0.993244  1
  Cu  Cu12  1  0.500000  0.938666  0.655477  1
  Cu  Cu13  1  0.500000  0.442092  0.345944  1
  Cu  Cu14  1  0.000000  0.064541  0.846144  1
  Cu  Cu15  1  0.000000  0.567484  0.152820  1
  Cu  Cu16  1  0.500000  0.599840  0.734016  1
  Cu  Cu17  1  0.500000  0.094931  0.266166  1
  Cu  Cu18  1  0.000000  0.399079  0.765628  1
  Cu  Cu19  1  0.000000  0.894769  0.232987  1
  Cu  Cu20  1  0.743355  0.063455  0.057059  1
  Cu  Cu21  1  0.255965  0.563935  0.941457  1
  Cu  Cu22  1  0.245566  0.934300  0.441762  1
  Cu  Cu23  1  0.753349  0.435484  0.560350  1
  Cu  Cu24  1  0.754434  0.934300  0.441762  1
  Cu  Cu25  1  0.246651  0.435484  0.560350  1
  Cu  Cu26  1  0.256645  0.063455  0.057059  1
  Cu  Cu27  1  0.744035  0.563935  0.941457  1
