# generated using pymatgen
data_Cs4Bi3Sb9Te20
_symmetry_space_group_name_H-M   'P 1'
_cell_length_a   4.37803300
_cell_length_b   13.11945954
_cell_length_c   24.47871103
_cell_angle_alpha   90.06709277
_cell_angle_beta   90.00000000
_cell_angle_gamma   90.00000000
_symmetry_Int_Tables_number   1
_chemical_formula_structural   Cs4Bi3Sb9Te20
_chemical_formula_sum   'Cs4 Bi3 Sb9 Te20'
_cell_volume   1405.99320931
_cell_formula_units_Z   1
loop_
 _symmetry_equiv_pos_site_id
 _symmetry_equiv_pos_as_xyz
  1  'x, y, z'
loop_
 _atom_site_type_symbol
 _atom_site_label
 _atom_site_symmetry_multiplicity
 _atom_site_fract_x
 _atom_site_fract_y
 _atom_site_fract_z
 _atom_site_occupancy
  Cs  Cs0  1  0.250000  0.493556  0.211735  1
  Cs  Cs1  1  0.750000  0.509350  0.789120  1
  Cs  Cs2  1  0.750000  0.992152  0.289190  1
  Cs  Cs3  1  0.250000  0.007998  0.710237  1
  Bi  Bi4  1  0.750000  0.406567  0.568639  1
  Bi  Bi5  1  0.750000  0.093366  0.068587  1
  Bi  Bi6  1  0.250000  0.907095  0.931506  1
  Sb  Sb7  1  0.250000  0.368434  0.023118  1
  Sb  Sb8  1  0.750000  0.631566  0.977198  1
  Sb  Sb9  1  0.750000  0.866023  0.477025  1
  Sb  Sb10  1  0.250000  0.132830  0.521899  1
  Sb  Sb11  1  0.250000  0.808381  0.121482  1
  Sb  Sb12  1  0.750000  0.192110  0.878432  1
  Sb  Sb13  1  0.750000  0.308939  0.379642  1
  Sb  Sb14  1  0.250000  0.691829  0.619820  1
  Sb  Sb15  1  0.250000  0.592861  0.432461  1
  Te  Te16  1  0.250000  0.806022  0.392476  1
  Te  Te17  1  0.750000  0.185113  0.606944  1
  Te  Te18  1  0.750000  0.314349  0.107879  1
  Te  Te19  1  0.250000  0.686024  0.892642  1
  Te  Te20  1  0.250000  0.254078  0.303551  1
  Te  Te21  1  0.750000  0.747981  0.695497  1
  Te  Te22  1  0.750000  0.752337  0.197247  1
  Te  Te23  1  0.250000  0.248338  0.802854  1
  Te  Te24  1  0.250000  0.358900  0.477719  1
  Te  Te25  1  0.750000  0.640799  0.520595  1
  Te  Te26  1  0.750000  0.857848  0.022313  1
  Te  Te27  1  0.250000  0.142825  0.978057  1
  Te  Te28  1  0.250000  0.026418  0.153373  1
  Te  Te29  1  0.750000  0.973899  0.846913  1
  Te  Te30  1  0.750000  0.529625  0.350459  1
  Te  Te31  1  0.250000  0.473765  0.652784  1
  Te  Te32  1  0.250000  0.585650  0.062561  1
  Te  Te33  1  0.750000  0.414497  0.937927  1
  Te  Te34  1  0.750000  0.084663  0.436937  1
  Te  Te35  1  0.250000  0.913814  0.561181  1
