# generated using pymatgen
data_Dy2Y3Re2C7
_symmetry_space_group_name_H-M   'P 1'
_cell_length_a   8.34808175
_cell_length_b   8.34838025
_cell_length_c   3.43669500
_cell_angle_alpha   90.00000000
_cell_angle_beta   90.00000000
_cell_angle_gamma   122.69489707
_symmetry_Int_Tables_number   1
_chemical_formula_structural   Dy2Y3Re2C7
_chemical_formula_sum   'Dy2 Y3 Re2 C7'
_cell_volume   201.56467410
_cell_formula_units_Z   1
loop_
 _symmetry_equiv_pos_site_id
 _symmetry_equiv_pos_as_xyz
  1  'x, y, z'
loop_
 _atom_site_type_symbol
 _atom_site_label
 _atom_site_symmetry_multiplicity
 _atom_site_fract_x
 _atom_site_fract_y
 _atom_site_fract_z
 _atom_site_occupancy
  Dy  Dy0  1  0.075865  0.335186  0.500000  1
  Dy  Dy1  1  0.924135  0.664814  0.500000  1
  Y  Y2  1  0.500000  0.500000  0.000000  1
  Y  Y3  1  0.665344  0.924733  0.500000  1
  Y  Y4  1  0.334656  0.075267  0.500000  1
  Re  Re5  1  0.714649  0.285740  0.000000  1
  Re  Re6  1  0.285351  0.714260  0.000000  1
  C  C7  1  0.628817  0.373601  0.500000  1
  C  C8  1  0.371183  0.626399  0.500000  1
  C  C9  1  0.000000  0.000000  0.000000  1
  C  C10  1  0.169158  0.169520  0.000000  1
  C  C11  1  0.830842  0.830480  0.000000  1
  C  C12  1  0.000000  0.500000  0.000000  1
  C  C13  1  0.500000  0.000000  0.000000  1
