# generated using pymatgen
data_Ca3Y(Si3Pd5)4
_symmetry_space_group_name_H-M   'P 1'
_cell_length_a   4.03767000
_cell_length_b   19.74201437
_cell_length_c   7.30918760
_cell_angle_alpha   89.91509668
_cell_angle_beta   90.00000000
_cell_angle_gamma   90.00000000
_symmetry_Int_Tables_number   1
_chemical_formula_structural   Ca3Y(Si3Pd5)4
_chemical_formula_sum   'Ca3 Y1 Si12 Pd20'
_cell_volume   582.62741549
_cell_formula_units_Z   1
loop_
 _symmetry_equiv_pos_site_id
 _symmetry_equiv_pos_as_xyz
  1  'x, y, z'
loop_
 _atom_site_type_symbol
 _atom_site_label
 _atom_site_symmetry_multiplicity
 _atom_site_fract_x
 _atom_site_fract_y
 _atom_site_fract_z
 _atom_site_occupancy
  Ca  Ca0  1  0.750000  0.643031  0.122395  1
  Ca  Ca1  1  0.250000  0.356478  0.877695  1
  Ca  Ca2  1  0.250000  0.857270  0.622380  1
  Y  Y3  1  0.750000  0.143831  0.377081  1
  Si  Si4  1  0.750000  0.739452  0.628378  1
  Si  Si5  1  0.250000  0.259654  0.371303  1
  Si  Si6  1  0.250000  0.760710  0.128456  1
  Si  Si7  1  0.750000  0.239344  0.871813  1
  Si  Si8  1  0.750000  0.923653  0.348293  1
  Si  Si9  1  0.250000  0.076766  0.649023  1
  Si  Si10  1  0.250000  0.576460  0.848618  1
  Si  Si11  1  0.750000  0.423371  0.151749  1
  Si  Si12  1  0.750000  0.916315  0.908277  1
  Si  Si13  1  0.250000  0.084252  0.096444  1
  Si  Si14  1  0.250000  0.583815  0.407519  1
  Si  Si15  1  0.750000  0.415735  0.591529  1
  Pd  Pd16  1  0.750000  0.799610  0.327027  1
  Pd  Pd17  1  0.250000  0.199467  0.671070  1
  Pd  Pd18  1  0.250000  0.700104  0.827246  1
  Pd  Pd19  1  0.750000  0.299650  0.172784  1
  Pd  Pd20  1  0.750000  0.992827  0.625985  1
  Pd  Pd21  1  0.250000  0.007867  0.374134  1
  Pd  Pd22  1  0.250000  0.506900  0.125897  1
  Pd  Pd23  1  0.750000  0.493116  0.873936  1
  Pd  Pd24  1  0.750000  0.512551  0.377205  1
  Pd  Pd25  1  0.250000  0.487297  0.622785  1
  Pd  Pd26  1  0.250000  0.987985  0.877036  1
  Pd  Pd27  1  0.750000  0.012791  0.122683  1
  Pd  Pd28  1  0.750000  0.796460  0.931949  1
  Pd  Pd29  1  0.250000  0.203488  0.069103  1
  Pd  Pd30  1  0.250000  0.703761  0.432603  1
  Pd  Pd31  1  0.750000  0.296199  0.569265  1
  Pd  Pd32  1  0.750000  0.616599  0.642727  1
  Pd  Pd33  1  0.250000  0.383208  0.356643  1
  Pd  Pd34  1  0.250000  0.883623  0.143494  1
  Pd  Pd35  1  0.750000  0.116359  0.855478  1
