# generated using pymatgen
data_Y6Er10AlCd3Pd4
_symmetry_space_group_name_H-M   'P 1'
_cell_length_a   9.61569065
_cell_length_b   9.61568964
_cell_length_c   9.61569005
_cell_angle_alpha   60.16172791
_cell_angle_beta   60.16172724
_cell_angle_gamma   60.16172187
_symmetry_Int_Tables_number   1
_chemical_formula_structural   Y6Er10AlCd3Pd4
_chemical_formula_sum   'Y6 Er10 Al1 Cd3 Pd4'
_cell_volume   630.97808995
_cell_formula_units_Z   1
loop_
 _symmetry_equiv_pos_site_id
 _symmetry_equiv_pos_as_xyz
  1  'x, y, z'
loop_
 _atom_site_type_symbol
 _atom_site_label
 _atom_site_symmetry_multiplicity
 _atom_site_fract_x
 _atom_site_fract_y
 _atom_site_fract_z
 _atom_site_occupancy
  Y  Y0  1  0.932734  0.566175  0.566175  1
  Y  Y1  1  0.563307  0.936530  0.936530  1
  Y  Y2  1  0.566175  0.932734  0.566175  1
  Y  Y3  1  0.936530  0.563307  0.936530  1
  Y  Y4  1  0.566175  0.566175  0.932734  1
  Y  Y5  1  0.936530  0.936530  0.563307  1
  Er  Er6  1  0.351332  0.351332  0.351332  1
  Er  Er7  1  0.357807  0.357807  0.933793  1
  Er  Er8  1  0.357807  0.933793  0.357807  1
  Er  Er9  1  0.933793  0.357807  0.357807  1
  Er  Er10  1  0.811345  0.189213  0.189213  1
  Er  Er11  1  0.191873  0.809004  0.809004  1
  Er  Er12  1  0.189213  0.811345  0.189213  1
  Er  Er13  1  0.809004  0.191873  0.809004  1
  Er  Er14  1  0.189213  0.189213  0.811345  1
  Er  Er15  1  0.809004  0.809004  0.191873  1
  Al  Al16  1  0.581462  0.581462  0.581462  1
  Cd  Cd17  1  0.580721  0.580721  0.256154  1
  Cd  Cd18  1  0.580721  0.256154  0.580721  1
  Cd  Cd19  1  0.256154  0.580721  0.580721  1
  Pd  Pd20  1  0.146257  0.146257  0.146257  1
  Pd  Pd21  1  0.142604  0.142604  0.567633  1
  Pd  Pd22  1  0.142604  0.567633  0.142604  1
  Pd  Pd23  1  0.567633  0.142604  0.142604  1
