# generated using pymatgen
data_Ho3FeCo4(P3Ir2)2
_symmetry_space_group_name_H-M   'P 1'
_cell_length_a   3.78915000
_cell_length_b   10.82220900
_cell_length_c   12.49752200
_cell_angle_alpha   90.00000000
_cell_angle_beta   90.00000000
_cell_angle_gamma   90.00000000
_symmetry_Int_Tables_number   1
_chemical_formula_structural   Ho3FeCo4(P3Ir2)2
_chemical_formula_sum   'Ho6 Fe2 Co8 P12 Ir8'
_cell_volume   512.48555012
_cell_formula_units_Z   2
loop_
 _symmetry_equiv_pos_site_id
 _symmetry_equiv_pos_as_xyz
  1  'x, y, z'
loop_
 _atom_site_type_symbol
 _atom_site_label
 _atom_site_symmetry_multiplicity
 _atom_site_fract_x
 _atom_site_fract_y
 _atom_site_fract_z
 _atom_site_occupancy
  Ho  Ho0  1  0.000000  0.500000  0.521285  1
  Ho  Ho1  1  0.500000  0.000000  0.478715  1
  Ho  Ho2  1  0.500000  0.816672  0.196783  1
  Ho  Ho3  1  0.500000  0.183328  0.196783  1
  Ho  Ho4  1  0.000000  0.683328  0.803217  1
  Ho  Ho5  1  0.000000  0.316672  0.803217  1
  Fe  Fe6  1  0.000000  0.500000  0.993456  1
  Fe  Fe7  1  0.500000  0.000000  0.006544  1
  Co  Co8  1  0.500000  0.879075  0.716480  1
  Co  Co9  1  0.500000  0.120925  0.716480  1
  Co  Co10  1  0.000000  0.620925  0.283520  1
  Co  Co11  1  0.000000  0.379075  0.283520  1
  Co  Co12  1  0.500000  0.332037  0.995844  1
  Co  Co13  1  0.500000  0.667963  0.995844  1
  Co  Co14  1  0.000000  0.167963  0.004156  1
  Co  Co15  1  0.000000  0.832037  0.004156  1
  P  P16  1  0.500000  0.309947  0.625299  1
  P  P17  1  0.500000  0.690053  0.625299  1
  P  P18  1  0.000000  0.190053  0.374701  1
  P  P19  1  0.000000  0.809947  0.374701  1
  P  P20  1  0.500000  0.500000  0.895043  1
  P  P21  1  0.000000  0.000000  0.104957  1
  P  P22  1  0.500000  0.843027  0.897154  1
  P  P23  1  0.500000  0.156973  0.897154  1
  P  P24  1  0.000000  0.656973  0.102846  1
  P  P25  1  0.000000  0.343027  0.102846  1
  P  P26  1  0.500000  0.500000  0.344278  1
  P  P27  1  0.000000  0.000000  0.655722  1
  Ir  Ir28  1  0.500000  0.298586  0.425912  1
  Ir  Ir29  1  0.500000  0.701414  0.425912  1
  Ir  Ir30  1  0.000000  0.201414  0.574088  1
  Ir  Ir31  1  0.000000  0.798586  0.574088  1
  Ir  Ir32  1  0.500000  0.500000  0.158361  1
  Ir  Ir33  1  0.000000  0.000000  0.841639  1
  Ir  Ir34  1  0.500000  0.500000  0.708688  1
  Ir  Ir35  1  0.000000  0.000000  0.291312  1
