# generated using pymatgen
data_Ho13Er2Th(CdNi)4
_symmetry_space_group_name_H-M   'P 1'
_cell_length_a   9.49203829
_cell_length_b   9.49203777
_cell_length_c   9.49476006
_cell_angle_alpha   60.19818415
_cell_angle_beta   60.19818816
_cell_angle_gamma   60.19489792
_symmetry_Int_Tables_number   1
_chemical_formula_structural   Ho13Er2Th(CdNi)4
_chemical_formula_sum   'Ho13 Er2 Th1 Cd4 Ni4'
_cell_volume   607.60571859
_cell_formula_units_Z   1
loop_
 _symmetry_equiv_pos_site_id
 _symmetry_equiv_pos_as_xyz
  1  'x, y, z'
loop_
 _atom_site_type_symbol
 _atom_site_label
 _atom_site_symmetry_multiplicity
 _atom_site_fract_x
 _atom_site_fract_y
 _atom_site_fract_z
 _atom_site_occupancy
  Ho  Ho0  1  0.350005  0.350005  0.947698  1
  Ho  Ho1  1  0.349812  0.947674  0.349944  1
  Ho  Ho2  1  0.947674  0.349812  0.349944  1
  Ho  Ho3  1  0.812941  0.189011  0.188995  1
  Ho  Ho4  1  0.190169  0.812880  0.812949  1
  Ho  Ho5  1  0.189011  0.812941  0.188995  1
  Ho  Ho6  1  0.812880  0.190169  0.812949  1
  Ho  Ho7  1  0.189018  0.189018  0.812969  1
  Ho  Ho8  1  0.812934  0.812934  0.190183  1
  Ho  Ho9  1  0.936828  0.566020  0.566060  1
  Ho  Ho10  1  0.563971  0.937285  0.937335  1
  Ho  Ho11  1  0.566020  0.936828  0.566060  1
  Ho  Ho12  1  0.937285  0.563971  0.937335  1
  Er  Er13  1  0.565819  0.565819  0.937080  1
  Er  Er14  1  0.937553  0.937553  0.563784  1
  Th  Th15  1  0.343167  0.343167  0.342991  1
  Cd  Cd16  1  0.581179  0.581179  0.581344  1
  Cd  Cd17  1  0.581547  0.581547  0.254813  1
  Cd  Cd18  1  0.581677  0.254963  0.581481  1
  Cd  Cd19  1  0.254963  0.581677  0.581481  1
  Ni  Ni20  1  0.143433  0.143433  0.143521  1
  Ni  Ni21  1  0.140297  0.140297  0.571447  1
  Ni  Ni22  1  0.140422  0.571395  0.140321  1
  Ni  Ni23  1  0.571395  0.140422  0.140321  1
