# generated using pymatgen
data_NdYTcB6
_symmetry_space_group_name_H-M   'P 1'
_cell_length_a   3.74134300
_cell_length_b   9.25182900
_cell_length_c   11.70020300
_cell_angle_alpha   90.00000000
_cell_angle_beta   90.00000000
_cell_angle_gamma   90.00000000
_symmetry_Int_Tables_number   1
_chemical_formula_structural   NdYTcB6
_chemical_formula_sum   'Nd4 Y4 Tc4 B24'
_cell_volume   404.99393499
_cell_formula_units_Z   4
loop_
 _symmetry_equiv_pos_site_id
 _symmetry_equiv_pos_as_xyz
  1  'x, y, z'
loop_
 _atom_site_type_symbol
 _atom_site_label
 _atom_site_symmetry_multiplicity
 _atom_site_fract_x
 _atom_site_fract_y
 _atom_site_fract_z
 _atom_site_occupancy
  Nd  Nd0  1  0.000000  0.323461  0.414570  1
  Nd  Nd1  1  0.000000  0.676539  0.585430  1
  Nd  Nd2  1  0.000000  0.823461  0.085430  1
  Nd  Nd3  1  0.000000  0.176539  0.914570  1
  Y  Y4  1  0.000000  0.942872  0.368967  1
  Y  Y5  1  0.000000  0.057128  0.631033  1
  Y  Y6  1  0.000000  0.442872  0.131033  1
  Y  Y7  1  0.000000  0.557128  0.868967  1
  Tc  Tc8  1  0.000000  0.639867  0.319144  1
  Tc  Tc9  1  0.000000  0.360133  0.680856  1
  Tc  Tc10  1  0.000000  0.139867  0.180856  1
  Tc  Tc11  1  0.000000  0.860133  0.819144  1
  B  B12  1  0.500000  0.555332  0.430485  1
  B  B13  1  0.500000  0.444668  0.569515  1
  B  B14  1  0.500000  0.055332  0.069515  1
  B  B15  1  0.500000  0.944668  0.930485  1
  B  B16  1  0.500000  0.749329  0.415832  1
  B  B17  1  0.500000  0.250671  0.584168  1
  B  B18  1  0.500000  0.249329  0.084168  1
  B  B19  1  0.500000  0.750671  0.915832  1
  B  B20  1  0.500000  0.791240  0.265764  1
  B  B21  1  0.500000  0.208760  0.734236  1
  B  B22  1  0.500000  0.291240  0.234236  1
  B  B23  1  0.500000  0.708760  0.765764  1
  B  B24  1  0.500000  0.630098  0.186432  1
  B  B25  1  0.500000  0.369902  0.813568  1
  B  B26  1  0.500000  0.130098  0.313568  1
  B  B27  1  0.500000  0.869902  0.686432  1
  B  B28  1  0.500000  0.984405  0.212668  1
  B  B29  1  0.500000  0.015595  0.787332  1
  B  B30  1  0.500000  0.484405  0.287332  1
  B  B31  1  0.500000  0.515595  0.712668  1
  B  B32  1  0.500000  0.596954  0.026796  1
  B  B33  1  0.500000  0.403046  0.973204  1
  B  B34  1  0.500000  0.096954  0.473204  1
  B  B35  1  0.500000  0.903046  0.526796  1
