# generated using pymatgen
data_SmMg2PaNi8
_symmetry_space_group_name_H-M   'P 1'
_cell_length_a   4.94862700
_cell_length_b   4.94862531
_cell_length_c   8.59437909
_cell_angle_alpha   73.26777961
_cell_angle_beta   90.00000000
_cell_angle_gamma   120.00000462
_symmetry_Int_Tables_number   1
_chemical_formula_structural   SmMg2PaNi8
_chemical_formula_sum   'Sm1 Mg2 Pa1 Ni8'
_cell_volume   171.90315073
_cell_formula_units_Z   1
loop_
 _symmetry_equiv_pos_site_id
 _symmetry_equiv_pos_as_xyz
  1  'x, y, z'
loop_
 _atom_site_type_symbol
 _atom_site_label
 _atom_site_symmetry_multiplicity
 _atom_site_fract_x
 _atom_site_fract_y
 _atom_site_fract_z
 _atom_site_occupancy
  Sm  Sm0  1  0.000911  0.001823  0.997265  1
  Mg  Mg1  1  0.877325  0.754653  0.368022  1
  Mg  Mg2  1  0.373327  0.746653  0.880020  1
  Pa  Pa3  1  0.499879  0.999758  0.500363  1
  Ni  Ni4  1  0.434932  0.369918  0.195151  1
  Ni  Ni5  1  0.935617  0.382022  0.682362  1
  Ni  Ni6  1  0.434932  0.869863  0.195151  1
  Ni  Ni7  1  0.935617  0.871232  0.682362  1
  Ni  Ni8  1  0.187890  0.375779  0.436331  1
  Ni  Ni9  1  0.688180  0.376359  0.935461  1
  Ni  Ni10  1  0.934986  0.369918  0.195151  1
  Ni  Ni11  1  0.446406  0.382022  0.682362  1
