# generated using pymatgen
data_LiNd2AsP
_symmetry_space_group_name_H-M   'P 1'
_cell_length_a   4.24277100
_cell_length_b   4.24276948
_cell_length_c   14.66490400
_cell_angle_alpha   90.00000000
_cell_angle_beta   90.00000000
_cell_angle_gamma   120.00000407
_symmetry_Int_Tables_number   1
_chemical_formula_structural   LiNd2AsP
_chemical_formula_sum   'Li2 Nd4 As2 P2'
_cell_volume   228.61718131
_cell_formula_units_Z   2
loop_
 _symmetry_equiv_pos_site_id
 _symmetry_equiv_pos_as_xyz
  1  'x, y, z'
loop_
 _atom_site_type_symbol
 _atom_site_label
 _atom_site_symmetry_multiplicity
 _atom_site_fract_x
 _atom_site_fract_y
 _atom_site_fract_z
 _atom_site_occupancy
  Li  Li0  1  0.000000  0.000000  0.250000  1
  Li  Li1  1  0.000000  0.000000  0.750000  1
  Nd  Nd2  1  0.333333  0.666667  0.107412  1
  Nd  Nd3  1  0.333333  0.666667  0.392588  1
  Nd  Nd4  1  0.666667  0.333332  0.607412  1
  Nd  Nd5  1  0.666667  0.333332  0.892588  1
  As  As6  1  0.666667  0.333332  0.250000  1
  As  As7  1  0.333333  0.666667  0.750000  1
  P  P8  1  0.000000  0.000000  0.000000  1
  P  P9  1  0.000000  0.000000  0.500000  1
