# generated using pymatgen
data_Tb4ReOs7
_symmetry_space_group_name_H-M   'P 1'
_cell_length_a   5.30908827
_cell_length_b   5.30908833
_cell_length_c   8.85658300
_cell_angle_alpha   90.00000000
_cell_angle_beta   90.00000000
_cell_angle_gamma   118.32042121
_symmetry_Int_Tables_number   1
_chemical_formula_structural   Tb4ReOs7
_chemical_formula_sum   'Tb4 Re1 Os7'
_cell_volume   219.75608151
_cell_formula_units_Z   1
loop_
 _symmetry_equiv_pos_site_id
 _symmetry_equiv_pos_as_xyz
  1  'x, y, z'
loop_
 _atom_site_type_symbol
 _atom_site_label
 _atom_site_symmetry_multiplicity
 _atom_site_fract_x
 _atom_site_fract_y
 _atom_site_fract_z
 _atom_site_occupancy
  Tb  Tb0  1  0.330401  0.669599  0.436044  1
  Tb  Tb1  1  0.665734  0.334266  0.566174  1
  Tb  Tb2  1  0.665734  0.334266  0.933826  1
  Tb  Tb3  1  0.330401  0.669599  0.063956  1
  Re  Re4  1  0.834151  0.165849  0.250000  1
  Os  Os5  1  0.992339  0.007661  0.499994  1
  Os  Os6  1  0.992339  0.007661  0.000006  1
  Os  Os7  1  0.827770  0.649476  0.250000  1
  Os  Os8  1  0.350524  0.172230  0.250000  1
  Os  Os9  1  0.177296  0.822704  0.750000  1
  Os  Os10  1  0.171430  0.338116  0.750000  1
  Os  Os11  1  0.661884  0.828570  0.750000  1
