# generated using pymatgen
data_Er16In2Ag2IrRh3
_symmetry_space_group_name_H-M   'P 1'
_cell_length_a   9.51587548
_cell_length_b   9.52269294
_cell_length_c   9.51078808
_cell_angle_alpha   60.05041179
_cell_angle_beta   59.98230599
_cell_angle_gamma   60.02367709
_symmetry_Int_Tables_number   1
_chemical_formula_structural   Er16In2Ag2IrRh3
_chemical_formula_sum   'Er16 In2 Ag2 Ir1 Rh3'
_cell_volume   609.66991380
_cell_formula_units_Z   1
loop_
 _symmetry_equiv_pos_site_id
 _symmetry_equiv_pos_as_xyz
  1  'x, y, z'
loop_
 _atom_site_type_symbol
 _atom_site_label
 _atom_site_symmetry_multiplicity
 _atom_site_fract_x
 _atom_site_fract_y
 _atom_site_fract_z
 _atom_site_occupancy
  Er  Er0  1  0.188170  0.189598  0.811536  1
  Er  Er1  1  0.437434  0.062484  0.062648  1
  Er  Er2  1  0.436835  0.059650  0.435810  1
  Er  Er3  1  0.067234  0.435841  0.059316  1
  Er  Er4  1  0.649868  0.052154  0.648111  1
  Er  Er5  1  0.188074  0.811748  0.812104  1
  Er  Er6  1  0.067705  0.059650  0.435810  1
  Er  Er7  1  0.809470  0.190760  0.190301  1
  Er  Er8  1  0.810903  0.811476  0.189339  1
  Er  Er9  1  0.650064  0.647930  0.051942  1
  Er  Er10  1  0.651170  0.648630  0.648946  1
  Er  Er11  1  0.064121  0.435582  0.436176  1
  Er  Er12  1  0.051254  0.648630  0.648946  1
  Er  Er13  1  0.810696  0.189598  0.811536  1
  Er  Er14  1  0.437609  0.435841  0.059316  1
  Er  Er15  1  0.188281  0.811476  0.189339  1
  In  In16  1  0.742049  0.420852  0.420896  1
  In  In17  1  0.416202  0.420852  0.420896  1
  Ag  Ag18  1  0.416405  0.749522  0.417669  1
  Ag  Ag19  1  0.416425  0.417658  0.749492  1
  Ir  Ir20  1  0.857256  0.427837  0.857651  1
  Rh  Rh21  1  0.857237  0.857759  0.427766  1
  Rh  Rh22  1  0.428080  0.857236  0.857225  1
  Rh  Rh23  1  0.857458  0.857236  0.857225  1
