# generated using pymatgen
data_TbEu4Mg3(Si3Pd)4
_symmetry_space_group_name_H-M   'P 1'
_cell_length_a   8.26087400
_cell_length_b   8.26087472
_cell_length_c   8.15276500
_cell_angle_alpha   90.00000000
_cell_angle_beta   90.00000000
_cell_angle_gamma   120.00000511
_symmetry_Int_Tables_number   1
_chemical_formula_structural   TbEu4Mg3(Si3Pd)4
_chemical_formula_sum   'Tb1 Eu4 Mg3 Si12 Pd4'
_cell_volume   481.82304475
_cell_formula_units_Z   1
loop_
 _symmetry_equiv_pos_site_id
 _symmetry_equiv_pos_as_xyz
  1  'x, y, z'
loop_
 _atom_site_type_symbol
 _atom_site_label
 _atom_site_symmetry_multiplicity
 _atom_site_fract_x
 _atom_site_fract_y
 _atom_site_fract_z
 _atom_site_occupancy
  Tb  Tb0  1  0.000000  0.000000  0.750000  1
  Eu  Eu1  1  0.500085  0.000169  0.250000  1
  Eu  Eu2  1  0.999831  0.499915  0.250000  1
  Eu  Eu3  1  0.500085  0.499915  0.250000  1
  Eu  Eu4  1  0.000000  0.000000  0.250000  1
  Mg  Mg5  1  0.499723  0.999446  0.750000  1
  Mg  Mg6  1  0.000554  0.500277  0.750000  1
  Mg  Mg7  1  0.499723  0.500277  0.750000  1
  Si  Si8  1  0.166463  0.332924  0.989880  1
  Si  Si9  1  0.833462  0.666926  0.989627  1
  Si  Si10  1  0.667076  0.833537  0.989880  1
  Si  Si11  1  0.833462  0.666926  0.510373  1
  Si  Si12  1  0.333074  0.166538  0.989627  1
  Si  Si13  1  0.166463  0.332924  0.510120  1
  Si  Si14  1  0.166463  0.833537  0.989880  1
  Si  Si15  1  0.333074  0.166538  0.510373  1
  Si  Si16  1  0.833462  0.166538  0.989627  1
  Si  Si17  1  0.667076  0.833537  0.510120  1
  Si  Si18  1  0.833462  0.166538  0.510373  1
  Si  Si19  1  0.166463  0.833537  0.510120  1
  Pd  Pd20  1  0.333333  0.666667  0.948027  1
  Pd  Pd21  1  0.666667  0.333333  0.947174  1
  Pd  Pd22  1  0.666667  0.333333  0.552826  1
  Pd  Pd23  1  0.333333  0.666667  0.551973  1
