# generated using pymatgen
data_HfTl2(IO3)6
_symmetry_space_group_name_H-M   'P 1'
_cell_length_a   7.90645937
_cell_length_b   7.90645977
_cell_length_c   7.90645900
_cell_angle_alpha   97.21983038
_cell_angle_beta   97.21983805
_cell_angle_gamma   97.21983004
_symmetry_Int_Tables_number   1
_chemical_formula_structural   HfTl2(IO3)6
_chemical_formula_sum   'Hf1 Tl2 I6 O18'
_cell_volume   481.39131173
_cell_formula_units_Z   1
loop_
 _symmetry_equiv_pos_site_id
 _symmetry_equiv_pos_as_xyz
  1  'x, y, z'
loop_
 _atom_site_type_symbol
 _atom_site_label
 _atom_site_symmetry_multiplicity
 _atom_site_fract_x
 _atom_site_fract_y
 _atom_site_fract_z
 _atom_site_occupancy
  Hf  Hf0  1  0.500000  0.500000  0.500000  1
  Tl  Tl1  1  0.168927  0.168927  0.168927  1
  Tl  Tl2  1  0.831073  0.831073  0.831073  1
  I  I3  1  0.703100  0.336639  0.119546  1
  I  I4  1  0.663361  0.880454  0.296900  1
  I  I5  1  0.119546  0.703100  0.336639  1
  I  I6  1  0.880454  0.296900  0.663361  1
  I  I7  1  0.296900  0.663361  0.880454  1
  I  I8  1  0.336639  0.119546  0.703100  1
  O  O9  1  0.897599  0.397700  0.278291  1
  O  O10  1  0.602300  0.721709  0.102401  1
  O  O11  1  0.721709  0.102401  0.602300  1
  O  O12  1  0.648813  0.720818  0.454622  1
  O  O13  1  0.690376  0.103047  0.090075  1
  O  O14  1  0.454622  0.648813  0.720818  1
  O  O15  1  0.279182  0.545378  0.351187  1
  O  O16  1  0.351187  0.279182  0.545378  1
  O  O17  1  0.103047  0.090075  0.690376  1
  O  O18  1  0.909925  0.309624  0.896953  1
  O  O19  1  0.720818  0.454622  0.648813  1
  O  O20  1  0.102401  0.602300  0.721709  1
  O  O21  1  0.545378  0.351187  0.279182  1
  O  O22  1  0.309624  0.896953  0.909925  1
  O  O23  1  0.896953  0.909925  0.309624  1
  O  O24  1  0.397700  0.278291  0.897599  1
  O  O25  1  0.278291  0.897599  0.397700  1
  O  O26  1  0.090075  0.690376  0.103047  1
