# generated using pymatgen
data_Y4Fe2CoSiI2
_symmetry_space_group_name_H-M   'P 1'
_cell_length_a   4.01136100
_cell_length_b   4.01136016
_cell_length_c   16.94843100
_cell_angle_alpha   90.00000000
_cell_angle_beta   90.00000000
_cell_angle_gamma   119.99996572
_symmetry_Int_Tables_number   1
_chemical_formula_structural   Y4Fe2CoSiI2
_chemical_formula_sum   'Y4 Fe2 Co1 Si1 I2'
_cell_volume   236.18030859
_cell_formula_units_Z   1
loop_
 _symmetry_equiv_pos_site_id
 _symmetry_equiv_pos_as_xyz
  1  'x, y, z'
loop_
 _atom_site_type_symbol
 _atom_site_label
 _atom_site_symmetry_multiplicity
 _atom_site_fract_x
 _atom_site_fract_y
 _atom_site_fract_z
 _atom_site_occupancy
  Y  Y0  1  0.000000  0.000000  0.104245  1
  Y  Y1  1  0.000000  0.000000  0.605089  1
  Y  Y2  1  0.000000  0.000000  0.397099  1
  Y  Y3  1  0.000000  0.000000  0.895455  1
  Fe  Fe4  1  0.666667  0.333333  0.994220  1
  Fe  Fe5  1  0.333333  0.666667  0.005294  1
  Co  Co6  1  0.333333  0.666667  0.495589  1
  Si  Si7  1  0.666667  0.333333  0.503613  1
  I  I8  1  0.666667  0.333333  0.253210  1
  I  I9  1  0.333333  0.666667  0.746185  1
