# generated using pymatgen
data_Tm3Lu(Si5Pt3)2
_symmetry_space_group_name_H-M   'P 1'
_cell_length_a   8.12403516
_cell_length_b   8.12658319
_cell_length_c   8.12658300
_cell_angle_alpha   136.37362043
_cell_angle_beta   104.07352581
_cell_angle_gamma   91.89486115
_symmetry_Int_Tables_number   1
_chemical_formula_structural   Tm3Lu(Si5Pt3)2
_chemical_formula_sum   'Tm3 Lu1 Si10 Pt6'
_cell_volume   341.09119164
_cell_formula_units_Z   1
loop_
 _symmetry_equiv_pos_site_id
 _symmetry_equiv_pos_as_xyz
  1  'x, y, z'
loop_
 _atom_site_type_symbol
 _atom_site_label
 _atom_site_symmetry_multiplicity
 _atom_site_fract_x
 _atom_site_fract_y
 _atom_site_fract_z
 _atom_site_occupancy
  Tm  Tm0  1  0.901551  0.129577  0.771993  1
  Tm  Tm1  1  0.642268  0.370339  0.271923  1
  Tm  Tm2  1  0.357803  0.629692  0.728124  1
  Lu  Lu3  1  0.098518  0.870468  0.228020  1
  Si  Si4  1  0.999995  0.749833  0.749725  1
  Si  Si5  1  0.999994  0.250270  0.250163  1
  Si  Si6  1  0.271295  0.021250  0.750023  1
  Si  Si7  1  0.728710  0.478719  0.749984  1
  Si  Si8  1  0.728709  0.978732  0.249993  1
  Si  Si9  1  0.271294  0.521270  0.250040  1
  Si  Si10  1  0.763494  0.612294  0.151189  1
  Si  Si11  1  0.236332  0.387608  0.848738  1
  Si  Si12  1  0.460874  0.112363  0.348502  1
  Si  Si13  1  0.539055  0.887524  0.651541  1
  Pt  Pt14  1  0.499892  0.750451  0.250498  1
  Pt  Pt15  1  0.499859  0.249388  0.749413  1
  Pt  Pt16  1  0.023312  0.638240  0.385076  1
  Pt  Pt17  1  0.977112  0.362339  0.614774  1
  Pt  Pt18  1  0.251833  0.137306  0.114531  1
  Pt  Pt19  1  0.748100  0.862339  0.885749  1
