# generated using pymatgen
data_Gd3Dy5(Si3Ir)4
_symmetry_space_group_name_H-M   'P 1'
_cell_length_a   8.17524800
_cell_length_b   8.17524869
_cell_length_c   7.94964400
_cell_angle_alpha   90.00000000
_cell_angle_beta   90.00000000
_cell_angle_gamma   120.01140849
_symmetry_Int_Tables_number   1
_chemical_formula_structural   Gd3Dy5(Si3Ir)4
_chemical_formula_sum   'Gd3 Dy5 Si12 Ir4'
_cell_volume   460.07674653
_cell_formula_units_Z   1
loop_
 _symmetry_equiv_pos_site_id
 _symmetry_equiv_pos_as_xyz
  1  'x, y, z'
loop_
 _atom_site_type_symbol
 _atom_site_label
 _atom_site_symmetry_multiplicity
 _atom_site_fract_x
 _atom_site_fract_y
 _atom_site_fract_z
 _atom_site_occupancy
  Gd  Gd0  1  0.000286  0.999714  0.250000  1
  Gd  Gd1  1  0.000211  0.999789  0.750000  1
  Gd  Gd2  1  0.509413  0.490587  0.250000  1
  Dy  Dy3  1  0.509260  0.018379  0.250000  1
  Dy  Dy4  1  0.981621  0.490740  0.250000  1
  Dy  Dy5  1  0.490679  0.509321  0.750000  1
  Dy  Dy6  1  0.490568  0.981357  0.750000  1
  Dy  Dy7  1  0.018643  0.509432  0.750000  1
  Si  Si8  1  0.166611  0.833389  0.500350  1
  Si  Si9  1  0.166719  0.333750  0.500333  1
  Si  Si10  1  0.666250  0.833281  0.500333  1
  Si  Si11  1  0.833158  0.166842  0.500854  1
  Si  Si12  1  0.833242  0.666141  0.501175  1
  Si  Si13  1  0.333859  0.166758  0.501175  1
  Si  Si14  1  0.833158  0.166842  0.999146  1
  Si  Si15  1  0.833242  0.666141  0.998825  1
  Si  Si16  1  0.333859  0.166758  0.998825  1
  Si  Si17  1  0.166611  0.833389  0.999650  1
  Si  Si18  1  0.166719  0.333750  0.999667  1
  Si  Si19  1  0.666250  0.833281  0.999667  1
  Ir  Ir20  1  0.332846  0.667154  0.469966  1
  Ir  Ir21  1  0.666976  0.333024  0.533259  1
  Ir  Ir22  1  0.666976  0.333024  0.966741  1
  Ir  Ir23  1  0.332846  0.667154  0.030034  1
