# generated using pymatgen
data_LuSc19(Bi3Te)3
_symmetry_space_group_name_H-M   'P 1'
_cell_length_a   7.73377507
_cell_length_b   8.94997000
_cell_length_c   11.35303267
_cell_angle_alpha   90.00000000
_cell_angle_beta   90.01169192
_cell_angle_gamma   90.00000000
_symmetry_Int_Tables_number   1
_chemical_formula_structural   LuSc19(Bi3Te)3
_chemical_formula_sum   'Lu1 Sc19 Bi9 Te3'
_cell_volume   785.82346887
_cell_formula_units_Z   1
loop_
 _symmetry_equiv_pos_site_id
 _symmetry_equiv_pos_as_xyz
  1  'x, y, z'
loop_
 _atom_site_type_symbol
 _atom_site_label
 _atom_site_symmetry_multiplicity
 _atom_site_fract_x
 _atom_site_fract_y
 _atom_site_fract_z
 _atom_site_occupancy
  Lu  Lu0  1  0.677471  0.250000  0.715811  1
  Sc  Sc1  1  0.019230  0.250000  0.509710  1
  Sc  Sc2  1  0.979128  0.750000  0.487829  1
  Sc  Sc3  1  0.476410  0.750000  0.012590  1
  Sc  Sc4  1  0.519301  0.250000  0.991134  1
  Sc  Sc5  1  0.354119  0.250000  0.282599  1
  Sc  Sc6  1  0.645617  0.750000  0.715925  1
  Sc  Sc7  1  0.146872  0.750000  0.783556  1
  Sc  Sc8  1  0.851868  0.250000  0.220413  1
  Sc  Sc9  1  0.182552  0.250000  0.779778  1
  Sc  Sc10  1  0.822205  0.750000  0.216274  1
  Sc  Sc11  1  0.323354  0.750000  0.285460  1
  Sc  Sc12  1  0.193609  0.062591  0.059837  1
  Sc  Sc13  1  0.806957  0.930754  0.941493  1
  Sc  Sc14  1  0.310156  0.934294  0.557992  1
  Sc  Sc15  1  0.806957  0.569246  0.941493  1
  Sc  Sc16  1  0.690043  0.064669  0.441283  1
  Sc  Sc17  1  0.193609  0.437409  0.059837  1
  Sc  Sc18  1  0.690043  0.435331  0.441283  1
  Sc  Sc19  1  0.310156  0.565706  0.557992  1
  Bi  Bi20  1  0.906910  0.250000  0.961296  1
  Bi  Bi21  1  0.069468  0.003448  0.325227  1
  Bi  Bi22  1  0.934507  0.993107  0.673068  1
  Bi  Bi23  1  0.428589  0.994188  0.827014  1
  Bi  Bi24  1  0.934507  0.506893  0.673068  1
  Bi  Bi25  1  0.569529  0.003306  0.175313  1
  Bi  Bi26  1  0.069468  0.496552  0.325227  1
  Bi  Bi27  1  0.569529  0.496694  0.175313  1
  Bi  Bi28  1  0.428589  0.505812  0.827014  1
  Te  Te29  1  0.400604  0.250000  0.534995  1
  Te  Te30  1  0.595848  0.750000  0.462196  1
  Te  Te31  1  0.092796  0.750000  0.037982  1
