# generated using pymatgen
data_Sr2Al(SiPd2)3
_symmetry_space_group_name_H-M   'P 1'
_cell_length_a   6.90320298
_cell_length_b   6.93782030
_cell_length_c   6.90320029
_cell_angle_alpha   129.63980571
_cell_angle_beta   116.48891964
_cell_angle_gamma   85.02344302
_symmetry_Int_Tables_number   1
_chemical_formula_structural   Sr2Al(SiPd2)3
_chemical_formula_sum   'Sr2 Al1 Si3 Pd6'
_cell_volume   218.28494658
_cell_formula_units_Z   1
loop_
 _symmetry_equiv_pos_site_id
 _symmetry_equiv_pos_as_xyz
  1  'x, y, z'
loop_
 _atom_site_type_symbol
 _atom_site_label
 _atom_site_symmetry_multiplicity
 _atom_site_fract_x
 _atom_site_fract_y
 _atom_site_fract_z
 _atom_site_occupancy
  Sr  Sr0  1  0.999947  0.974002  0.974055  1
  Sr  Sr1  1  0.501753  0.046192  0.544439  1
  Al  Al2  1  0.344854  0.397114  0.052260  1
  Si  Si3  1  0.815872  0.254902  0.439030  1
  Si  Si4  1  0.648640  0.702616  0.053976  1
  Si  Si5  1  0.190215  0.628082  0.437867  1
  Pd  Pd6  1  0.952490  0.503591  0.956838  1
  Pd  Pd7  1  0.546752  0.503591  0.551101  1
  Pd  Pd8  1  0.034617  0.997584  0.534149  1
  Pd  Pd9  1  0.786714  0.489871  0.275162  1
  Pd  Pd10  1  0.214710  0.489871  0.703156  1
  Pd  Pd11  1  0.463436  0.997584  0.962967  1
