# generated using pymatgen
data_Na2Ca(Si3Pd10)2
_symmetry_space_group_name_H-M   'P 1'
_cell_length_a   8.69366137
_cell_length_b   8.69364562
_cell_length_c   8.69346402
_cell_angle_alpha   59.99814423
_cell_angle_beta   59.99866086
_cell_angle_gamma   59.99623580
_symmetry_Int_Tables_number   1
_chemical_formula_structural   Na2Ca(Si3Pd10)2
_chemical_formula_sum   'Na2 Ca1 Si6 Pd20'
_cell_volume   464.57910583
_cell_formula_units_Z   1
loop_
 _symmetry_equiv_pos_site_id
 _symmetry_equiv_pos_as_xyz
  1  'x, y, z'
loop_
 _atom_site_type_symbol
 _atom_site_label
 _atom_site_symmetry_multiplicity
 _atom_site_fract_x
 _atom_site_fract_y
 _atom_site_fract_z
 _atom_site_occupancy
  Na  Na0  1  0.750006  0.749999  0.749990  1
  Na  Na1  1  0.999996  0.999999  0.000006  1
  Ca  Ca2  1  0.250003  0.250006  0.249993  1
  Si  Si3  1  0.731475  0.268521  0.268513  1
  Si  Si4  1  0.268523  0.731480  0.731485  1
  Si  Si5  1  0.268563  0.731426  0.268561  1
  Si  Si6  1  0.731436  0.268575  0.731438  1
  Si  Si7  1  0.268557  0.268561  0.731432  1
  Si  Si8  1  0.731442  0.731439  0.268568  1
  Pd  Pd9  1  0.343125  0.000270  0.000278  1
  Pd  Pd10  1  0.656375  0.000232  0.000223  1
  Pd  Pd11  1  0.000257  0.343134  0.656342  1
  Pd  Pd12  1  0.000240  0.656366  0.343163  1
  Pd  Pd13  1  0.000289  0.343124  0.000264  1
  Pd  Pd14  1  0.656371  0.000221  0.343161  1
  Pd  Pd15  1  0.000205  0.656381  0.000233  1
  Pd  Pd16  1  0.343145  0.000259  0.656360  1
  Pd  Pd17  1  0.000278  0.000246  0.343132  1
  Pd  Pd18  1  0.000212  0.000245  0.656379  1
  Pd  Pd19  1  0.656353  0.343144  0.000236  1
  Pd  Pd20  1  0.343156  0.656364  0.000254  1
  Pd  Pd21  1  0.384441  0.384416  0.384417  1
  Pd  Pd22  1  0.616375  0.616386  0.616380  1
  Pd  Pd23  1  0.384427  0.384456  0.846682  1
  Pd  Pd24  1  0.384418  0.846693  0.384457  1
  Pd  Pd25  1  0.616374  0.616363  0.150896  1
  Pd  Pd26  1  0.616379  0.150891  0.616360  1
  Pd  Pd27  1  0.846689  0.384422  0.384432  1
  Pd  Pd28  1  0.150889  0.616377  0.616370  1
