# generated using pymatgen
data_SmNpReB6
_symmetry_space_group_name_H-M   'P 1'
_cell_length_a   3.66330000
_cell_length_b   9.32022300
_cell_length_c   11.40376700
_cell_angle_alpha   90.00000000
_cell_angle_beta   90.00000000
_cell_angle_gamma   90.00000000
_symmetry_Int_Tables_number   1
_chemical_formula_structural   SmNpReB6
_chemical_formula_sum   'Sm4 Np4 Re4 B24'
_cell_volume   389.35622707
_cell_formula_units_Z   4
loop_
 _symmetry_equiv_pos_site_id
 _symmetry_equiv_pos_as_xyz
  1  'x, y, z'
loop_
 _atom_site_type_symbol
 _atom_site_label
 _atom_site_symmetry_multiplicity
 _atom_site_fract_x
 _atom_site_fract_y
 _atom_site_fract_z
 _atom_site_occupancy
  Sm  Sm0  1  0.000000  0.337195  0.407274  1
  Sm  Sm1  1  0.000000  0.662805  0.592726  1
  Sm  Sm2  1  0.000000  0.837195  0.092726  1
  Sm  Sm3  1  0.000000  0.162805  0.907274  1
  Np  Np4  1  0.000000  0.959348  0.400866  1
  Np  Np5  1  0.000000  0.040652  0.599134  1
  Np  Np6  1  0.000000  0.459348  0.099134  1
  Np  Np7  1  0.000000  0.540652  0.900866  1
  Re  Re8  1  0.000000  0.647455  0.317425  1
  Re  Re9  1  0.000000  0.352545  0.682575  1
  Re  Re10  1  0.000000  0.147455  0.182575  1
  Re  Re11  1  0.000000  0.852545  0.817425  1
  B  B12  1  0.500000  0.554082  0.429804  1
  B  B13  1  0.500000  0.445918  0.570196  1
  B  B14  1  0.500000  0.054082  0.070196  1
  B  B15  1  0.500000  0.945918  0.929804  1
  B  B16  1  0.500000  0.745705  0.421652  1
  B  B17  1  0.500000  0.254295  0.578348  1
  B  B18  1  0.500000  0.245705  0.078348  1
  B  B19  1  0.500000  0.754295  0.921652  1
  B  B20  1  0.500000  0.804077  0.275009  1
  B  B21  1  0.500000  0.195923  0.724991  1
  B  B22  1  0.500000  0.304077  0.224991  1
  B  B23  1  0.500000  0.695923  0.775009  1
  B  B24  1  0.500000  0.643563  0.187854  1
  B  B25  1  0.500000  0.356437  0.812146  1
  B  B26  1  0.500000  0.143563  0.312146  1
  B  B27  1  0.500000  0.856437  0.687854  1
  B  B28  1  0.500000  0.990236  0.221157  1
  B  B29  1  0.500000  0.009764  0.778843  1
  B  B30  1  0.500000  0.490236  0.278843  1
  B  B31  1  0.500000  0.509764  0.721157  1
  B  B32  1  0.500000  0.636703  0.037460  1
  B  B33  1  0.500000  0.363297  0.962540  1
  B  B34  1  0.500000  0.136703  0.462540  1
  B  B35  1  0.500000  0.863297  0.537460  1
