# generated using pymatgen
data_Ta8Co8Si13Ge
_symmetry_space_group_name_H-M   'P 1'
_cell_length_a   9.21598909
_cell_length_b   9.21606529
_cell_length_c   9.21575802
_cell_angle_alpha   94.29936667
_cell_angle_beta   94.10929861
_cell_angle_gamma   148.58103204
_symmetry_Int_Tables_number   1
_chemical_formula_structural   Ta8Co8Si13Ge
_chemical_formula_sum   'Ta8 Co8 Si13 Ge1'
_cell_volume   392.79401898
_cell_formula_units_Z   1
loop_
 _symmetry_equiv_pos_site_id
 _symmetry_equiv_pos_as_xyz
  1  'x, y, z'
loop_
 _atom_site_type_symbol
 _atom_site_label
 _atom_site_symmetry_multiplicity
 _atom_site_fract_x
 _atom_site_fract_y
 _atom_site_fract_z
 _atom_site_occupancy
  Ta  Ta0  1  0.132809  0.133328  0.266133  1
  Ta  Ta1  1  0.866886  0.866964  0.733849  1
  Ta  Ta2  1  0.867205  0.133326  0.000534  1
  Ta  Ta3  1  0.133119  0.866976  0.000090  1
  Ta  Ta4  1  0.500005  0.310955  0.810929  1
  Ta  Ta5  1  0.500023  0.689370  0.189341  1
  Ta  Ta6  1  0.689846  0.499934  0.189817  1
  Ta  Ta7  1  0.310123  0.499926  0.810088  1
  Co  Co8  1  0.399516  0.897571  0.801022  1
  Co  Co9  1  0.100842  0.601014  0.202099  1
  Co  Co10  1  0.096543  0.897589  0.498049  1
  Co  Co11  1  0.398920  0.601008  0.500168  1
  Co  Co12  1  0.600467  0.401503  0.498054  1
  Co  Co13  1  0.899163  0.101244  0.500169  1
  Co  Co14  1  0.903435  0.401488  0.801015  1
  Co  Co15  1  0.601075  0.101245  0.202077  1
  Si  Si16  1  0.499985  0.902431  0.402477  1
  Si  Si17  1  0.906011  0.499929  0.405884  1
  Si  Si18  1  0.094066  0.499919  0.593936  1
  Si  Si19  1  0.751036  0.751195  0.000153  1
  Si  Si20  1  0.248957  0.249114  0.000148  1
  Si  Si21  1  0.291701  0.292071  0.583790  1
  Si  Si22  1  0.707296  0.708551  0.415827  1
  Si  Si23  1  0.708298  0.292081  0.000323  1
  Si  Si24  1  0.292665  0.708489  0.001202  1
  Si  Si25  1  0.000042  0.297090  0.297073  1
  Si  Si26  1  0.000040  0.704332  0.704329  1
  Si  Si27  1  0.704707  0.999768  0.704509  1
  Si  Si28  1  0.295222  0.999737  0.295043  1
  Ge  Ge29  1  0.499999  0.091850  0.591869  1
