# generated using pymatgen
data_Tb4DyEr7Os4
_symmetry_space_group_name_H-M   'P 1'
_cell_length_a   6.29852068
_cell_length_b   7.40524015
_cell_length_c   9.02129800
_cell_angle_alpha   89.98135336
_cell_angle_beta   90.11939433
_cell_angle_gamma   90.02596614
_symmetry_Int_Tables_number   1
_chemical_formula_structural   Tb4DyEr7Os4
_chemical_formula_sum   'Tb4 Dy1 Er7 Os4'
_cell_volume   420.77092735
_cell_formula_units_Z   1
loop_
 _symmetry_equiv_pos_site_id
 _symmetry_equiv_pos_as_xyz
  1  'x, y, z'
loop_
 _atom_site_type_symbol
 _atom_site_label
 _atom_site_symmetry_multiplicity
 _atom_site_fract_x
 _atom_site_fract_y
 _atom_site_fract_z
 _atom_site_occupancy
  Tb  Tb0  1  0.869962  0.538733  0.250529  1
  Tb  Tb1  1  0.629802  0.039023  0.250278  1
  Tb  Tb2  1  0.129471  0.461068  0.749494  1
  Tb  Tb3  1  0.370599  0.961325  0.749507  1
  Dy  Dy4  1  0.332833  0.675078  0.063132  1
  Er  Er5  1  0.167039  0.174900  0.436543  1
  Er  Er6  1  0.667062  0.325029  0.563284  1
  Er  Er7  1  0.832738  0.825462  0.936281  1
  Er  Er8  1  0.667452  0.324873  0.936232  1
  Er  Er9  1  0.833102  0.825374  0.563334  1
  Er  Er10  1  0.332947  0.674563  0.437130  1
  Er  Er11  1  0.166924  0.174653  0.063549  1
  Os  Os12  1  0.043214  0.882863  0.250678  1
  Os  Os13  1  0.456359  0.381980  0.250637  1
  Os  Os14  1  0.955987  0.117609  0.750345  1
  Os  Os15  1  0.544507  0.617469  0.749050  1
