# generated using pymatgen
data_Sr3YbCN4
_symmetry_space_group_name_H-M   'P 1'
_cell_length_a   3.77863400
_cell_length_b   12.08475200
_cell_length_c   14.38383500
_cell_angle_alpha   90.00000000
_cell_angle_beta   90.00000000
_cell_angle_gamma   90.00000000
_symmetry_Int_Tables_number   1
_chemical_formula_structural   Sr3YbCN4
_chemical_formula_sum   'Sr12 Yb4 C4 N16'
_cell_volume   656.82135275
_cell_formula_units_Z   4
loop_
 _symmetry_equiv_pos_site_id
 _symmetry_equiv_pos_as_xyz
  1  'x, y, z'
loop_
 _atom_site_type_symbol
 _atom_site_label
 _atom_site_symmetry_multiplicity
 _atom_site_fract_x
 _atom_site_fract_y
 _atom_site_fract_z
 _atom_site_occupancy
  Sr  Sr0  1  0.750000  0.887199  0.389360  1
  Sr  Sr1  1  0.250000  0.112801  0.610640  1
  Sr  Sr2  1  0.250000  0.612801  0.889360  1
  Sr  Sr3  1  0.750000  0.387199  0.110640  1
  Sr  Sr4  1  0.750000  0.649272  0.253187  1
  Sr  Sr5  1  0.250000  0.350728  0.746813  1
  Sr  Sr6  1  0.250000  0.850728  0.753187  1
  Sr  Sr7  1  0.750000  0.149272  0.246813  1
  Sr  Sr8  1  0.750000  0.877831  0.961456  1
  Sr  Sr9  1  0.250000  0.122169  0.038544  1
  Sr  Sr10  1  0.250000  0.622169  0.461456  1
  Sr  Sr11  1  0.750000  0.377831  0.538544  1
  Yb  Yb12  1  0.750000  0.608380  0.673882  1
  Yb  Yb13  1  0.250000  0.391620  0.326118  1
  Yb  Yb14  1  0.250000  0.891620  0.173882  1
  Yb  Yb15  1  0.750000  0.108380  0.826118  1
  C  C16  1  0.750000  0.848076  0.586443  1
  C  C17  1  0.250000  0.151924  0.413557  1
  C  C18  1  0.250000  0.651924  0.086443  1
  C  C19  1  0.750000  0.348076  0.913557  1
  N  N20  1  0.750000  0.754471  0.550579  1
  N  N21  1  0.250000  0.245529  0.449421  1
  N  N22  1  0.250000  0.745529  0.050579  1
  N  N23  1  0.750000  0.254471  0.949421  1
  N  N24  1  0.750000  0.942499  0.620590  1
  N  N25  1  0.250000  0.057501  0.379410  1
  N  N26  1  0.250000  0.557501  0.120590  1
  N  N27  1  0.750000  0.442499  0.879410  1
  N  N28  1  0.750000  0.497911  0.374701  1
  N  N29  1  0.250000  0.502089  0.625299  1
  N  N30  1  0.250000  0.002089  0.874701  1
  N  N31  1  0.750000  0.997911  0.125299  1
  N  N32  1  0.750000  0.721554  0.814289  1
  N  N33  1  0.250000  0.278446  0.185711  1
  N  N34  1  0.250000  0.778446  0.314289  1
  N  N35  1  0.750000  0.221554  0.685711  1
