# generated using pymatgen
data_Er8ZnAgRh2
_symmetry_space_group_name_H-M   'P 1'
_cell_length_a   9.44525414
_cell_length_b   9.43984832
_cell_length_c   9.43981533
_cell_angle_alpha   60.09646703
_cell_angle_beta   59.98110947
_cell_angle_gamma   59.98141875
_symmetry_Int_Tables_number   1
_chemical_formula_structural   Er8ZnAgRh2
_chemical_formula_sum   'Er16 Zn2 Ag2 Rh4'
_cell_volume   595.41470948
_cell_formula_units_Z   2
loop_
 _symmetry_equiv_pos_site_id
 _symmetry_equiv_pos_as_xyz
  1  'x, y, z'
loop_
 _atom_site_type_symbol
 _atom_site_label
 _atom_site_symmetry_multiplicity
 _atom_site_fract_x
 _atom_site_fract_y
 _atom_site_fract_z
 _atom_site_occupancy
  Er  Er0  1  0.565967  0.562360  0.935868  1
  Er  Er1  1  0.146173  0.559415  0.148067  1
  Er  Er2  1  0.690459  0.309690  0.309602  1
  Er  Er3  1  0.935204  0.564758  0.564832  1
  Er  Er4  1  0.935815  0.562364  0.935935  1
  Er  Er5  1  0.688957  0.689797  0.311610  1
  Er  Er6  1  0.563418  0.936707  0.936603  1
  Er  Er7  1  0.145906  0.146798  0.146628  1
  Er  Er8  1  0.309595  0.689911  0.311637  1
  Er  Er9  1  0.560730  0.146710  0.146553  1
  Er  Er10  1  0.309566  0.311680  0.689986  1
  Er  Er11  1  0.311654  0.688194  0.688390  1
  Er  Er12  1  0.146110  0.148156  0.559415  1
  Er  Er13  1  0.688871  0.311583  0.689911  1
  Er  Er14  1  0.935712  0.935960  0.562445  1
  Er  Er15  1  0.565969  0.935859  0.562434  1
  Zn  Zn16  1  0.919211  0.919829  0.241750  1
  Zn  Zn17  1  0.919238  0.241689  0.919857  1
  Ag  Ag18  1  0.918165  0.920103  0.920107  1
  Ag  Ag19  1  0.241574  0.920126  0.920131  1
  Rh  Rh20  1  0.356829  0.355606  0.930716  1
  Rh  Rh21  1  0.358223  0.355991  0.355963  1
  Rh  Rh22  1  0.929793  0.356022  0.355970  1
  Rh  Rh23  1  0.356858  0.930690  0.355590  1
