# generated using pymatgen
data_YHf3F15
_symmetry_space_group_name_H-M   'P 1'
_cell_length_a   8.14296991
_cell_length_b   8.14296951
_cell_length_c   8.11745271
_cell_angle_alpha   79.75741289
_cell_angle_beta   79.75741711
_cell_angle_gamma   100.14781111
_symmetry_Int_Tables_number   1
_chemical_formula_structural   YHf3F15
_chemical_formula_sum   'Y2 Hf6 F30'
_cell_volume   509.09018566
_cell_formula_units_Z   2
loop_
 _symmetry_equiv_pos_site_id
 _symmetry_equiv_pos_as_xyz
  1  'x, y, z'
loop_
 _atom_site_type_symbol
 _atom_site_label
 _atom_site_symmetry_multiplicity
 _atom_site_fract_x
 _atom_site_fract_y
 _atom_site_fract_z
 _atom_site_occupancy
  Y  Y0  1  0.177408  0.822592  0.250000  1
  Y  Y1  1  0.822592  0.177408  0.750000  1
  Hf  Hf2  1  0.751776  0.248224  0.250000  1
  Hf  Hf3  1  0.248224  0.751776  0.750000  1
  Hf  Hf4  1  0.745548  0.677176  0.674603  1
  Hf  Hf5  1  0.322824  0.254452  0.825397  1
  Hf  Hf6  1  0.254452  0.322824  0.325397  1
  Hf  Hf7  1  0.677176  0.745548  0.174603  1
  F  F8  1  0.315873  0.349045  0.054138  1
  F  F9  1  0.932980  0.811289  0.151282  1
  F  F10  1  0.841802  0.463397  0.683505  1
  F  F11  1  0.463397  0.841802  0.183505  1
  F  F12  1  0.811289  0.932980  0.651282  1
  F  F13  1  0.349045  0.315873  0.554137  1
  F  F14  1  0.684127  0.650955  0.945862  1
  F  F15  1  0.067020  0.188711  0.848718  1
  F  F16  1  0.158198  0.536603  0.316495  1
  F  F17  1  0.536603  0.158198  0.816495  1
  F  F18  1  0.188711  0.067020  0.348718  1
  F  F19  1  0.650955  0.684127  0.445862  1
  F  F20  1  0.774273  0.282157  0.997643  1
  F  F21  1  0.005645  0.276243  0.220619  1
  F  F22  1  0.773622  0.504883  0.223429  1
  F  F23  1  0.504883  0.773622  0.723429  1
  F  F24  1  0.276243  0.005645  0.720619  1
  F  F25  1  0.282157  0.774273  0.497643  1
  F  F26  1  0.225727  0.717843  0.002357  1
  F  F27  1  0.994355  0.723757  0.779381  1
  F  F28  1  0.226378  0.495117  0.776571  1
  F  F29  1  0.495117  0.226378  0.276571  1
  F  F30  1  0.723757  0.994355  0.279381  1
  F  F31  1  0.717843  0.225727  0.502357  1
  F  F32  1  0.467481  0.532519  0.250000  1
  F  F33  1  0.746799  0.952199  0.973447  1
  F  F34  1  0.047801  0.253201  0.526553  1
  F  F35  1  0.253201  0.047801  0.026553  1
  F  F36  1  0.952199  0.746799  0.473447  1
  F  F37  1  0.532519  0.467481  0.750000  1
