# generated using pymatgen
data_Tb3Er(LuAu)4
_symmetry_space_group_name_H-M   'P 1'
_cell_length_a   4.88083300
_cell_length_b   7.08497676
_cell_length_c   8.87035013
_cell_angle_alpha   89.86946627
_cell_angle_beta   90.00000000
_cell_angle_gamma   90.00000000
_symmetry_Int_Tables_number   1
_chemical_formula_structural   Tb3Er(LuAu)4
_chemical_formula_sum   'Tb3 Er1 Lu4 Au4'
_cell_volume   306.74113043
_cell_formula_units_Z   1
loop_
 _symmetry_equiv_pos_site_id
 _symmetry_equiv_pos_as_xyz
  1  'x, y, z'
loop_
 _atom_site_type_symbol
 _atom_site_label
 _atom_site_symmetry_multiplicity
 _atom_site_fract_x
 _atom_site_fract_y
 _atom_site_fract_z
 _atom_site_occupancy
  Tb  Tb0  1  0.250000  0.985560  0.321978  1
  Tb  Tb1  1  0.750000  0.514489  0.822843  1
  Tb  Tb2  1  0.750000  0.014618  0.677475  1
  Er  Er3  1  0.250000  0.485101  0.176947  1
  Lu  Lu4  1  0.250000  0.851869  0.920853  1
  Lu  Lu5  1  0.250000  0.352536  0.579318  1
  Lu  Lu6  1  0.750000  0.148298  0.079905  1
  Lu  Lu7  1  0.750000  0.647509  0.419353  1
  Au  Au8  1  0.250000  0.254715  0.901150  1
  Au  Au9  1  0.250000  0.754208  0.600183  1
  Au  Au10  1  0.750000  0.744852  0.100438  1
  Au  Au11  1  0.750000  0.246248  0.399555  1
