# generated using pymatgen
data_Na3LaNd3Au10
_symmetry_space_group_name_H-M   'P 1'
_cell_length_a   8.86733453
_cell_length_b   8.86733533
_cell_length_c   10.39332800
_cell_angle_alpha   90.00000000
_cell_angle_beta   90.00000000
_cell_angle_gamma   108.53624614
_symmetry_Int_Tables_number   1
_chemical_formula_structural   Na3LaNd3Au10
_chemical_formula_sum   'Na6 La2 Nd6 Au20'
_cell_volume   774.82820004
_cell_formula_units_Z   2
loop_
 _symmetry_equiv_pos_site_id
 _symmetry_equiv_pos_as_xyz
  1  'x, y, z'
loop_
 _atom_site_type_symbol
 _atom_site_label
 _atom_site_symmetry_multiplicity
 _atom_site_fract_x
 _atom_site_fract_y
 _atom_site_fract_z
 _atom_site_occupancy
  Na  Na0  1  0.514241  0.014241  0.250000  1
  Na  Na1  1  0.985547  0.485547  0.750000  1
  Na  Na2  1  0.000120  0.000120  0.000593  1
  Na  Na3  1  0.014241  0.514241  0.250000  1
  Na  Na4  1  0.485547  0.985547  0.750000  1
  Na  Na5  1  0.500120  0.500120  0.499407  1
  La  La6  1  0.698803  0.698803  0.799367  1
  La  La7  1  0.198803  0.198803  0.700633  1
  Nd  Nd8  1  0.699890  0.299332  0.000794  1
  Nd  Nd9  1  0.199890  0.799332  0.499206  1
  Nd  Nd10  1  0.802989  0.802989  0.300747  1
  Nd  Nd11  1  0.302989  0.302989  0.199253  1
  Nd  Nd12  1  0.799332  0.199890  0.499206  1
  Nd  Nd13  1  0.299332  0.699890  0.000794  1
  Au  Au14  1  0.149638  0.431235  0.486855  1
  Au  Au15  1  0.903269  0.903269  0.593412  1
  Au  Au16  1  0.568808  0.850051  0.510504  1
  Au  Au17  1  0.879631  0.161190  0.210065  1
  Au  Au18  1  0.379631  0.661190  0.289935  1
  Au  Au19  1  0.661190  0.379631  0.289935  1
  Au  Au20  1  0.403269  0.403269  0.906588  1
  Au  Au21  1  0.931235  0.649638  0.013145  1
  Au  Au22  1  0.336701  0.620779  0.710167  1
  Au  Au23  1  0.350051  0.068808  0.989496  1
  Au  Au24  1  0.597778  0.597778  0.096780  1
  Au  Au25  1  0.649638  0.931235  0.013145  1
  Au  Au26  1  0.097778  0.097778  0.403220  1
  Au  Au27  1  0.620779  0.336701  0.710167  1
  Au  Au28  1  0.120779  0.836701  0.789833  1
  Au  Au29  1  0.068808  0.350051  0.989496  1
  Au  Au30  1  0.850051  0.568808  0.510504  1
  Au  Au31  1  0.161190  0.879631  0.210065  1
  Au  Au32  1  0.431235  0.149638  0.486855  1
  Au  Au33  1  0.836701  0.120779  0.789833  1
