# generated using pymatgen
data_Be6Ni2Mo3Os
_symmetry_space_group_name_H-M   'P 1'
_cell_length_a   4.52509500
_cell_length_b   4.52509456
_cell_length_c   7.18124400
_cell_angle_alpha   90.00000000
_cell_angle_beta   90.00000000
_cell_angle_gamma   119.99999594
_symmetry_Int_Tables_number   1
_chemical_formula_structural   Be6Ni2Mo3Os
_chemical_formula_sum   'Be6 Ni2 Mo3 Os1'
_cell_volume   127.34611270
_cell_formula_units_Z   1
loop_
 _symmetry_equiv_pos_site_id
 _symmetry_equiv_pos_as_xyz
  1  'x, y, z'
loop_
 _atom_site_type_symbol
 _atom_site_label
 _atom_site_symmetry_multiplicity
 _atom_site_fract_x
 _atom_site_fract_y
 _atom_site_fract_z
 _atom_site_occupancy
  Be  Be0  1  0.830648  0.169352  0.252251  1
  Be  Be1  1  0.830648  0.661295  0.252251  1
  Be  Be2  1  0.338705  0.169352  0.252251  1
  Be  Be3  1  0.170319  0.829681  0.748583  1
  Be  Be4  1  0.170319  0.340639  0.748583  1
  Be  Be5  1  0.659361  0.829681  0.748583  1
  Ni  Ni6  1  0.000000  0.000000  0.501516  1
  Ni  Ni7  1  0.000000  0.000000  0.003189  1
  Mo  Mo8  1  0.666667  0.333333  0.566462  1
  Mo  Mo9  1  0.666667  0.333333  0.929106  1
  Mo  Mo10  1  0.333333  0.666667  0.070743  1
  Os  Os11  1  0.333333  0.666667  0.426483  1
