# generated using pymatgen
data_YTa5Co2(BRu2)4
_symmetry_space_group_name_H-M   'P 1'
_cell_length_a   9.34531623
_cell_length_b   9.34531623
_cell_length_c   3.05930000
_cell_angle_alpha   90.00000000
_cell_angle_beta   90.00000000
_cell_angle_gamma   90.43787438
_symmetry_Int_Tables_number   1
_chemical_formula_structural   YTa5Co2(BRu2)4
_chemical_formula_sum   'Y1 Ta5 Co2 B4 Ru8'
_cell_volume   267.17596536
_cell_formula_units_Z   1
loop_
 _symmetry_equiv_pos_site_id
 _symmetry_equiv_pos_as_xyz
  1  'x, y, z'
loop_
 _atom_site_type_symbol
 _atom_site_label
 _atom_site_symmetry_multiplicity
 _atom_site_fract_x
 _atom_site_fract_y
 _atom_site_fract_z
 _atom_site_occupancy
  Y  Y0  1  0.822515  0.677485  0.000000  1
  Ta  Ta1  1  0.175947  0.324053  0.000000  1
  Ta  Ta2  1  0.324696  0.827041  0.000000  1
  Ta  Ta3  1  0.672959  0.175304  0.000000  1
  Ta  Ta4  1  0.500756  0.499649  0.000000  1
  Ta  Ta5  1  0.000351  0.999244  0.000000  1
  Co  Co6  1  0.496133  0.003867  0.500000  1
  Co  Co7  1  0.007345  0.492655  0.500000  1
  B  B8  1  0.606612  0.893388  0.000000  1
  B  B9  1  0.391161  0.108839  0.000000  1
  B  B10  1  0.115010  0.608303  0.000000  1
  B  B11  1  0.891697  0.384990  0.000000  1
  Ru  Ru12  1  0.552763  0.730595  0.500000  1
  Ru  Ru13  1  0.432315  0.276404  0.500000  1
  Ru  Ru14  1  0.077506  0.776710  0.500000  1
  Ru  Ru15  1  0.938111  0.222166  0.500000  1
  Ru  Ru16  1  0.277834  0.561889  0.500000  1
  Ru  Ru17  1  0.723290  0.422494  0.500000  1
  Ru  Ru18  1  0.223596  0.067685  0.500000  1
  Ru  Ru19  1  0.769405  0.947237  0.500000  1
