# generated using pymatgen
data_HoEr3(CrB4)4
_symmetry_space_group_name_H-M   'P 1'
_cell_length_a   3.42495800
_cell_length_b   5.91365635
_cell_length_c   11.42675705
_cell_angle_alpha   90.01433660
_cell_angle_beta   90.00000000
_cell_angle_gamma   90.00000000
_symmetry_Int_Tables_number   1
_chemical_formula_structural   HoEr3(CrB4)4
_chemical_formula_sum   'Ho1 Er3 Cr4 B16'
_cell_volume   231.43781169
_cell_formula_units_Z   1
loop_
 _symmetry_equiv_pos_site_id
 _symmetry_equiv_pos_as_xyz
  1  'x, y, z'
loop_
 _atom_site_type_symbol
 _atom_site_label
 _atom_site_symmetry_multiplicity
 _atom_site_fract_x
 _atom_site_fract_y
 _atom_site_fract_z
 _atom_site_occupancy
  Ho  Ho0  1  0.000000  0.875471  0.849160  1
  Er  Er1  1  0.000000  0.624521  0.349183  1
  Er  Er2  1  0.000000  0.375422  0.650831  1
  Er  Er3  1  0.000000  0.124591  0.150822  1
  Cr  Cr4  1  0.000000  0.624663  0.081280  1
  Cr  Cr5  1  0.000000  0.375357  0.918794  1
  Cr  Cr6  1  0.000000  0.124676  0.418775  1
  Cr  Cr7  1  0.000000  0.875238  0.581202  1
  B  B8  1  0.500000  0.782028  0.184450  1
  B  B9  1  0.500000  0.218397  0.815458  1
  B  B10  1  0.500000  0.281991  0.315516  1
  B  B11  1  0.500000  0.717889  0.684319  1
  B  B12  1  0.500000  0.863383  0.032454  1
  B  B13  1  0.500000  0.136845  0.967775  1
  B  B14  1  0.500000  0.363411  0.467706  1
  B  B15  1  0.500000  0.636533  0.532353  1
  B  B16  1  0.500000  0.886229  0.452963  1
  B  B17  1  0.500000  0.113767  0.547068  1
  B  B18  1  0.500000  0.386268  0.047095  1
  B  B19  1  0.500000  0.613446  0.953068  1
  B  B20  1  0.500000  0.975016  0.308010  1
  B  B21  1  0.500000  0.025124  0.691791  1
  B  B22  1  0.500000  0.475055  0.191942  1
  B  B23  1  0.500000  0.524678  0.807988  1
