# generated using pymatgen
data_Er5(SiHg)2
_symmetry_space_group_name_H-M   'P 1'
_cell_length_a   8.68643714
_cell_length_b   8.68643693
_cell_length_c   7.51435700
_cell_angle_alpha   90.00000000
_cell_angle_beta   90.00000000
_cell_angle_gamma   128.81526216
_symmetry_Int_Tables_number   1
_chemical_formula_structural   Er5(SiHg)2
_chemical_formula_sum   'Er10 Si4 Hg4'
_cell_volume   441.78195254
_cell_formula_units_Z   2
loop_
 _symmetry_equiv_pos_site_id
 _symmetry_equiv_pos_as_xyz
  1  'x, y, z'
loop_
 _atom_site_type_symbol
 _atom_site_label
 _atom_site_symmetry_multiplicity
 _atom_site_fract_x
 _atom_site_fract_y
 _atom_site_fract_z
 _atom_site_occupancy
  Er  Er0  1  0.051433  0.306032  0.326467  1
  Er  Er1  1  0.948567  0.693968  0.673533  1
  Er  Er2  1  0.448567  0.193968  0.826467  1
  Er  Er3  1  0.806032  0.551433  0.173533  1
  Er  Er4  1  0.551433  0.806032  0.173533  1
  Er  Er5  1  0.193968  0.448567  0.826467  1
  Er  Er6  1  0.693968  0.948567  0.673533  1
  Er  Er7  1  0.306032  0.051433  0.326467  1
  Er  Er8  1  0.000000  0.000000  0.000000  1
  Er  Er9  1  0.500000  0.500000  0.500000  1
  Si  Si10  1  0.377777  0.377777  0.125026  1
  Si  Si11  1  0.622223  0.622223  0.874974  1
  Si  Si12  1  0.122223  0.122223  0.625026  1
  Si  Si13  1  0.877777  0.877777  0.374974  1
  Hg  Hg14  1  0.784144  0.215856  0.000000  1
  Hg  Hg15  1  0.215857  0.784144  0.000000  1
  Hg  Hg16  1  0.715856  0.284144  0.500000  1
  Hg  Hg17  1  0.284144  0.715856  0.500000  1
