# generated using pymatgen
data_Li8Y8GaSb7
_symmetry_space_group_name_H-M   'P 1'
_cell_length_a   9.42098900
_cell_length_b   9.42098942
_cell_length_c   7.08335800
_cell_angle_alpha   90.00000000
_cell_angle_beta   90.00000000
_cell_angle_gamma   120.00000203
_symmetry_Int_Tables_number   1
_chemical_formula_structural   Li8Y8GaSb7
_chemical_formula_sum   'Li8 Y8 Ga1 Sb7'
_cell_volume   544.45604949
_cell_formula_units_Z   1
loop_
 _symmetry_equiv_pos_site_id
 _symmetry_equiv_pos_as_xyz
  1  'x, y, z'
loop_
 _atom_site_type_symbol
 _atom_site_label
 _atom_site_symmetry_multiplicity
 _atom_site_fract_x
 _atom_site_fract_y
 _atom_site_fract_z
 _atom_site_occupancy
  Li  Li0  1  0.167374  0.832626  0.212294  1
  Li  Li1  1  0.340652  0.170326  0.711884  1
  Li  Li2  1  0.829674  0.659348  0.711884  1
  Li  Li3  1  0.167374  0.334746  0.212294  1
  Li  Li4  1  0.665254  0.832626  0.212294  1
  Li  Li5  1  0.829674  0.170326  0.711884  1
  Li  Li6  1  0.333333  0.666667  0.796137  1
  Li  Li7  1  0.666667  0.333333  0.289758  1
  Y  Y8  1  0.513513  0.486487  0.984669  1
  Y  Y9  1  0.008482  0.504241  0.492999  1
  Y  Y10  1  0.495759  0.991518  0.492999  1
  Y  Y11  1  0.513513  0.027025  0.984669  1
  Y  Y12  1  0.972975  0.486487  0.984669  1
  Y  Y13  1  0.495759  0.504241  0.492999  1
  Y  Y14  1  0.000000  0.000000  0.981816  1
  Y  Y15  1  0.000000  0.000000  0.484625  1
  Ga  Ga16  1  0.666667  0.333333  0.729003  1
  Sb  Sb17  1  0.166299  0.833701  0.745641  1
  Sb  Sb18  1  0.333127  0.166565  0.246514  1
  Sb  Sb19  1  0.833435  0.666873  0.246514  1
  Sb  Sb20  1  0.166299  0.332597  0.745641  1
  Sb  Sb21  1  0.667403  0.833701  0.745641  1
  Sb  Sb22  1  0.833435  0.166565  0.246514  1
  Sb  Sb23  1  0.333333  0.666667  0.226663  1
