# generated using pymatgen
data_SbRu3(PbO4)4
_symmetry_space_group_name_H-M   'P 1'
_cell_length_a   5.17064706
_cell_length_b   5.28829947
_cell_length_c   13.77221866
_cell_angle_alpha   68.16893653
_cell_angle_beta   90.18191731
_cell_angle_gamma   90.46000691
_symmetry_Int_Tables_number   1
_chemical_formula_structural   SbRu3(PbO4)4
_chemical_formula_sum   'Sb1 Ru3 Pb4 O16'
_cell_volume   349.56815870
_cell_formula_units_Z   1
loop_
 _symmetry_equiv_pos_site_id
 _symmetry_equiv_pos_as_xyz
  1  'x, y, z'
loop_
 _atom_site_type_symbol
 _atom_site_label
 _atom_site_symmetry_multiplicity
 _atom_site_fract_x
 _atom_site_fract_y
 _atom_site_fract_z
 _atom_site_occupancy
  Sb  Sb0  1  0.250780  0.071929  0.430235  1
  Ru  Ru1  1  0.749263  0.923840  0.073926  1
  Ru  Ru2  1  0.750252  0.926420  0.572274  1
  Ru  Ru3  1  0.250063  0.076277  0.925771  1
  Pb  Pb4  1  0.756109  0.659496  0.337413  1
  Pb  Pb5  1  0.743420  0.657807  0.838374  1
  Pb  Pb6  1  0.242976  0.341083  0.662025  1
  Pb  Pb7  1  0.255960  0.336677  0.166217  1
  O  O8  1  0.451621  0.768059  0.038516  1
  O  O9  1  0.060802  0.751875  0.544048  1
  O  O10  1  0.551582  0.249390  0.958827  1
  O  O11  1  0.935795  0.255943  0.460150  1
  O  O12  1  0.631886  0.030854  0.178582  1
  O  O13  1  0.871300  0.036971  0.678063  1
  O  O14  1  0.371107  0.964457  0.821865  1
  O  O15  1  0.107486  0.968140  0.317573  1
  O  O16  1  0.052546  0.140657  0.044454  1
  O  O17  1  0.438389  0.152355  0.548698  1
  O  O18  1  0.944251  0.844598  0.952723  1
  O  O19  1  0.567515  0.834732  0.454900  1
  O  O20  1  0.864494  0.602290  0.174577  1
  O  O21  1  0.631126  0.600865  0.673192  1
  O  O22  1  0.131646  0.400410  0.826082  1
  O  O23  1  0.389633  0.404874  0.321514  1
