# generated using pymatgen
data_CsBaGaO3
_symmetry_space_group_name_H-M   'P 1'
_cell_length_a   6.79662939
_cell_length_b   6.79662956
_cell_length_c   13.07793400
_cell_angle_alpha   90.00000000
_cell_angle_beta   90.00000000
_cell_angle_gamma   128.17873310
_symmetry_Int_Tables_number   1
_chemical_formula_structural   CsBaGaO3
_chemical_formula_sum   'Cs4 Ba4 Ga4 O12'
_cell_volume   474.89391112
_cell_formula_units_Z   4
loop_
 _symmetry_equiv_pos_site_id
 _symmetry_equiv_pos_as_xyz
  1  'x, y, z'
loop_
 _atom_site_type_symbol
 _atom_site_label
 _atom_site_symmetry_multiplicity
 _atom_site_fract_x
 _atom_site_fract_y
 _atom_site_fract_z
 _atom_site_occupancy
  Cs  Cs0  1  0.460128  0.539872  0.643474  1
  Cs  Cs1  1  0.539872  0.460128  0.356526  1
  Cs  Cs2  1  0.039872  0.960128  0.143474  1
  Cs  Cs3  1  0.960128  0.039872  0.856526  1
  Ba  Ba4  1  0.647010  0.352990  0.921474  1
  Ba  Ba5  1  0.852990  0.147010  0.421474  1
  Ba  Ba6  1  0.147010  0.852990  0.578526  1
  Ba  Ba7  1  0.352990  0.647010  0.078526  1
  Ga  Ga8  1  0.225422  0.774578  0.334556  1
  Ga  Ga9  1  0.725422  0.274578  0.165444  1
  Ga  Ga10  1  0.774578  0.225422  0.665444  1
  Ga  Ga11  1  0.274578  0.725422  0.834556  1
  O  O12  1  0.982051  0.517949  0.750000  1
  O  O13  1  0.517949  0.982051  0.250000  1
  O  O14  1  0.017949  0.482051  0.250000  1
  O  O15  1  0.482051  0.017949  0.750000  1
  O  O16  1  0.420018  0.579982  0.878474  1
  O  O17  1  0.579982  0.420018  0.121526  1
  O  O18  1  0.079982  0.920018  0.378474  1
  O  O19  1  0.682564  0.317436  0.552178  1
  O  O20  1  0.182564  0.817436  0.947822  1
  O  O21  1  0.817436  0.182564  0.052178  1
  O  O22  1  0.317436  0.682564  0.447822  1
  O  O23  1  0.920018  0.079982  0.621526  1
