# generated using pymatgen
data_Nd17Dy3(Ir2Ru)4
_symmetry_space_group_name_H-M   'P 1'
_cell_length_a   11.18654000
_cell_length_b   11.18654000
_cell_length_c   6.59523200
_cell_angle_alpha   90.00000000
_cell_angle_beta   90.00000000
_cell_angle_gamma   90.00000000
_symmetry_Int_Tables_number   1
_chemical_formula_structural   Nd17Dy3(Ir2Ru)4
_chemical_formula_sum   'Nd17 Dy3 Ir8 Ru4'
_cell_volume   825.31860812
_cell_formula_units_Z   1
loop_
 _symmetry_equiv_pos_site_id
 _symmetry_equiv_pos_as_xyz
  1  'x, y, z'
loop_
 _atom_site_type_symbol
 _atom_site_label
 _atom_site_symmetry_multiplicity
 _atom_site_fract_x
 _atom_site_fract_y
 _atom_site_fract_z
 _atom_site_occupancy
  Nd  Nd0  1  0.293281  0.086934  0.381291  1
  Nd  Nd1  1  0.292585  0.913073  0.881754  1
  Nd  Nd2  1  0.707415  0.086927  0.881754  1
  Nd  Nd3  1  0.706719  0.913066  0.381291  1
  Nd  Nd4  1  0.586993  0.791264  0.880785  1
  Nd  Nd5  1  0.586878  0.208975  0.380782  1
  Nd  Nd6  1  0.413122  0.791025  0.380782  1
  Nd  Nd7  1  0.413007  0.208736  0.880785  1
  Nd  Nd8  1  0.208975  0.413122  0.619218  1
  Nd  Nd9  1  0.208736  0.586993  0.119215  1
  Nd  Nd10  1  0.791264  0.413007  0.119215  1
  Nd  Nd11  1  0.791025  0.586878  0.619218  1
  Nd  Nd12  1  0.913073  0.707415  0.118246  1
  Nd  Nd13  1  0.913066  0.293281  0.618709  1
  Nd  Nd14  1  0.086934  0.706719  0.618709  1
  Nd  Nd15  1  0.086927  0.292585  0.118246  1
  Nd  Nd16  1  0.000000  0.000000  0.500000  1
  Dy  Dy17  1  0.000000  0.000000  0.000000  1
  Dy  Dy18  1  0.500000  0.500000  0.000000  1
  Dy  Dy19  1  0.500000  0.500000  0.500000  1
  Ir  Ir20  1  0.849533  0.150798  0.245433  1
  Ir  Ir21  1  0.849202  0.849533  0.754567  1
  Ir  Ir22  1  0.150798  0.150467  0.754567  1
  Ir  Ir23  1  0.150467  0.849202  0.245433  1
  Ir  Ir24  1  0.648311  0.352104  0.749835  1
  Ir  Ir25  1  0.647896  0.648311  0.250165  1
  Ir  Ir26  1  0.352104  0.351689  0.250165  1
  Ir  Ir27  1  0.351689  0.647896  0.749835  1
  Ru  Ru28  1  0.500000  0.000000  0.119933  1
  Ru  Ru29  1  0.500000  0.000000  0.620137  1
  Ru  Ru30  1  0.000000  0.500000  0.880067  1
  Ru  Ru31  1  0.000000  0.500000  0.379863  1
