# generated using pymatgen
data_Tm4Lu2Th2CdHgIr2
_symmetry_space_group_name_H-M   'P 1'
_cell_length_a   9.62021181
_cell_length_b   9.61980952
_cell_length_c   9.65278600
_cell_angle_alpha   59.88629065
_cell_angle_beta   59.88757013
_cell_angle_gamma   59.91378104
_symmetry_Int_Tables_number   1
_chemical_formula_structural   Tm4Lu2Th2CdHgIr2
_chemical_formula_sum   'Tm8 Lu4 Th4 Cd2 Hg2 Ir4'
_cell_volume   630.17565916
_cell_formula_units_Z   2
loop_
 _symmetry_equiv_pos_site_id
 _symmetry_equiv_pos_as_xyz
  1  'x, y, z'
loop_
 _atom_site_type_symbol
 _atom_site_label
 _atom_site_symmetry_multiplicity
 _atom_site_fract_x
 _atom_site_fract_y
 _atom_site_fract_z
 _atom_site_occupancy
  Tm  Tm0  1  0.436551  0.436502  0.063472  1
  Tm  Tm1  1  0.063699  0.063692  0.436304  1
  Tm  Tm2  1  0.185455  0.815553  0.814613  1
  Tm  Tm3  1  0.815572  0.185484  0.184350  1
  Tm  Tm4  1  0.815565  0.185484  0.814595  1
  Tm  Tm5  1  0.185459  0.815554  0.184373  1
  Tm  Tm6  1  0.815323  0.815318  0.184678  1
  Tm  Tm7  1  0.185188  0.185195  0.814808  1
  Lu  Lu8  1  0.063110  0.436246  0.437219  1
  Lu  Lu9  1  0.436310  0.063065  0.063447  1
  Lu  Lu10  1  0.436314  0.063057  0.437181  1
  Lu  Lu11  1  0.063116  0.436247  0.063419  1
  Th  Th12  1  0.601424  0.601422  0.599809  1
  Th  Th13  1  0.601424  0.601417  0.197350  1
  Th  Th14  1  0.603162  0.192541  0.602149  1
  Th  Th15  1  0.192509  0.603182  0.602153  1
  Cd  Cd16  1  0.831094  0.499114  0.834895  1
  Cd  Cd17  1  0.498793  0.830889  0.835160  1
  Hg  Hg18  1  0.836470  0.836530  0.841623  1
  Hg  Hg19  1  0.836472  0.836534  0.485375  1
  Ir  Ir20  1  0.391087  0.391102  0.394821  1
  Ir  Ir21  1  0.391089  0.391104  0.822990  1
  Ir  Ir22  1  0.391805  0.822978  0.392610  1
  Ir  Ir23  1  0.823009  0.391788  0.392603  1
