# generated using pymatgen
data_Hf3Sc(GeRh5)2
_symmetry_space_group_name_H-M   'P 1'
_cell_length_a   4.08527200
_cell_length_b   5.54686335
_cell_length_c   10.91685652
_cell_angle_alpha   90.10487948
_cell_angle_beta   90.00000000
_cell_angle_gamma   90.00000000
_symmetry_Int_Tables_number   1
_chemical_formula_structural   Hf3Sc(GeRh5)2
_chemical_formula_sum   'Hf3 Sc1 Ge2 Rh10'
_cell_volume   247.38041810
_cell_formula_units_Z   1
loop_
 _symmetry_equiv_pos_site_id
 _symmetry_equiv_pos_as_xyz
  1  'x, y, z'
loop_
 _atom_site_type_symbol
 _atom_site_label
 _atom_site_symmetry_multiplicity
 _atom_site_fract_x
 _atom_site_fract_y
 _atom_site_fract_z
 _atom_site_occupancy
  Hf  Hf0  1  0.500000  0.823492  0.361236  1
  Hf  Hf1  1  0.500000  0.677284  0.857239  1
  Hf  Hf2  1  0.500000  0.322683  0.140523  1
  Sc  Sc3  1  0.500000  0.178162  0.640111  1
  Ge  Ge4  1  0.000000  0.496642  0.501630  1
  Ge  Ge5  1  0.000000  0.999776  0.999594  1
  Rh  Rh6  1  0.500000  0.186108  0.894288  1
  Rh  Rh7  1  0.500000  0.813785  0.106804  1
  Rh  Rh8  1  0.500000  0.685406  0.606534  1
  Rh  Rh9  1  0.500000  0.315219  0.391628  1
  Rh  Rh10  1  0.000000  0.432323  0.744998  1
  Rh  Rh11  1  0.000000  0.569300  0.255228  1
  Rh  Rh12  1  0.000000  0.999583  0.499617  1
  Rh  Rh13  1  0.000000  0.500232  0.999957  1
  Rh  Rh14  1  0.000000  0.068274  0.244218  1
  Rh  Rh15  1  0.000000  0.931732  0.756396  1
