# generated using pymatgen
data_Rb12Na8V(SiP4)3
_symmetry_space_group_name_H-M   'P 1'
_cell_length_a   10.50266953
_cell_length_b   10.50267013
_cell_length_c   15.30518274
_cell_angle_alpha   89.96812352
_cell_angle_beta   89.96812523
_cell_angle_gamma   142.65971901
_symmetry_Int_Tables_number   1
_chemical_formula_structural   Rb12Na8V(SiP4)3
_chemical_formula_sum   'Rb12 Na8 V1 Si3 P12'
_cell_volume   1024.00506333
_cell_formula_units_Z   1
loop_
 _symmetry_equiv_pos_site_id
 _symmetry_equiv_pos_as_xyz
  1  'x, y, z'
loop_
 _atom_site_type_symbol
 _atom_site_label
 _atom_site_symmetry_multiplicity
 _atom_site_fract_x
 _atom_site_fract_y
 _atom_site_fract_z
 _atom_site_occupancy
  Rb  Rb0  1  0.943706  0.611252  0.824792  1
  Rb  Rb1  1  0.563048  0.891679  0.327725  1
  Rb  Rb2  1  0.388748  0.056294  0.175208  1
  Rb  Rb3  1  0.065126  0.392323  0.172625  1
  Rb  Rb4  1  0.892929  0.563430  0.328121  1
  Rb  Rb5  1  0.436570  0.107071  0.671879  1
  Rb  Rb6  1  0.607677  0.934874  0.827375  1
  Rb  Rb7  1  0.264859  0.265219  0.318212  1
  Rb  Rb8  1  0.765660  0.768689  0.181702  1
  Rb  Rb9  1  0.231311  0.234340  0.818298  1
  Rb  Rb10  1  0.734781  0.735141  0.681788  1
  Rb  Rb11  1  0.108321  0.436952  0.672275  1
  Na  Na12  1  0.920346  0.079654  0.000000  1
  Na  Na13  1  0.578183  0.421817  0.500000  1
  Na  Na14  1  0.077260  0.922740  0.000000  1
  Na  Na15  1  0.421759  0.578241  0.500000  1
  Na  Na16  1  0.756660  0.243340  0.000000  1
  Na  Na17  1  0.744715  0.255285  0.500000  1
  Na  Na18  1  0.245675  0.754325  0.000000  1
  Na  Na19  1  0.255515  0.744485  0.500000  1
  V  V20  1  0.586389  0.413611  0.000000  1
  Si  Si21  1  0.916167  0.083833  0.500000  1
  Si  Si22  1  0.414912  0.585088  0.000000  1
  Si  Si23  1  0.083519  0.916481  0.500000  1
  P  P24  1  0.852837  0.549801  0.091478  1
  P  P25  1  0.450199  0.147163  0.908522  1
  P  P26  1  0.652343  0.952344  0.589805  1
  P  P27  1  0.952401  0.652606  0.589742  1
  P  P28  1  0.149661  0.452652  0.908902  1
  P  P29  1  0.547348  0.850339  0.091098  1
  P  P30  1  0.347394  0.047599  0.410258  1
  P  P31  1  0.178218  0.178284  0.577706  1
  P  P32  1  0.676319  0.679926  0.923156  1
  P  P33  1  0.320074  0.323681  0.076844  1
  P  P34  1  0.047656  0.347657  0.410195  1
  P  P35  1  0.821716  0.821782  0.422294  1
