# generated using pymatgen
data_NaSn2Se3
_symmetry_space_group_name_H-M   'P 1'
_cell_length_a   7.31952411
_cell_length_b   7.31952518
_cell_length_c   7.31952458
_cell_angle_alpha   146.77329642
_cell_angle_beta   132.66873626
_cell_angle_gamma   59.05148724
_symmetry_Int_Tables_number   1
_chemical_formula_structural   NaSn2Se3
_chemical_formula_sum   'Na1 Sn2 Se3'
_cell_volume   156.63994855
_cell_formula_units_Z   1
loop_
 _symmetry_equiv_pos_site_id
 _symmetry_equiv_pos_as_xyz
  1  'x, y, z'
loop_
 _atom_site_type_symbol
 _atom_site_label
 _atom_site_symmetry_multiplicity
 _atom_site_fract_x
 _atom_site_fract_y
 _atom_site_fract_z
 _atom_site_occupancy
  Na  Na0  1  0.000000  0.000000  0.000000  1
  Sn  Sn1  1  0.664564  0.664564  0.000000  1
  Sn  Sn2  1  0.335436  0.335436  0.000000  1
  Se  Se3  1  0.500000  0.000000  0.500000  1
  Se  Se4  1  0.175266  0.675266  0.500000  1
  Se  Se5  1  0.824734  0.324734  0.500000  1
