# generated using pymatgen
data_Th12In11Bi
_symmetry_space_group_name_H-M   'P 1'
_cell_length_a   10.86484100
_cell_length_b   9.90163858
_cell_length_c   6.56475800
_cell_angle_alpha   90.00003472
_cell_angle_beta   90.00001582
_cell_angle_gamma   90.14238842
_symmetry_Int_Tables_number   1
_chemical_formula_structural   Th12In11Bi
_chemical_formula_sum   'Th12 In11 Bi1'
_cell_volume   706.23270423
_cell_formula_units_Z   1
loop_
 _symmetry_equiv_pos_site_id
 _symmetry_equiv_pos_as_xyz
  1  'x, y, z'
loop_
 _atom_site_type_symbol
 _atom_site_label
 _atom_site_symmetry_multiplicity
 _atom_site_fract_x
 _atom_site_fract_y
 _atom_site_fract_z
 _atom_site_occupancy
  Th  Th0  1  0.614538  0.249117  0.998521  1
  Th  Th1  1  0.387377  0.748823  0.999228  1
  Th  Th2  1  0.314892  0.375797  0.250001  1
  Th  Th3  1  0.882086  0.463405  0.250001  1
  Th  Th4  1  0.683735  0.870765  0.250001  1
  Th  Th5  1  0.116909  0.964918  0.250002  1
  Th  Th6  1  0.614538  0.249116  0.501480  1
  Th  Th7  1  0.387377  0.748823  0.500773  1
  Th  Th8  1  0.881253  0.035124  0.749999  1
  Th  Th9  1  0.315588  0.128117  0.749999  1
  Th  Th10  1  0.119336  0.536530  0.749999  1
  Th  Th11  1  0.683121  0.628037  0.749999  1
  In  In12  1  0.076307  0.250552  0.999293  1
  In  In13  1  0.923480  0.749732  0.000396  1
  In  In14  1  0.857827  0.126549  0.250001  1
  In  In15  1  0.589912  0.551119  0.250001  1
  In  In16  1  0.141542  0.629600  0.250001  1
  In  In17  1  0.076307  0.250552  0.500708  1
  In  In18  1  0.923480  0.749732  0.499605  1
  In  In19  1  0.857483  0.373699  0.749999  1
  In  In20  1  0.411317  0.447084  0.749999  1
  In  In21  1  0.142244  0.872208  0.749999  1
  In  In22  1  0.590573  0.945537  0.749999  1
  Bi  Bi23  1  0.408775  0.055065  0.250001  1
