# generated using pymatgen
data_Ti6Zn3GaO2
_symmetry_space_group_name_H-M   'P 1'
_cell_length_a   6.86117525
_cell_length_b   6.86076645
_cell_length_c   6.86023800
_cell_angle_alpha   90.00000000
_cell_angle_beta   90.00000000
_cell_angle_gamma   89.91932810
_symmetry_Int_Tables_number   1
_chemical_formula_structural   Ti6Zn3GaO2
_chemical_formula_sum   'Ti12 Zn6 Ga2 O4'
_cell_volume   322.93112106
_cell_formula_units_Z   2
loop_
 _symmetry_equiv_pos_site_id
 _symmetry_equiv_pos_as_xyz
  1  'x, y, z'
loop_
 _atom_site_type_symbol
 _atom_site_label
 _atom_site_symmetry_multiplicity
 _atom_site_fract_x
 _atom_site_fract_y
 _atom_site_fract_z
 _atom_site_occupancy
  Ti  Ti0  1  0.790224  0.960340  0.375067  1
  Ti  Ti1  1  0.709776  0.039660  0.875067  1
  Ti  Ti2  1  0.210053  0.460929  0.125145  1
  Ti  Ti3  1  0.289947  0.539071  0.625145  1
  Ti  Ti4  1  0.961258  0.374432  0.790026  1
  Ti  Ti5  1  0.040189  0.875596  0.709920  1
  Ti  Ti6  1  0.459811  0.124404  0.209920  1
  Ti  Ti7  1  0.538742  0.625568  0.290026  1
  Ti  Ti8  1  0.374136  0.790432  0.960838  1
  Ti  Ti9  1  0.875839  0.710403  0.039665  1
  Ti  Ti10  1  0.125864  0.209568  0.460838  1
  Ti  Ti11  1  0.624161  0.289597  0.539665  1
  Zn  Zn12  1  0.821436  0.322441  0.178207  1
  Zn  Zn13  1  0.678564  0.677559  0.678207  1
  Zn  Zn14  1  0.574344  0.430798  0.928766  1
  Zn  Zn15  1  0.431575  0.926357  0.571623  1
  Zn  Zn16  1  0.925656  0.569202  0.428766  1
  Zn  Zn17  1  0.068425  0.073643  0.071623  1
  Ga  Ga18  1  0.177025  0.821909  0.322546  1
  Ga  Ga19  1  0.322975  0.178091  0.822546  1
  O  O20  1  0.873666  0.125598  0.624507  1
  O  O21  1  0.626334  0.874402  0.124507  1
  O  O22  1  0.124408  0.625230  0.873690  1
  O  O23  1  0.375592  0.374770  0.373690  1
