# generated using pymatgen
data_Ho8Lu4InCo4Os
_symmetry_space_group_name_H-M   'P 1'
_cell_length_a   8.20394724
_cell_length_b   8.20394871
_cell_length_c   8.20394819
_cell_angle_alpha   111.44209303
_cell_angle_beta   110.65922738
_cell_angle_gamma   106.35752825
_symmetry_Int_Tables_number   1
_chemical_formula_structural   Ho8Lu4InCo4Os
_chemical_formula_sum   'Ho8 Lu4 In1 Co4 Os1'
_cell_volume   424.10067472
_cell_formula_units_Z   1
loop_
 _symmetry_equiv_pos_site_id
 _symmetry_equiv_pos_as_xyz
  1  'x, y, z'
loop_
 _atom_site_type_symbol
 _atom_site_label
 _atom_site_symmetry_multiplicity
 _atom_site_fract_x
 _atom_site_fract_y
 _atom_site_fract_z
 _atom_site_occupancy
  Ho  Ho0  1  0.418212  0.223710  0.194502  1
  Ho  Ho1  1  0.581788  0.776290  0.805498  1
  Ho  Ho2  1  0.029208  0.223710  0.805498  1
  Ho  Ho3  1  0.970792  0.776290  0.194502  1
  Ho  Ho4  1  0.181502  0.278157  0.459659  1
  Ho  Ho5  1  0.818498  0.721843  0.540341  1
  Ho  Ho6  1  0.181502  0.721843  0.903346  1
  Ho  Ho7  1  0.818498  0.278157  0.096654  1
  Lu  Lu8  1  0.315915  0.623933  0.308016  1
  Lu  Lu9  1  0.684085  0.376067  0.691984  1
  Lu  Lu10  1  0.315915  0.007898  0.691984  1
  Lu  Lu11  1  0.684085  0.992102  0.308016  1
  In  In12  1  0.500000  0.500000  0.000000  1
  Co  Co13  1  0.376325  0.000000  0.376325  1
  Co  Co14  1  0.623675  0.000000  0.623675  1
  Co  Co15  1  0.112388  0.612388  0.500000  1
  Co  Co16  1  0.887612  0.387612  0.500000  1
  Os  Os17  1  0.000000  0.000000  0.000000  1
