# generated using pymatgen
data_Pa2Co5B2
_symmetry_space_group_name_H-M   'P 1'
_cell_length_a   4.99703800
_cell_length_b   4.99703813
_cell_length_c   20.22275700
_cell_angle_alpha   90.00000000
_cell_angle_beta   90.00000000
_cell_angle_gamma   119.99999915
_symmetry_Int_Tables_number   1
_chemical_formula_structural   Pa2Co5B2
_chemical_formula_sum   'Pa8 Co20 B8'
_cell_volume   437.31695352
_cell_formula_units_Z   4
loop_
 _symmetry_equiv_pos_site_id
 _symmetry_equiv_pos_as_xyz
  1  'x, y, z'
loop_
 _atom_site_type_symbol
 _atom_site_label
 _atom_site_symmetry_multiplicity
 _atom_site_fract_x
 _atom_site_fract_y
 _atom_site_fract_z
 _atom_site_occupancy
  Pa  Pa0  1  0.666667  0.333333  0.828511  1
  Pa  Pa1  1  0.666667  0.333333  0.979531  1
  Pa  Pa2  1  0.333333  0.666667  0.479531  1
  Pa  Pa3  1  0.333333  0.666667  0.020469  1
  Pa  Pa4  1  0.333333  0.666667  0.171489  1
  Pa  Pa5  1  0.666667  0.333333  0.520469  1
  Pa  Pa6  1  0.666667  0.333333  0.671489  1
  Pa  Pa7  1  0.333333  0.666667  0.328511  1
  Co  Co8  1  0.165428  0.330855  0.896687  1
  Co  Co9  1  0.165428  0.834572  0.603313  1
  Co  Co10  1  0.834572  0.165428  0.396687  1
  Co  Co11  1  0.334180  0.167091  0.250000  1
  Co  Co12  1  0.330855  0.165428  0.396687  1
  Co  Co13  1  0.834572  0.669145  0.103313  1
  Co  Co14  1  0.834572  0.669145  0.396687  1
  Co  Co15  1  0.832909  0.665820  0.250000  1
  Co  Co16  1  0.669145  0.834572  0.603313  1
  Co  Co17  1  0.665820  0.832909  0.750000  1
  Co  Co18  1  0.834572  0.165428  0.103313  1
  Co  Co19  1  0.669145  0.834572  0.896687  1
  Co  Co20  1  0.000000  0.000000  0.000000  1
  Co  Co21  1  0.167091  0.334180  0.750000  1
  Co  Co22  1  0.167091  0.832909  0.750000  1
  Co  Co23  1  0.832909  0.167091  0.250000  1
  Co  Co24  1  0.330855  0.165428  0.103313  1
  Co  Co25  1  0.000000  0.000000  0.500000  1
  Co  Co26  1  0.165428  0.834572  0.896687  1
  Co  Co27  1  0.165428  0.330855  0.603313  1
  B  B28  1  0.333333  0.666667  0.825138  1
  B  B29  1  0.333333  0.666667  0.674862  1
  B  B30  1  0.666667  0.333333  0.325138  1
  B  B31  1  0.000000  0.000000  0.824246  1
  B  B32  1  0.666667  0.333333  0.174862  1
  B  B33  1  0.000000  0.000000  0.675754  1
  B  B34  1  0.000000  0.000000  0.324246  1
  B  B35  1  0.000000  0.000000  0.175754  1
