# generated using pymatgen
data_Y4Lu(TcO6)2
_symmetry_space_group_name_H-M   'P 1'
_cell_length_a   6.81231117
_cell_length_b   6.81231120
_cell_length_c   7.48532869
_cell_angle_alpha   73.75035677
_cell_angle_beta   73.75035322
_cell_angle_gamma   49.21314117
_symmetry_Int_Tables_number   1
_chemical_formula_structural   Y4Lu(TcO6)2
_chemical_formula_sum   'Y4 Lu1 Tc2 O12'
_cell_volume   250.24728678
_cell_formula_units_Z   1
loop_
 _symmetry_equiv_pos_site_id
 _symmetry_equiv_pos_as_xyz
  1  'x, y, z'
loop_
 _atom_site_type_symbol
 _atom_site_label
 _atom_site_symmetry_multiplicity
 _atom_site_fract_x
 _atom_site_fract_y
 _atom_site_fract_z
 _atom_site_occupancy
  Y  Y0  1  0.695954  0.695954  0.641807  1
  Y  Y1  1  0.304046  0.304046  0.358193  1
  Y  Y2  1  0.683174  0.683174  0.177674  1
  Y  Y3  1  0.316826  0.316826  0.822326  1
  Lu  Lu4  1  0.000000  0.000000  0.500000  1
  Tc  Tc5  1  0.786470  0.213530  0.000000  1
  Tc  Tc6  1  0.213530  0.786470  0.000000  1
  O  O7  1  0.001717  0.001717  0.206742  1
  O  O8  1  0.998283  0.998283  0.793258  1
  O  O9  1  0.583215  0.086747  0.084972  1
  O  O10  1  0.416785  0.913253  0.915028  1
  O  O11  1  0.913253  0.416785  0.915028  1
  O  O12  1  0.086747  0.583215  0.084972  1
  O  O13  1  0.498490  0.498490  0.178154  1
  O  O14  1  0.501510  0.501510  0.821846  1
  O  O15  1  0.398900  0.901572  0.429147  1
  O  O16  1  0.601100  0.098428  0.570853  1
  O  O17  1  0.098428  0.601100  0.570853  1
  O  O18  1  0.901572  0.398900  0.429147  1
