# generated using pymatgen
data_CsLuHfS4
_symmetry_space_group_name_H-M   'P 1'
_cell_length_a   3.81655600
_cell_length_b   6.45437373
_cell_length_c   8.54728000
_cell_angle_alpha   75.47946137
_cell_angle_beta   90.00000000
_cell_angle_gamma   90.00000000
_symmetry_Int_Tables_number   1
_chemical_formula_structural   CsLuHfS4
_chemical_formula_sum   'Cs1 Lu1 Hf1 S4'
_cell_volume   203.82384004
_cell_formula_units_Z   1
loop_
 _symmetry_equiv_pos_site_id
 _symmetry_equiv_pos_as_xyz
  1  'x, y, z'
loop_
 _atom_site_type_symbol
 _atom_site_label
 _atom_site_symmetry_multiplicity
 _atom_site_fract_x
 _atom_site_fract_y
 _atom_site_fract_z
 _atom_site_occupancy
  Cs  Cs0  1  0.000000  0.500000  0.500000  1
  Lu  Lu1  1  0.500000  0.500000  0.000000  1
  Hf  Hf2  1  0.000000  0.000000  0.000000  1
  S  S3  1  0.500000  0.790441  0.174546  1
  S  S4  1  0.000000  0.260990  0.175279  1
  S  S5  1  0.500000  0.209559  0.825454  1
  S  S6  1  0.000000  0.739010  0.824721  1
