# generated using pymatgen
data_Rb6Li4TiSiAs6
_symmetry_space_group_name_H-M   'P 1'
_cell_length_a   10.15706300
_cell_length_b   10.15706143
_cell_length_c   15.86180200
_cell_angle_alpha   90.00000000
_cell_angle_beta   90.00000000
_cell_angle_gamma   142.72308079
_symmetry_Int_Tables_number   1
_chemical_formula_structural   Rb6Li4TiSiAs6
_chemical_formula_sum   'Rb12 Li8 Ti2 Si2 As12'
_cell_volume   991.11331543
_cell_formula_units_Z   2
loop_
 _symmetry_equiv_pos_site_id
 _symmetry_equiv_pos_as_xyz
  1  'x, y, z'
loop_
 _atom_site_type_symbol
 _atom_site_label
 _atom_site_symmetry_multiplicity
 _atom_site_fract_x
 _atom_site_fract_y
 _atom_site_fract_z
 _atom_site_occupancy
  Rb  Rb0  1  0.106157  0.448785  0.669976  1
  Rb  Rb1  1  0.718283  0.716224  0.678952  1
  Rb  Rb2  1  0.216224  0.218283  0.821048  1
  Rb  Rb3  1  0.781717  0.783776  0.178952  1
  Rb  Rb4  1  0.948785  0.606157  0.830024  1
  Rb  Rb5  1  0.551215  0.893843  0.330024  1
  Rb  Rb6  1  0.393843  0.051215  0.169976  1
  Rb  Rb7  1  0.057990  0.395496  0.168746  1
  Rb  Rb8  1  0.895496  0.557990  0.331254  1
  Rb  Rb9  1  0.442010  0.104504  0.668746  1
  Rb  Rb10  1  0.604504  0.942011  0.831254  1
  Rb  Rb11  1  0.283776  0.281717  0.321048  1
  Li  Li12  1  0.916307  0.083693  0.000000  1
  Li  Li13  1  0.583693  0.416307  0.500000  1
  Li  Li14  1  0.080965  0.919035  0.000000  1
  Li  Li15  1  0.419035  0.580965  0.500000  1
  Li  Li16  1  0.751014  0.248986  0.000000  1
  Li  Li17  1  0.748986  0.251014  0.500000  1
  Li  Li18  1  0.250146  0.749854  0.000000  1
  Li  Li19  1  0.249854  0.750146  0.500000  1
  Ti  Ti20  1  0.916993  0.083007  0.500000  1
  Ti  Ti21  1  0.583007  0.416993  0.000000  1
  Si  Si22  1  0.084696  0.915304  0.500000  1
  Si  Si23  1  0.415304  0.584696  0.000000  1
  As  As24  1  0.883804  0.565526  0.086644  1
  As  As25  1  0.434474  0.116196  0.913356  1
  As  As26  1  0.616196  0.934474  0.586644  1
  As  As27  1  0.936133  0.622304  0.585926  1
  As  As28  1  0.122304  0.436133  0.914074  1
  As  As29  1  0.563867  0.877696  0.085926  1
  As  As30  1  0.377696  0.063867  0.414074  1
  As  As31  1  0.217614  0.212385  0.583983  1
  As  As32  1  0.712385  0.717614  0.916017  1
  As  As33  1  0.282386  0.287615  0.083983  1
  As  As34  1  0.065526  0.383804  0.413356  1
  As  As35  1  0.787615  0.782386  0.416017  1
