# generated using pymatgen
data_Y3Tm5Pt4
_symmetry_space_group_name_H-M   'P 1'
_cell_length_a   4.74496000
_cell_length_b   7.10444300
_cell_length_c   8.71223233
_cell_angle_alpha   90.03381010
_cell_angle_beta   90.00000000
_cell_angle_gamma   90.00000000
_symmetry_Int_Tables_number   1
_chemical_formula_structural   Y3Tm5Pt4
_chemical_formula_sum   'Y3 Tm5 Pt4'
_cell_volume   293.69189604
_cell_formula_units_Z   1
loop_
 _symmetry_equiv_pos_site_id
 _symmetry_equiv_pos_as_xyz
  1  'x, y, z'
loop_
 _atom_site_type_symbol
 _atom_site_label
 _atom_site_symmetry_multiplicity
 _atom_site_fract_x
 _atom_site_fract_y
 _atom_site_fract_z
 _atom_site_occupancy
  Y  Y0  1  0.250000  0.510582  0.170912  1
  Y  Y1  1  0.750000  0.989248  0.669883  1
  Y  Y2  1  0.750000  0.489412  0.829644  1
  Tm  Tm3  1  0.250000  0.143676  0.921619  1
  Tm  Tm4  1  0.250000  0.644382  0.578403  1
  Tm  Tm5  1  0.750000  0.856584  0.079960  1
  Tm  Tm6  1  0.750000  0.355225  0.420955  1
  Tm  Tm7  1  0.250000  0.010663  0.331583  1
  Pt  Pt8  1  0.250000  0.243344  0.591698  1
  Pt  Pt9  1  0.250000  0.744217  0.906129  1
  Pt  Pt10  1  0.750000  0.757412  0.405289  1
  Pt  Pt11  1  0.750000  0.255253  0.093924  1
