# generated using pymatgen
data_MgB4Ir4Pd3
_symmetry_space_group_name_H-M   'P 1'
_cell_length_a   6.90882771
_cell_length_b   6.16066794
_cell_length_c   5.56610335
_cell_angle_alpha   69.93808503
_cell_angle_beta   57.43218147
_cell_angle_gamma   50.29855715
_symmetry_Int_Tables_number   1
_chemical_formula_structural   MgB4Ir4Pd3
_chemical_formula_sum   'Mg1 B4 Ir4 Pd3'
_cell_volume   153.61272944
_cell_formula_units_Z   1
loop_
 _symmetry_equiv_pos_site_id
 _symmetry_equiv_pos_as_xyz
  1  'x, y, z'
loop_
 _atom_site_type_symbol
 _atom_site_label
 _atom_site_symmetry_multiplicity
 _atom_site_fract_x
 _atom_site_fract_y
 _atom_site_fract_z
 _atom_site_occupancy
  Mg  Mg0  1  0.941278  0.774227  0.401803  1
  B  B1  1  0.052345  0.991899  0.576789  1
  B  B2  1  0.675923  0.837632  0.182060  1
  B  B3  1  0.421001  0.563141  0.956101  1
  B  B4  1  0.271251  0.199800  0.846062  1
  Ir  Ir5  1  0.099871  0.638356  0.873778  1
  Ir  Ir6  1  0.372596  0.853432  0.147466  1
  Ir  Ir7  1  0.610153  0.152140  0.852851  1
  Ir  Ir8  1  0.393842  0.875402  0.627025  1
  Pd  Pd9  1  0.470045  0.302544  0.365949  1
  Pd  Pd10  1  0.863207  0.369599  0.317486  1
  Pd  Pd11  1  0.883687  0.386626  0.797430  1
