# generated using pymatgen
data_Yb3ErFeOs7
_symmetry_space_group_name_H-M   'P 1'
_cell_length_a   5.27249755
_cell_length_b   5.30749858
_cell_length_c   8.70185016
_cell_angle_alpha   90.00928797
_cell_angle_beta   90.04561992
_cell_angle_gamma   120.22837318
_symmetry_Int_Tables_number   1
_chemical_formula_structural   Yb3ErFeOs7
_chemical_formula_sum   'Yb3 Er1 Fe1 Os7'
_cell_volume   210.39928182
_cell_formula_units_Z   1
loop_
 _symmetry_equiv_pos_site_id
 _symmetry_equiv_pos_as_xyz
  1  'x, y, z'
loop_
 _atom_site_type_symbol
 _atom_site_label
 _atom_site_symmetry_multiplicity
 _atom_site_fract_x
 _atom_site_fract_y
 _atom_site_fract_z
 _atom_site_occupancy
  Yb  Yb0  1  0.335107  0.667493  0.430769  1
  Yb  Yb1  1  0.333960  0.667026  0.064555  1
  Yb  Yb2  1  0.659950  0.330033  0.940340  1
  Er  Er3  1  0.662504  0.331172  0.566003  1
  Fe  Fe4  1  0.346113  0.173032  0.251580  1
  Os  Os5  1  0.991127  0.995476  0.493651  1
  Os  Os6  1  0.986359  0.993226  0.005052  1
  Os  Os7  1  0.172810  0.346562  0.748805  1
  Os  Os8  1  0.172750  0.826292  0.748820  1
  Os  Os9  1  0.661626  0.830814  0.749879  1
  Os  Os10  1  0.838846  0.657131  0.250287  1
  Os  Os11  1  0.838848  0.181745  0.250260  1
