# generated using pymatgen
data_TbDyGe2(Ru2C)2
_symmetry_space_group_name_H-M   'P 1'
_cell_length_a   5.92745200
_cell_length_b   5.92745214
_cell_length_c   7.28394900
_cell_angle_alpha   90.00000000
_cell_angle_beta   90.00000000
_cell_angle_gamma   141.62363740
_symmetry_Int_Tables_number   1
_chemical_formula_structural   TbDyGe2(Ru2C)2
_chemical_formula_sum   'Tb1 Dy1 Ge2 Ru4 C2'
_cell_volume   158.88093439
_cell_formula_units_Z   1
loop_
 _symmetry_equiv_pos_site_id
 _symmetry_equiv_pos_as_xyz
  1  'x, y, z'
loop_
 _atom_site_type_symbol
 _atom_site_label
 _atom_site_symmetry_multiplicity
 _atom_site_fract_x
 _atom_site_fract_y
 _atom_site_fract_z
 _atom_site_occupancy
  Tb  Tb0  1  0.545803  0.454197  0.250000  1
  Dy  Dy1  1  0.454411  0.545589  0.750000  1
  Ge  Ge2  1  0.267152  0.732848  0.250000  1
  Ge  Ge3  1  0.733096  0.266904  0.750000  1
  Ru  Ru4  1  0.838279  0.161721  0.055928  1
  Ru  Ru5  1  0.161636  0.838364  0.943145  1
  Ru  Ru6  1  0.161636  0.838364  0.556855  1
  Ru  Ru7  1  0.838279  0.161721  0.444072  1
  C  C8  1  0.999852  0.000148  0.998529  1
  C  C9  1  0.999852  0.000148  0.501471  1
