# generated using pymatgen
data_ScZn5B5Ir11
_symmetry_space_group_name_H-M   'P 1'
_cell_length_a   2.91347900
_cell_length_b   8.53167103
_cell_length_c   11.43546161
_cell_angle_alpha   89.68127420
_cell_angle_beta   90.00000000
_cell_angle_gamma   90.00000000
_symmetry_Int_Tables_number   1
_chemical_formula_structural   ScZn5B5Ir11
_chemical_formula_sum   'Sc1 Zn5 B5 Ir11'
_cell_volume   284.24509174
_cell_formula_units_Z   1
loop_
 _symmetry_equiv_pos_site_id
 _symmetry_equiv_pos_as_xyz
  1  'x, y, z'
loop_
 _atom_site_type_symbol
 _atom_site_label
 _atom_site_symmetry_multiplicity
 _atom_site_fract_x
 _atom_site_fract_y
 _atom_site_fract_z
 _atom_site_occupancy
  Sc  Sc0  1  0.500000  0.999304  0.196781  1
  Zn  Zn1  1  0.500000  0.350287  0.504091  1
  Zn  Zn2  1  0.500000  0.642552  0.500285  1
  Zn  Zn3  1  0.500000  0.998770  0.501236  1
  Zn  Zn4  1  0.500000  0.512651  0.000113  1
  Zn  Zn5  1  0.500000  0.986502  0.792995  1
  B  B6  1  0.500000  0.317828  0.268554  1
  B  B7  1  0.500000  0.687507  0.255221  1
  B  B8  1  0.500000  0.682561  0.744335  1
  B  B9  1  0.500000  0.316052  0.735748  1
  B  B10  1  0.500000  0.177781  0.995630  1
  Ir  Ir11  1  0.000000  0.501467  0.315088  1
  Ir  Ir12  1  0.000000  0.499292  0.683893  1
  Ir  Ir13  1  0.000000  0.174527  0.359743  1
  Ir  Ir14  1  0.000000  0.823813  0.358587  1
  Ir  Ir15  1  0.000000  0.820924  0.641493  1
  Ir  Ir16  1  0.000000  0.169289  0.649994  1
  Ir  Ir17  1  0.000000  0.282914  0.124688  1
  Ir  Ir18  1  0.000000  0.727602  0.119804  1
  Ir  Ir19  1  0.000000  0.722705  0.880735  1
  Ir  Ir20  1  0.000000  0.300076  0.881421  1
  Ir  Ir21  1  0.000000  0.997594  0.989563  1
