# generated using pymatgen
data_CeFe(CoSb4)3
_symmetry_space_group_name_H-M   'P 1'
_cell_length_a   7.95643813
_cell_length_b   7.95643766
_cell_length_c   7.95643804
_cell_angle_alpha   109.46575972
_cell_angle_beta   109.46574943
_cell_angle_gamma   109.46575952
_symmetry_Int_Tables_number   1
_chemical_formula_structural   CeFe(CoSb4)3
_chemical_formula_sum   'Ce1 Fe1 Co3 Sb12'
_cell_volume   387.81265924
_cell_formula_units_Z   1
loop_
 _symmetry_equiv_pos_site_id
 _symmetry_equiv_pos_as_xyz
  1  'x, y, z'
loop_
 _atom_site_type_symbol
 _atom_site_label
 _atom_site_symmetry_multiplicity
 _atom_site_fract_x
 _atom_site_fract_y
 _atom_site_fract_z
 _atom_site_occupancy
  Ce  Ce0  1  0.000000  0.000000  0.000000  1
  Fe  Fe1  1  0.500000  0.500000  0.500000  1
  Co  Co2  1  0.500000  0.000000  0.000000  1
  Co  Co3  1  0.000000  0.000000  0.500000  1
  Co  Co4  1  0.000000  0.500000  0.000000  1
  Sb  Sb5  1  0.161660  0.827739  0.666257  1
  Sb  Sb6  1  0.838340  0.172261  0.333743  1
  Sb  Sb7  1  0.162782  0.495588  0.334176  1
  Sb  Sb8  1  0.837218  0.504412  0.665824  1
  Sb  Sb9  1  0.666257  0.161660  0.827739  1
  Sb  Sb10  1  0.333743  0.838340  0.172261  1
  Sb  Sb11  1  0.334176  0.162782  0.495588  1
  Sb  Sb12  1  0.665824  0.837218  0.504412  1
  Sb  Sb13  1  0.827739  0.666257  0.161660  1
  Sb  Sb14  1  0.172261  0.333743  0.838340  1
  Sb  Sb15  1  0.495588  0.334176  0.162782  1
  Sb  Sb16  1  0.504412  0.665824  0.837218  1
