# generated using pymatgen
data_Ba3Sc2V(Ga2O5)4
_symmetry_space_group_name_H-M   'P 1'
_cell_length_a   10.17916873
_cell_length_b   10.17916743
_cell_length_c   5.23635867
_cell_angle_alpha   75.63924591
_cell_angle_beta   75.63925027
_cell_angle_gamma   72.12599058
_symmetry_Int_Tables_number   1
_chemical_formula_structural   Ba3Sc2V(Ga2O5)4
_chemical_formula_sum   'Ba3 Sc2 V1 Ga8 O20'
_cell_volume   491.47328887
_cell_formula_units_Z   1
loop_
 _symmetry_equiv_pos_site_id
 _symmetry_equiv_pos_as_xyz
  1  'x, y, z'
loop_
 _atom_site_type_symbol
 _atom_site_label
 _atom_site_symmetry_multiplicity
 _atom_site_fract_x
 _atom_site_fract_y
 _atom_site_fract_z
 _atom_site_occupancy
  Ba  Ba0  1  0.219197  0.219197  0.269403  1
  Ba  Ba1  1  0.780803  0.780803  0.730597  1
  Ba  Ba2  1  0.500000  0.500000  0.000000  1
  Sc  Sc3  1  0.140432  0.859568  0.500000  1
  Sc  Sc4  1  0.859568  0.140432  0.500000  1
  V  V5  1  0.000000  0.000000  0.000000  1
  Ga  Ga6  1  0.355143  0.925479  0.837521  1
  Ga  Ga7  1  0.644857  0.074521  0.162479  1
  Ga  Ga8  1  0.074521  0.644857  0.162479  1
  Ga  Ga9  1  0.925479  0.355143  0.837521  1
  Ga  Ga10  1  0.485851  0.214706  0.660142  1
  Ga  Ga11  1  0.514149  0.785294  0.339858  1
  Ga  Ga12  1  0.785294  0.514149  0.339858  1
  Ga  Ga13  1  0.214706  0.485851  0.660142  1
  O  O14  1  0.497785  0.788518  0.990992  1
  O  O15  1  0.502215  0.211482  0.009008  1
  O  O16  1  0.211482  0.502215  0.009008  1
  O  O17  1  0.788518  0.497785  0.990992  1
  O  O18  1  0.372165  0.102742  0.669667  1
  O  O19  1  0.627835  0.897258  0.330333  1
  O  O20  1  0.897258  0.627835  0.330333  1
  O  O21  1  0.102742  0.372165  0.669667  1
  O  O22  1  0.061209  0.061209  0.633190  1
  O  O23  1  0.938791  0.938791  0.366810  1
  O  O24  1  0.660122  0.160586  0.433255  1
  O  O25  1  0.339878  0.839414  0.566745  1
  O  O26  1  0.839414  0.339878  0.566745  1
  O  O27  1  0.160586  0.660122  0.433255  1
  O  O28  1  0.192084  0.955041  0.097965  1
  O  O29  1  0.807916  0.044959  0.902035  1
  O  O30  1  0.044959  0.807916  0.902035  1
  O  O31  1  0.955041  0.192084  0.097965  1
  O  O32  1  0.398826  0.398826  0.521006  1
  O  O33  1  0.601174  0.601174  0.478994  1
