# generated using pymatgen
data_Th3Zn2AuC
_symmetry_space_group_name_H-M   'P 1'
_cell_length_a   9.49277449
_cell_length_b   9.49277445
_cell_length_c   9.49277400
_cell_angle_alpha   60.00000157
_cell_angle_beta   60.00000170
_cell_angle_gamma   60.00000100
_symmetry_Int_Tables_number   1
_chemical_formula_structural   Th3Zn2AuC
_chemical_formula_sum   'Th12 Zn8 Au4 C4'
_cell_volume   604.87339624
_cell_formula_units_Z   4
loop_
 _symmetry_equiv_pos_site_id
 _symmetry_equiv_pos_as_xyz
  1  'x, y, z'
loop_
 _atom_site_type_symbol
 _atom_site_label
 _atom_site_symmetry_multiplicity
 _atom_site_fract_x
 _atom_site_fract_y
 _atom_site_fract_z
 _atom_site_occupancy
  Th  Th0  1  0.444494  0.444494  0.055506  1
  Th  Th1  1  0.055506  0.444494  0.055506  1
  Th  Th2  1  0.444494  0.055506  0.055506  1
  Th  Th3  1  0.055506  0.055506  0.444494  1
  Th  Th4  1  0.444494  0.055506  0.444494  1
  Th  Th5  1  0.055506  0.444494  0.444494  1
  Th  Th6  1  0.805506  0.805506  0.194494  1
  Th  Th7  1  0.194494  0.805506  0.194494  1
  Th  Th8  1  0.805506  0.194494  0.194494  1
  Th  Th9  1  0.194494  0.194494  0.805506  1
  Th  Th10  1  0.805506  0.194494  0.805506  1
  Th  Th11  1  0.194494  0.805506  0.805506  1
  Zn  Zn12  1  0.826401  0.826401  0.520798  1
  Zn  Zn13  1  0.826401  0.520798  0.826401  1
  Zn  Zn14  1  0.520798  0.826401  0.826401  1
  Zn  Zn15  1  0.826401  0.826401  0.826401  1
  Zn  Zn16  1  0.423599  0.423599  0.729202  1
  Zn  Zn17  1  0.423599  0.729202  0.423599  1
  Zn  Zn18  1  0.729202  0.423599  0.423599  1
  Zn  Zn19  1  0.423599  0.423599  0.423599  1
  Au  Au20  1  0.625000  0.625000  0.125000  1
  Au  Au21  1  0.625000  0.125000  0.625000  1
  Au  Au22  1  0.125000  0.625000  0.625000  1
  Au  Au23  1  0.625000  0.625000  0.625000  1
  C  C24  1  0.125000  0.125000  0.625000  1
  C  C25  1  0.125000  0.625000  0.125000  1
  C  C26  1  0.625000  0.125000  0.125000  1
  C  C27  1  0.125000  0.125000  0.125000  1
