# generated using pymatgen
data_Tm3Tl2Pt
_symmetry_space_group_name_H-M   'P 1'
_cell_length_a   3.50629100
_cell_length_b   3.50629100
_cell_length_c   12.04550600
_cell_angle_alpha   90.00000000
_cell_angle_beta   90.00000000
_cell_angle_gamma   90.00000000
_symmetry_Int_Tables_number   1
_chemical_formula_structural   Tm3Tl2Pt
_chemical_formula_sum   'Tm3 Tl2 Pt1'
_cell_volume   148.08837317
_cell_formula_units_Z   1
loop_
 _symmetry_equiv_pos_site_id
 _symmetry_equiv_pos_as_xyz
  1  'x, y, z'
loop_
 _atom_site_type_symbol
 _atom_site_label
 _atom_site_symmetry_multiplicity
 _atom_site_fract_x
 _atom_site_fract_y
 _atom_site_fract_z
 _atom_site_occupancy
  Tm  Tm0  1  0.499999  0.499999  0.000000  1
  Tm  Tm1  1  0.499999  0.499999  0.363239  1
  Tm  Tm2  1  0.499999  0.499999  0.636761  1
  Tl  Tl3  1  0.000000  0.000000  0.177514  1
  Tl  Tl4  1  0.000000  0.000000  0.822486  1
  Pt  Pt5  1  0.000000  0.000000  0.500000  1
