# generated using pymatgen
data_Th6SiAu7
_symmetry_space_group_name_H-M   'P 1'
_cell_length_a   8.27051483
_cell_length_b   8.27051517
_cell_length_c   8.27051544
_cell_angle_alpha   113.85714562
_cell_angle_beta   113.85714311
_cell_angle_gamma   113.85712777
_symmetry_Int_Tables_number   1
_chemical_formula_structural   Th6SiAu7
_chemical_formula_sum   'Th6 Si1 Au7'
_cell_volume   347.31175892
_cell_formula_units_Z   1
loop_
 _symmetry_equiv_pos_site_id
 _symmetry_equiv_pos_as_xyz
  1  'x, y, z'
loop_
 _atom_site_type_symbol
 _atom_site_label
 _atom_site_symmetry_multiplicity
 _atom_site_fract_x
 _atom_site_fract_y
 _atom_site_fract_z
 _atom_site_occupancy
  Th  Th0  1  0.025670  0.393170  0.275618  1
  Th  Th1  1  0.393170  0.275618  0.025670  1
  Th  Th2  1  0.724382  0.974330  0.606830  1
  Th  Th3  1  0.275618  0.025670  0.393170  1
  Th  Th4  1  0.606830  0.724382  0.974330  1
  Th  Th5  1  0.974330  0.606830  0.724382  1
  Si  Si6  1  0.000000  0.000000  0.000000  1
  Au  Au7  1  0.500000  0.500000  0.500000  1
  Au  Au8  1  0.435007  0.933261  0.766765  1
  Au  Au9  1  0.933261  0.766765  0.435007  1
  Au  Au10  1  0.233235  0.564993  0.066739  1
  Au  Au11  1  0.766765  0.435007  0.933261  1
  Au  Au12  1  0.066739  0.233235  0.564993  1
  Au  Au13  1  0.564993  0.066739  0.233235  1
