# generated using pymatgen
data_DyHfP2
_symmetry_space_group_name_H-M   'P 1'
_cell_length_a   6.72857511
_cell_length_b   6.72857528
_cell_length_c   6.72857421
_cell_angle_alpha   32.96777674
_cell_angle_beta   32.96776942
_cell_angle_gamma   32.96777774
_symmetry_Int_Tables_number   1
_chemical_formula_structural   DyHfP2
_chemical_formula_sum   'Dy1 Hf1 P2'
_cell_volume   80.27112353
_cell_formula_units_Z   1
loop_
 _symmetry_equiv_pos_site_id
 _symmetry_equiv_pos_as_xyz
  1  'x, y, z'
loop_
 _atom_site_type_symbol
 _atom_site_label
 _atom_site_symmetry_multiplicity
 _atom_site_fract_x
 _atom_site_fract_y
 _atom_site_fract_z
 _atom_site_occupancy
  Dy  Dy0  1  0.500000  0.500000  0.500000  1
  Hf  Hf1  1  0.000000  0.000000  0.000000  1
  P  P2  1  0.255783  0.255783  0.255783  1
  P  P3  1  0.744217  0.744217  0.744217  1
