# generated using pymatgen
data_Dy9Y(SiB4)4
_symmetry_space_group_name_H-M   'P 1'
_cell_length_a   7.23059900
_cell_length_b   7.23059900
_cell_length_c   8.09620300
_cell_angle_alpha   90.00000000
_cell_angle_beta   90.00000000
_cell_angle_gamma   90.00000000
_symmetry_Int_Tables_number   1
_chemical_formula_structural   Dy9Y(SiB4)4
_chemical_formula_sum   'Dy9 Y1 Si4 B16'
_cell_volume   423.28213829
_cell_formula_units_Z   1
loop_
 _symmetry_equiv_pos_site_id
 _symmetry_equiv_pos_as_xyz
  1  'x, y, z'
loop_
 _atom_site_type_symbol
 _atom_site_label
 _atom_site_symmetry_multiplicity
 _atom_site_fract_x
 _atom_site_fract_y
 _atom_site_fract_z
 _atom_site_occupancy
  Dy  Dy0  1  0.680369  0.180245  0.224118  1
  Dy  Dy1  1  0.319631  0.819755  0.775882  1
  Dy  Dy2  1  0.319631  0.819755  0.224118  1
  Dy  Dy3  1  0.819755  0.680369  0.224118  1
  Dy  Dy4  1  0.819755  0.680369  0.775882  1
  Dy  Dy5  1  0.680369  0.180245  0.775882  1
  Dy  Dy6  1  0.180245  0.319631  0.775882  1
  Dy  Dy7  1  0.180245  0.319631  0.224118  1
  Dy  Dy8  1  0.000000  0.000000  0.500000  1
  Y  Y9  1  0.500000  0.500000  0.500000  1
  Si  Si10  1  0.114810  0.614980  0.500000  1
  Si  Si11  1  0.885190  0.385020  0.500000  1
  Si  Si12  1  0.385020  0.114810  0.500000  1
  Si  Si13  1  0.614980  0.885190  0.500000  1
  B  B14  1  0.172431  0.039125  0.000000  1
  B  B15  1  0.827569  0.960875  0.000000  1
  B  B16  1  0.960875  0.172431  0.000000  1
  B  B17  1  0.327534  0.539064  0.000000  1
  B  B18  1  0.039125  0.827569  0.000000  1
  B  B19  1  0.672466  0.460936  0.000000  1
  B  B20  1  0.539064  0.672466  0.000000  1
  B  B21  1  0.460936  0.327534  0.000000  1
  B  B22  1  0.089923  0.589941  0.000000  1
  B  B23  1  0.910077  0.410059  0.000000  1
  B  B24  1  0.410059  0.089923  0.000000  1
  B  B25  1  0.589941  0.910077  0.000000  1
  B  B26  1  0.000000  0.000000  0.162208  1
  B  B27  1  0.000000  0.000000  0.837792  1
  B  B28  1  0.500000  0.500000  0.837920  1
  B  B29  1  0.500000  0.500000  0.162080  1
