# generated using pymatgen
data_La2Dy(LuRu)2
_symmetry_space_group_name_H-M   'P 1'
_cell_length_a   6.46717547
_cell_length_b   7.24300927
_cell_length_c   8.68230002
_cell_angle_alpha   96.67936957
_cell_angle_beta   111.65554408
_cell_angle_gamma   89.98635042
_symmetry_Int_Tables_number   1
_chemical_formula_structural   La2Dy(LuRu)2
_chemical_formula_sum   'La4 Dy2 Lu4 Ru4'
_cell_volume   375.02268790
_cell_formula_units_Z   2
loop_
 _symmetry_equiv_pos_site_id
 _symmetry_equiv_pos_as_xyz
  1  'x, y, z'
loop_
 _atom_site_type_symbol
 _atom_site_label
 _atom_site_symmetry_multiplicity
 _atom_site_fract_x
 _atom_site_fract_y
 _atom_site_fract_z
 _atom_site_occupancy
  La  La0  1  0.520589  0.088304  0.803013  1
  La  La1  1  0.479411  0.911696  0.196987  1
  La  La2  1  0.718949  0.411412  0.197254  1
  La  La3  1  0.281051  0.588588  0.802746  1
  Dy  Dy4  1  0.299795  0.313407  0.429900  1
  Dy  Dy5  1  0.700205  0.686593  0.570100  1
  Lu  Lu6  1  0.871642  0.185539  0.571021  1
  Lu  Lu7  1  0.128358  0.814461  0.428979  1
  Lu  Lu8  1  0.074171  0.249920  0.999232  1
  Lu  Lu9  1  0.925829  0.750080  0.000768  1
  Ru  Ru10  1  0.320665  0.581913  0.225015  1
  Ru  Ru11  1  0.679335  0.418087  0.774985  1
  Ru  Ru12  1  0.096629  0.919605  0.774591  1
  Ru  Ru13  1  0.903371  0.080395  0.225409  1
