# generated using pymatgen
data_Nd2V2Ni10P7
_symmetry_space_group_name_H-M   'P 1'
_cell_length_a   9.17887300
_cell_length_b   9.16213963
_cell_length_c   3.72141400
_cell_angle_alpha   90.00000000
_cell_angle_beta   90.00000000
_cell_angle_gamma   120.01250496
_symmetry_Int_Tables_number   1
_chemical_formula_structural   Nd2V2Ni10P7
_chemical_formula_sum   'Nd2 V2 Ni10 P7'
_cell_volume   271.00053438
_cell_formula_units_Z   1
loop_
 _symmetry_equiv_pos_site_id
 _symmetry_equiv_pos_as_xyz
  1  'x, y, z'
loop_
 _atom_site_type_symbol
 _atom_site_label
 _atom_site_symmetry_multiplicity
 _atom_site_fract_x
 _atom_site_fract_y
 _atom_site_fract_z
 _atom_site_occupancy
  Nd  Nd0  1  0.337276  0.667624  0.000000  1
  Nd  Nd1  1  0.665678  0.333151  0.500001  1
  V  V2  1  0.211944  0.098465  0.500001  1
  V  V3  1  0.900274  0.112795  0.500001  1
  Ni  Ni4  1  0.428658  0.060048  0.000000  1
  Ni  Ni5  1  0.153111  0.280444  0.000000  1
  Ni  Ni6  1  0.939004  0.369172  0.000000  1
  Ni  Ni7  1  0.631101  0.567507  0.000000  1
  Ni  Ni8  1  0.122181  0.844594  0.000000  1
  Ni  Ni9  1  0.724598  0.874770  0.000000  1
  Ni  Ni10  1  0.383883  0.434127  0.500001  1
  Ni  Ni11  1  0.047832  0.617328  0.500001  1
  Ni  Ni12  1  0.883854  0.787225  0.500001  1
  Ni  Ni13  1  0.565726  0.949959  0.500001  1
  P  P14  1  0.000901  0.999939  0.000000  1
  P  P15  1  0.702445  0.106705  0.000000  1
  P  P16  1  0.404173  0.297621  0.000000  1
  P  P17  1  0.891624  0.595121  0.000000  1
  P  P18  1  0.108209  0.399936  0.500001  1
  P  P19  1  0.604912  0.710939  0.500001  1
  P  P20  1  0.292618  0.892532  0.500001  1
