# generated using pymatgen
data_MgNb3(Co3Os)2
_symmetry_space_group_name_H-M   'P 1'
_cell_length_a   4.81758800
_cell_length_b   4.81758699
_cell_length_c   8.08046400
_cell_angle_alpha   90.00000000
_cell_angle_beta   90.00000000
_cell_angle_gamma   119.99999323
_symmetry_Int_Tables_number   1
_chemical_formula_structural   MgNb3(Co3Os)2
_chemical_formula_sum   'Mg1 Nb3 Co6 Os2'
_cell_volume   162.41501722
_cell_formula_units_Z   1
loop_
 _symmetry_equiv_pos_site_id
 _symmetry_equiv_pos_as_xyz
  1  'x, y, z'
loop_
 _atom_site_type_symbol
 _atom_site_label
 _atom_site_symmetry_multiplicity
 _atom_site_fract_x
 _atom_site_fract_y
 _atom_site_fract_z
 _atom_site_occupancy
  Mg  Mg0  1  0.333333  0.666667  0.440821  1
  Nb  Nb1  1  0.666667  0.333333  0.562428  1
  Nb  Nb2  1  0.666667  0.333333  0.919858  1
  Nb  Nb3  1  0.333333  0.666667  0.078432  1
  Co  Co4  1  0.828792  0.171208  0.249380  1
  Co  Co5  1  0.828792  0.657586  0.249380  1
  Co  Co6  1  0.342414  0.171208  0.249380  1
  Co  Co7  1  0.171402  0.828598  0.751324  1
  Co  Co8  1  0.171402  0.342802  0.751324  1
  Co  Co9  1  0.657198  0.828598  0.751324  1
  Os  Os10  1  0.000000  0.000000  0.498426  1
  Os  Os11  1  0.000000  0.000000  0.997922  1
