# generated using pymatgen
data_Er8Ta12Si15Sn
_symmetry_space_group_name_H-M   'P 1'
_cell_length_a   7.08180886
_cell_length_b   7.04458883
_cell_length_c   13.01506206
_cell_angle_alpha   90.05599863
_cell_angle_beta   89.77628476
_cell_angle_gamma   89.82999773
_symmetry_Int_Tables_number   1
_chemical_formula_structural   Er8Ta12Si15Sn
_chemical_formula_sum   'Er8 Ta12 Si15 Sn1'
_cell_volume   649.29290809
_cell_formula_units_Z   1
loop_
 _symmetry_equiv_pos_site_id
 _symmetry_equiv_pos_as_xyz
  1  'x, y, z'
loop_
 _atom_site_type_symbol
 _atom_site_label
 _atom_site_symmetry_multiplicity
 _atom_site_fract_x
 _atom_site_fract_y
 _atom_site_fract_z
 _atom_site_occupancy
  Er  Er0  1  0.344073  0.999448  0.463142  1
  Er  Er1  1  0.504941  0.837031  0.720821  1
  Er  Er2  1  0.502826  0.157960  0.218091  1
  Er  Er3  1  0.841605  0.497802  0.280714  1
  Er  Er4  1  0.158931  0.509924  0.784602  1
  Er  Er5  1  0.659873  0.996568  0.970414  1
  Er  Er6  1  0.992050  0.348786  0.525241  1
  Er  Er7  1  0.999163  0.657753  0.032924  1
  Ta  Ta8  1  0.329506  0.328790  0.001548  1
  Ta  Ta9  1  0.171240  0.828305  0.249570  1
  Ta  Ta10  1  0.819897  0.171894  0.751927  1
  Ta  Ta11  1  0.670574  0.671064  0.499702  1
  Ta  Ta12  1  0.152553  0.004382  0.880453  1
  Ta  Ta13  1  0.494648  0.651754  0.124711  1
  Ta  Ta14  1  0.515248  0.355313  0.623462  1
  Ta  Ta15  1  0.654863  0.494038  0.877818  1
  Ta  Ta16  1  0.346219  0.507078  0.375097  1
  Ta  Ta17  1  0.845238  0.993509  0.373108  1
  Ta  Ta18  1  0.007230  0.152673  0.125344  1
  Ta  Ta19  1  0.980536  0.835011  0.621511  1
  Si  Si20  1  0.367797  0.704442  0.933406  1
  Si  Si21  1  0.631626  0.296692  0.429897  1
  Si  Si22  1  0.705363  0.364963  0.069418  1
  Si  Si23  1  0.294084  0.634803  0.568246  1
  Si  Si24  1  0.797099  0.865642  0.181374  1
  Si  Si25  1  0.133366  0.203450  0.317749  1
  Si  Si26  1  0.867120  0.798718  0.819345  1
  Si  Si27  1  0.296895  0.954245  0.066036  1
  Si  Si28  1  0.546953  0.792746  0.313013  1
  Si  Si29  1  0.459928  0.205550  0.818950  1
  Si  Si30  1  0.797767  0.542219  0.688163  1
  Si  Si31  1  0.205732  0.454148  0.186052  1
  Si  Si32  1  0.702327  0.046833  0.563554  1
  Si  Si33  1  0.955348  0.295580  0.936011  1
  Si  Si34  1  0.045782  0.706908  0.433249  1
  Sn  Sn35  1  0.201599  0.133981  0.675338  1
