# generated using pymatgen
data_La8ZnSi7I6
_symmetry_space_group_name_H-M   'P 1'
_cell_length_a   12.55355054
_cell_length_b   12.55355000
_cell_length_c   12.62514320
_cell_angle_alpha   82.49849431
_cell_angle_beta   82.49849470
_cell_angle_gamma   19.66999422
_symmetry_Int_Tables_number   1
_chemical_formula_structural   La8ZnSi7I6
_chemical_formula_sum   'La8 Zn1 Si7 I6'
_cell_volume   663.80455102
_cell_formula_units_Z   1
loop_
 _symmetry_equiv_pos_site_id
 _symmetry_equiv_pos_as_xyz
  1  'x, y, z'
loop_
 _atom_site_type_symbol
 _atom_site_label
 _atom_site_symmetry_multiplicity
 _atom_site_fract_x
 _atom_site_fract_y
 _atom_site_fract_z
 _atom_site_occupancy
  La  La0  1  0.496883  0.496883  0.162125  1
  La  La1  1  0.923272  0.923272  0.450501  1
  La  La2  1  0.355649  0.355649  0.025416  1
  La  La3  1  0.074374  0.074374  0.559222  1
  La  La4  1  0.645084  0.645084  0.974828  1
  La  La5  1  0.638884  0.638884  0.288840  1
  La  La6  1  0.361840  0.361840  0.708667  1
  La  La7  1  0.502509  0.502509  0.833412  1
  Zn  Zn8  1  0.523467  0.523467  0.409831  1
  Si  Si9  1  0.042936  0.042936  0.316522  1
  Si  Si10  1  0.049435  0.049435  0.987798  1
  Si  Si11  1  0.477362  0.477362  0.590483  1
  Si  Si12  1  0.904770  0.904770  0.858280  1
  Si  Si13  1  0.950249  0.950249  0.011525  1
  Si  Si14  1  0.958716  0.958716  0.677029  1
  Si  Si15  1  0.095115  0.095115  0.140429  1
  I  I16  1  0.243775  0.243775  0.870670  1
  I  I17  1  0.756654  0.756654  0.129528  1
  I  I18  1  0.799163  0.799163  0.575109  1
  I  I19  1  0.369901  0.369901  0.288042  1
  I  I20  1  0.198550  0.198550  0.426163  1
  I  I21  1  0.631411  0.631411  0.715580  1
