# generated using pymatgen
data_Ho2Si5Ir2Ru
_symmetry_space_group_name_H-M   'P 1'
_cell_length_a   8.08084928
_cell_length_b   8.09581279
_cell_length_c   8.28212082
_cell_angle_alpha   139.00694479
_cell_angle_beta   106.72610393
_cell_angle_gamma   86.23934239
_symmetry_Int_Tables_number   1
_chemical_formula_structural   Ho2Si5Ir2Ru
_chemical_formula_sum   'Ho4 Si10 Ir4 Ru2'
_cell_volume   330.31761340
_cell_formula_units_Z   2
loop_
 _symmetry_equiv_pos_site_id
 _symmetry_equiv_pos_as_xyz
  1  'x, y, z'
loop_
 _atom_site_type_symbol
 _atom_site_label
 _atom_site_symmetry_multiplicity
 _atom_site_fract_x
 _atom_site_fract_y
 _atom_site_fract_z
 _atom_site_occupancy
  Ho  Ho0  1  0.901569  0.124248  0.758018  1
  Ho  Ho1  1  0.098847  0.874743  0.242698  1
  Ho  Ho2  1  0.631425  0.355242  0.256772  1
  Ho  Ho3  1  0.366306  0.641681  0.739869  1
  Si  Si4  1  0.016320  0.767329  0.753846  1
  Si  Si5  1  0.987233  0.235178  0.250580  1
  Si  Si6  1  0.708820  0.458959  0.749567  1
  Si  Si7  1  0.274385  0.024647  0.753520  1
  Si  Si8  1  0.293199  0.540148  0.248883  1
  Si  Si9  1  0.724325  0.972901  0.249281  1
  Si  Si10  1  0.238045  0.402343  0.842308  1
  Si  Si11  1  0.559304  0.895754  0.657690  1
  Si  Si12  1  0.435125  0.097933  0.329752  1
  Si  Si13  1  0.765418  0.605324  0.166404  1
  Ir  Ir14  1  0.755579  0.831237  0.870194  1
  Ir  Ir15  1  0.504866  0.254770  0.750279  1
  Ir  Ir16  1  0.960311  0.385294  0.629324  1
  Ir  Ir17  1  0.040614  0.610043  0.369127  1
  Ru  Ru18  1  0.239855  0.173154  0.131217  1
  Ru  Ru19  1  0.498453  0.749074  0.250673  1
