# generated using pymatgen
data_Tb2Dy10InCo6
_symmetry_space_group_name_H-M   'P 1'
_cell_length_a   8.36216038
_cell_length_b   8.35531035
_cell_length_c   8.35530912
_cell_angle_alpha   109.45814910
_cell_angle_beta   109.47956798
_cell_angle_gamma   109.44275278
_symmetry_Int_Tables_number   1
_chemical_formula_structural   Tb2Dy10InCo6
_chemical_formula_sum   'Tb2 Dy10 In1 Co6'
_cell_volume   449.57220260
_cell_formula_units_Z   1
loop_
 _symmetry_equiv_pos_site_id
 _symmetry_equiv_pos_as_xyz
  1  'x, y, z'
loop_
 _atom_site_type_symbol
 _atom_site_label
 _atom_site_symmetry_multiplicity
 _atom_site_fract_x
 _atom_site_fract_y
 _atom_site_fract_z
 _atom_site_occupancy
  Tb  Tb0  1  0.108285  0.806336  0.301949  1
  Tb  Tb1  1  0.891715  0.193664  0.698051  1
  Dy  Dy2  1  0.806346  0.697013  0.504810  1
  Dy  Dy3  1  0.193654  0.302987  0.495190  1
  Dy  Dy4  1  0.193654  0.698463  0.890667  1
  Dy  Dy5  1  0.806346  0.301537  0.109333  1
  Dy  Dy6  1  0.696516  0.503203  0.806115  1
  Dy  Dy7  1  0.303484  0.496797  0.193885  1
  Dy  Dy8  1  0.696516  0.890402  0.193313  1
  Dy  Dy9  1  0.303484  0.109598  0.806687  1
  Dy  Dy10  1  0.504179  0.806406  0.697773  1
  Dy  Dy11  1  0.495821  0.193594  0.302227  1
  In  In12  1  0.000000  0.000000  0.000000  1
  Co  Co13  1  0.886914  0.386792  0.500122  1
  Co  Co14  1  0.113086  0.613208  0.499878  1
  Co  Co15  1  0.388352  0.501798  0.886554  1
  Co  Co16  1  0.611648  0.498202  0.113446  1
  Co  Co17  1  0.500000  0.886802  0.386802  1
  Co  Co18  1  0.500000  0.113198  0.613198  1
