# generated using pymatgen
data_La9NdGa6
_symmetry_space_group_name_H-M   'P 1'
_cell_length_a   8.07437900
_cell_length_b   8.07435800
_cell_length_c   14.57584400
_cell_angle_alpha   90.00011573
_cell_angle_beta   89.99991812
_cell_angle_gamma   89.99885754
_symmetry_Int_Tables_number   1
_chemical_formula_structural   La9NdGa6
_chemical_formula_sum   'La18 Nd2 Ga12'
_cell_volume   950.27836861
_cell_formula_units_Z   2
loop_
 _symmetry_equiv_pos_site_id
 _symmetry_equiv_pos_as_xyz
  1  'x, y, z'
loop_
 _atom_site_type_symbol
 _atom_site_label
 _atom_site_symmetry_multiplicity
 _atom_site_fract_x
 _atom_site_fract_y
 _atom_site_fract_z
 _atom_site_occupancy
  La  La0  1  0.499997  0.999998  0.216050  1
  La  La1  1  0.185665  0.838161  0.898292  1
  La  La2  1  0.999995  0.500004  0.283993  1
  La  La3  1  0.814333  0.161847  0.898288  1
  La  La4  1  0.314271  0.338110  0.601673  1
  La  La5  1  0.161840  0.814332  0.601676  1
  La  La6  1  0.685731  0.661889  0.601675  1
  La  La7  1  0.838163  0.185664  0.601678  1
  La  La8  1  0.661891  0.685736  0.898289  1
  La  La9  1  0.338112  0.314266  0.898298  1
  La  La10  1  0.314983  0.662094  0.101143  1
  La  La11  1  0.685022  0.337912  0.101148  1
  La  La12  1  0.185105  0.162105  0.398892  1
  La  La13  1  0.814898  0.837886  0.398893  1
  La  La14  1  0.337910  0.685024  0.398882  1
  La  La15  1  0.662080  0.314981  0.398880  1
  La  La16  1  0.837878  0.814893  0.101135  1
  La  La17  1  0.162115  0.185108  0.101136  1
  Nd  Nd18  1  0.999999  0.499997  0.782898  1
  Nd  Nd19  1  0.500004  0.999998  0.717083  1
  Ga  Ga20  1  0.000000  0.500001  0.996472  1
  Ga  Ga21  1  0.500000  0.999997  0.503535  1
  Ga  Ga22  1  0.381051  0.618944  0.749990  1
  Ga  Ga23  1  0.618944  0.381059  0.749990  1
  Ga  Ga24  1  0.881028  0.881021  0.749990  1
  Ga  Ga25  1  0.118982  0.118985  0.749991  1
  Ga  Ga26  1  0.117724  0.882280  0.250007  1
  Ga  Ga27  1  0.882280  0.117720  0.250007  1
  Ga  Ga28  1  0.617751  0.617756  0.250009  1
  Ga  Ga29  1  0.382245  0.382240  0.250008  1
  Ga  Ga30  1  0.000002  0.499995  0.497951  1
  Ga  Ga31  1  0.500002  0.999999  0.002044  1
