# generated using pymatgen
data_K3Tl3(PO4)4
_symmetry_space_group_name_H-M   'P 1'
_cell_length_a   9.98510400
_cell_length_b   9.84603768
_cell_length_c   18.79062800
_cell_angle_alpha   58.76547761
_cell_angle_beta   90.00000000
_cell_angle_gamma   90.00000000
_symmetry_Int_Tables_number   1
_chemical_formula_structural   K3Tl3(PO4)4
_chemical_formula_sum   'K12 Tl12 P16 O64'
_cell_volume   1579.60280856
_cell_formula_units_Z   4
loop_
 _symmetry_equiv_pos_site_id
 _symmetry_equiv_pos_as_xyz
  1  'x, y, z'
loop_
 _atom_site_type_symbol
 _atom_site_label
 _atom_site_symmetry_multiplicity
 _atom_site_fract_x
 _atom_site_fract_y
 _atom_site_fract_z
 _atom_site_occupancy
  K  K0  1  0.278033  0.760811  0.213908  1
  K  K1  1  0.221967  0.760811  0.713908  1
  K  K2  1  0.110563  0.954662  0.370709  1
  K  K3  1  0.610563  0.045338  0.129291  1
  K  K4  1  0.532859  0.424362  0.903265  1
  K  K5  1  0.967141  0.424362  0.403265  1
  K  K6  1  0.467141  0.575638  0.096735  1
  K  K7  1  0.721967  0.239189  0.786092  1
  K  K8  1  0.889437  0.045338  0.629291  1
  K  K9  1  0.032859  0.575638  0.596735  1
  K  K10  1  0.389437  0.954662  0.870709  1
  K  K11  1  0.778033  0.239189  0.286092  1
  Tl  Tl12  1  0.426071  0.766988  0.489095  1
  Tl  Tl13  1  0.731886  0.802131  0.365888  1
  Tl  Tl14  1  0.073929  0.766988  0.989095  1
  Tl  Tl15  1  0.926071  0.233012  0.010905  1
  Tl  Tl16  1  0.851027  0.654148  0.162681  1
  Tl  Tl17  1  0.268114  0.197869  0.634112  1
  Tl  Tl18  1  0.148973  0.345852  0.837319  1
  Tl  Tl19  1  0.648973  0.654148  0.662681  1
  Tl  Tl20  1  0.768114  0.802131  0.865888  1
  Tl  Tl21  1  0.573929  0.233012  0.510905  1
  Tl  Tl22  1  0.231886  0.197869  0.134112  1
  Tl  Tl23  1  0.351027  0.345852  0.337319  1
  P  P24  1  0.743066  0.943093  0.501468  1
  P  P25  1  0.902459  0.571228  0.793277  1
  P  P26  1  0.973371  0.915982  0.215254  1
  P  P27  1  0.473371  0.084018  0.284746  1
  P  P28  1  0.097541  0.428772  0.206723  1
  P  P29  1  0.243066  0.056907  0.998532  1
  P  P30  1  0.233515  0.485103  0.967886  1
  P  P31  1  0.526629  0.915982  0.715254  1
  P  P32  1  0.597541  0.571228  0.293277  1
  P  P33  1  0.756934  0.943093  0.001468  1
  P  P34  1  0.733515  0.514897  0.532114  1
  P  P35  1  0.026629  0.084018  0.784746  1
  P  P36  1  0.766485  0.514897  0.032114  1
  P  P37  1  0.402459  0.428772  0.706723  1
  P  P38  1  0.256934  0.056907  0.498532  1
  P  P39  1  0.266485  0.485103  0.467886  1
  O  O40  1  0.224705  0.657256  0.950381  1
  O  O41  1  0.109386  0.379881  0.020084  1
  O  O42  1  0.913564  0.903569  0.294883  1
  O  O43  1  0.388242  0.966994  0.360491  1
  O  O44  1  0.178795  0.161616  0.415802  1
  O  O45  1  0.119802  0.970183  0.212534  1
  O  O46  1  0.237879  0.482792  0.219064  1
  O  O47  1  0.110115  0.270303  0.207936  1
  O  O48  1  0.856434  0.596593  0.473843  1
  O  O49  1  0.143566  0.403407  0.526157  1
  O  O50  1  0.044259  0.571577  0.121182  1
  O  O51  1  0.678795  0.838384  0.084198  1
  O  O52  1  0.096073  0.128841  0.975802  1
  O  O53  1  0.903927  0.871159  0.024198  1
  O  O54  1  0.521589  0.749014  0.724890  1
  O  O55  1  0.619802  0.029817  0.287466  1
  O  O56  1  0.724705  0.342744  0.549619  1
  O  O57  1  0.694800  0.937688  0.927742  1
  O  O58  1  0.111758  0.966994  0.860491  1
  O  O59  1  0.262121  0.482792  0.719064  1
  O  O60  1  0.611758  0.033006  0.639509  1
  O  O61  1  0.478411  0.250986  0.275110  1
  O  O62  1  0.305200  0.062312  0.072258  1
  O  O63  1  0.258615  0.878409  0.524433  1
  O  O64  1  0.805200  0.937688  0.427742  1
  O  O65  1  0.889885  0.729697  0.792064  1
  O  O66  1  0.737879  0.517208  0.280936  1
  O  O67  1  0.643566  0.596593  0.973843  1
  O  O68  1  0.888242  0.033006  0.139509  1
  O  O69  1  0.890614  0.620119  0.979916  1
  O  O70  1  0.991036  0.408630  0.269725  1
  O  O71  1  0.321205  0.161616  0.915802  1
  O  O72  1  0.389885  0.270303  0.707936  1
  O  O73  1  0.609386  0.620119  0.479916  1
  O  O74  1  0.250429  0.496687  0.382842  1
  O  O75  1  0.586436  0.903569  0.794883  1
  O  O76  1  0.249571  0.496687  0.882842  1
  O  O77  1  0.241385  0.878409  0.024433  1
  O  O78  1  0.491036  0.591370  0.230275  1
  O  O79  1  0.413564  0.096431  0.205117  1
  O  O80  1  0.380198  0.970183  0.712534  1
  O  O81  1  0.194800  0.062312  0.572258  1
  O  O82  1  0.455741  0.571577  0.621182  1
  O  O83  1  0.021589  0.250986  0.775110  1
  O  O84  1  0.762121  0.517208  0.780936  1
  O  O85  1  0.390614  0.379881  0.520084  1
  O  O86  1  0.955741  0.428423  0.878818  1
  O  O87  1  0.086436  0.096431  0.705117  1
  O  O88  1  0.275295  0.657256  0.450381  1
  O  O89  1  0.750429  0.503313  0.117158  1
  O  O90  1  0.880198  0.029817  0.787466  1
  O  O91  1  0.610115  0.729697  0.292064  1
  O  O92  1  0.758615  0.121591  0.975567  1
  O  O93  1  0.403927  0.128841  0.475802  1
  O  O94  1  0.775295  0.342744  0.049619  1
  O  O95  1  0.508964  0.408630  0.769725  1
  O  O96  1  0.749571  0.503313  0.617158  1
  O  O97  1  0.741385  0.121591  0.475567  1
  O  O98  1  0.978411  0.749014  0.224890  1
  O  O99  1  0.544259  0.428423  0.378818  1
  O  O100  1  0.596073  0.871159  0.524198  1
  O  O101  1  0.008964  0.591370  0.730275  1
  O  O102  1  0.356434  0.403407  0.026157  1
  O  O103  1  0.821205  0.838384  0.584198  1
