# generated using pymatgen
data_Rb4CrMo3N8
_symmetry_space_group_name_H-M   'P 1'
_cell_length_a   5.98994100
_cell_length_b   8.36058700
_cell_length_c   12.09527000
_cell_angle_alpha   90.00000000
_cell_angle_beta   90.00000000
_cell_angle_gamma   90.00000000
_symmetry_Int_Tables_number   1
_chemical_formula_structural   Rb4CrMo3N8
_chemical_formula_sum   'Rb8 Cr2 Mo6 N16'
_cell_volume   605.72414088
_cell_formula_units_Z   2
loop_
 _symmetry_equiv_pos_site_id
 _symmetry_equiv_pos_as_xyz
  1  'x, y, z'
loop_
 _atom_site_type_symbol
 _atom_site_label
 _atom_site_symmetry_multiplicity
 _atom_site_fract_x
 _atom_site_fract_y
 _atom_site_fract_z
 _atom_site_occupancy
  Rb  Rb0  1  0.750000  0.111250  0.000000  1
  Rb  Rb1  1  0.250000  0.888750  0.500000  1
  Rb  Rb2  1  0.250000  0.841550  0.000000  1
  Rb  Rb3  1  0.750000  0.158450  0.500000  1
  Rb  Rb4  1  0.701825  0.391607  0.228455  1
  Rb  Rb5  1  0.201825  0.608393  0.271545  1
  Rb  Rb6  1  0.298175  0.608393  0.728455  1
  Rb  Rb7  1  0.798175  0.391607  0.771545  1
  Cr  Cr8  1  0.750000  0.638016  0.000000  1
  Cr  Cr9  1  0.250000  0.361984  0.500000  1
  Mo  Mo10  1  0.250000  0.386689  0.000000  1
  Mo  Mo11  1  0.750000  0.613311  0.500000  1
  Mo  Mo12  1  0.204369  0.121650  0.250860  1
  Mo  Mo13  1  0.704369  0.878350  0.249140  1
  Mo  Mo14  1  0.795631  0.878350  0.750860  1
  Mo  Mo15  1  0.295631  0.121650  0.749140  1
  N  N16  1  0.898889  0.057243  0.245940  1
  N  N17  1  0.398889  0.942757  0.254060  1
  N  N18  1  0.101111  0.942757  0.745940  1
  N  N19  1  0.601111  0.057243  0.754060  1
  N  N20  1  0.242159  0.238449  0.381110  1
  N  N21  1  0.742159  0.761551  0.118890  1
  N  N22  1  0.757841  0.761551  0.881110  1
  N  N23  1  0.257841  0.238449  0.618890  1
  N  N24  1  0.734294  0.743042  0.629586  1
  N  N25  1  0.234294  0.256958  0.870414  1
  N  N26  1  0.265706  0.256958  0.129586  1
  N  N27  1  0.765706  0.743042  0.370414  1
  N  N28  1  0.494306  0.485181  0.494440  1
  N  N29  1  0.994306  0.514819  0.005560  1
  N  N30  1  0.505694  0.514819  0.994440  1
  N  N31  1  0.005694  0.485181  0.505560  1
