# generated using pymatgen
data_Ti3Nb9Al8(IrN)4
_symmetry_space_group_name_H-M   'P 1'
_cell_length_a   8.27834802
_cell_length_b   8.28030167
_cell_length_c   8.26483596
_cell_angle_alpha   60.06834020
_cell_angle_beta   59.96508073
_cell_angle_gamma   59.90949924
_symmetry_Int_Tables_number   1
_chemical_formula_structural   Ti3Nb9Al8(IrN)4
_chemical_formula_sum   'Ti3 Nb9 Al8 Ir4 N4'
_cell_volume   400.42386173
_cell_formula_units_Z   1
loop_
 _symmetry_equiv_pos_site_id
 _symmetry_equiv_pos_as_xyz
  1  'x, y, z'
loop_
 _atom_site_type_symbol
 _atom_site_label
 _atom_site_symmetry_multiplicity
 _atom_site_fract_x
 _atom_site_fract_y
 _atom_site_fract_z
 _atom_site_occupancy
  Ti  Ti0  1  0.814972  0.184022  0.814289  1
  Ti  Ti1  1  0.437480  0.435511  0.064441  1
  Ti  Ti2  1  0.186692  0.185755  0.812508  1
  Nb  Nb3  1  0.813228  0.815511  0.186211  1
  Nb  Nb4  1  0.063648  0.435782  0.436224  1
  Nb  Nb5  1  0.437791  0.062213  0.064599  1
  Nb  Nb6  1  0.064464  0.064198  0.436575  1
  Nb  Nb7  1  0.061803  0.437925  0.063255  1
  Nb  Nb8  1  0.435459  0.064359  0.434840  1
  Nb  Nb9  1  0.185424  0.814066  0.187377  1
  Nb  Nb10  1  0.185579  0.815841  0.812170  1
  Nb  Nb11  1  0.813103  0.184235  0.188193  1
  Al  Al12  1  0.416600  0.750195  0.417202  1
  Al  Al13  1  0.832643  0.833105  0.500358  1
  Al  Al14  1  0.498175  0.835081  0.832996  1
  Al  Al15  1  0.833168  0.834915  0.833837  1
  Al  Al16  1  0.750064  0.416165  0.417079  1
  Al  Al17  1  0.416840  0.415558  0.415636  1
  Al  Al18  1  0.416641  0.416289  0.752061  1
  Al  Al19  1  0.834804  0.496184  0.833821  1
  Ir  Ir20  1  0.623246  0.125906  0.627639  1
  Ir  Ir21  1  0.624038  0.623697  0.123896  1
  Ir  Ir22  1  0.125277  0.621771  0.626748  1
  Ir  Ir23  1  0.625048  0.620937  0.629354  1
  N  N24  1  0.132122  0.621129  0.122230  1
  N  N25  1  0.120138  0.128317  0.633344  1
  N  N26  1  0.625056  0.134168  0.115935  1
  N  N27  1  0.126499  0.127165  0.117180  1
