# generated using pymatgen
data_Zr4Si4Ir3Rh
_symmetry_space_group_name_H-M   'P 1'
_cell_length_a   3.97239700
_cell_length_b   6.59638127
_cell_length_c   7.45756131
_cell_angle_alpha   89.96682078
_cell_angle_beta   90.00000000
_cell_angle_gamma   90.00000000
_symmetry_Int_Tables_number   1
_chemical_formula_structural   Zr4Si4Ir3Rh
_chemical_formula_sum   'Zr4 Si4 Ir3 Rh1'
_cell_volume   195.41376637
_cell_formula_units_Z   1
loop_
 _symmetry_equiv_pos_site_id
 _symmetry_equiv_pos_as_xyz
  1  'x, y, z'
loop_
 _atom_site_type_symbol
 _atom_site_label
 _atom_site_symmetry_multiplicity
 _atom_site_fract_x
 _atom_site_fract_y
 _atom_site_fract_z
 _atom_site_occupancy
  Zr  Zr0  1  0.250000  0.018734  0.318385  1
  Zr  Zr1  1  0.250000  0.518612  0.181590  1
  Zr  Zr2  1  0.750000  0.980581  0.681434  1
  Zr  Zr3  1  0.750000  0.482478  0.818638  1
  Si  Si4  1  0.250000  0.278270  0.618598  1
  Si  Si5  1  0.250000  0.778160  0.881881  1
  Si  Si6  1  0.750000  0.721274  0.380981  1
  Si  Si7  1  0.750000  0.221782  0.118363  1
  Ir  Ir8  1  0.250000  0.651909  0.564473  1
  Ir  Ir9  1  0.750000  0.849329  0.064696  1
  Ir  Ir10  1  0.750000  0.349117  0.435810  1
  Rh  Rh11  1  0.250000  0.149755  0.935152  1
