# generated using pymatgen
data_Yb2Co9As6Ru
_symmetry_space_group_name_H-M   'P 1'
_cell_length_a   3.79678000
_cell_length_b   10.73703000
_cell_length_c   12.33654400
_cell_angle_alpha   90.00000000
_cell_angle_beta   90.00000000
_cell_angle_gamma   90.00000000
_symmetry_Int_Tables_number   1
_chemical_formula_structural   Yb2Co9As6Ru
_chemical_formula_sum   'Yb4 Co18 As12 Ru2'
_cell_volume   502.91328924
_cell_formula_units_Z   2
loop_
 _symmetry_equiv_pos_site_id
 _symmetry_equiv_pos_as_xyz
  1  'x, y, z'
loop_
 _atom_site_type_symbol
 _atom_site_label
 _atom_site_symmetry_multiplicity
 _atom_site_fract_x
 _atom_site_fract_y
 _atom_site_fract_z
 _atom_site_occupancy
  Yb  Yb0  1  0.250000  0.581193  0.702407  1
  Yb  Yb1  1  0.250000  0.918807  0.202407  1
  Yb  Yb2  1  0.750000  0.416777  0.295088  1
  Yb  Yb3  1  0.750000  0.083223  0.795088  1
  Co  Co4  1  0.750000  0.293082  0.011935  1
  Co  Co5  1  0.750000  0.206918  0.511935  1
  Co  Co6  1  0.250000  0.405499  0.488617  1
  Co  Co7  1  0.250000  0.094501  0.988617  1
  Co  Co8  1  0.750000  0.593512  0.511131  1
  Co  Co9  1  0.750000  0.906488  0.011131  1
  Co  Co10  1  0.250000  0.214498  0.176352  1
  Co  Co11  1  0.250000  0.285502  0.676352  1
  Co  Co12  1  0.750000  0.785012  0.824270  1
  Co  Co13  1  0.750000  0.714988  0.324270  1
  Co  Co14  1  0.250000  0.885263  0.699160  1
  Co  Co15  1  0.250000  0.614737  0.199160  1
  Co  Co16  1  0.750000  0.117716  0.303098  1
  Co  Co17  1  0.750000  0.382284  0.803098  1
  Co  Co18  1  0.250000  0.464843  0.933627  1
  Co  Co19  1  0.250000  0.035157  0.433627  1
  Co  Co20  1  0.750000  0.532815  0.066404  1
  Co  Co21  1  0.750000  0.967185  0.566404  1
  As  As22  1  0.250000  0.415443  0.114769  1
  As  As23  1  0.250000  0.084557  0.614769  1
  As  As24  1  0.750000  0.581995  0.884056  1
  As  As25  1  0.750000  0.918005  0.384056  1
  As  As26  1  0.250000  0.267356  0.867587  1
  As  As27  1  0.250000  0.232644  0.367587  1
  As  As28  1  0.750000  0.731784  0.133904  1
  As  As29  1  0.750000  0.768216  0.633904  1
  As  As30  1  0.250000  0.594284  0.389705  1
  As  As31  1  0.250000  0.905716  0.889705  1
  As  As32  1  0.750000  0.399237  0.608773  1
  As  As33  1  0.750000  0.100763  0.108773  1
  Ru  Ru34  1  0.250000  0.708281  0.989119  1
  Ru  Ru35  1  0.250000  0.791719  0.489119  1
