# generated using pymatgen
data_Sc4CdTcHg2
_symmetry_space_group_name_H-M   'P 1'
_cell_length_a   6.95014405
_cell_length_b   6.86133000
_cell_length_c   6.95003405
_cell_angle_alpha   90.00000000
_cell_angle_beta   90.01311603
_cell_angle_gamma   90.00000000
_symmetry_Int_Tables_number   1
_chemical_formula_structural   Sc4CdTcHg2
_chemical_formula_sum   'Sc8 Cd2 Tc2 Hg4'
_cell_volume   331.42787617
_cell_formula_units_Z   2
loop_
 _symmetry_equiv_pos_site_id
 _symmetry_equiv_pos_as_xyz
  1  'x, y, z'
loop_
 _atom_site_type_symbol
 _atom_site_label
 _atom_site_symmetry_multiplicity
 _atom_site_fract_x
 _atom_site_fract_y
 _atom_site_fract_z
 _atom_site_occupancy
  Sc  Sc0  1  0.268278  0.000075  0.268273  1
  Sc  Sc1  1  0.268278  0.499924  0.268273  1
  Sc  Sc2  1  0.731415  0.500077  0.268575  1
  Sc  Sc3  1  0.731415  0.999923  0.268575  1
  Sc  Sc4  1  0.268585  0.000076  0.731426  1
  Sc  Sc5  1  0.268585  0.499923  0.731426  1
  Sc  Sc6  1  0.731722  0.500075  0.731728  1
  Sc  Sc7  1  0.731722  0.999925  0.731728  1
  Cd  Cd8  1  0.999900  0.250000  0.000001  1
  Cd  Cd9  1  0.000100  0.750000  0.999999  1
  Tc  Tc10  1  0.500033  0.250000  0.499993  1
  Tc  Tc11  1  0.499966  0.750000  0.500007  1
  Hg  Hg12  1  0.500140  0.250000  0.000001  1
  Hg  Hg13  1  0.499860  0.750000  0.999999  1
  Hg  Hg14  1  0.999872  0.250000  0.499998  1
  Hg  Hg15  1  0.000128  0.750000  0.500003  1
