# generated using pymatgen
data_Zr8InHg3Pd8
_symmetry_space_group_name_H-M   'P 1'
_cell_length_a   7.57297000
_cell_length_b   7.57297000
_cell_length_c   6.82002600
_cell_angle_alpha   90.00000000
_cell_angle_beta   90.00000000
_cell_angle_gamma   90.00000000
_symmetry_Int_Tables_number   1
_chemical_formula_structural   Zr8InHg3Pd8
_chemical_formula_sum   'Zr8 In1 Hg3 Pd8'
_cell_volume   391.12763601
_cell_formula_units_Z   1
loop_
 _symmetry_equiv_pos_site_id
 _symmetry_equiv_pos_as_xyz
  1  'x, y, z'
loop_
 _atom_site_type_symbol
 _atom_site_label
 _atom_site_symmetry_multiplicity
 _atom_site_fract_x
 _atom_site_fract_y
 _atom_site_fract_z
 _atom_site_occupancy
  Zr  Zr0  1  0.657295  0.656972  0.499884  1
  Zr  Zr1  1  0.814211  0.185563  0.499608  1
  Zr  Zr2  1  0.685563  0.685789  0.000392  1
  Zr  Zr3  1  0.843028  0.157295  0.000116  1
  Zr  Zr4  1  0.185789  0.814437  0.499608  1
  Zr  Zr5  1  0.314437  0.314211  0.000392  1
  Zr  Zr6  1  0.156972  0.842705  0.000116  1
  Zr  Zr7  1  0.342705  0.343028  0.499884  1
  In  In8  1  0.000000  0.500000  0.750000  1
  Hg  Hg9  1  0.000000  0.500000  0.250000  1
  Hg  Hg10  1  0.500000  0.000000  0.750000  1
  Hg  Hg11  1  0.500000  0.000000  0.250000  1
  Pd  Pd12  1  0.627763  0.371727  0.220684  1
  Pd  Pd13  1  0.371448  0.627747  0.779469  1
  Pd  Pd14  1  0.872253  0.871448  0.720531  1
  Pd  Pd15  1  0.628552  0.372253  0.779469  1
  Pd  Pd16  1  0.372237  0.628273  0.220684  1
  Pd  Pd17  1  0.128273  0.127763  0.279316  1
  Pd  Pd18  1  0.871727  0.872237  0.279316  1
  Pd  Pd19  1  0.127747  0.128552  0.720531  1
