# generated using pymatgen
data_NdErCu3Ni7Sn2
_symmetry_space_group_name_H-M   'P 1'
_cell_length_a   4.93511000
_cell_length_b   4.93510995
_cell_length_c   19.63494600
_cell_angle_alpha   90.00000000
_cell_angle_beta   90.00000000
_cell_angle_gamma   120.00001371
_symmetry_Int_Tables_number   1
_chemical_formula_structural   NdErCu3Ni7Sn2
_chemical_formula_sum   'Nd2 Er2 Cu6 Ni14 Sn4'
_cell_volume   414.14645980
_cell_formula_units_Z   2
loop_
 _symmetry_equiv_pos_site_id
 _symmetry_equiv_pos_as_xyz
  1  'x, y, z'
loop_
 _atom_site_type_symbol
 _atom_site_label
 _atom_site_symmetry_multiplicity
 _atom_site_fract_x
 _atom_site_fract_y
 _atom_site_fract_z
 _atom_site_occupancy
  Nd  Nd0  1  0.000000  0.000000  0.500000  1
  Nd  Nd1  1  0.000000  0.000000  0.000000  1
  Er  Er2  1  0.333333  0.666667  0.251314  1
  Er  Er3  1  0.666667  0.333333  0.748686  1
  Cu  Cu4  1  0.000000  0.000000  0.250120  1
  Cu  Cu5  1  0.000000  0.000000  0.749880  1
  Cu  Cu6  1  0.333333  0.666667  0.749573  1
  Cu  Cu7  1  0.666667  0.333333  0.250427  1
  Cu  Cu8  1  0.333333  0.666667  0.957892  1
  Cu  Cu9  1  0.666667  0.333333  0.042108  1
  Ni  Ni10  1  0.666667  0.333333  0.457801  1
  Ni  Ni11  1  0.333333  0.666667  0.542199  1
  Ni  Ni12  1  0.833686  0.166314  0.353844  1
  Ni  Ni13  1  0.833686  0.667372  0.353844  1
  Ni  Ni14  1  0.332628  0.166314  0.353844  1
  Ni  Ni15  1  0.166314  0.833686  0.646156  1
  Ni  Ni16  1  0.166314  0.332628  0.646156  1
  Ni  Ni17  1  0.667372  0.833686  0.646156  1
  Ni  Ni18  1  0.166098  0.833902  0.853344  1
  Ni  Ni19  1  0.166098  0.332196  0.853344  1
  Ni  Ni20  1  0.667804  0.833902  0.853344  1
  Ni  Ni21  1  0.833902  0.166098  0.146656  1
  Ni  Ni22  1  0.833902  0.667804  0.146656  1
  Ni  Ni23  1  0.332196  0.166098  0.146656  1
  Sn  Sn24  1  0.333333  0.666667  0.411103  1
  Sn  Sn25  1  0.666667  0.333333  0.588897  1
  Sn  Sn26  1  0.666667  0.333333  0.907430  1
  Sn  Sn27  1  0.333333  0.666667  0.092570  1
