# generated using pymatgen
data_YbPr15(ZrIr3)4
_symmetry_space_group_name_H-M   'P 1'
_cell_length_a   6.39863427
_cell_length_b   11.23862724
_cell_length_c   11.25786300
_cell_angle_alpha   89.91829763
_cell_angle_beta   90.01662828
_cell_angle_gamma   89.53333231
_symmetry_Int_Tables_number   1
_chemical_formula_structural   YbPr15(ZrIr3)4
_chemical_formula_sum   'Yb1 Pr15 Zr4 Ir12'
_cell_volume   809.54621594
_cell_formula_units_Z   1
loop_
 _symmetry_equiv_pos_site_id
 _symmetry_equiv_pos_as_xyz
  1  'x, y, z'
loop_
 _atom_site_type_symbol
 _atom_site_label
 _atom_site_symmetry_multiplicity
 _atom_site_fract_x
 _atom_site_fract_y
 _atom_site_fract_z
 _atom_site_occupancy
  Yb  Yb0  1  0.125617  0.037921  0.331679  1
  Pr  Pr1  1  0.368806  0.840011  0.535243  1
  Pr  Pr2  1  0.871289  0.665949  0.535721  1
  Pr  Pr3  1  0.872964  0.835599  0.963249  1
  Pr  Pr4  1  0.375079  0.662437  0.962817  1
  Pr  Pr5  1  0.874386  0.536763  0.834923  1
  Pr  Pr6  1  0.374001  0.963041  0.837595  1
  Pr  Pr7  1  0.373318  0.536071  0.662046  1
  Pr  Pr8  1  0.871625  0.963870  0.665230  1
  Pr  Pr9  1  0.625510  0.162332  0.461599  1
  Pr  Pr10  1  0.125077  0.329969  0.463137  1
  Pr  Pr11  1  0.126907  0.162211  0.040442  1
  Pr  Pr12  1  0.626798  0.334890  0.036419  1
  Pr  Pr13  1  0.123472  0.463557  0.166036  1
  Pr  Pr14  1  0.624069  0.036367  0.166127  1
  Pr  Pr15  1  0.624157  0.463113  0.335435  1
  Zr  Zr16  1  0.502424  0.750583  0.250182  1
  Zr  Zr17  1  0.002421  0.754729  0.251028  1
  Zr  Zr18  1  0.002737  0.249575  0.751276  1
  Zr  Zr19  1  0.503453  0.249082  0.750413  1
  Ir  Ir20  1  0.253221  0.886175  0.108530  1
  Ir  Ir21  1  0.752799  0.612949  0.113384  1
  Ir  Ir22  1  0.746759  0.890247  0.387840  1
  Ir  Ir23  1  0.250929  0.615019  0.388083  1
  Ir  Ir24  1  0.754081  0.110707  0.888855  1
  Ir  Ir25  1  0.250849  0.386595  0.888480  1
  Ir  Ir26  1  0.253689  0.111834  0.614898  1
  Ir  Ir27  1  0.750555  0.386116  0.611478  1
  Ir  Ir28  1  0.111038  0.750046  0.748652  1
  Ir  Ir29  1  0.608125  0.749874  0.748720  1
  Ir  Ir30  1  0.885549  0.251552  0.250015  1
  Ir  Ir31  1  0.388296  0.250817  0.250464  1
