# generated using pymatgen
data_Dy16In3HgIrPt3
_symmetry_space_group_name_H-M   'P 1'
_cell_length_a   9.66393303
_cell_length_b   9.65799643
_cell_length_c   9.65799592
_cell_angle_alpha   60.36663764
_cell_angle_beta   60.42333960
_cell_angle_gamma   60.42334431
_symmetry_Int_Tables_number   1
_chemical_formula_structural   Dy16In3HgIrPt3
_chemical_formula_sum   'Dy16 In3 Hg1 Ir1 Pt3'
_cell_volume   643.23059619
_cell_formula_units_Z   1
loop_
 _symmetry_equiv_pos_site_id
 _symmetry_equiv_pos_as_xyz
  1  'x, y, z'
loop_
 _atom_site_type_symbol
 _atom_site_label
 _atom_site_symmetry_multiplicity
 _atom_site_fract_x
 _atom_site_fract_y
 _atom_site_fract_z
 _atom_site_occupancy
  Dy  Dy0  1  0.601558  0.596613  0.596613  1
  Dy  Dy1  1  0.604928  0.600582  0.195562  1
  Dy  Dy2  1  0.604928  0.195562  0.600582  1
  Dy  Dy3  1  0.190826  0.603431  0.603431  1
  Dy  Dy4  1  0.056403  0.440868  0.440868  1
  Dy  Dy5  1  0.441409  0.058879  0.058879  1
  Dy  Dy6  1  0.441958  0.058587  0.441392  1
  Dy  Dy7  1  0.056336  0.440342  0.062731  1
  Dy  Dy8  1  0.441958  0.441392  0.058587  1
  Dy  Dy9  1  0.056336  0.062731  0.440342  1
  Dy  Dy10  1  0.184075  0.813692  0.813692  1
  Dy  Dy11  1  0.813286  0.188317  0.188317  1
  Dy  Dy12  1  0.815212  0.184486  0.811768  1
  Dy  Dy13  1  0.188310  0.811779  0.187303  1
  Dy  Dy14  1  0.815212  0.811768  0.184486  1
  Dy  Dy15  1  0.188310  0.187303  0.811779  1
  In  In16  1  0.831692  0.833175  0.503108  1
  In  In17  1  0.831692  0.503108  0.833175  1
  In  In18  1  0.503427  0.832395  0.832395  1
  Hg  Hg19  1  0.836408  0.836596  0.836596  1
  Ir  Ir20  1  0.823655  0.390490  0.390490  1
  Pt  Pt21  1  0.392082  0.393909  0.393909  1
  Pt  Pt22  1  0.389999  0.391448  0.822549  1
  Pt  Pt23  1  0.389999  0.822549  0.391448  1
