# generated using pymatgen
data_Hf4ZrTiBI12
_symmetry_space_group_name_H-M   'P 1'
_cell_length_a   9.17413417
_cell_length_b   9.41586832
_cell_length_c   9.26474738
_cell_angle_alpha   106.73274674
_cell_angle_beta   106.57139575
_cell_angle_gamma   106.78996758
_symmetry_Int_Tables_number   1
_chemical_formula_structural   Hf4ZrTiBI12
_chemical_formula_sum   'Hf4 Zr1 Ti1 B1 I12'
_cell_volume   671.91958964
_cell_formula_units_Z   1
loop_
 _symmetry_equiv_pos_site_id
 _symmetry_equiv_pos_as_xyz
  1  'x, y, z'
loop_
 _atom_site_type_symbol
 _atom_site_label
 _atom_site_symmetry_multiplicity
 _atom_site_fract_x
 _atom_site_fract_y
 _atom_site_fract_z
 _atom_site_occupancy
  Hf  Hf0  1  0.270006  0.086875  0.026152  1
  Hf  Hf1  1  0.086182  0.025983  0.266489  1
  Hf  Hf2  1  0.913179  0.972559  0.733377  1
  Hf  Hf3  1  0.730144  0.912480  0.974020  1
  Zr  Zr4  1  0.023982  0.266340  0.085460  1
  Ti  Ti5  1  0.977809  0.751914  0.919811  1
  B  B6  1  0.000306  0.002183  0.000908  1
  I  I7  1  0.916788  0.289841  0.767168  1
  I  I8  1  0.684430  0.214157  0.073950  1
  I  I9  1  0.437782  0.139502  0.363333  1
  I  I10  1  0.867945  0.644033  0.575452  1
  I  I11  1  0.224529  0.073605  0.694623  1
  I  I12  1  0.646585  0.573076  0.865175  1
  I  I13  1  0.367001  0.430635  0.135300  1
  I  I14  1  0.774441  0.920570  0.303153  1
  I  I15  1  0.137281  0.356442  0.438242  1
  I  I16  1  0.560643  0.856921  0.636676  1
  I  I17  1  0.303744  0.781058  0.925091  1
  I  I18  1  0.077223  0.701828  0.215620  1
