# generated using pymatgen
data_Nd4Pd3PtO14
_symmetry_space_group_name_H-M   'P 1'
_cell_length_a   7.42657285
_cell_length_b   7.42898288
_cell_length_c   7.42657200
_cell_angle_alpha   60.01073456
_cell_angle_beta   60.00000380
_cell_angle_gamma   60.01073329
_symmetry_Int_Tables_number   1
_chemical_formula_structural   Nd4Pd3PtO14
_chemical_formula_sum   'Nd4 Pd3 Pt1 O14'
_cell_volume   289.77549468
_cell_formula_units_Z   1
loop_
 _symmetry_equiv_pos_site_id
 _symmetry_equiv_pos_as_xyz
  1  'x, y, z'
loop_
 _atom_site_type_symbol
 _atom_site_label
 _atom_site_symmetry_multiplicity
 _atom_site_fract_x
 _atom_site_fract_y
 _atom_site_fract_z
 _atom_site_occupancy
  Nd  Nd0  1  0.625000  0.625000  0.125000  1
  Nd  Nd1  1  0.625000  0.125000  0.625000  1
  Nd  Nd2  1  0.125000  0.625000  0.625000  1
  Nd  Nd3  1  0.625000  0.625000  0.625000  1
  Pd  Pd4  1  0.125000  0.125000  0.625000  1
  Pd  Pd5  1  0.625000  0.125000  0.125000  1
  Pd  Pd6  1  0.125000  0.125000  0.125000  1
  Pt  Pt7  1  0.125000  0.625000  0.125000  1
  O  O8  1  0.499943  0.500171  0.499943  1
  O  O9  1  0.750057  0.749829  0.750057  1
  O  O10  1  0.460089  0.039830  0.460089  1
  O  O11  1  0.210204  0.788367  0.210204  1
  O  O12  1  0.458774  0.461633  0.039796  1
  O  O13  1  0.039796  0.461633  0.458774  1
  O  O14  1  0.460089  0.039830  0.039992  1
  O  O15  1  0.039992  0.039830  0.460089  1
  O  O16  1  0.039796  0.461633  0.039796  1
  O  O17  1  0.789911  0.210170  0.210008  1
  O  O18  1  0.210204  0.788367  0.791226  1
  O  O19  1  0.789911  0.210170  0.789911  1
  O  O20  1  0.210008  0.210170  0.789911  1
  O  O21  1  0.791226  0.788367  0.210204  1
