# generated using pymatgen
data_Tm12Cr(Si4Ir)3
_symmetry_space_group_name_H-M   'P 1'
_cell_length_a   4.16695300
_cell_length_b   10.51863133
_cell_length_c   12.07846200
_cell_angle_alpha   90.10097249
_cell_angle_beta   90.00000000
_cell_angle_gamma   90.00000000
_symmetry_Int_Tables_number   1
_chemical_formula_structural   Tm12Cr(Si4Ir)3
_chemical_formula_sum   'Tm12 Cr1 Si12 Ir3'
_cell_volume   529.40592648
_cell_formula_units_Z   1
loop_
 _symmetry_equiv_pos_site_id
 _symmetry_equiv_pos_as_xyz
  1  'x, y, z'
loop_
 _atom_site_type_symbol
 _atom_site_label
 _atom_site_symmetry_multiplicity
 _atom_site_fract_x
 _atom_site_fract_y
 _atom_site_fract_z
 _atom_site_occupancy
  Tm  Tm0  1  0.250000  0.878949  0.020740  1
  Tm  Tm1  1  0.250000  0.621743  0.520992  1
  Tm  Tm2  1  0.750000  0.119133  0.980666  1
  Tm  Tm3  1  0.750000  0.379453  0.478287  1
  Tm  Tm4  1  0.250000  0.921018  0.601962  1
  Tm  Tm5  1  0.250000  0.579667  0.103350  1
  Tm  Tm6  1  0.750000  0.079217  0.395405  1
  Tm  Tm7  1  0.750000  0.420433  0.897720  1
  Tm  Tm8  1  0.250000  0.662938  0.800421  1
  Tm  Tm9  1  0.250000  0.839682  0.300288  1
  Tm  Tm10  1  0.750000  0.340998  0.199099  1
  Tm  Tm11  1  0.750000  0.158277  0.699913  1
  Cr  Cr12  1  0.250000  0.388299  0.680193  1
  Si  Si13  1  0.250000  0.011221  0.821485  1
  Si  Si14  1  0.250000  0.487928  0.322264  1
  Si  Si15  1  0.750000  0.986783  0.178937  1
  Si  Si16  1  0.750000  0.517040  0.678566  1
  Si  Si17  1  0.250000  0.247276  0.843461  1
  Si  Si18  1  0.250000  0.251847  0.340537  1
  Si  Si19  1  0.750000  0.751964  0.158570  1
  Si  Si20  1  0.750000  0.751764  0.657919  1
  Si  Si21  1  0.250000  0.195840  0.541091  1
  Si  Si22  1  0.250000  0.299554  0.044102  1
  Si  Si23  1  0.750000  0.802122  0.455798  1
  Si  Si24  1  0.750000  0.698264  0.957337  1
  Ir  Ir25  1  0.250000  0.108406  0.179165  1
  Ir  Ir26  1  0.750000  0.610251  0.319909  1
  Ir  Ir27  1  0.750000  0.889935  0.821820  1
