# generated using pymatgen
data_TaI11
_symmetry_space_group_name_H-M   'P 1'
_cell_length_a   8.83499406
_cell_length_b   9.00011642
_cell_length_c   9.19709619
_cell_angle_alpha   88.45812428
_cell_angle_beta   63.38230406
_cell_angle_gamma   87.89611321
_symmetry_Int_Tables_number   1
_chemical_formula_structural   TaI11
_chemical_formula_sum   'Ta1 I11'
_cell_volume   653.32269141
_cell_formula_units_Z   1
loop_
 _symmetry_equiv_pos_site_id
 _symmetry_equiv_pos_as_xyz
  1  'x, y, z'
loop_
 _atom_site_type_symbol
 _atom_site_label
 _atom_site_symmetry_multiplicity
 _atom_site_fract_x
 _atom_site_fract_y
 _atom_site_fract_z
 _atom_site_occupancy
  Ta  Ta0  1  0.000000  0.500000  0.500000  1
  I  I1  1  0.000000  0.000000  0.000000  1
  I  I2  1  0.253676  0.587898  0.185108  1
  I  I3  1  0.457226  0.828270  0.216647  1
  I  I4  1  0.653233  0.069855  0.244788  1
  I  I5  1  0.775111  0.494735  0.372417  1
  I  I6  1  0.088696  0.210800  0.416385  1
  I  I7  1  0.911305  0.789200  0.583615  1
  I  I8  1  0.224889  0.505265  0.627584  1
  I  I9  1  0.346767  0.930145  0.755212  1
  I  I10  1  0.542773  0.171730  0.783354  1
  I  I11  1  0.746324  0.412102  0.814893  1
