# generated using pymatgen
data_Ti(AlCu)6
_symmetry_space_group_name_H-M   'P 1'
_cell_length_a   6.48397198
_cell_length_b   6.48397202
_cell_length_c   6.48397233
_cell_angle_alpha   134.31799593
_cell_angle_beta   99.09642436
_cell_angle_gamma   98.23673297
_symmetry_Int_Tables_number   1
_chemical_formula_structural   Ti(AlCu)6
_chemical_formula_sum   'Ti1 Al6 Cu6'
_cell_volume   179.73638476
_cell_formula_units_Z   1
loop_
 _symmetry_equiv_pos_site_id
 _symmetry_equiv_pos_as_xyz
  1  'x, y, z'
loop_
 _atom_site_type_symbol
 _atom_site_label
 _atom_site_symmetry_multiplicity
 _atom_site_fract_x
 _atom_site_fract_y
 _atom_site_fract_z
 _atom_site_occupancy
  Ti  Ti0  1  0.000000  0.000000  0.000000  1
  Al  Al1  1  0.660462  0.660462  0.000000  1
  Al  Al2  1  0.339538  0.339538  0.000000  1
  Al  Al3  1  0.340561  0.000000  0.340561  1
  Al  Al4  1  0.659439  0.000000  0.659439  1
  Al  Al5  1  0.178076  0.678076  0.500000  1
  Al  Al6  1  0.821924  0.321924  0.500000  1
  Cu  Cu7  1  0.500000  0.500000  0.500000  1
  Cu  Cu8  1  0.500000  0.000000  0.000000  1
  Cu  Cu9  1  0.000000  0.500000  0.000000  1
  Cu  Cu10  1  0.000000  0.000000  0.500000  1
  Cu  Cu11  1  0.762194  0.500000  0.262194  1
  Cu  Cu12  1  0.237806  0.500000  0.737806  1
