# generated using pymatgen
data_Tb3Lu5B24OsW3
_symmetry_space_group_name_H-M   'P 1'
_cell_length_a   3.58317400
_cell_length_b   9.20823423
_cell_length_c   11.61487102
_cell_angle_alpha   89.92222656
_cell_angle_beta   90.00000000
_cell_angle_gamma   90.00000000
_symmetry_Int_Tables_number   1
_chemical_formula_structural   Tb3Lu5B24OsW3
_chemical_formula_sum   'Tb3 Lu5 B24 Os1 W3'
_cell_volume   383.22889531
_cell_formula_units_Z   1
loop_
 _symmetry_equiv_pos_site_id
 _symmetry_equiv_pos_as_xyz
  1  'x, y, z'
loop_
 _atom_site_type_symbol
 _atom_site_label
 _atom_site_symmetry_multiplicity
 _atom_site_fract_x
 _atom_site_fract_y
 _atom_site_fract_z
 _atom_site_occupancy
  Tb  Tb0  1  0.000000  0.320490  0.413545  1
  Tb  Tb1  1  0.000000  0.678838  0.586232  1
  Tb  Tb2  1  0.000000  0.821015  0.085057  1
  Lu  Lu3  1  0.000000  0.178579  0.913697  1
  Lu  Lu4  1  0.000000  0.944378  0.372699  1
  Lu  Lu5  1  0.000000  0.054640  0.630009  1
  Lu  Lu6  1  0.000000  0.445158  0.126291  1
  Lu  Lu7  1  0.000000  0.558232  0.871485  1
  B  B8  1  0.500000  0.551295  0.434501  1
  B  B9  1  0.500000  0.447395  0.566598  1
  B  B10  1  0.500000  0.051627  0.062613  1
  B  B11  1  0.500000  0.945893  0.931451  1
  B  B12  1  0.500000  0.753173  0.421376  1
  B  B13  1  0.500000  0.246218  0.580378  1
  B  B14  1  0.500000  0.253710  0.076444  1
  B  B15  1  0.500000  0.750798  0.917398  1
  B  B16  1  0.500000  0.795723  0.264772  1
  B  B17  1  0.500000  0.203110  0.738574  1
  B  B18  1  0.500000  0.294993  0.234473  1
  B  B19  1  0.500000  0.709154  0.765962  1
  B  B20  1  0.500000  0.630705  0.182243  1
  B  B21  1  0.500000  0.369112  0.819299  1
  B  B22  1  0.500000  0.129622  0.316384  1
  B  B23  1  0.500000  0.870185  0.686384  1
  B  B24  1  0.500000  0.978612  0.213084  1
  B  B25  1  0.500000  0.017184  0.788328  1
  B  B26  1  0.500000  0.478467  0.285467  1
  B  B27  1  0.500000  0.522016  0.714285  1
  B  B28  1  0.500000  0.600685  0.026207  1
  B  B29  1  0.500000  0.401167  0.971766  1
  B  B30  1  0.500000  0.098203  0.473583  1
  B  B31  1  0.500000  0.900712  0.529158  1
  Os  Os32  1  0.000000  0.861408  0.820355  1
  W  W33  1  0.000000  0.639300  0.319859  1
  W  W34  1  0.000000  0.359346  0.682234  1
  W  W35  1  0.000000  0.138857  0.177811  1
