# generated using pymatgen
data_AlV17(Si6Os)2
_symmetry_space_group_name_H-M   'P 1'
_cell_length_a   7.04728773
_cell_length_b   7.04728785
_cell_length_c   13.26800700
_cell_angle_alpha   90.00000000
_cell_angle_beta   90.00000000
_cell_angle_gamma   140.41036453
_symmetry_Int_Tables_number   1
_chemical_formula_structural   AlV17(Si6Os)2
_chemical_formula_sum   'Al1 V17 Si12 Os2'
_cell_volume   419.93602045
_cell_formula_units_Z   1
loop_
 _symmetry_equiv_pos_site_id
 _symmetry_equiv_pos_as_xyz
  1  'x, y, z'
loop_
 _atom_site_type_symbol
 _atom_site_label
 _atom_site_symmetry_multiplicity
 _atom_site_fract_x
 _atom_site_fract_y
 _atom_site_fract_z
 _atom_site_occupancy
  Al  Al0  1  0.002003  0.002003  0.000000  1
  V  V1  1  0.069639  0.419899  0.400052  1
  V  V2  1  0.580085  0.934761  0.898977  1
  V  V3  1  0.419899  0.069639  0.599948  1
  V  V4  1  0.934761  0.580085  0.101023  1
  V  V5  1  0.850834  0.650326  0.675285  1
  V  V6  1  0.349021  0.146484  0.177075  1
  V  V7  1  0.650326  0.850834  0.324715  1
  V  V8  1  0.146484  0.349021  0.822925  1
  V  V9  1  0.650326  0.850834  0.675285  1
  V  V10  1  0.146484  0.349021  0.177075  1
  V  V11  1  0.850834  0.650326  0.324715  1
  V  V12  1  0.349021  0.146484  0.822925  1
  V  V13  1  0.419899  0.069639  0.400052  1
  V  V14  1  0.934761  0.580085  0.898977  1
  V  V15  1  0.069639  0.419899  0.599948  1
  V  V16  1  0.580085  0.934761  0.101023  1
  V  V17  1  0.997175  0.997175  0.500000  1
  Si  Si18  1  0.251317  0.748939  0.749328  1
  Si  Si19  1  0.748939  0.251317  0.250672  1
  Si  Si20  1  0.748939  0.251317  0.749328  1
  Si  Si21  1  0.251317  0.748939  0.250672  1
  Si  Si22  1  0.240845  0.240845  0.667068  1
  Si  Si23  1  0.752177  0.752177  0.167016  1
  Si  Si24  1  0.240845  0.240845  0.332932  1
  Si  Si25  1  0.752177  0.752177  0.832984  1
  Si  Si26  1  0.583255  0.918234  0.500000  1
  Si  Si27  1  0.089459  0.422191  0.000000  1
  Si  Si28  1  0.918234  0.583255  0.500000  1
  Si  Si29  1  0.422191  0.089459  0.000000  1
  Os  Os30  1  0.502278  0.502278  0.000000  1
  Os  Os31  1  0.496747  0.496747  0.500000  1
