# generated using pymatgen
data_YbSe23
_symmetry_space_group_name_H-M   'P 1'
_cell_length_a   5.23736715
_cell_length_b   10.19426330
_cell_length_c   16.49151900
_cell_angle_alpha   88.31348080
_cell_angle_beta   86.83688808
_cell_angle_gamma   91.83957472
_symmetry_Int_Tables_number   1
_chemical_formula_structural   YbSe23
_chemical_formula_sum   'Yb1 Se23'
_cell_volume   878.27619183
_cell_formula_units_Z   1
loop_
 _symmetry_equiv_pos_site_id
 _symmetry_equiv_pos_as_xyz
  1  'x, y, z'
loop_
 _atom_site_type_symbol
 _atom_site_label
 _atom_site_symmetry_multiplicity
 _atom_site_fract_x
 _atom_site_fract_y
 _atom_site_fract_z
 _atom_site_occupancy
  Yb  Yb0  1  0.516575  0.444530  0.478451  1
  Se  Se1  1  0.491066  0.814881  0.369131  1
  Se  Se2  1  0.014825  0.317828  0.118803  1
  Se  Se3  1  0.868139  0.236844  0.509653  1
  Se  Se4  1  0.255737  0.741445  0.489028  1
  Se  Se5  1  0.246172  0.272955  0.996121  1
  Se  Se6  1  0.750362  0.710033  0.005354  1
  Se  Se7  1  0.124372  0.390033  0.366822  1
  Se  Se8  1  0.733746  0.616616  0.343639  1
  Se  Se9  1  0.767117  0.127170  0.161910  1
  Se  Se10  1  0.257043  0.866264  0.129454  1
  Se  Se11  1  0.736384  0.601384  0.624576  1
  Se  Se12  1  0.242870  0.327793  0.627563  1
  Se  Se13  1  0.236591  0.863928  0.846763  1
  Se  Se14  1  0.749486  0.129626  0.861264  1
  Se  Se15  1  0.021247  0.667918  0.112332  1
  Se  Se16  1  0.500655  0.795659  0.601134  1
  Se  Se17  1  0.522277  0.151643  0.597556  1
  Se  Se18  1  0.986751  0.671389  0.882559  1
  Se  Se19  1  0.994081  0.322831  0.885204  1
  Se  Se20  1  0.456303  0.474878  0.272639  1
  Se  Se21  1  0.040220  0.987496  0.230812  1
  Se  Se22  1  0.501273  0.464201  0.721060  1
  Se  Se23  1  0.986707  0.002653  0.768175  1
