# generated using pymatgen
data_PrSm(Dy2Rh9)2
_symmetry_space_group_name_H-M   'P 1'
_cell_length_a   5.29459191
_cell_length_b   5.29493081
_cell_length_c   17.53254300
_cell_angle_alpha   90.00000000
_cell_angle_beta   90.00000000
_cell_angle_gamma   120.00396065
_symmetry_Int_Tables_number   1
_chemical_formula_structural   PrSm(Dy2Rh9)2
_chemical_formula_sum   'Pr1 Sm1 Dy4 Rh18'
_cell_volume   425.64838669
_cell_formula_units_Z   1
loop_
 _symmetry_equiv_pos_site_id
 _symmetry_equiv_pos_as_xyz
  1  'x, y, z'
loop_
 _atom_site_type_symbol
 _atom_site_label
 _atom_site_symmetry_multiplicity
 _atom_site_fract_x
 _atom_site_fract_y
 _atom_site_fract_z
 _atom_site_occupancy
  Pr  Pr0  1  0.333328  0.666670  0.750000  1
  Sm  Sm1  1  0.666665  0.333335  0.250000  1
  Dy  Dy2  1  0.333317  0.666661  0.958587  1
  Dy  Dy3  1  0.666685  0.333337  0.041884  1
  Dy  Dy4  1  0.666685  0.333337  0.458116  1
  Dy  Dy5  1  0.333317  0.666661  0.541413  1
  Rh  Rh6  1  0.167495  0.832493  0.374628  1
  Rh  Rh7  1  0.167496  0.335011  0.374636  1
  Rh  Rh8  1  0.664996  0.832508  0.374636  1
  Rh  Rh9  1  0.832414  0.167596  0.624925  1
  Rh  Rh10  1  0.832423  0.664813  0.624910  1
  Rh  Rh11  1  0.335176  0.167575  0.624911  1
  Rh  Rh12  1  0.832414  0.167596  0.875075  1
  Rh  Rh13  1  0.832423  0.664813  0.875090  1
  Rh  Rh14  1  0.335176  0.167575  0.875089  1
  Rh  Rh15  1  0.167495  0.832493  0.125372  1
  Rh  Rh16  1  0.167496  0.335011  0.125364  1
  Rh  Rh17  1  0.664996  0.832508  0.125364  1
  Rh  Rh18  1  0.333371  0.666659  0.250000  1
  Rh  Rh19  1  0.666622  0.333354  0.750000  1
  Rh  Rh20  1  0.999985  0.000022  0.250000  1
  Rh  Rh21  1  0.000022  0.999969  0.750000  1
  Rh  Rh22  1  0.000001  0.000002  0.499721  1
  Rh  Rh23  1  0.000001  0.000002  0.000279  1
