# generated using pymatgen
data_La2Yb(H6Ir)2
_symmetry_space_group_name_H-M   'P 1'
_cell_length_a   4.93693100
_cell_length_b   4.93693018
_cell_length_c   8.54307700
_cell_angle_alpha   90.00000000
_cell_angle_beta   90.00000000
_cell_angle_gamma   119.99999882
_symmetry_Int_Tables_number   1
_chemical_formula_structural   La2Yb(H6Ir)2
_chemical_formula_sum   'La2 Yb1 H12 Ir2'
_cell_volume   180.32627019
_cell_formula_units_Z   1
loop_
 _symmetry_equiv_pos_site_id
 _symmetry_equiv_pos_as_xyz
  1  'x, y, z'
loop_
 _atom_site_type_symbol
 _atom_site_label
 _atom_site_symmetry_multiplicity
 _atom_site_fract_x
 _atom_site_fract_y
 _atom_site_fract_z
 _atom_site_occupancy
  La  La0  1  0.000000  0.000000  0.007128  1
  La  La1  1  0.333333  0.666667  0.625624  1
  Yb  Yb2  1  0.666667  0.333333  0.356843  1
  H  H3  1  0.170614  0.829386  0.360897  1
  H  H4  1  0.658771  0.829386  0.360897  1
  H  H5  1  0.170614  0.341229  0.360897  1
  H  H6  1  0.829294  0.170706  0.637652  1
  H  H7  1  0.341412  0.170706  0.637652  1
  H  H8  1  0.829294  0.658588  0.637652  1
  H  H9  1  0.503604  0.007208  0.873849  1
  H  H10  1  0.503604  0.496396  0.873849  1
  H  H11  1  0.992792  0.496396  0.873849  1
  H  H12  1  0.496089  0.992178  0.130047  1
  H  H13  1  0.496089  0.503911  0.130047  1
  H  H14  1  0.007822  0.503911  0.130047  1
  Ir  Ir15  1  0.666667  0.333333  0.757165  1
  Ir  Ir16  1  0.333333  0.666667  0.245905  1
