# generated using pymatgen
data_Mg2ZnSbRh4
_symmetry_space_group_name_H-M   'P 1'
_cell_length_a   6.26123500
_cell_length_b   6.26109400
_cell_length_c   6.25090800
_cell_angle_alpha   90.00000000
_cell_angle_beta   90.00000000
_cell_angle_gamma   90.00000000
_symmetry_Int_Tables_number   1
_chemical_formula_structural   Mg2ZnSbRh4
_chemical_formula_sum   'Mg4 Zn2 Sb2 Rh8'
_cell_volume   245.04922615
_cell_formula_units_Z   2
loop_
 _symmetry_equiv_pos_site_id
 _symmetry_equiv_pos_as_xyz
  1  'x, y, z'
loop_
 _atom_site_type_symbol
 _atom_site_label
 _atom_site_symmetry_multiplicity
 _atom_site_fract_x
 _atom_site_fract_y
 _atom_site_fract_z
 _atom_site_occupancy
  Mg  Mg0  1  0.750132  0.249999  0.000000  1
  Mg  Mg1  1  0.249868  0.749999  0.000000  1
  Mg  Mg2  1  0.250024  0.749999  0.499992  1
  Mg  Mg3  1  0.749977  0.249999  0.500007  1
  Zn  Zn4  1  0.249891  0.249999  0.000000  1
  Zn  Zn5  1  0.750109  0.749999  0.000000  1
  Sb  Sb6  1  0.749886  0.749999  0.499996  1
  Sb  Sb7  1  0.250114  0.249999  0.500003  1
  Rh  Rh8  1  0.499993  0.000000  0.249309  1
  Rh  Rh9  1  0.499993  0.500000  0.249309  1
  Rh  Rh10  1  0.000000  0.000000  0.249471  1
  Rh  Rh11  1  0.000000  0.500000  0.249471  1
  Rh  Rh12  1  0.000000  0.000000  0.750528  1
  Rh  Rh13  1  0.000000  0.500000  0.750528  1
  Rh  Rh14  1  0.500008  0.000000  0.750691  1
  Rh  Rh15  1  0.500008  0.500000  0.750691  1
