# generated using pymatgen
data_Ta2Nb2GaC3
_symmetry_space_group_name_H-M   'P 1'
_cell_length_a   3.16144100
_cell_length_b   3.16144143
_cell_length_c   24.07277500
_cell_angle_alpha   90.00000000
_cell_angle_beta   90.00000000
_cell_angle_gamma   119.99998507
_symmetry_Int_Tables_number   1
_chemical_formula_structural   Ta2Nb2GaC3
_chemical_formula_sum   'Ta4 Nb4 Ga2 C6'
_cell_volume   208.36610563
_cell_formula_units_Z   2
loop_
 _symmetry_equiv_pos_site_id
 _symmetry_equiv_pos_as_xyz
  1  'x, y, z'
loop_
 _atom_site_type_symbol
 _atom_site_label
 _atom_site_symmetry_multiplicity
 _atom_site_fract_x
 _atom_site_fract_y
 _atom_site_fract_z
 _atom_site_occupancy
  Ta  Ta0  1  0.333333  0.666667  0.444404  1
  Ta  Ta1  1  0.666667  0.333333  0.555596  1
  Ta  Ta2  1  0.666667  0.333333  0.944404  1
  Ta  Ta3  1  0.333333  0.666667  0.055596  1
  Nb  Nb4  1  0.000000  0.000000  0.342113  1
  Nb  Nb5  1  0.000000  0.000000  0.657887  1
  Nb  Nb6  1  0.000000  0.000000  0.842113  1
  Nb  Nb7  1  0.000000  0.000000  0.157887  1
  Ga  Ga8  1  0.333333  0.666667  0.250000  1
  Ga  Ga9  1  0.666667  0.333333  0.750000  1
  C  C10  1  0.000000  0.000000  0.500000  1
  C  C11  1  0.000000  0.000000  0.000000  1
  C  C12  1  0.666667  0.333333  0.392118  1
  C  C13  1  0.333333  0.666667  0.607882  1
  C  C14  1  0.333333  0.666667  0.892118  1
  C  C15  1  0.666667  0.333333  0.107882  1
