# generated using pymatgen
data_Li6V6ZnCo5O24
_symmetry_space_group_name_H-M   'P 1'
_cell_length_a   8.89262437
_cell_length_b   8.89528046
_cell_length_c   8.89306448
_cell_angle_alpha   107.84841654
_cell_angle_beta   107.83769234
_cell_angle_gamma   107.83033406
_symmetry_Int_Tables_number   1
_chemical_formula_structural   Li6V6ZnCo5O24
_chemical_formula_sum   'Li6 V6 Zn1 Co5 O24'
_cell_volume   571.91570357
_cell_formula_units_Z   1
loop_
 _symmetry_equiv_pos_site_id
 _symmetry_equiv_pos_as_xyz
  1  'x, y, z'
loop_
 _atom_site_type_symbol
 _atom_site_label
 _atom_site_symmetry_multiplicity
 _atom_site_fract_x
 _atom_site_fract_y
 _atom_site_fract_z
 _atom_site_occupancy
  Li  Li0  1  0.203612  0.438664  0.610469  1
  Li  Li1  1  0.439131  0.610629  0.203887  1
  Li  Li2  1  0.610728  0.203822  0.439046  1
  Li  Li3  1  0.896598  0.724296  0.125948  1
  Li  Li4  1  0.724048  0.125812  0.896260  1
  Li  Li5  1  0.125843  0.896465  0.724137  1
  V  V6  1  0.538037  0.766174  0.945041  1
  V  V7  1  0.766092  0.944649  0.537993  1
  V  V8  1  0.944772  0.537868  0.766099  1
  V  V9  1  0.461233  0.232918  0.054284  1
  V  V10  1  0.233184  0.054370  0.461444  1
  V  V11  1  0.054424  0.461399  0.232903  1
  Zn  Zn12  1  0.872672  0.103704  0.276167  1
  Co  Co13  1  0.797242  0.563216  0.388487  1
  Co  Co14  1  0.563112  0.388252  0.797158  1
  Co  Co15  1  0.388453  0.797396  0.563393  1
  Co  Co16  1  0.102718  0.277167  0.873031  1
  Co  Co17  1  0.277153  0.873296  0.102792  1
  O  O18  1  0.390997  0.687511  0.725078  1
  O  O19  1  0.687302  0.724573  0.390674  1
  O  O20  1  0.724689  0.390796  0.687418  1
  O  O21  1  0.611899  0.318072  0.275018  1
  O  O22  1  0.317846  0.275126  0.612058  1
  O  O23  1  0.275006  0.612043  0.317889  1
  O  O24  1  0.695382  0.983500  0.028639  1
  O  O25  1  0.983333  0.029450  0.695634  1
  O  O26  1  0.029551  0.695479  0.983298  1
  O  O27  1  0.306403  0.016302  0.974389  1
  O  O28  1  0.016807  0.973371  0.306162  1
  O  O29  1  0.974429  0.306611  0.016417  1
  O  O30  1  0.424027  0.753556  0.073674  1
  O  O31  1  0.753065  0.073734  0.424826  1
  O  O32  1  0.073817  0.424163  0.753767  1
  O  O33  1  0.574950  0.245588  0.925470  1
  O  O34  1  0.245714  0.925491  0.575076  1
  O  O35  1  0.925504  0.574700  0.245444  1
  O  O36  1  0.646569  0.633870  0.960895  1
  O  O37  1  0.634009  0.960703  0.646857  1
  O  O38  1  0.960961  0.646712  0.633972  1
  O  O39  1  0.349560  0.362534  0.035743  1
  O  O40  1  0.362791  0.035838  0.349793  1
  O  O41  1  0.036334  0.350178  0.363268  1
