# generated using pymatgen
data_PrCuNiSn2
_symmetry_space_group_name_H-M   'P 1'
_cell_length_a   4.45255700
_cell_length_b   4.45255700
_cell_length_c   10.52561800
_cell_angle_alpha   90.00000000
_cell_angle_beta   90.00000000
_cell_angle_gamma   90.00000000
_symmetry_Int_Tables_number   1
_chemical_formula_structural   PrCuNiSn2
_chemical_formula_sum   'Pr2 Cu2 Ni2 Sn4'
_cell_volume   208.67315391
_cell_formula_units_Z   2
loop_
 _symmetry_equiv_pos_site_id
 _symmetry_equiv_pos_as_xyz
  1  'x, y, z'
loop_
 _atom_site_type_symbol
 _atom_site_label
 _atom_site_symmetry_multiplicity
 _atom_site_fract_x
 _atom_site_fract_y
 _atom_site_fract_z
 _atom_site_occupancy
  Pr  Pr0  1  0.000000  0.500000  0.246082  1
  Pr  Pr1  1  0.500000  0.000000  0.753918  1
  Cu  Cu2  1  0.000000  0.000000  0.000000  1
  Cu  Cu3  1  0.500000  0.500000  0.000000  1
  Ni  Ni4  1  0.000000  0.500000  0.624735  1
  Ni  Ni5  1  0.500000  0.000000  0.375265  1
  Sn  Sn6  1  0.000000  0.000000  0.500000  1
  Sn  Sn7  1  0.500000  0.500000  0.500000  1
  Sn  Sn8  1  0.000000  0.500000  0.863409  1
  Sn  Sn9  1  0.500000  0.000000  0.136591  1
