# generated using pymatgen
data_Mn2Zn(MoO4)3
_symmetry_space_group_name_H-M   'P 1'
_cell_length_a   7.18047559
_cell_length_b   8.63520505
_cell_length_c   10.04059316
_cell_angle_alpha   96.59711165
_cell_angle_beta   106.46034875
_cell_angle_gamma   101.82641938
_symmetry_Int_Tables_number   1
_chemical_formula_structural   Mn2Zn(MoO4)3
_chemical_formula_sum   'Mn4 Zn2 Mo6 O24'
_cell_volume   574.37076491
_cell_formula_units_Z   2
loop_
 _symmetry_equiv_pos_site_id
 _symmetry_equiv_pos_as_xyz
  1  'x, y, z'
loop_
 _atom_site_type_symbol
 _atom_site_label
 _atom_site_symmetry_multiplicity
 _atom_site_fract_x
 _atom_site_fract_y
 _atom_site_fract_z
 _atom_site_occupancy
  Mn  Mn0  1  0.251902  0.693190  0.909863  1
  Mn  Mn1  1  0.748098  0.306810  0.090137  1
  Mn  Mn2  1  0.534313  0.696685  0.488541  1
  Mn  Mn3  1  0.465687  0.303315  0.511459  1
  Zn  Zn4  1  0.969183  0.886152  0.710928  1
  Zn  Zn5  1  0.030817  0.113848  0.289072  1
  Mo  Mo6  1  0.504968  0.988988  0.757017  1
  Mo  Mo7  1  0.495032  0.011012  0.242983  1
  Mo  Mo8  1  0.700541  0.606096  0.837335  1
  Mo  Mo9  1  0.299459  0.393904  0.162665  1
  Mo  Mo10  1  0.979135  0.710826  0.375783  1
  Mo  Mo11  1  0.020865  0.289174  0.624217  1
  O  O12  1  0.265592  0.869772  0.763890  1
  O  O13  1  0.734408  0.130228  0.236110  1
  O  O14  1  0.559219  0.709248  0.919136  1
  O  O15  1  0.440781  0.290752  0.080864  1
  O  O16  1  0.558095  0.526377  0.651587  1
  O  O17  1  0.441905  0.473623  0.348413  1
  O  O18  1  0.550361  0.869656  0.352715  1
  O  O19  1  0.449639  0.130344  0.647285  1
  O  O20  1  0.656112  0.096421  0.925870  1
  O  O21  1  0.343888  0.903579  0.074130  1
  O  O22  1  0.650029  0.866948  0.684985  1
  O  O23  1  0.349971  0.133052  0.315015  1
  O  O24  1  0.021103  0.119439  0.713076  1
  O  O25  1  0.978897  0.880561  0.286924  1
  O  O26  1  0.052130  0.265570  0.147655  1
  O  O27  1  0.947870  0.734430  0.852345  1
  O  O28  1  0.146346  0.470908  0.748890  1
  O  O29  1  0.853654  0.529092  0.251110  1
  O  O30  1  0.138483  0.264336  0.483823  1
  O  O31  1  0.861517  0.735664  0.516177  1
  O  O32  1  0.255383  0.555561  0.075521  1
  O  O33  1  0.744617  0.444439  0.924479  1
  O  O34  1  0.231472  0.707099  0.458900  1
  O  O35  1  0.768528  0.292901  0.541100  1
