# generated using pymatgen
data_Th6ZnCo6Te7
_symmetry_space_group_name_H-M   'P 1'
_cell_length_a   8.31552153
_cell_length_b   8.19422317
_cell_length_c   8.31552038
_cell_angle_alpha   109.17600129
_cell_angle_beta   109.76481630
_cell_angle_gamma   109.17600155
_symmetry_Int_Tables_number   1
_chemical_formula_structural   Th6ZnCo6Te7
_chemical_formula_sum   'Th6 Zn1 Co6 Te7'
_cell_volume   437.75810234
_cell_formula_units_Z   1
loop_
 _symmetry_equiv_pos_site_id
 _symmetry_equiv_pos_as_xyz
  1  'x, y, z'
loop_
 _atom_site_type_symbol
 _atom_site_label
 _atom_site_symmetry_multiplicity
 _atom_site_fract_x
 _atom_site_fract_y
 _atom_site_fract_z
 _atom_site_occupancy
  Th  Th0  1  0.370072  0.253620  0.619822  1
  Th  Th1  1  0.749750  0.883548  0.129928  1
  Th  Th2  1  0.243887  0.613721  0.375108  1
  Th  Th3  1  0.631221  0.369834  0.256113  1
  Th  Th4  1  0.880178  0.133798  0.750250  1
  Th  Th5  1  0.124892  0.738613  0.868779  1
  Zn  Zn6  1  0.000000  0.359114  0.500000  1
  Co  Co7  1  0.124886  0.875977  0.254797  1
  Co  Co8  1  0.629911  0.751092  0.375114  1
  Co  Co9  1  0.876005  0.246612  0.123605  1
  Co  Co10  1  0.245203  0.121181  0.870089  1
  Co  Co11  1  0.747600  0.370607  0.623995  1
  Co  Co12  1  0.376395  0.623007  0.752400  1
  Te  Te13  1  0.839071  0.501219  0.000996  1
  Te  Te14  1  0.499004  0.000223  0.838075  1
  Te  Te15  1  0.661925  0.662148  0.660929  1
  Te  Te16  1  0.155745  0.155522  0.156719  1
  Te  Te17  1  0.343281  0.498803  0.999026  1
  Te  Te18  1  0.500974  0.999777  0.344255  1
  Te  Te19  1  0.000000  0.841584  0.500000  1
