# generated using pymatgen
data_SrPr2Sn5Au6
_symmetry_space_group_name_H-M   'P 1'
_cell_length_a   4.69416100
_cell_length_b   10.34315600
_cell_length_c   13.93352800
_cell_angle_alpha   90.00000000
_cell_angle_beta   90.00000000
_cell_angle_gamma   90.00000000
_symmetry_Int_Tables_number   1
_chemical_formula_structural   SrPr2Sn5Au6
_chemical_formula_sum   'Sr2 Pr4 Sn10 Au12'
_cell_volume   676.50677541
_cell_formula_units_Z   2
loop_
 _symmetry_equiv_pos_site_id
 _symmetry_equiv_pos_as_xyz
  1  'x, y, z'
loop_
 _atom_site_type_symbol
 _atom_site_label
 _atom_site_symmetry_multiplicity
 _atom_site_fract_x
 _atom_site_fract_y
 _atom_site_fract_z
 _atom_site_occupancy
  Sr  Sr0  1  0.500000  0.755494  0.500000  1
  Sr  Sr1  1  0.000000  0.244506  0.000000  1
  Pr  Pr2  1  0.500000  0.752892  0.810618  1
  Pr  Pr3  1  0.500000  0.752892  0.189382  1
  Pr  Pr4  1  0.000000  0.247108  0.689382  1
  Pr  Pr5  1  0.000000  0.247108  0.310618  1
  Sn  Sn6  1  0.500000  0.477353  0.643446  1
  Sn  Sn7  1  0.500000  0.477353  0.356554  1
  Sn  Sn8  1  0.000000  0.522647  0.856554  1
  Sn  Sn9  1  0.000000  0.522647  0.143446  1
  Sn  Sn10  1  0.500000  0.117074  0.834828  1
  Sn  Sn11  1  0.500000  0.117074  0.165172  1
  Sn  Sn12  1  0.000000  0.882926  0.665172  1
  Sn  Sn13  1  0.000000  0.882926  0.334828  1
  Sn  Sn14  1  0.500000  0.228161  0.500000  1
  Sn  Sn15  1  0.000000  0.771839  0.000000  1
  Au  Au16  1  0.500000  0.028349  0.644571  1
  Au  Au17  1  0.500000  0.028349  0.355429  1
  Au  Au18  1  0.000000  0.971651  0.855429  1
  Au  Au19  1  0.000000  0.971651  0.144571  1
  Au  Au20  1  0.000000  0.042420  0.500000  1
  Au  Au21  1  0.500000  0.957580  0.000000  1
  Au  Au22  1  0.500000  0.381622  0.838254  1
  Au  Au23  1  0.500000  0.381622  0.161746  1
  Au  Au24  1  0.000000  0.618378  0.661746  1
  Au  Au25  1  0.000000  0.618378  0.338254  1
  Au  Au26  1  0.000000  0.428310  0.500000  1
  Au  Au27  1  0.500000  0.571690  0.000000  1
