# generated using pymatgen
data_Tb3HoLu4(ReB6)4
_symmetry_space_group_name_H-M   'P 1'
_cell_length_a   3.65005000
_cell_length_b   9.11332600
_cell_length_c   11.50411900
_cell_angle_alpha   89.99781036
_cell_angle_beta   90.00000000
_cell_angle_gamma   90.00000000
_symmetry_Int_Tables_number   1
_chemical_formula_structural   Tb3HoLu4(ReB6)4
_chemical_formula_sum   'Tb3 Ho1 Lu4 Re4 B24'
_cell_volume   382.67411368
_cell_formula_units_Z   1
loop_
 _symmetry_equiv_pos_site_id
 _symmetry_equiv_pos_as_xyz
  1  'x, y, z'
loop_
 _atom_site_type_symbol
 _atom_site_label
 _atom_site_symmetry_multiplicity
 _atom_site_fract_x
 _atom_site_fract_y
 _atom_site_fract_z
 _atom_site_occupancy
  Tb  Tb0  1  0.000000  0.322906  0.413953  1
  Tb  Tb1  1  0.000000  0.677042  0.586113  1
  Tb  Tb2  1  0.000000  0.823003  0.085985  1
  Ho  Ho3  1  0.000000  0.176913  0.913958  1
  Lu  Lu4  1  0.000000  0.943555  0.370178  1
  Lu  Lu5  1  0.000000  0.056511  0.629854  1
  Lu  Lu6  1  0.000000  0.443443  0.129598  1
  Lu  Lu7  1  0.000000  0.556424  0.870341  1
  Re  Re8  1  0.000000  0.639733  0.319789  1
  Re  Re9  1  0.000000  0.360029  0.680461  1
  Re  Re10  1  0.000000  0.139701  0.179825  1
  Re  Re11  1  0.000000  0.860617  0.819981  1
  B  B12  1  0.500000  0.553832  0.432407  1
  B  B13  1  0.500000  0.446070  0.567694  1
  B  B14  1  0.500000  0.053997  0.067219  1
  B  B15  1  0.500000  0.946564  0.932447  1
  B  B16  1  0.500000  0.751091  0.418228  1
  B  B17  1  0.500000  0.248915  0.581902  1
  B  B18  1  0.500000  0.250999  0.081267  1
  B  B19  1  0.500000  0.749060  0.918205  1
  B  B20  1  0.500000  0.793219  0.265499  1
  B  B21  1  0.500000  0.206608  0.734840  1
  B  B22  1  0.500000  0.293164  0.234304  1
  B  B23  1  0.500000  0.706858  0.765590  1
  B  B24  1  0.500000  0.630089  0.184848  1
  B  B25  1  0.500000  0.369559  0.815435  1
  B  B26  1  0.500000  0.130144  0.315016  1
  B  B27  1  0.500000  0.870009  0.685005  1
  B  B28  1  0.500000  0.982139  0.212736  1
  B  B29  1  0.500000  0.018376  0.787395  1
  B  B30  1  0.500000  0.482003  0.287080  1
  B  B31  1  0.500000  0.517865  0.712969  1
  B  B32  1  0.500000  0.597790  0.027123  1
  B  B33  1  0.500000  0.401713  0.972724  1
  B  B34  1  0.500000  0.097796  0.472875  1
  B  B35  1  0.500000  0.902263  0.527152  1
