# generated using pymatgen
data_NdEu2Co8ReP6
_symmetry_space_group_name_H-M   'P 1'
_cell_length_a   3.75874500
_cell_length_b   10.61392800
_cell_length_c   12.35684200
_cell_angle_alpha   90.00000000
_cell_angle_beta   90.00000000
_cell_angle_gamma   90.00000000
_symmetry_Int_Tables_number   1
_chemical_formula_structural   NdEu2Co8ReP6
_chemical_formula_sum   'Nd2 Eu4 Co16 Re2 P12'
_cell_volume   492.97681461
_cell_formula_units_Z   2
loop_
 _symmetry_equiv_pos_site_id
 _symmetry_equiv_pos_as_xyz
  1  'x, y, z'
loop_
 _atom_site_type_symbol
 _atom_site_label
 _atom_site_symmetry_multiplicity
 _atom_site_fract_x
 _atom_site_fract_y
 _atom_site_fract_z
 _atom_site_occupancy
  Nd  Nd0  1  0.000000  0.500000  0.525256  1
  Nd  Nd1  1  0.500000  0.000000  0.474744  1
  Eu  Eu2  1  0.500000  0.819853  0.205340  1
  Eu  Eu3  1  0.500000  0.180147  0.205340  1
  Eu  Eu4  1  0.000000  0.680147  0.794660  1
  Eu  Eu5  1  0.000000  0.319853  0.794660  1
  Co  Co6  1  0.500000  0.500000  0.701885  1
  Co  Co7  1  0.000000  0.000000  0.298115  1
  Co  Co8  1  0.000000  0.500000  0.990003  1
  Co  Co9  1  0.500000  0.000000  0.009997  1
  Co  Co10  1  0.500000  0.332074  0.992594  1
  Co  Co11  1  0.500000  0.667926  0.992594  1
  Co  Co12  1  0.000000  0.167926  0.007406  1
  Co  Co13  1  0.000000  0.832074  0.007406  1
  Co  Co14  1  0.500000  0.296864  0.430804  1
  Co  Co15  1  0.500000  0.703136  0.430804  1
  Co  Co16  1  0.000000  0.203136  0.569196  1
  Co  Co17  1  0.000000  0.796864  0.569196  1
  Co  Co18  1  0.500000  0.881466  0.708744  1
  Co  Co19  1  0.500000  0.118534  0.708744  1
  Co  Co20  1  0.000000  0.618534  0.291256  1
  Co  Co21  1  0.000000  0.381466  0.291256  1
  Re  Re22  1  0.500000  0.500000  0.155031  1
  Re  Re23  1  0.000000  0.000000  0.844969  1
  P  P24  1  0.500000  0.500000  0.885054  1
  P  P25  1  0.000000  0.000000  0.114946  1
  P  P26  1  0.500000  0.500000  0.344475  1
  P  P27  1  0.000000  0.000000  0.655525  1
  P  P28  1  0.500000  0.305975  0.615645  1
  P  P29  1  0.500000  0.694025  0.615645  1
  P  P30  1  0.000000  0.194025  0.384355  1
  P  P31  1  0.000000  0.805975  0.384355  1
  P  P32  1  0.500000  0.846058  0.893376  1
  P  P33  1  0.500000  0.153942  0.893376  1
  P  P34  1  0.000000  0.653942  0.106624  1
  P  P35  1  0.000000  0.346058  0.106624  1
