# generated using pymatgen
data_Y20(Ir3Os)3
_symmetry_space_group_name_H-M   'P 1'
_cell_length_a   10.91298600
_cell_length_b   10.91298600
_cell_length_c   6.43466400
_cell_angle_alpha   90.00000000
_cell_angle_beta   90.00000000
_cell_angle_gamma   90.00000000
_symmetry_Int_Tables_number   1
_chemical_formula_structural   Y20(Ir3Os)3
_chemical_formula_sum   'Y20 Ir9 Os3'
_cell_volume   766.32513488
_cell_formula_units_Z   1
loop_
 _symmetry_equiv_pos_site_id
 _symmetry_equiv_pos_as_xyz
  1  'x, y, z'
loop_
 _atom_site_type_symbol
 _atom_site_label
 _atom_site_symmetry_multiplicity
 _atom_site_fract_x
 _atom_site_fract_y
 _atom_site_fract_z
 _atom_site_occupancy
  Y  Y0  1  0.294087  0.086559  0.377634  1
  Y  Y1  1  0.294074  0.913534  0.877487  1
  Y  Y2  1  0.705926  0.086466  0.877487  1
  Y  Y3  1  0.705913  0.913441  0.377634  1
  Y  Y4  1  0.586466  0.794074  0.877487  1
  Y  Y5  1  0.586559  0.205913  0.377634  1
  Y  Y6  1  0.413441  0.794087  0.377634  1
  Y  Y7  1  0.413534  0.205926  0.877487  1
  Y  Y8  1  0.207511  0.412855  0.623602  1
  Y  Y9  1  0.207282  0.587133  0.120438  1
  Y  Y10  1  0.792718  0.412867  0.120438  1
  Y  Y11  1  0.792489  0.587145  0.623602  1
  Y  Y12  1  0.912867  0.707282  0.120438  1
  Y  Y13  1  0.912855  0.292489  0.623602  1
  Y  Y14  1  0.087145  0.707511  0.623602  1
  Y  Y15  1  0.087133  0.292718  0.120438  1
  Y  Y16  1  0.000000  0.000000  0.499908  1
  Y  Y17  1  0.000000  0.000000  0.999954  1
  Y  Y18  1  0.500000  0.500000  0.999954  1
  Y  Y19  1  0.500000  0.500000  0.499908  1
  Ir  Ir20  1  0.847808  0.153161  0.250377  1
  Ir  Ir21  1  0.847728  0.846856  0.750036  1
  Ir  Ir22  1  0.152272  0.153144  0.750036  1
  Ir  Ir23  1  0.152192  0.846839  0.250377  1
  Ir  Ir24  1  0.653144  0.347728  0.750036  1
  Ir  Ir25  1  0.653161  0.652192  0.250377  1
  Ir  Ir26  1  0.346839  0.347808  0.250377  1
  Ir  Ir27  1  0.346856  0.652272  0.750036  1
  Ir  Ir28  1  0.000000  0.500000  0.377065  1
  Os  Os29  1  0.500000  0.000000  0.124469  1
  Os  Os30  1  0.500000  0.000000  0.624404  1
  Os  Os31  1  0.000000  0.500000  0.876042  1
