# generated using pymatgen
data_Dy8Mg4Sc8Si15Pt
_symmetry_space_group_name_H-M   'P 1'
_cell_length_a   6.99220920
_cell_length_b   7.45581957
_cell_length_c   13.96660200
_cell_angle_alpha   90.00000000
_cell_angle_beta   90.00000000
_cell_angle_gamma   90.37534815
_symmetry_Int_Tables_number   1
_chemical_formula_structural   Dy8Mg4Sc8Si15Pt
_chemical_formula_sum   'Dy8 Mg4 Sc8 Si15 Pt1'
_cell_volume   728.10035232
_cell_formula_units_Z   1
loop_
 _symmetry_equiv_pos_site_id
 _symmetry_equiv_pos_as_xyz
  1  'x, y, z'
loop_
 _atom_site_type_symbol
 _atom_site_label
 _atom_site_symmetry_multiplicity
 _atom_site_fract_x
 _atom_site_fract_y
 _atom_site_fract_z
 _atom_site_occupancy
  Dy  Dy0  1  0.011961  0.178088  0.095061  1
  Dy  Dy1  1  0.989899  0.823876  0.903403  1
  Dy  Dy2  1  0.486830  0.678858  0.903484  1
  Dy  Dy3  1  0.989899  0.823876  0.596597  1
  Dy  Dy4  1  0.513036  0.321416  0.097033  1
  Dy  Dy5  1  0.011961  0.178088  0.404939  1
  Dy  Dy6  1  0.513036  0.321416  0.402967  1
  Dy  Dy7  1  0.486830  0.678858  0.596516  1
  Mg  Mg8  1  0.157050  0.501975  0.750000  1
  Mg  Mg9  1  0.841434  0.495467  0.250000  1
  Mg  Mg10  1  0.341358  0.006014  0.250000  1
  Mg  Mg11  1  0.660424  0.995156  0.750000  1
  Sc  Sc12  1  0.322277  0.175815  0.625636  1
  Sc  Sc13  1  0.670678  0.821636  0.374786  1
  Sc  Sc14  1  0.170507  0.680716  0.374643  1
  Sc  Sc15  1  0.670678  0.821636  0.125214  1
  Sc  Sc16  1  0.830898  0.319919  0.627945  1
  Sc  Sc17  1  0.322277  0.175815  0.874364  1
  Sc  Sc18  1  0.830898  0.319919  0.872055  1
  Sc  Sc19  1  0.170507  0.680716  0.125357  1
  Si  Si20  1  0.964877  0.893662  0.250000  1
  Si  Si21  1  0.465402  0.607068  0.250000  1
  Si  Si22  1  0.529487  0.394015  0.750000  1
  Si  Si23  1  0.286083  0.871502  0.750000  1
  Si  Si24  1  0.720829  0.121115  0.250000  1
  Si  Si25  1  0.218037  0.378489  0.250000  1
  Si  Si26  1  0.778420  0.620030  0.750000  1
  Si  Si27  1  0.160024  0.465464  0.533943  1
  Si  Si28  1  0.842408  0.535769  0.464356  1
  Si  Si29  1  0.343093  0.965142  0.463318  1
  Si  Si30  1  0.842408  0.535769  0.035644  1
  Si  Si31  1  0.660715  0.036283  0.535074  1
  Si  Si32  1  0.160024  0.465464  0.966057  1
  Si  Si33  1  0.660715  0.036283  0.964926  1
  Si  Si34  1  0.343093  0.965142  0.036682  1
  Pt  Pt35  1  0.031945  0.109541  0.750000  1
