# generated using pymatgen
data_Pr3MgAg3Sn4
_symmetry_space_group_name_H-M   'P 1'
_cell_length_a   9.03817628
_cell_length_b   8.95861622
_cell_length_c   8.95861602
_cell_angle_alpha   149.19352219
_cell_angle_beta   130.59893331
_cell_angle_gamma   59.27593015
_symmetry_Int_Tables_number   1
_chemical_formula_structural   Pr3MgAg3Sn4
_chemical_formula_sum   'Pr3 Mg1 Ag3 Sn4'
_cell_volume   279.90859013
_cell_formula_units_Z   1
loop_
 _symmetry_equiv_pos_site_id
 _symmetry_equiv_pos_as_xyz
  1  'x, y, z'
loop_
 _atom_site_type_symbol
 _atom_site_label
 _atom_site_symmetry_multiplicity
 _atom_site_fract_x
 _atom_site_fract_y
 _atom_site_fract_z
 _atom_site_occupancy
  Pr  Pr0  1  0.499917  0.998836  0.501081  1
  Pr  Pr1  1  0.877134  0.874350  0.002784  1
  Pr  Pr2  1  0.117641  0.128299  0.989341  1
  Mg  Mg3  1  0.481428  0.670043  0.811385  1
  Ag  Ag4  1  0.860635  0.670317  0.190318  1
  Ag  Ag5  1  0.138307  0.330211  0.808096  1
  Ag  Ag6  1  0.523937  0.328594  0.195342  1
  Sn  Sn7  1  0.281699  0.783773  0.497926  1
  Sn  Sn8  1  0.723101  0.217143  0.505958  1
  Sn  Sn9  1  0.804983  0.499491  0.305492  1
  Sn  Sn10  1  0.191218  0.498943  0.692275  1
