# generated using pymatgen
data_Yb2Pr17InIr12
_symmetry_space_group_name_H-M   'P 1'
_cell_length_a   11.28991500
_cell_length_b   11.28991500
_cell_length_c   6.50654000
_cell_angle_alpha   90.00000000
_cell_angle_beta   90.00000000
_cell_angle_gamma   90.00000000
_symmetry_Int_Tables_number   1
_chemical_formula_structural   Yb2Pr17InIr12
_chemical_formula_sum   'Yb2 Pr17 In1 Ir12'
_cell_volume   829.33777726
_cell_formula_units_Z   1
loop_
 _symmetry_equiv_pos_site_id
 _symmetry_equiv_pos_as_xyz
  1  'x, y, z'
loop_
 _atom_site_type_symbol
 _atom_site_label
 _atom_site_symmetry_multiplicity
 _atom_site_fract_x
 _atom_site_fract_y
 _atom_site_fract_z
 _atom_site_occupancy
  Yb  Yb0  1  0.000000  0.000000  0.500000  1
  Yb  Yb1  1  0.000000  0.000000  0.000000  1
  Pr  Pr2  1  0.287784  0.087735  0.385998  1
  Pr  Pr3  1  0.288399  0.912191  0.882772  1
  Pr  Pr4  1  0.711601  0.087809  0.882772  1
  Pr  Pr5  1  0.712216  0.912265  0.385998  1
  Pr  Pr6  1  0.587339  0.782368  0.884374  1
  Pr  Pr7  1  0.589065  0.209154  0.383769  1
  Pr  Pr8  1  0.410935  0.790846  0.383769  1
  Pr  Pr9  1  0.412661  0.217632  0.884374  1
  Pr  Pr10  1  0.209154  0.410935  0.616231  1
  Pr  Pr11  1  0.217632  0.587339  0.115626  1
  Pr  Pr12  1  0.782368  0.412661  0.115626  1
  Pr  Pr13  1  0.790846  0.589065  0.616231  1
  Pr  Pr14  1  0.912191  0.711601  0.117228  1
  Pr  Pr15  1  0.912265  0.287784  0.614002  1
  Pr  Pr16  1  0.087735  0.712216  0.614002  1
  Pr  Pr17  1  0.087809  0.288399  0.117228  1
  Pr  Pr18  1  0.500000  0.500000  0.500000  1
  In  In19  1  0.500000  0.500000  0.000000  1
  Ir  Ir20  1  0.846172  0.154989  0.247150  1
  Ir  Ir21  1  0.845011  0.846172  0.752850  1
  Ir  Ir22  1  0.154989  0.153828  0.752850  1
  Ir  Ir23  1  0.153828  0.845011  0.247150  1
  Ir  Ir24  1  0.654040  0.347391  0.748849  1
  Ir  Ir25  1  0.652609  0.654040  0.251151  1
  Ir  Ir26  1  0.347391  0.345960  0.251151  1
  Ir  Ir27  1  0.345960  0.652609  0.748849  1
  Ir  Ir28  1  0.500000  0.000000  0.113546  1
  Ir  Ir29  1  0.500000  0.000000  0.619472  1
  Ir  Ir30  1  0.000000  0.500000  0.886454  1
  Ir  Ir31  1  0.000000  0.500000  0.380528  1
