# generated using pymatgen
data_Pr16ZnIn3Ru4
_symmetry_space_group_name_H-M   'P 1'
_cell_length_a   9.98576748
_cell_length_b   9.98576743
_cell_length_c   9.98576716
_cell_angle_alpha   59.79843506
_cell_angle_beta   59.79843633
_cell_angle_gamma   59.79843603
_symmetry_Int_Tables_number   1
_chemical_formula_structural   Pr16ZnIn3Ru4
_chemical_formula_sum   'Pr16 Zn1 In3 Ru4'
_cell_volume   700.87014577
_cell_formula_units_Z   1
loop_
 _symmetry_equiv_pos_site_id
 _symmetry_equiv_pos_as_xyz
  1  'x, y, z'
loop_
 _atom_site_type_symbol
 _atom_site_label
 _atom_site_symmetry_multiplicity
 _atom_site_fract_x
 _atom_site_fract_y
 _atom_site_fract_z
 _atom_site_occupancy
  Pr  Pr0  1  0.064780  0.439239  0.439239  1
  Pr  Pr1  1  0.192451  0.808116  0.192451  1
  Pr  Pr2  1  0.652773  0.652773  0.652773  1
  Pr  Pr3  1  0.439239  0.439239  0.064780  1
  Pr  Pr4  1  0.059164  0.440751  0.059164  1
  Pr  Pr5  1  0.440751  0.059164  0.059164  1
  Pr  Pr6  1  0.059164  0.059164  0.440751  1
  Pr  Pr7  1  0.652119  0.652119  0.043519  1
  Pr  Pr8  1  0.652119  0.043519  0.652119  1
  Pr  Pr9  1  0.193378  0.806580  0.806580  1
  Pr  Pr10  1  0.439239  0.064780  0.439239  1
  Pr  Pr11  1  0.192451  0.192451  0.808116  1
  Pr  Pr12  1  0.043519  0.652119  0.652119  1
  Pr  Pr13  1  0.806580  0.806580  0.193378  1
  Pr  Pr14  1  0.808116  0.192451  0.192451  1
  Pr  Pr15  1  0.806580  0.193378  0.806580  1
  Zn  Zn16  1  0.419296  0.419296  0.419296  1
  In  In17  1  0.419862  0.738653  0.419862  1
  In  In18  1  0.738653  0.419862  0.419862  1
  In  In19  1  0.419862  0.419862  0.738653  1
  Ru  Ru20  1  0.861837  0.861837  0.861837  1
  Ru  Ru21  1  0.413614  0.862227  0.862227  1
  Ru  Ru22  1  0.862227  0.413614  0.862227  1
  Ru  Ru23  1  0.862227  0.862227  0.413614  1
