# generated using pymatgen
data_Ta12V5TcOs6
_symmetry_space_group_name_H-M   'P 1'
_cell_length_a   4.46325200
_cell_length_b   6.33755800
_cell_length_c   13.54054600
_cell_angle_alpha   90.00000000
_cell_angle_beta   89.99972324
_cell_angle_gamma   90.00000000
_symmetry_Int_Tables_number   1
_chemical_formula_structural   Ta12V5TcOs6
_chemical_formula_sum   'Ta12 V5 Tc1 Os6'
_cell_volume   383.00948761
_cell_formula_units_Z   1
loop_
 _symmetry_equiv_pos_site_id
 _symmetry_equiv_pos_as_xyz
  1  'x, y, z'
loop_
 _atom_site_type_symbol
 _atom_site_label
 _atom_site_symmetry_multiplicity
 _atom_site_fract_x
 _atom_site_fract_y
 _atom_site_fract_z
 _atom_site_occupancy
  Ta  Ta0  1  0.499999  0.246867  0.000000  1
  Ta  Ta1  1  0.499999  0.753134  0.000000  1
  Ta  Ta2  1  0.999972  0.249247  0.167765  1
  Ta  Ta3  1  0.999972  0.750754  0.167765  1
  Ta  Ta4  1  0.499973  0.249855  0.333342  1
  Ta  Ta5  1  0.499973  0.750145  0.333342  1
  Ta  Ta6  1  0.000000  0.250490  0.500000  1
  Ta  Ta7  1  0.000000  0.749511  0.500000  1
  Ta  Ta8  1  0.500027  0.249855  0.666658  1
  Ta  Ta9  1  0.500027  0.750145  0.666658  1
  Ta  Ta10  1  0.000028  0.249247  0.832235  1
  Ta  Ta11  1  0.000028  0.750754  0.832235  1
  V  V12  1  0.499971  0.000000  0.165952  1
  V  V13  1  0.999977  0.500000  0.332982  1
  V  V14  1  0.500001  0.000000  0.500000  1
  V  V15  1  0.000023  0.500000  0.667017  1
  V  V16  1  0.500029  0.000000  0.834049  1
  Tc  Tc17  1  0.000000  0.500000  0.000000  1
  Os  Os18  1  0.000000  0.000000  0.000000  1
  Os  Os19  1  0.499974  0.500000  0.166488  1
  Os  Os20  1  0.999970  0.000000  0.333404  1
  Os  Os21  1  0.500001  0.500000  0.500000  1
  Os  Os22  1  0.000030  0.000000  0.666596  1
  Os  Os23  1  0.500026  0.500000  0.833512  1
