# generated using pymatgen
data_Tb14Nd2Cd3AgPt4
_symmetry_space_group_name_H-M   'P 1'
_cell_length_a   9.72322187
_cell_length_b   9.72292156
_cell_length_c   9.72434663
_cell_angle_alpha   60.27090461
_cell_angle_beta   60.27848139
_cell_angle_gamma   60.15691597
_symmetry_Int_Tables_number   1
_chemical_formula_structural   Tb14Nd2Cd3AgPt4
_chemical_formula_sum   'Tb14 Nd2 Cd3 Ag1 Pt4'
_cell_volume   653.52136817
_cell_formula_units_Z   1
loop_
 _symmetry_equiv_pos_site_id
 _symmetry_equiv_pos_as_xyz
  1  'x, y, z'
loop_
 _atom_site_type_symbol
 _atom_site_label
 _atom_site_symmetry_multiplicity
 _atom_site_fract_x
 _atom_site_fract_y
 _atom_site_fract_z
 _atom_site_occupancy
  Tb  Tb0  1  0.350300  0.350360  0.349239  1
  Tb  Tb1  1  0.353546  0.353511  0.941727  1
  Tb  Tb2  1  0.353969  0.940120  0.354284  1
  Tb  Tb3  1  0.940078  0.353982  0.354319  1
  Tb  Tb4  1  0.811306  0.190770  0.190162  1
  Tb  Tb5  1  0.189036  0.811111  0.810391  1
  Tb  Tb6  1  0.190778  0.811335  0.190101  1
  Tb  Tb7  1  0.811136  0.188976  0.810406  1
  Tb  Tb8  1  0.190455  0.190397  0.811499  1
  Tb  Tb9  1  0.810486  0.810462  0.188868  1
  Tb  Tb10  1  0.936352  0.561433  0.562154  1
  Tb  Tb11  1  0.560526  0.937853  0.938071  1
  Tb  Tb12  1  0.561419  0.936354  0.562152  1
  Tb  Tb13  1  0.937858  0.560566  0.938064  1
  Nd  Nd14  1  0.566031  0.566045  0.932222  1
  Nd  Nd15  1  0.933753  0.933738  0.564226  1
  Cd  Cd16  1  0.581818  0.581815  0.257356  1
  Cd  Cd17  1  0.579130  0.257318  0.582791  1
  Cd  Cd18  1  0.257323  0.579125  0.582797  1
  Ag  Ag19  1  0.585229  0.585240  0.579533  1
  Pt  Pt20  1  0.145161  0.145145  0.143480  1
  Pt  Pt21  1  0.143370  0.143391  0.570372  1
  Pt  Pt22  1  0.140315  0.570617  0.142884  1
  Pt  Pt23  1  0.570623  0.140338  0.142901  1
