# generated using pymatgen
data_Hf8Ta3Ti9Ge16
_symmetry_space_group_name_H-M   'P 1'
_cell_length_a   6.78208452
_cell_length_b   6.90382682
_cell_length_c   13.06317800
_cell_angle_alpha   90.00000000
_cell_angle_beta   90.00000000
_cell_angle_gamma   90.02381836
_symmetry_Int_Tables_number   1
_chemical_formula_structural   Hf8Ta3Ti9Ge16
_chemical_formula_sum   'Hf8 Ta3 Ti9 Ge16'
_cell_volume   611.64847061
_cell_formula_units_Z   1
loop_
 _symmetry_equiv_pos_site_id
 _symmetry_equiv_pos_as_xyz
  1  'x, y, z'
loop_
 _atom_site_type_symbol
 _atom_site_label
 _atom_site_symmetry_multiplicity
 _atom_site_fract_x
 _atom_site_fract_y
 _atom_site_fract_z
 _atom_site_occupancy
  Hf  Hf0  1  0.489675  0.676317  0.593311  1
  Hf  Hf1  1  0.991573  0.825937  0.906436  1
  Hf  Hf2  1  0.509430  0.324901  0.093832  1
  Hf  Hf3  1  0.009799  0.175206  0.406047  1
  Hf  Hf4  1  0.509430  0.324901  0.406168  1
  Hf  Hf5  1  0.009799  0.175206  0.093953  1
  Hf  Hf6  1  0.489675  0.676317  0.906689  1
  Hf  Hf7  1  0.991573  0.825937  0.593564  1
  Ta  Ta8  1  0.329603  0.004609  0.750000  1
  Ta  Ta9  1  0.170598  0.505705  0.250000  1
  Ta  Ta10  1  0.670712  0.994561  0.250000  1
  Ti  Ti11  1  0.656770  0.166651  0.625469  1
  Ti  Ti12  1  0.159190  0.331800  0.874758  1
  Ti  Ti13  1  0.341475  0.832202  0.124693  1
  Ti  Ti14  1  0.842475  0.667669  0.375813  1
  Ti  Ti15  1  0.341475  0.832202  0.375307  1
  Ti  Ti16  1  0.842475  0.667669  0.124187  1
  Ti  Ti17  1  0.656770  0.166651  0.874531  1
  Ti  Ti18  1  0.159190  0.331800  0.625242  1
  Ti  Ti19  1  0.829659  0.493812  0.750000  1
  Ge  Ge20  1  0.683885  0.959511  0.461322  1
  Ge  Ge21  1  0.184142  0.540721  0.038437  1
  Ge  Ge22  1  0.315844  0.041593  0.961271  1
  Ge  Ge23  1  0.815888  0.459349  0.540701  1
  Ge  Ge24  1  0.315844  0.041593  0.538729  1
  Ge  Ge25  1  0.815888  0.459349  0.959299  1
  Ge  Ge26  1  0.683885  0.959511  0.038678  1
  Ge  Ge27  1  0.184142  0.540721  0.461563  1
  Ge  Ge28  1  0.461017  0.382581  0.750000  1
  Ge  Ge29  1  0.955975  0.122452  0.750000  1
  Ge  Ge30  1  0.542803  0.620216  0.250000  1
  Ge  Ge31  1  0.042182  0.879843  0.250000  1
  Ge  Ge32  1  0.694332  0.852019  0.750000  1
  Ge  Ge33  1  0.187268  0.640202  0.750000  1
  Ge  Ge34  1  0.307780  0.142547  0.250000  1
  Ge  Ge35  1  0.807787  0.357734  0.250000  1
