# generated using pymatgen
data_LiSc8(Si5Tc4)3
_symmetry_space_group_name_H-M   'P 1'
_cell_length_a   6.64071872
_cell_length_b   6.66613658
_cell_length_c   12.31869700
_cell_angle_alpha   90.00000000
_cell_angle_beta   90.00000000
_cell_angle_gamma   91.00944097
_symmetry_Int_Tables_number   1
_chemical_formula_structural   LiSc8(Si5Tc4)3
_chemical_formula_sum   'Li1 Sc8 Si15 Tc12'
_cell_volume   545.23868346
_cell_formula_units_Z   1
loop_
 _symmetry_equiv_pos_site_id
 _symmetry_equiv_pos_as_xyz
  1  'x, y, z'
loop_
 _atom_site_type_symbol
 _atom_site_label
 _atom_site_symmetry_multiplicity
 _atom_site_fract_x
 _atom_site_fract_y
 _atom_site_fract_z
 _atom_site_occupancy
  Li  Li0  1  0.518502  0.374576  0.750000  1
  Sc  Sc1  1  0.494110  0.330579  0.090666  1
  Sc  Sc2  1  0.990359  0.165116  0.409189  1
  Sc  Sc3  1  0.512087  0.668785  0.590300  1
  Sc  Sc4  1  0.008202  0.834474  0.905658  1
  Sc  Sc5  1  0.512087  0.668785  0.909700  1
  Sc  Sc6  1  0.008202  0.834474  0.594342  1
  Sc  Sc7  1  0.494110  0.330579  0.409334  1
  Sc  Sc8  1  0.990359  0.165116  0.090811  1
  Si  Si9  1  0.661030  0.048476  0.548717  1
  Si  Si10  1  0.163506  0.447976  0.948874  1
  Si  Si11  1  0.332843  0.955005  0.046278  1
  Si  Si12  1  0.846152  0.555646  0.449354  1
  Si  Si13  1  0.332843  0.955005  0.453722  1
  Si  Si14  1  0.846152  0.555646  0.050646  1
  Si  Si15  1  0.661030  0.048476  0.951283  1
  Si  Si16  1  0.163506  0.447976  0.551126  1
  Si  Si17  1  0.024042  0.148384  0.750000  1
  Si  Si18  1  0.481980  0.626943  0.250000  1
  Si  Si19  1  0.971755  0.856137  0.250000  1
  Si  Si20  1  0.799768  0.639110  0.750000  1
  Si  Si21  1  0.308393  0.853663  0.750000  1
  Si  Si22  1  0.195700  0.352190  0.250000  1
  Si  Si23  1  0.696094  0.139373  0.250000  1
  Tc  Tc24  1  0.816376  0.356943  0.617117  1
  Tc  Tc25  1  0.328770  0.143097  0.876970  1
  Tc  Tc26  1  0.195050  0.645031  0.124284  1
  Tc  Tc27  1  0.663563  0.850601  0.376494  1
  Tc  Tc28  1  0.195050  0.645031  0.375716  1
  Tc  Tc29  1  0.663563  0.850601  0.123506  1
  Tc  Tc30  1  0.816376  0.356943  0.882883  1
  Tc  Tc31  1  0.328770  0.143097  0.623030  1
  Tc  Tc32  1  0.675595  0.986823  0.750000  1
  Tc  Tc33  1  0.150532  0.518868  0.750000  1
  Tc  Tc34  1  0.320463  0.013289  0.250000  1
  Tc  Tc35  1  0.833081  0.487189  0.250000  1
