# generated using pymatgen
data_Nd3ErZn2Ir3
_symmetry_space_group_name_H-M   'P 1'
_cell_length_a   7.44598100
_cell_length_b   7.44933538
_cell_length_c   4.11103800
_cell_angle_alpha   90.00000000
_cell_angle_beta   90.00000000
_cell_angle_gamma   119.98510114
_symmetry_Int_Tables_number   1
_chemical_formula_structural   Nd3ErZn2Ir3
_chemical_formula_sum   'Nd3 Er1 Zn2 Ir3'
_cell_volume   197.50893855
_cell_formula_units_Z   1
loop_
 _symmetry_equiv_pos_site_id
 _symmetry_equiv_pos_as_xyz
  1  'x, y, z'
loop_
 _atom_site_type_symbol
 _atom_site_label
 _atom_site_symmetry_multiplicity
 _atom_site_fract_x
 _atom_site_fract_y
 _atom_site_fract_z
 _atom_site_occupancy
  Nd  Nd0  1  0.387527  0.000000  0.499999  1
  Nd  Nd1  1  0.017679  0.439249  0.499999  1
  Nd  Nd2  1  0.578429  0.560750  0.499999  1
  Er  Er3  1  0.761161  0.000000  0.000000  1
  Zn  Zn4  1  0.243925  0.246767  0.000000  1
  Zn  Zn5  1  0.997158  0.753233  0.000000  1
  Ir  Ir6  1  0.669350  0.330329  0.000000  1
  Ir  Ir7  1  0.339020  0.669671  0.000000  1
  Ir  Ir8  1  0.005752  0.000000  0.499999  1
