# generated using pymatgen
data_Ho2Tc6P7Ir6
_symmetry_space_group_name_H-M   'P 1'
_cell_length_a   9.51130594
_cell_length_b   9.55373669
_cell_length_c   3.98344500
_cell_angle_alpha   90.00000000
_cell_angle_beta   90.00000000
_cell_angle_gamma   120.61192794
_symmetry_Int_Tables_number   1
_chemical_formula_structural   Ho2Tc6P7Ir6
_chemical_formula_sum   'Ho2 Tc6 P7 Ir6'
_cell_volume   311.52418619
_cell_formula_units_Z   1
loop_
 _symmetry_equiv_pos_site_id
 _symmetry_equiv_pos_as_xyz
  1  'x, y, z'
loop_
 _atom_site_type_symbol
 _atom_site_label
 _atom_site_symmetry_multiplicity
 _atom_site_fract_x
 _atom_site_fract_y
 _atom_site_fract_z
 _atom_site_occupancy
  Ho  Ho0  1  0.670848  0.335426  0.000000  1
  Ho  Ho1  1  0.334249  0.666982  0.500000  1
  Tc  Tc2  1  0.837391  0.108604  0.000000  1
  Tc  Tc3  1  0.884434  0.728807  0.000000  1
  Tc  Tc4  1  0.956330  0.561778  0.500000  1
  Tc  Tc5  1  0.090978  0.217429  0.500000  1
  Tc  Tc6  1  0.779089  0.871363  0.500000  1
  Tc  Tc7  1  0.127537  0.915608  0.500000  1
  P  P8  1  0.296616  0.416269  0.000000  1
  P  P9  1  0.581303  0.882633  0.000000  1
  P  P10  1  0.109744  0.694827  0.000000  1
  P  P11  1  0.403538  0.118900  0.500000  1
  P  P12  1  0.881305  0.282291  0.500000  1
  P  P13  1  0.726164  0.596882  0.500000  1
  P  P14  1  0.997909  0.000480  0.000000  1
  Ir  Ir15  1  0.067615  0.430682  0.000000  1
  Ir  Ir16  1  0.560497  0.633801  0.000000  1
  Ir  Ir17  1  0.361266  0.926444  0.000000  1
  Ir  Ir18  1  0.275191  0.164977  0.000000  1
  Ir  Ir19  1  0.450778  0.390536  0.500000  1
  Ir  Ir20  1  0.607218  0.055279  0.500000  1
