# generated using pymatgen
data_Th3Sn3PbAu3
_symmetry_space_group_name_H-M   'P 1'
_cell_length_a   8.77355654
_cell_length_b   8.81214404
_cell_length_c   8.77355700
_cell_angle_alpha   109.49281894
_cell_angle_beta   109.29075106
_cell_angle_gamma   109.45199841
_symmetry_Int_Tables_number   1
_chemical_formula_structural   Th3Sn3PbAu3
_chemical_formula_sum   'Th6 Sn6 Pb2 Au6'
_cell_volume   523.31216145
_cell_formula_units_Z   2
loop_
 _symmetry_equiv_pos_site_id
 _symmetry_equiv_pos_as_xyz
  1  'x, y, z'
loop_
 _atom_site_type_symbol
 _atom_site_label
 _atom_site_symmetry_multiplicity
 _atom_site_fract_x
 _atom_site_fract_y
 _atom_site_fract_z
 _atom_site_occupancy
  Th  Th0  1  0.879441  0.250000  0.129441  1
  Th  Th1  1  0.624607  0.750000  0.374607  1
  Th  Th2  1  0.248944  0.126143  0.877509  1
  Th  Th3  1  0.751366  0.373857  0.622801  1
  Th  Th4  1  0.126780  0.878526  0.250380  1
  Th  Th5  1  0.371854  0.621474  0.748254  1
  Sn  Sn6  1  0.999927  0.681894  0.499741  1
  Sn  Sn7  1  0.817846  0.818106  0.818031  1
  Sn  Sn8  1  0.498390  0.998166  0.179257  1
  Sn  Sn9  1  0.181091  0.501834  0.000224  1
  Sn  Sn10  1  0.997845  0.178942  0.500125  1
  Sn  Sn11  1  0.321183  0.321058  0.318902  1
  Pb  Pb12  1  0.685019  0.499875  0.999706  1
  Pb  Pb13  1  0.499832  0.000125  0.685145  1
  Au  Au14  1  0.369481  0.250000  0.619481  1
  Au  Au15  1  0.124266  0.750000  0.874266  1
  Au  Au16  1  0.244629  0.619966  0.370423  1
  Au  Au17  1  0.750458  0.880034  0.124664  1
  Au  Au18  1  0.626358  0.373399  0.254085  1
  Au  Au19  1  0.880686  0.126601  0.752959  1
