# generated using pymatgen
data_Tb3Ho(ZrRh)4
_symmetry_space_group_name_H-M   'P 1'
_cell_length_a   4.67258600
_cell_length_b   7.04043546
_cell_length_c   8.25503400
_cell_angle_alpha   89.87817556
_cell_angle_beta   90.00000000
_cell_angle_gamma   90.00000000
_symmetry_Int_Tables_number   1
_chemical_formula_structural   Tb3Ho(ZrRh)4
_chemical_formula_sum   'Tb3 Ho1 Zr4 Rh4'
_cell_volume   271.56557122
_cell_formula_units_Z   1
loop_
 _symmetry_equiv_pos_site_id
 _symmetry_equiv_pos_as_xyz
  1  'x, y, z'
loop_
 _atom_site_type_symbol
 _atom_site_label
 _atom_site_symmetry_multiplicity
 _atom_site_fract_x
 _atom_site_fract_y
 _atom_site_fract_z
 _atom_site_occupancy
  Tb  Tb0  1  0.250000  0.515132  0.178016  1
  Tb  Tb1  1  0.750000  0.484315  0.822241  1
  Tb  Tb2  1  0.750000  0.984370  0.677414  1
  Ho  Ho3  1  0.250000  0.016675  0.322446  1
  Zr  Zr4  1  0.250000  0.642853  0.577785  1
  Zr  Zr5  1  0.750000  0.357931  0.421046  1
  Zr  Zr6  1  0.750000  0.857493  0.079837  1
  Zr  Zr7  1  0.250000  0.141679  0.921993  1
  Rh  Rh8  1  0.250000  0.768943  0.915084  1
  Rh  Rh9  1  0.750000  0.229969  0.085360  1
  Rh  Rh10  1  0.750000  0.731918  0.414763  1
  Rh  Rh11  1  0.250000  0.268724  0.584016  1
