# generated using pymatgen
data_Tb2Er14Ga6FeCo
_symmetry_space_group_name_H-M   'P 1'
_cell_length_a   9.89553300
_cell_length_b   9.89553328
_cell_length_c   6.91897100
_cell_angle_alpha   90.00000000
_cell_angle_beta   90.00000000
_cell_angle_gamma   120.00000240
_symmetry_Int_Tables_number   1
_chemical_formula_structural   Tb2Er14Ga6FeCo
_chemical_formula_sum   'Tb2 Er14 Ga6 Fe1 Co1'
_cell_volume   586.74652587
_cell_formula_units_Z   1
loop_
 _symmetry_equiv_pos_site_id
 _symmetry_equiv_pos_as_xyz
  1  'x, y, z'
loop_
 _atom_site_type_symbol
 _atom_site_label
 _atom_site_symmetry_multiplicity
 _atom_site_fract_x
 _atom_site_fract_y
 _atom_site_fract_z
 _atom_site_occupancy
  Tb  Tb0  1  0.000000  0.000000  0.269344  1
  Tb  Tb1  1  0.000000  0.000000  0.768595  1
  Er  Er2  1  0.174128  0.825872  0.990357  1
  Er  Er3  1  0.825999  0.174001  0.489375  1
  Er  Er4  1  0.174128  0.348256  0.990357  1
  Er  Er5  1  0.651744  0.825872  0.990357  1
  Er  Er6  1  0.348002  0.174001  0.489375  1
  Er  Er7  1  0.825999  0.651998  0.489375  1
  Er  Er8  1  0.333333  0.666667  0.671627  1
  Er  Er9  1  0.666667  0.333333  0.172049  1
  Er  Er10  1  0.462693  0.537307  0.292790  1
  Er  Er11  1  0.536475  0.463525  0.793685  1
  Er  Er12  1  0.462693  0.925387  0.292790  1
  Er  Er13  1  0.074613  0.537307  0.292790  1
  Er  Er14  1  0.927052  0.463525  0.793685  1
  Er  Er15  1  0.536475  0.072948  0.793685  1
  Ga  Ga16  1  0.163536  0.836464  0.541616  1
  Ga  Ga17  1  0.836069  0.163931  0.041840  1
  Ga  Ga18  1  0.163536  0.327074  0.541616  1
  Ga  Ga19  1  0.672926  0.836464  0.541616  1
  Ga  Ga20  1  0.327863  0.163931  0.041840  1
  Ga  Ga21  1  0.836069  0.672137  0.041840  1
  Fe  Fe22  1  0.333333  0.666667  0.057358  1
  Co  Co23  1  0.666667  0.333333  0.558158  1
