# generated using pymatgen
data_TmAg3(Ir2O7)2
_symmetry_space_group_name_H-M   'P 1'
_cell_length_a   7.18808461
_cell_length_b   7.18808515
_cell_length_c   7.24983147
_cell_angle_alpha   60.28134072
_cell_angle_beta   60.28135200
_cell_angle_gamma   59.99999535
_symmetry_Int_Tables_number   1
_chemical_formula_structural   TmAg3(Ir2O7)2
_chemical_formula_sum   'Tm1 Ag3 Ir4 O14'
_cell_volume   265.99478303
_cell_formula_units_Z   1
loop_
 _symmetry_equiv_pos_site_id
 _symmetry_equiv_pos_as_xyz
  1  'x, y, z'
loop_
 _atom_site_type_symbol
 _atom_site_label
 _atom_site_symmetry_multiplicity
 _atom_site_fract_x
 _atom_site_fract_y
 _atom_site_fract_z
 _atom_site_occupancy
  Tm  Tm0  1  0.125000  0.125000  0.625000  1
  Ag  Ag1  1  0.625000  0.125000  0.125000  1
  Ag  Ag2  1  0.125000  0.625000  0.125000  1
  Ag  Ag3  1  0.125000  0.125000  0.125000  1
  Ir  Ir4  1  0.125000  0.625000  0.625000  1
  Ir  Ir5  1  0.625000  0.125000  0.625000  1
  Ir  Ir6  1  0.625000  0.625000  0.125000  1
  Ir  Ir7  1  0.625000  0.625000  0.625000  1
  O  O8  1  0.696385  0.696385  0.306559  1
  O  O9  1  0.294469  0.294469  0.690505  1
  O  O10  1  0.720559  0.294469  0.690505  1
  O  O11  1  0.300670  0.696385  0.306559  1
  O  O12  1  0.294469  0.720559  0.690505  1
  O  O13  1  0.696385  0.300670  0.306559  1
  O  O14  1  0.553615  0.553615  0.943441  1
  O  O15  1  0.955531  0.955531  0.559495  1
  O  O16  1  0.529441  0.955531  0.559495  1
  O  O17  1  0.949330  0.553615  0.943441  1
  O  O18  1  0.955531  0.529441  0.559495  1
  O  O19  1  0.553615  0.949330  0.943441  1
  O  O20  1  0.252847  0.252847  0.241458  1
  O  O21  1  0.997153  0.997153  0.008542  1
