# generated using pymatgen
data_Tm19Lu(SiSb3)3
_symmetry_space_group_name_H-M   'P 1'
_cell_length_a   7.89546803
_cell_length_b   9.00470800
_cell_length_c   11.70189250
_cell_angle_alpha   90.00000000
_cell_angle_beta   89.95203627
_cell_angle_gamma   90.00000000
_symmetry_Int_Tables_number   1
_chemical_formula_structural   Tm19Lu(SiSb3)3
_chemical_formula_sum   'Tm19 Lu1 Si3 Sb9'
_cell_volume   831.96195301
_cell_formula_units_Z   1
loop_
 _symmetry_equiv_pos_site_id
 _symmetry_equiv_pos_as_xyz
  1  'x, y, z'
loop_
 _atom_site_type_symbol
 _atom_site_label
 _atom_site_symmetry_multiplicity
 _atom_site_fract_x
 _atom_site_fract_y
 _atom_site_fract_z
 _atom_site_occupancy
  Tm  Tm0  1  0.815655  0.946350  0.063767  1
  Tm  Tm1  1  0.310631  0.043714  0.431437  1
  Tm  Tm2  1  0.180666  0.447254  0.938650  1
  Tm  Tm3  1  0.687180  0.564937  0.565659  1
  Tm  Tm4  1  0.180666  0.052746  0.938650  1
  Tm  Tm5  1  0.687180  0.935063  0.565659  1
  Tm  Tm6  1  0.815655  0.553650  0.063767  1
  Tm  Tm7  1  0.310631  0.456286  0.431437  1
  Tm  Tm8  1  0.535789  0.250000  0.996177  1
  Tm  Tm9  1  0.461145  0.750000  0.001541  1
  Tm  Tm10  1  0.974602  0.250000  0.497455  1
  Tm  Tm11  1  0.165700  0.750000  0.213714  1
  Tm  Tm12  1  0.677212  0.250000  0.272090  1
  Tm  Tm13  1  0.835662  0.250000  0.786249  1
  Tm  Tm14  1  0.334677  0.750000  0.716097  1
  Tm  Tm15  1  0.640704  0.750000  0.293578  1
  Tm  Tm16  1  0.141545  0.250000  0.207232  1
  Tm  Tm17  1  0.343870  0.250000  0.713895  1
  Tm  Tm18  1  0.858477  0.750000  0.794873  1
  Lu  Lu19  1  0.041081  0.750000  0.502066  1
  Si  Si20  1  0.909272  0.250000  0.024760  1
  Si  Si21  1  0.416099  0.750000  0.480605  1
  Si  Si22  1  0.087473  0.750000  0.977952  1
  Sb  Sb23  1  0.932769  0.988051  0.326607  1
  Sb  Sb24  1  0.432838  0.010811  0.172988  1
  Sb  Sb25  1  0.066654  0.491809  0.674115  1
  Sb  Sb26  1  0.567003  0.509876  0.825841  1
  Sb  Sb27  1  0.066654  0.008191  0.674115  1
  Sb  Sb28  1  0.567003  0.990124  0.825841  1
  Sb  Sb29  1  0.932769  0.511949  0.326607  1
  Sb  Sb30  1  0.432838  0.489189  0.172988  1
  Sb  Sb31  1  0.589898  0.250000  0.523590  1
