# generated using pymatgen
data_Cs3(InAu)4
_symmetry_space_group_name_H-M   'P 1'
_cell_length_a   7.69112905
_cell_length_b   7.69113035
_cell_length_c   13.31355700
_cell_angle_alpha   90.00000000
_cell_angle_beta   90.00000000
_cell_angle_gamma   103.19044200
_symmetry_Int_Tables_number   1
_chemical_formula_structural   Cs3(InAu)4
_chemical_formula_sum   'Cs6 In8 Au8'
_cell_volume   766.76540965
_cell_formula_units_Z   2
loop_
 _symmetry_equiv_pos_site_id
 _symmetry_equiv_pos_as_xyz
  1  'x, y, z'
loop_
 _atom_site_type_symbol
 _atom_site_label
 _atom_site_symmetry_multiplicity
 _atom_site_fract_x
 _atom_site_fract_y
 _atom_site_fract_z
 _atom_site_occupancy
  Cs  Cs0  1  0.213559  0.786441  0.500000  1
  Cs  Cs1  1  0.213559  0.786441  0.000000  1
  Cs  Cs2  1  0.786441  0.213559  0.500000  1
  Cs  Cs3  1  0.786441  0.213559  0.000000  1
  Cs  Cs4  1  0.969756  0.969756  0.250000  1
  Cs  Cs5  1  0.030244  0.030244  0.750000  1
  In  In6  1  0.476404  0.750316  0.250000  1
  In  In7  1  0.249684  0.523596  0.750000  1
  In  In8  1  0.523596  0.249684  0.750000  1
  In  In9  1  0.750316  0.476404  0.250000  1
  In  In10  1  0.337256  0.337256  0.370099  1
  In  In11  1  0.662744  0.662744  0.629901  1
  In  In12  1  0.337256  0.337256  0.129901  1
  In  In13  1  0.662744  0.662744  0.870099  1
  Au  Au14  1  0.513566  0.123674  0.250000  1
  Au  Au15  1  0.876326  0.486434  0.750000  1
  Au  Au16  1  0.486434  0.876326  0.750000  1
  Au  Au17  1  0.123674  0.513566  0.250000  1
  Au  Au18  1  0.350195  0.350195  0.921821  1
  Au  Au19  1  0.649805  0.649805  0.078179  1
  Au  Au20  1  0.350195  0.350195  0.578179  1
  Au  Au21  1  0.649805  0.649805  0.421821  1
