# generated using pymatgen
data_Hf16Re3Ni4Rh
_symmetry_space_group_name_H-M   'P 1'
_cell_length_a   8.65595156
_cell_length_b   8.65595107
_cell_length_c   8.65595234
_cell_angle_alpha   59.97382252
_cell_angle_beta   59.97382471
_cell_angle_gamma   59.97382538
_symmetry_Int_Tables_number   1
_chemical_formula_structural   Hf16Re3Ni4Rh
_chemical_formula_sum   'Hf16 Re3 Ni4 Rh1'
_cell_volume   458.32295413
_cell_formula_units_Z   1
loop_
 _symmetry_equiv_pos_site_id
 _symmetry_equiv_pos_as_xyz
  1  'x, y, z'
loop_
 _atom_site_type_symbol
 _atom_site_label
 _atom_site_symmetry_multiplicity
 _atom_site_fract_x
 _atom_site_fract_y
 _atom_site_fract_z
 _atom_site_occupancy
  Hf  Hf0  1  0.683806  0.105187  0.105187  1
  Hf  Hf1  1  0.105187  0.683806  0.105187  1
  Hf  Hf2  1  0.105187  0.105187  0.683806  1
  Hf  Hf3  1  0.104062  0.104062  0.104062  1
  Hf  Hf4  1  0.316062  0.316062  0.689124  1
  Hf  Hf5  1  0.684989  0.684989  0.315573  1
  Hf  Hf6  1  0.316062  0.689124  0.316062  1
  Hf  Hf7  1  0.684989  0.315573  0.684989  1
  Hf  Hf8  1  0.689124  0.316062  0.316062  1
  Hf  Hf9  1  0.315573  0.684989  0.684989  1
  Hf  Hf10  1  0.953386  0.953386  0.546255  1
  Hf  Hf11  1  0.548559  0.548559  0.949275  1
  Hf  Hf12  1  0.953386  0.546255  0.953386  1
  Hf  Hf13  1  0.548559  0.949275  0.548559  1
  Hf  Hf14  1  0.546255  0.953386  0.953386  1
  Hf  Hf15  1  0.949275  0.548559  0.548559  1
  Re  Re16  1  0.998369  0.332657  0.332657  1
  Re  Re17  1  0.332657  0.998369  0.332657  1
  Re  Re18  1  0.332657  0.332657  0.998369  1
  Ni  Ni19  1  0.322417  0.891847  0.891847  1
  Ni  Ni20  1  0.891847  0.322417  0.891847  1
  Ni  Ni21  1  0.891847  0.891847  0.322417  1
  Ni  Ni22  1  0.892586  0.892586  0.892586  1
  Rh  Rh23  1  0.333155  0.333155  0.333155  1
