# generated using pymatgen
data_Yb2DyGa8Ag3
_symmetry_space_group_name_H-M   'P 1'
_cell_length_a   4.36415620
_cell_length_b   8.35162532
_cell_length_c   8.35162460
_cell_angle_alpha   70.99352201
_cell_angle_beta   74.85422445
_cell_angle_gamma   74.85422048
_symmetry_Int_Tables_number   1
_chemical_formula_structural   Yb2DyGa8Ag3
_chemical_formula_sum   'Yb2 Dy1 Ga8 Ag3'
_cell_volume   272.58017462
_cell_formula_units_Z   1
loop_
 _symmetry_equiv_pos_site_id
 _symmetry_equiv_pos_as_xyz
  1  'x, y, z'
loop_
 _atom_site_type_symbol
 _atom_site_label
 _atom_site_symmetry_multiplicity
 _atom_site_fract_x
 _atom_site_fract_y
 _atom_site_fract_z
 _atom_site_occupancy
  Yb  Yb0  1  0.500672  0.499328  0.499328  1
  Yb  Yb1  1  0.800506  0.199494  0.199494  1
  Dy  Dy2  1  0.202898  0.797102  0.797102  1
  Ga  Ga3  1  0.641479  0.078140  0.638902  1
  Ga  Ga4  1  0.355603  0.924055  0.364738  1
  Ga  Ga5  1  0.641479  0.638902  0.078140  1
  Ga  Ga6  1  0.355603  0.364738  0.924055  1
  Ga  Ga7  1  0.840501  0.790603  0.528396  1
  Ga  Ga8  1  0.161424  0.205842  0.471309  1
  Ga  Ga9  1  0.840501  0.528396  0.790603  1
  Ga  Ga10  1  0.161424  0.471309  0.205842  1
  Ag  Ag11  1  0.499662  0.000338  0.000338  1
  Ag  Ag12  1  0.999124  0.807633  0.194119  1
  Ag  Ag13  1  0.999124  0.194119  0.807633  1
