# generated using pymatgen
data_La6Zn4Pd12Rh
_symmetry_space_group_name_H-M   'P 1'
_cell_length_a   8.44958382
_cell_length_b   8.44958488
_cell_length_c   8.44958500
_cell_angle_alpha   109.47121853
_cell_angle_beta   109.47122107
_cell_angle_gamma   109.47122444
_symmetry_Int_Tables_number   1
_chemical_formula_structural   La6Zn4Pd12Rh
_chemical_formula_sum   'La6 Zn4 Pd12 Rh1'
_cell_volume   464.39139979
_cell_formula_units_Z   1
loop_
 _symmetry_equiv_pos_site_id
 _symmetry_equiv_pos_as_xyz
  1  'x, y, z'
loop_
 _atom_site_type_symbol
 _atom_site_label
 _atom_site_symmetry_multiplicity
 _atom_site_fract_x
 _atom_site_fract_y
 _atom_site_fract_z
 _atom_site_occupancy
  La  La0  1  0.700789  0.700789  0.000000  1
  La  La1  1  0.299211  0.000000  0.299211  1
  La  La2  1  0.000000  0.299211  0.299211  1
  La  La3  1  0.299211  0.299211  0.000000  1
  La  La4  1  0.700789  0.000000  0.700789  1
  La  La5  1  0.000000  0.700789  0.700789  1
  Zn  Zn6  1  0.000000  0.000000  0.500000  1
  Zn  Zn7  1  0.000000  0.500000  0.000000  1
  Zn  Zn8  1  0.500000  0.000000  0.000000  1
  Zn  Zn9  1  0.500000  0.500000  0.500000  1
  Pd  Pd10  1  0.331335  0.331335  0.662671  1
  Pd  Pd11  1  0.668665  0.000000  0.331335  1
  Pd  Pd12  1  0.000000  0.668665  0.331335  1
  Pd  Pd13  1  0.668665  0.331335  0.000000  1
  Pd  Pd14  1  0.331335  0.662671  0.331335  1
  Pd  Pd15  1  0.000000  0.331335  0.668665  1
  Pd  Pd16  1  0.331335  0.668665  0.000000  1
  Pd  Pd17  1  0.331335  0.000000  0.668665  1
  Pd  Pd18  1  0.662671  0.331335  0.331335  1
  Pd  Pd19  1  0.668665  0.668665  0.337329  1
  Pd  Pd20  1  0.668665  0.337329  0.668665  1
  Pd  Pd21  1  0.337329  0.668665  0.668665  1
  Rh  Rh22  1  0.000000  0.000000  0.000000  1
