# generated using pymatgen
data_Ho2ErTm3(Si3Ru)8
_symmetry_space_group_name_H-M   'P 1'
_cell_length_a   10.10258516
_cell_length_b   10.10258601
_cell_length_c   8.11336102
_cell_angle_alpha   89.97894562
_cell_angle_beta   90.02105231
_cell_angle_gamma   132.63124979
_symmetry_Int_Tables_number   1
_chemical_formula_structural   Ho2ErTm3(Si3Ru)8
_chemical_formula_sum   'Ho2 Er1 Tm3 Si24 Ru8'
_cell_volume   609.23242587
_cell_formula_units_Z   1
loop_
 _symmetry_equiv_pos_site_id
 _symmetry_equiv_pos_as_xyz
  1  'x, y, z'
loop_
 _atom_site_type_symbol
 _atom_site_label
 _atom_site_symmetry_multiplicity
 _atom_site_fract_x
 _atom_site_fract_y
 _atom_site_fract_z
 _atom_site_occupancy
  Ho  Ho0  1  0.497573  0.997573  0.250000  1
  Ho  Ho1  1  0.002427  0.502427  0.750000  1
  Er  Er2  1  0.997585  0.497585  0.250000  1
  Tm  Tm3  1  0.502385  0.002385  0.750000  1
  Tm  Tm4  1  0.499998  0.499989  0.500030  1
  Tm  Tm5  1  0.999989  0.999998  0.999970  1
  Si  Si6  1  0.388193  0.154836  0.004745  1
  Si  Si7  1  0.654836  0.888193  0.495255  1
  Si  Si8  1  0.112182  0.345901  0.504973  1
  Si  Si9  1  0.845901  0.612182  0.995027  1
  Si  Si10  1  0.611811  0.845233  0.994859  1
  Si  Si11  1  0.345233  0.111811  0.505141  1
  Si  Si12  1  0.887801  0.654068  0.494912  1
  Si  Si13  1  0.154068  0.387801  0.005088  1
  Si  Si14  1  0.613029  0.378707  0.228813  1
  Si  Si15  1  0.878707  0.113029  0.271187  1
  Si  Si16  1  0.887451  0.121693  0.728499  1
  Si  Si17  1  0.621693  0.387451  0.771501  1
  Si  Si18  1  0.387259  0.621505  0.771360  1
  Si  Si19  1  0.121505  0.887259  0.728640  1
  Si  Si20  1  0.705113  0.294920  0.999882  1
  Si  Si21  1  0.794920  0.205113  0.500118  1
  Si  Si22  1  0.294837  0.705063  0.999835  1
  Si  Si23  1  0.205063  0.794837  0.500165  1
  Si  Si24  1  0.167619  0.167669  0.333158  1
  Si  Si25  1  0.667669  0.667619  0.166842  1
  Si  Si26  1  0.332339  0.332382  0.833186  1
  Si  Si27  1  0.832382  0.832339  0.666814  1
  Si  Si28  1  0.377985  0.612340  0.228732  1
  Si  Si29  1  0.112340  0.877985  0.271268  1
  Ru  Ru30  1  0.626530  0.626535  0.872448  1
  Ru  Ru31  1  0.126535  0.126530  0.627552  1
  Ru  Ru32  1  0.873539  0.873494  0.372375  1
  Ru  Ru33  1  0.373494  0.373539  0.127625  1
  Ru  Ru34  1  0.331278  0.670224  0.500203  1
  Ru  Ru35  1  0.170224  0.831278  0.999797  1
  Ru  Ru36  1  0.668739  0.329765  0.500429  1
  Ru  Ru37  1  0.829765  0.168739  0.999571  1
