# generated using pymatgen
data_Na3NpI6
_symmetry_space_group_name_H-M   'P 1'
_cell_length_a   7.95988681
_cell_length_b   7.95988634
_cell_length_c   8.00076803
_cell_angle_alpha   80.20428046
_cell_angle_beta   80.20428388
_cell_angle_gamma   118.83723381
_symmetry_Int_Tables_number   1
_chemical_formula_structural   Na3NpI6
_chemical_formula_sum   'Na3 Np1 I6'
_cell_volume   418.49863942
_cell_formula_units_Z   1
loop_
 _symmetry_equiv_pos_site_id
 _symmetry_equiv_pos_as_xyz
  1  'x, y, z'
loop_
 _atom_site_type_symbol
 _atom_site_label
 _atom_site_symmetry_multiplicity
 _atom_site_fract_x
 _atom_site_fract_y
 _atom_site_fract_z
 _atom_site_occupancy
  Na  Na0  1  0.332735  0.667265  0.000000  1
  Na  Na1  1  0.829075  0.170925  0.500000  1
  Na  Na2  1  0.667093  0.332907  0.000000  1
  Np  Np3  1  0.000621  0.999379  0.000000  1
  I  I4  1  0.758794  0.763162  0.763482  1
  I  I5  1  0.404544  0.081828  0.760718  1
  I  I6  1  0.077532  0.397804  0.757430  1
  I  I7  1  0.918172  0.595456  0.239282  1
  I  I8  1  0.602196  0.922468  0.242570  1
  I  I9  1  0.236838  0.241206  0.236518  1
