# generated using pymatgen
data_Zr3Zn2PdC
_symmetry_space_group_name_H-M   'P 1'
_cell_length_a   8.68460700
_cell_length_b   8.68460729
_cell_length_c   8.68460800
_cell_angle_alpha   59.99999728
_cell_angle_beta   59.99999621
_cell_angle_gamma   59.99999855
_symmetry_Int_Tables_number   1
_chemical_formula_structural   Zr3Zn2PdC
_chemical_formula_sum   'Zr12 Zn8 Pd4 C4'
_cell_volume   463.16480580
_cell_formula_units_Z   4
loop_
 _symmetry_equiv_pos_site_id
 _symmetry_equiv_pos_as_xyz
  1  'x, y, z'
loop_
 _atom_site_type_symbol
 _atom_site_label
 _atom_site_symmetry_multiplicity
 _atom_site_fract_x
 _atom_site_fract_y
 _atom_site_fract_z
 _atom_site_occupancy
  Zr  Zr0  1  0.439096  0.439096  0.060904  1
  Zr  Zr1  1  0.060904  0.439096  0.060904  1
  Zr  Zr2  1  0.439096  0.060904  0.060904  1
  Zr  Zr3  1  0.060904  0.060904  0.439096  1
  Zr  Zr4  1  0.439096  0.060904  0.439096  1
  Zr  Zr5  1  0.060904  0.439096  0.439096  1
  Zr  Zr6  1  0.810904  0.810904  0.189096  1
  Zr  Zr7  1  0.189096  0.810904  0.189096  1
  Zr  Zr8  1  0.810904  0.189096  0.189096  1
  Zr  Zr9  1  0.189096  0.189096  0.810904  1
  Zr  Zr10  1  0.810904  0.189096  0.810904  1
  Zr  Zr11  1  0.189096  0.810904  0.810904  1
  Zn  Zn12  1  0.832349  0.832349  0.502953  1
  Zn  Zn13  1  0.832349  0.502953  0.832349  1
  Zn  Zn14  1  0.502953  0.832349  0.832349  1
  Zn  Zn15  1  0.832349  0.832349  0.832349  1
  Zn  Zn16  1  0.417651  0.417651  0.747047  1
  Zn  Zn17  1  0.417651  0.747047  0.417651  1
  Zn  Zn18  1  0.747047  0.417651  0.417651  1
  Zn  Zn19  1  0.417651  0.417651  0.417651  1
  Pd  Pd20  1  0.625000  0.625000  0.125000  1
  Pd  Pd21  1  0.625000  0.125000  0.625000  1
  Pd  Pd22  1  0.125000  0.625000  0.625000  1
  Pd  Pd23  1  0.625000  0.625000  0.625000  1
  C  C24  1  0.125000  0.125000  0.625000  1
  C  C25  1  0.125000  0.625000  0.125000  1
  C  C26  1  0.625000  0.125000  0.125000  1
  C  C27  1  0.125000  0.125000  0.125000  1
