# generated using pymatgen
data_ZrTa11(ReTc)6
_symmetry_space_group_name_H-M   'P 1'
_cell_length_a   4.51821900
_cell_length_b   6.40643200
_cell_length_c   13.63182600
_cell_angle_alpha   90.00000000
_cell_angle_beta   89.99987362
_cell_angle_gamma   90.00000000
_symmetry_Int_Tables_number   1
_chemical_formula_structural   ZrTa11(ReTc)6
_chemical_formula_sum   'Zr1 Ta11 Re6 Tc6'
_cell_volume   394.58223853
_cell_formula_units_Z   1
loop_
 _symmetry_equiv_pos_site_id
 _symmetry_equiv_pos_as_xyz
  1  'x, y, z'
loop_
 _atom_site_type_symbol
 _atom_site_label
 _atom_site_symmetry_multiplicity
 _atom_site_fract_x
 _atom_site_fract_y
 _atom_site_fract_z
 _atom_site_occupancy
  Zr  Zr0  1  0.500000  0.250026  0.000000  1
  Ta  Ta1  1  0.500000  0.749922  0.000000  1
  Ta  Ta2  1  0.000003  0.249984  0.167893  1
  Ta  Ta3  1  0.999998  0.749942  0.166441  1
  Ta  Ta4  1  0.499992  0.249994  0.333885  1
  Ta  Ta5  1  0.499989  0.750170  0.333113  1
  Ta  Ta6  1  0.000000  0.250146  0.500000  1
  Ta  Ta7  1  0.000000  0.749988  0.500000  1
  Ta  Ta8  1  0.500009  0.249994  0.666115  1
  Ta  Ta9  1  0.500012  0.750170  0.666887  1
  Ta  Ta10  1  0.999997  0.249984  0.832107  1
  Ta  Ta11  1  0.000002  0.749942  0.833559  1
  Re  Re12  1  0.000000  0.994660  0.000000  1
  Re  Re13  1  0.499988  0.502548  0.169305  1
  Re  Re14  1  0.999998  0.999913  0.334025  1
  Re  Re15  1  0.500001  0.499947  0.500000  1
  Re  Re16  1  0.000002  0.999913  0.665975  1
  Re  Re17  1  0.500013  0.502548  0.830695  1
  Tc  Tc18  1  0.000000  0.503177  0.000000  1
  Tc  Tc19  1  0.499996  0.998423  0.169163  1
  Tc  Tc20  1  0.999996  0.499919  0.334196  1
  Tc  Tc21  1  0.500001  0.000347  0.500000  1
  Tc  Tc22  1  0.000004  0.499919  0.665804  1
  Tc  Tc23  1  0.500006  0.998423  0.830838  1
