# generated using pymatgen
data_Er5In2Te
_symmetry_space_group_name_H-M   'P 1'
_cell_length_a   8.91069033
_cell_length_b   8.91911510
_cell_length_c   6.47240500
_cell_angle_alpha   90.00000000
_cell_angle_beta   90.00000000
_cell_angle_gamma   120.03128530
_symmetry_Int_Tables_number   1
_chemical_formula_structural   Er5In2Te
_chemical_formula_sum   'Er10 In4 Te2'
_cell_volume   445.34075157
_cell_formula_units_Z   2
loop_
 _symmetry_equiv_pos_site_id
 _symmetry_equiv_pos_as_xyz
  1  'x, y, z'
loop_
 _atom_site_type_symbol
 _atom_site_label
 _atom_site_symmetry_multiplicity
 _atom_site_fract_x
 _atom_site_fract_y
 _atom_site_fract_z
 _atom_site_occupancy
  Er  Er0  1  0.668123  0.336603  0.003736  1
  Er  Er1  1  0.331877  0.668481  0.003736  1
  Er  Er2  1  0.331877  0.668481  0.496264  1
  Er  Er3  1  0.668123  0.336603  0.496264  1
  Er  Er4  1  0.766442  0.759259  0.750000  1
  Er  Er5  1  0.233558  0.992817  0.750000  1
  Er  Er6  1  0.000000  0.236272  0.750000  1
  Er  Er7  1  0.234600  0.236022  0.250000  1
  Er  Er8  1  0.765400  0.001422  0.250000  1
  Er  Er9  1  0.000000  0.764250  0.250000  1
  In  In10  1  0.000000  0.597962  0.750000  1
  In  In11  1  0.603578  0.607592  0.250000  1
  In  In12  1  0.396422  0.004014  0.250000  1
  In  In13  1  0.000000  0.396618  0.250000  1
  Te  Te14  1  0.389606  0.391604  0.750000  1
  Te  Te15  1  0.610394  0.001998  0.750000  1
