# generated using pymatgen
data_Tb2TmZn(Ga4Pd)2
_symmetry_space_group_name_H-M   'P 1'
_cell_length_a   8.14076746
_cell_length_b   8.14076552
_cell_length_c   8.14076543
_cell_angle_alpha   149.20649346
_cell_angle_beta   109.05422403
_cell_angle_gamma   79.31082464
_symmetry_Int_Tables_number   1
_chemical_formula_structural   Tb2TmZn(Ga4Pd)2
_chemical_formula_sum   'Tb2 Tm1 Zn1 Ga8 Pd2'
_cell_volume   255.98874008
_cell_formula_units_Z   1
loop_
 _symmetry_equiv_pos_site_id
 _symmetry_equiv_pos_as_xyz
  1  'x, y, z'
loop_
 _atom_site_type_symbol
 _atom_site_label
 _atom_site_symmetry_multiplicity
 _atom_site_fract_x
 _atom_site_fract_y
 _atom_site_fract_z
 _atom_site_occupancy
  Tb  Tb0  1  0.500599  0.500599  0.000000  1
  Tb  Tb1  1  0.200936  0.200936  0.000000  1
  Tm  Tm2  1  0.799832  0.799832  0.000000  1
  Zn  Zn3  1  0.999755  0.499755  0.500000  1
  Ga  Ga4  1  0.648891  0.363885  0.285007  1
  Ga  Ga5  1  0.351383  0.635763  0.715621  1
  Ga  Ga6  1  0.078878  0.363885  0.714993  1
  Ga  Ga7  1  0.920142  0.635763  0.284379  1
  Ga  Ga8  1  0.522966  0.157503  0.365463  1
  Ga  Ga9  1  0.477765  0.843171  0.634594  1
  Ga  Ga10  1  0.792041  0.157503  0.634537  1
  Ga  Ga11  1  0.208577  0.843171  0.365406  1
  Pd  Pd12  1  0.183527  0.999117  0.184409  1
  Pd  Pd13  1  0.814708  0.999117  0.815591  1
