# generated using pymatgen
data_TbDy7Re3B24Ir
_symmetry_space_group_name_H-M   'P 1'
_cell_length_a   3.68077500
_cell_length_b   9.18010902
_cell_length_c   11.56397800
_cell_angle_alpha   90.13540300
_cell_angle_beta   90.00000000
_cell_angle_gamma   90.00000000
_symmetry_Int_Tables_number   1
_chemical_formula_structural   TbDy7Re3B24Ir
_chemical_formula_sum   'Tb1 Dy7 Re3 B24 Ir1'
_cell_volume   390.74475181
_cell_formula_units_Z   1
loop_
 _symmetry_equiv_pos_site_id
 _symmetry_equiv_pos_as_xyz
  1  'x, y, z'
loop_
 _atom_site_type_symbol
 _atom_site_label
 _atom_site_symmetry_multiplicity
 _atom_site_fract_x
 _atom_site_fract_y
 _atom_site_fract_z
 _atom_site_occupancy
  Tb  Tb0  1  0.000000  0.318649  0.415464  1
  Dy  Dy1  1  0.000000  0.678286  0.591448  1
  Dy  Dy2  1  0.000000  0.827491  0.081347  1
  Dy  Dy3  1  0.000000  0.177080  0.912533  1
  Dy  Dy4  1  0.000000  0.943853  0.370266  1
  Dy  Dy5  1  0.000000  0.055911  0.628981  1
  Dy  Dy6  1  0.000000  0.440916  0.128383  1
  Dy  Dy7  1  0.000000  0.556832  0.871712  1
  Re  Re8  1  0.000000  0.362819  0.677683  1
  Re  Re9  1  0.000000  0.138135  0.179678  1
  Re  Re10  1  0.000000  0.861886  0.821045  1
  B  B11  1  0.500000  0.553876  0.433558  1
  B  B12  1  0.500000  0.446844  0.567039  1
  B  B13  1  0.500000  0.053364  0.066689  1
  B  B14  1  0.500000  0.947174  0.932531  1
  B  B15  1  0.500000  0.748690  0.420024  1
  B  B16  1  0.500000  0.251081  0.581314  1
  B  B17  1  0.500000  0.248480  0.081282  1
  B  B18  1  0.500000  0.752281  0.918840  1
  B  B19  1  0.500000  0.790881  0.265489  1
  B  B20  1  0.500000  0.208781  0.733867  1
  B  B21  1  0.500000  0.291128  0.234554  1
  B  B22  1  0.500000  0.708458  0.766218  1
  B  B23  1  0.500000  0.631971  0.184629  1
  B  B24  1  0.500000  0.369151  0.813845  1
  B  B25  1  0.500000  0.130888  0.314388  1
  B  B26  1  0.500000  0.868154  0.685814  1
  B  B27  1  0.500000  0.983334  0.211912  1
  B  B28  1  0.500000  0.016991  0.787024  1
  B  B29  1  0.500000  0.483410  0.287808  1
  B  B30  1  0.500000  0.517862  0.712474  1
  B  B31  1  0.500000  0.604767  0.029711  1
  B  B32  1  0.500000  0.396306  0.971599  1
  B  B33  1  0.500000  0.102626  0.470854  1
  B  B34  1  0.500000  0.894106  0.528642  1
  Ir  Ir35  1  0.000000  0.637537  0.321356  1
