# generated using pymatgen
data_TmLu7Sc12Si15Ag
_symmetry_space_group_name_H-M   'P 1'
_cell_length_a   7.06734824
_cell_length_b   7.30918708
_cell_length_c   13.96212202
_cell_angle_alpha   89.86136520
_cell_angle_beta   89.51188350
_cell_angle_gamma   90.14670640
_symmetry_Int_Tables_number   1
_chemical_formula_structural   TmLu7Sc12Si15Ag
_chemical_formula_sum   'Tm1 Lu7 Sc12 Si15 Ag1'
_cell_volume   721.20465262
_cell_formula_units_Z   1
loop_
 _symmetry_equiv_pos_site_id
 _symmetry_equiv_pos_as_xyz
  1  'x, y, z'
loop_
 _atom_site_type_symbol
 _atom_site_label
 _atom_site_symmetry_multiplicity
 _atom_site_fract_x
 _atom_site_fract_y
 _atom_site_fract_z
 _atom_site_occupancy
  Tm  Tm0  1  0.494347  0.678950  0.599564  1
  Lu  Lu1  1  0.012186  0.175895  0.097493  1
  Lu  Lu2  1  0.987861  0.825276  0.904236  1
  Lu  Lu3  1  0.487266  0.677999  0.903944  1
  Lu  Lu4  1  0.989424  0.830410  0.597536  1
  Lu  Lu5  1  0.512050  0.322557  0.096439  1
  Lu  Lu6  1  0.008235  0.172081  0.398832  1
  Lu  Lu7  1  0.511078  0.321789  0.400411  1
  Sc  Sc8  1  0.163889  0.502983  0.753184  1
  Sc  Sc9  1  0.836932  0.497403  0.250992  1
  Sc  Sc10  1  0.336813  0.001208  0.248953  1
  Sc  Sc11  1  0.665797  0.995111  0.751212  1
  Sc  Sc12  1  0.342465  0.173431  0.626800  1
  Sc  Sc13  1  0.663819  0.823449  0.373595  1
  Sc  Sc14  1  0.166476  0.675095  0.371793  1
  Sc  Sc15  1  0.669365  0.824327  0.124723  1
  Sc  Sc16  1  0.827093  0.325620  0.625385  1
  Sc  Sc17  1  0.328809  0.175289  0.876433  1
  Sc  Sc18  1  0.830958  0.322735  0.876141  1
  Sc  Sc19  1  0.168930  0.676261  0.125113  1
  Si  Si20  1  0.036275  0.118808  0.750084  1
  Si  Si21  1  0.965119  0.885820  0.248414  1
  Si  Si22  1  0.466786  0.612260  0.247974  1
  Si  Si23  1  0.534247  0.388283  0.752492  1
  Si  Si24  1  0.285551  0.871564  0.751241  1
  Si  Si25  1  0.712404  0.130173  0.248339  1
  Si  Si26  1  0.214155  0.367686  0.248179  1
  Si  Si27  1  0.788787  0.630536  0.752830  1
  Si  Si28  1  0.832786  0.536589  0.459411  1
  Si  Si29  1  0.334574  0.962473  0.460871  1
  Si  Si30  1  0.841961  0.534598  0.039192  1
  Si  Si31  1  0.662406  0.035754  0.537609  1
  Si  Si32  1  0.157230  0.465175  0.962028  1
  Si  Si33  1  0.658983  0.034286  0.960769  1
  Si  Si34  1  0.341067  0.965265  0.039949  1
  Ag  Ag35  1  0.163875  0.462856  0.537842  1
