# generated using pymatgen
data_Yb10Cd2PdRh3
_symmetry_space_group_name_H-M   'P 1'
_cell_length_a   8.95069973
_cell_length_b   8.95069872
_cell_length_c   8.95189500
_cell_angle_alpha   128.95045419
_cell_angle_beta   128.95044898
_cell_angle_gamma   75.08034406
_symmetry_Int_Tables_number   1
_chemical_formula_structural   Yb10Cd2PdRh3
_chemical_formula_sum   'Yb10 Cd2 Pd1 Rh3'
_cell_volume   422.35474496
_cell_formula_units_Z   1
loop_
 _symmetry_equiv_pos_site_id
 _symmetry_equiv_pos_as_xyz
  1  'x, y, z'
loop_
 _atom_site_type_symbol
 _atom_site_label
 _atom_site_symmetry_multiplicity
 _atom_site_fract_x
 _atom_site_fract_y
 _atom_site_fract_z
 _atom_site_occupancy
  Yb  Yb0  1  0.501767  0.502868  0.004634  1
  Yb  Yb1  1  0.997132  0.998233  0.995366  1
  Yb  Yb2  1  0.538378  0.031712  0.828290  1
  Yb  Yb3  1  0.210090  0.703423  0.171710  1
  Yb  Yb4  1  0.027349  0.218163  0.500000  1
  Yb  Yb5  1  0.710865  0.536977  0.500000  1
  Yb  Yb6  1  0.468288  0.961622  0.171710  1
  Yb  Yb7  1  0.796577  0.289910  0.828290  1
  Yb  Yb8  1  0.963023  0.789135  0.500000  1
  Yb  Yb9  1  0.281837  0.472651  0.500000  1
  Cd  Cd10  1  0.252536  0.247464  0.000000  1
  Cd  Cd11  1  0.752536  0.747464  0.000000  1
  Pd  Pd12  1  0.365465  0.134535  0.500000  1
  Rh  Rh13  1  0.138015  0.639929  0.777945  1
  Rh  Rh14  1  0.860071  0.361985  0.222055  1
  Rh  Rh15  1  0.636068  0.863932  0.500000  1
