# generated using pymatgen
data_Ca3Pd2PtPb3
_symmetry_space_group_name_H-M   'P 1'
_cell_length_a   7.84179200
_cell_length_b   7.84179193
_cell_length_c   4.08671100
_cell_angle_alpha   90.00000000
_cell_angle_beta   90.00000000
_cell_angle_gamma   120.00000030
_symmetry_Int_Tables_number   1
_chemical_formula_structural   Ca3Pd2PtPb3
_chemical_formula_sum   'Ca3 Pd2 Pt1 Pb3'
_cell_volume   217.63823262
_cell_formula_units_Z   1
loop_
 _symmetry_equiv_pos_site_id
 _symmetry_equiv_pos_as_xyz
  1  'x, y, z'
loop_
 _atom_site_type_symbol
 _atom_site_label
 _atom_site_symmetry_multiplicity
 _atom_site_fract_x
 _atom_site_fract_y
 _atom_site_fract_z
 _atom_site_occupancy
  Ca  Ca0  1  0.405966  0.396902  0.500000  1
  Ca  Ca1  1  0.990936  0.594034  0.500000  1
  Ca  Ca2  1  0.603098  0.009064  0.500000  1
  Pd  Pd3  1  0.000000  0.000000  0.500000  1
  Pd  Pd4  1  0.333333  0.666667  0.000000  1
  Pt  Pt5  1  0.666667  0.333333  0.000000  1
  Pb  Pb6  1  0.262199  0.994856  0.000000  1
  Pb  Pb7  1  0.732657  0.737801  0.000000  1
  Pb  Pb8  1  0.005144  0.267343  0.000000  1
