# generated using pymatgen
data_Pa4Hg2PtRh3
_symmetry_space_group_name_H-M   'P 1'
_cell_length_a   7.77181737
_cell_length_b   7.77181737
_cell_length_c   3.57279600
_cell_angle_alpha   90.00000000
_cell_angle_beta   90.00000000
_cell_angle_gamma   89.85332168
_symmetry_Int_Tables_number   1
_chemical_formula_structural   Pa4Hg2PtRh3
_chemical_formula_sum   'Pa4 Hg2 Pt1 Rh3'
_cell_volume   215.80026276
_cell_formula_units_Z   1
loop_
 _symmetry_equiv_pos_site_id
 _symmetry_equiv_pos_as_xyz
  1  'x, y, z'
loop_
 _atom_site_type_symbol
 _atom_site_label
 _atom_site_symmetry_multiplicity
 _atom_site_fract_x
 _atom_site_fract_y
 _atom_site_fract_z
 _atom_site_occupancy
  Pa  Pa0  1  0.330281  0.175430  0.500000  1
  Pa  Pa1  1  0.828091  0.328091  0.500000  1
  Pa  Pa2  1  0.164958  0.664958  0.500000  1
  Pa  Pa3  1  0.675430  0.830281  0.500000  1
  Hg  Hg4  1  0.998757  0.000717  0.000000  1
  Hg  Hg5  1  0.500717  0.498757  0.000000  1
  Pt  Pt6  1  0.369943  0.869943  0.000000  1
  Rh  Rh7  1  0.632845  0.132845  0.000000  1
  Rh  Rh8  1  0.132528  0.366449  0.000000  1
  Rh  Rh9  1  0.866449  0.632528  0.000000  1
