# generated using pymatgen
data_Ca7Pr(HoIr2)2
_symmetry_space_group_name_H-M   'P 1'
_cell_length_a   6.60750205
_cell_length_b   7.44403489
_cell_length_c   8.71962774
_cell_angle_alpha   97.01787310
_cell_angle_beta   112.95492877
_cell_angle_gamma   90.28592811
_symmetry_Int_Tables_number   1
_chemical_formula_structural   Ca7Pr(HoIr2)2
_chemical_formula_sum   'Ca7 Pr1 Ho2 Ir4'
_cell_volume   391.31546750
_cell_formula_units_Z   1
loop_
 _symmetry_equiv_pos_site_id
 _symmetry_equiv_pos_as_xyz
  1  'x, y, z'
loop_
 _atom_site_type_symbol
 _atom_site_label
 _atom_site_symmetry_multiplicity
 _atom_site_fract_x
 _atom_site_fract_y
 _atom_site_fract_z
 _atom_site_occupancy
  Ca  Ca0  1  0.799434  0.576071  0.822289  1
  Ca  Ca1  1  0.022561  0.081992  0.819930  1
  Ca  Ca2  1  0.195666  0.419638  0.172736  1
  Ca  Ca3  1  0.636391  0.818704  0.432503  1
  Ca  Ca4  1  0.203711  0.679721  0.565991  1
  Ca  Ca5  1  0.365363  0.181272  0.568555  1
  Ca  Ca6  1  0.798674  0.318579  0.433793  1
  Pr  Pr7  1  0.974904  0.919592  0.171111  1
  Ho  Ho8  1  0.430583  0.747328  0.998611  1
  Ho  Ho9  1  0.562679  0.251991  0.001166  1
  Ir  Ir10  1  0.808642  0.580489  0.207916  1
  Ir  Ir11  1  0.609135  0.927767  0.807356  1
  Ir  Ir12  1  0.196300  0.424977  0.791160  1
  Ir  Ir13  1  0.395956  0.071878  0.206882  1
