# generated using pymatgen
data_La4TlIn(HgRh)2
_symmetry_space_group_name_H-M   'P 1'
_cell_length_a   8.13652223
_cell_length_b   8.50740517
_cell_length_c   3.93467800
_cell_angle_alpha   90.00000000
_cell_angle_beta   90.00000000
_cell_angle_gamma   89.97512912
_symmetry_Int_Tables_number   1
_chemical_formula_structural   La4TlIn(HgRh)2
_chemical_formula_sum   'La4 Tl1 In1 Hg2 Rh2'
_cell_volume   272.36110528
_cell_formula_units_Z   1
loop_
 _symmetry_equiv_pos_site_id
 _symmetry_equiv_pos_as_xyz
  1  'x, y, z'
loop_
 _atom_site_type_symbol
 _atom_site_label
 _atom_site_symmetry_multiplicity
 _atom_site_fract_x
 _atom_site_fract_y
 _atom_site_fract_z
 _atom_site_occupancy
  La  La0  1  0.178981  0.298130  0.500000  1
  La  La1  1  0.676488  0.200673  0.500000  1
  La  La2  1  0.817731  0.633274  0.500000  1
  La  La3  1  0.319081  0.865134  0.500000  1
  Tl  Tl4  1  0.000435  0.012189  0.000000  1
  In  In5  1  0.500503  0.484692  0.000000  1
  Hg  Hg6  1  0.140929  0.610354  0.000000  1
  Hg  Hg7  1  0.636534  0.885724  0.000000  1
  Rh  Rh8  1  0.369822  0.118937  0.000000  1
  Rh  Rh9  1  0.859496  0.390892  0.000000  1
