# generated using pymatgen
data_CeHoNi2Hg
_symmetry_space_group_name_H-M   'P 1'
_cell_length_a   7.44286900
_cell_length_b   7.33278700
_cell_length_c   3.65357100
_cell_angle_alpha   90.00000000
_cell_angle_beta   90.00000000
_cell_angle_gamma   90.00000000
_symmetry_Int_Tables_number   1
_chemical_formula_structural   CeHoNi2Hg
_chemical_formula_sum   'Ce2 Ho2 Ni4 Hg2'
_cell_volume   199.40084599
_cell_formula_units_Z   2
loop_
 _symmetry_equiv_pos_site_id
 _symmetry_equiv_pos_as_xyz
  1  'x, y, z'
loop_
 _atom_site_type_symbol
 _atom_site_label
 _atom_site_symmetry_multiplicity
 _atom_site_fract_x
 _atom_site_fract_y
 _atom_site_fract_z
 _atom_site_occupancy
  Ce  Ce0  1  0.822933  0.671741  0.499999  1
  Ce  Ce1  1  0.322933  0.828259  0.499999  1
  Ho  Ho2  1  0.674242  0.174096  0.499999  1
  Ho  Ho3  1  0.174242  0.325904  0.499999  1
  Ni  Ni4  1  0.382278  0.106739  0.000000  1
  Ni  Ni5  1  0.882278  0.393261  0.000000  1
  Ni  Ni6  1  0.124092  0.633730  0.000000  1
  Ni  Ni7  1  0.624092  0.866270  0.000000  1
  Hg  Hg8  1  0.996455  0.009883  0.000000  1
  Hg  Hg9  1  0.496455  0.490117  0.000000  1
