# generated using pymatgen
data_Te7OsBr6
_symmetry_space_group_name_H-M   'P 1'
_cell_length_a   10.19461911
_cell_length_b   10.51288825
_cell_length_c   11.56256794
_cell_angle_alpha   100.81097893
_cell_angle_beta   103.28513357
_cell_angle_gamma   112.24821959
_symmetry_Int_Tables_number   1
_chemical_formula_structural   Te7OsBr6
_chemical_formula_sum   'Te14 Os2 Br12'
_cell_volume   1063.14317676
_cell_formula_units_Z   2
loop_
 _symmetry_equiv_pos_site_id
 _symmetry_equiv_pos_as_xyz
  1  'x, y, z'
loop_
 _atom_site_type_symbol
 _atom_site_label
 _atom_site_symmetry_multiplicity
 _atom_site_fract_x
 _atom_site_fract_y
 _atom_site_fract_z
 _atom_site_occupancy
  Te  Te0  1  0.921235  0.009102  0.705693  1
  Te  Te1  1  0.078765  0.990898  0.294307  1
  Te  Te2  1  0.181918  0.266819  0.858335  1
  Te  Te3  1  0.818082  0.733181  0.141665  1
  Te  Te4  1  0.750690  0.115748  0.822751  1
  Te  Te5  1  0.249310  0.884252  0.177249  1
  Te  Te6  1  0.020441  0.324308  0.015243  1
  Te  Te7  1  0.979559  0.675692  0.984757  1
  Te  Te8  1  0.202417  0.070619  0.017328  1
  Te  Te9  1  0.797583  0.929381  0.982672  1
  Te  Te10  1  0.714132  0.622143  0.680029  1
  Te  Te11  1  0.285868  0.377857  0.319971  1
  Te  Te12  1  0.094635  0.752448  0.714165  1
  Te  Te13  1  0.905365  0.247552  0.285835  1
  Os  Os14  1  0.950407  0.839175  0.843097  1
  Os  Os15  1  0.049593  0.160825  0.156903  1
  Br  Br16  1  0.543807  0.762311  0.625827  1
  Br  Br17  1  0.456193  0.237689  0.374173  1
  Br  Br18  1  0.846679  0.690117  0.484443  1
  Br  Br19  1  0.153321  0.309883  0.515557  1
  Br  Br20  1  0.888765  0.449116  0.685961  1
  Br  Br21  1  0.111235  0.550884  0.314039  1
  Br  Br22  1  0.592591  0.499672  0.843063  1
  Br  Br23  1  0.407409  0.500328  0.156937  1
  Br  Br24  1  0.267577  0.009403  0.691366  1
  Br  Br25  1  0.732423  0.990597  0.308634  1
  Br  Br26  1  0.303334  0.746645  0.906064  1
  Br  Br27  1  0.696666  0.253355  0.093936  1
