# generated using pymatgen
data_Tb8TiNb11Si15As
_symmetry_space_group_name_H-M   'P 1'
_cell_length_a   7.09597701
_cell_length_b   7.08765917
_cell_length_c   13.09162596
_cell_angle_alpha   89.96899423
_cell_angle_beta   89.89230753
_cell_angle_gamma   89.95100402
_symmetry_Int_Tables_number   1
_chemical_formula_structural   Tb8TiNb11Si15As
_chemical_formula_sum   'Tb8 Ti1 Nb11 Si15 As1'
_cell_volume   658.42698940
_cell_formula_units_Z   1
loop_
 _symmetry_equiv_pos_site_id
 _symmetry_equiv_pos_as_xyz
  1  'x, y, z'
loop_
 _atom_site_type_symbol
 _atom_site_label
 _atom_site_symmetry_multiplicity
 _atom_site_fract_x
 _atom_site_fract_y
 _atom_site_fract_z
 _atom_site_occupancy
  Tb  Tb0  1  0.342235  0.001804  0.466683  1
  Tb  Tb1  1  0.497656  0.843725  0.718354  1
  Tb  Tb2  1  0.501744  0.158295  0.217653  1
  Tb  Tb3  1  0.841336  0.497327  0.282220  1
  Tb  Tb4  1  0.158156  0.500515  0.782411  1
  Tb  Tb5  1  0.659684  0.995924  0.968370  1
  Tb  Tb6  1  0.999840  0.343667  0.531313  1
  Tb  Tb7  1  0.997638  0.659317  0.032333  1
  Ti  Ti8  1  0.990407  0.842659  0.624777  1
  Nb  Nb9  1  0.328534  0.328702  0.999741  1
  Nb  Nb10  1  0.171414  0.828438  0.250032  1
  Nb  Nb11  1  0.825219  0.172726  0.749723  1
  Nb  Nb12  1  0.671141  0.671132  0.500176  1
  Nb  Nb13  1  0.155140  0.007404  0.874730  1
  Nb  Nb14  1  0.492793  0.652902  0.124933  1
  Nb  Nb15  1  0.508229  0.347409  0.625229  1
  Nb  Nb16  1  0.654673  0.494705  0.876288  1
  Nb  Nb17  1  0.347333  0.506524  0.375602  1
  Nb  Nb18  1  0.845662  0.992504  0.374787  1
  Nb  Nb19  1  0.007418  0.152919  0.125450  1
  Si  Si20  1  0.367408  0.704353  0.933032  1
  Si  Si21  1  0.631808  0.296385  0.433406  1
  Si  Si22  1  0.703344  0.367309  0.067074  1
  Si  Si23  1  0.295877  0.633323  0.566747  1
  Si  Si24  1  0.796665  0.867099  0.183280  1
  Si  Si25  1  0.132845  0.203510  0.317208  1
  Si  Si26  1  0.868378  0.797650  0.815986  1
  Si  Si27  1  0.293259  0.953522  0.063711  1
  Si  Si28  1  0.546272  0.792712  0.313663  1
  Si  Si29  1  0.460894  0.208499  0.817915  1
  Si  Si30  1  0.793871  0.548351  0.685481  1
  Si  Si31  1  0.206939  0.453527  0.186271  1
  Si  Si32  1  0.708569  0.045494  0.564169  1
  Si  Si33  1  0.953469  0.293051  0.936324  1
  Si  Si34  1  0.046313  0.708406  0.436527  1
  As  As35  1  0.197838  0.128216  0.678399  1
