# generated using pymatgen
data_Ca5B10RuRh13
_symmetry_space_group_name_H-M   'P 1'
_cell_length_a   15.28285618
_cell_length_b   14.75763140
_cell_length_c   5.59907353
_cell_angle_alpha   84.59322933
_cell_angle_beta   74.01562067
_cell_angle_gamma   21.39115353
_symmetry_Int_Tables_number   1
_chemical_formula_structural   Ca5B10RuRh13
_chemical_formula_sum   'Ca5 B10 Ru1 Rh13'
_cell_volume   392.56917654
_cell_formula_units_Z   1
loop_
 _symmetry_equiv_pos_site_id
 _symmetry_equiv_pos_as_xyz
  1  'x, y, z'
loop_
 _atom_site_type_symbol
 _atom_site_label
 _atom_site_symmetry_multiplicity
 _atom_site_fract_x
 _atom_site_fract_y
 _atom_site_fract_z
 _atom_site_occupancy
  Ca  Ca0  1  0.711639  0.711639  0.288361  1
  Ca  Ca1  1  0.288361  0.288361  0.711639  1
  Ca  Ca2  1  0.604671  0.604671  0.395329  1
  Ca  Ca3  1  0.395329  0.395329  0.604671  1
  Ca  Ca4  1  0.500000  0.500000  0.500000  1
  B  B5  1  0.038897  0.370308  0.643803  1
  B  B6  1  0.946992  0.643803  0.370308  1
  B  B7  1  0.643803  0.946992  0.038897  1
  B  B8  1  0.370308  0.038897  0.946992  1
  B  B9  1  0.934777  0.268644  0.728416  1
  B  B10  1  0.068163  0.728416  0.268644  1
  B  B11  1  0.728416  0.068163  0.934777  1
  B  B12  1  0.268644  0.934777  0.068163  1
  B  B13  1  0.833938  0.166062  0.833938  1
  B  B14  1  0.166062  0.833938  0.166062  1
  Ru  Ru15  1  0.750000  0.750000  0.750000  1
  Rh  Rh16  1  0.250000  0.250000  0.250000  1
  Rh  Rh17  1  0.651524  0.651524  0.848476  1
  Rh  Rh18  1  0.848476  0.848476  0.651524  1
  Rh  Rh19  1  0.347560  0.347560  0.152440  1
  Rh  Rh20  1  0.152440  0.152440  0.347560  1
  Rh  Rh21  1  0.550565  0.550565  0.949435  1
  Rh  Rh22  1  0.949435  0.949435  0.550565  1
  Rh  Rh23  1  0.449148  0.449148  0.050852  1
  Rh  Rh24  1  0.050852  0.050852  0.449148  1
  Rh  Rh25  1  0.847677  0.847677  0.152323  1
  Rh  Rh26  1  0.152323  0.152323  0.847677  1
  Rh  Rh27  1  0.949294  0.949294  0.050706  1
  Rh  Rh28  1  0.050706  0.050706  0.949294  1
