# generated using pymatgen
data_YEr3ZnCo
_symmetry_space_group_name_H-M   'P 1'
_cell_length_a   9.30114831
_cell_length_b   9.27749234
_cell_length_c   9.27749168
_cell_angle_alpha   60.16877070
_cell_angle_beta   59.91561976
_cell_angle_gamma   59.91561410
_symmetry_Int_Tables_number   1
_chemical_formula_structural   YEr3ZnCo
_chemical_formula_sum   'Y4 Er12 Zn4 Co4'
_cell_volume   566.07907663
_cell_formula_units_Z   4
loop_
 _symmetry_equiv_pos_site_id
 _symmetry_equiv_pos_as_xyz
  1  'x, y, z'
loop_
 _atom_site_type_symbol
 _atom_site_label
 _atom_site_symmetry_multiplicity
 _atom_site_fract_x
 _atom_site_fract_y
 _atom_site_fract_z
 _atom_site_occupancy
  Y  Y0  1  0.812525  0.187475  0.812525  1
  Y  Y1  1  0.187475  0.812525  0.187475  1
  Y  Y2  1  0.812525  0.812525  0.187475  1
  Y  Y3  1  0.187475  0.187475  0.812525  1
  Er  Er4  1  0.600541  0.599601  0.599601  1
  Er  Er5  1  0.599601  0.600541  0.200257  1
  Er  Er6  1  0.599601  0.200257  0.600541  1
  Er  Er7  1  0.200257  0.599601  0.599601  1
  Er  Er8  1  0.060036  0.439964  0.439964  1
  Er  Er9  1  0.439964  0.060036  0.060036  1
  Er  Er10  1  0.440127  0.059873  0.440127  1
  Er  Er11  1  0.059873  0.440127  0.059873  1
  Er  Er12  1  0.440127  0.440127  0.059873  1
  Er  Er13  1  0.059873  0.059873  0.440127  1
  Er  Er14  1  0.190048  0.809952  0.809952  1
  Er  Er15  1  0.809952  0.190048  0.190048  1
  Zn  Zn16  1  0.827534  0.826942  0.826942  1
  Zn  Zn17  1  0.826942  0.827534  0.518583  1
  Zn  Zn18  1  0.826942  0.518583  0.827534  1
  Zn  Zn19  1  0.518583  0.826942  0.826942  1
  Co  Co20  1  0.393202  0.391176  0.391176  1
  Co  Co21  1  0.391176  0.393202  0.824447  1
  Co  Co22  1  0.391176  0.824447  0.393202  1
  Co  Co23  1  0.824447  0.391176  0.391176  1
