# generated using pymatgen
data_Tm10InSn3Sb2
_symmetry_space_group_name_H-M   'P 1'
_cell_length_a   6.41953700
_cell_length_b   8.82537615
_cell_length_c   8.82366804
_cell_angle_alpha   119.58197845
_cell_angle_beta   90.00018368
_cell_angle_gamma   89.99971281
_symmetry_Int_Tables_number   1
_chemical_formula_structural   Tm10InSn3Sb2
_chemical_formula_sum   'Tm10 In1 Sn3 Sb2'
_cell_volume   434.74111744
_cell_formula_units_Z   1
loop_
 _symmetry_equiv_pos_site_id
 _symmetry_equiv_pos_as_xyz
  1  'x, y, z'
loop_
 _atom_site_type_symbol
 _atom_site_label
 _atom_site_symmetry_multiplicity
 _atom_site_fract_x
 _atom_site_fract_y
 _atom_site_fract_z
 _atom_site_occupancy
  Tm  Tm0  1  0.499370  0.333388  0.668564  1
  Tm  Tm1  1  0.499450  0.669359  0.331986  1
  Tm  Tm2  1  0.000550  0.669363  0.331984  1
  Tm  Tm3  1  0.000628  0.333392  0.668567  1
  Tm  Tm4  1  0.750003  0.235880  0.997059  1
  Tm  Tm5  1  0.750001  0.762540  0.764534  1
  Tm  Tm6  1  0.750001  0.996394  0.236429  1
  Tm  Tm7  1  0.250004  0.764144  0.000862  1
  Tm  Tm8  1  0.250000  0.238069  0.240058  1
  Tm  Tm9  1  0.250001  0.999580  0.762531  1
  In  In10  1  0.749999  0.603454  0.999665  1
  Sn  Sn11  1  0.750001  0.000729  0.605462  1
  Sn  Sn12  1  0.249987  0.607287  0.606319  1
  Sn  Sn13  1  0.250000  0.001451  0.396144  1
  Sb  Sb14  1  0.750001  0.390397  0.389822  1
  Sb  Sb15  1  0.250000  0.394571  0.000014  1
