# generated using pymatgen
data_ThNpReB6
_symmetry_space_group_name_H-M   'P 1'
_cell_length_a   3.74069400
_cell_length_b   9.38246700
_cell_length_c   11.49095500
_cell_angle_alpha   90.00000000
_cell_angle_beta   90.00000000
_cell_angle_gamma   90.00000000
_symmetry_Int_Tables_number   1
_chemical_formula_structural   ThNpReB6
_chemical_formula_sum   'Th4 Np4 Re4 B24'
_cell_volume   403.29733533
_cell_formula_units_Z   4
loop_
 _symmetry_equiv_pos_site_id
 _symmetry_equiv_pos_as_xyz
  1  'x, y, z'
loop_
 _atom_site_type_symbol
 _atom_site_label
 _atom_site_symmetry_multiplicity
 _atom_site_fract_x
 _atom_site_fract_y
 _atom_site_fract_z
 _atom_site_occupancy
  Th  Th0  1  0.000000  0.335276  0.407333  1
  Th  Th1  1  0.000000  0.664724  0.592667  1
  Th  Th2  1  0.000000  0.835276  0.092667  1
  Th  Th3  1  0.000000  0.164724  0.907333  1
  Np  Np4  1  0.000000  0.959253  0.401043  1
  Np  Np5  1  0.000000  0.040747  0.598957  1
  Np  Np6  1  0.000000  0.459253  0.098957  1
  Np  Np7  1  0.000000  0.540747  0.901043  1
  Re  Re8  1  0.000000  0.647266  0.318071  1
  Re  Re9  1  0.000000  0.352734  0.681929  1
  Re  Re10  1  0.000000  0.147266  0.181929  1
  Re  Re11  1  0.000000  0.852734  0.818071  1
  B  B12  1  0.500000  0.555852  0.427750  1
  B  B13  1  0.500000  0.444148  0.572250  1
  B  B14  1  0.500000  0.055852  0.072250  1
  B  B15  1  0.500000  0.944148  0.927750  1
  B  B16  1  0.500000  0.746347  0.421609  1
  B  B17  1  0.500000  0.253653  0.578391  1
  B  B18  1  0.500000  0.246347  0.078391  1
  B  B19  1  0.500000  0.753653  0.921609  1
  B  B20  1  0.500000  0.803290  0.274898  1
  B  B21  1  0.500000  0.196710  0.725102  1
  B  B22  1  0.500000  0.303290  0.225102  1
  B  B23  1  0.500000  0.696710  0.774898  1
  B  B24  1  0.500000  0.643524  0.187907  1
  B  B25  1  0.500000  0.356476  0.812093  1
  B  B26  1  0.500000  0.143524  0.312093  1
  B  B27  1  0.500000  0.856476  0.687907  1
  B  B28  1  0.500000  0.990433  0.221594  1
  B  B29  1  0.500000  0.009567  0.778406  1
  B  B30  1  0.500000  0.490433  0.278406  1
  B  B31  1  0.500000  0.509567  0.721594  1
  B  B32  1  0.500000  0.636215  0.037455  1
  B  B33  1  0.500000  0.363785  0.962545  1
  B  B34  1  0.500000  0.136215  0.462545  1
  B  B35  1  0.500000  0.863785  0.537455  1
