# generated using pymatgen
data_Ho12TlNi3Os2
_symmetry_space_group_name_H-M   'P 1'
_cell_length_a   8.33946117
_cell_length_b   8.33946123
_cell_length_c   8.33946000
_cell_angle_alpha   110.24267872
_cell_angle_beta   112.28849114
_cell_angle_gamma   105.94607164
_symmetry_Int_Tables_number   1
_chemical_formula_structural   Ho12TlNi3Os2
_chemical_formula_sum   'Ho12 Tl1 Ni3 Os2'
_cell_volume   445.06055373
_cell_formula_units_Z   1
loop_
 _symmetry_equiv_pos_site_id
 _symmetry_equiv_pos_as_xyz
  1  'x, y, z'
loop_
 _atom_site_type_symbol
 _atom_site_label
 _atom_site_symmetry_multiplicity
 _atom_site_fract_x
 _atom_site_fract_y
 _atom_site_fract_z
 _atom_site_occupancy
  Ho  Ho0  1  0.272088  0.182390  0.454477  1
  Ho  Ho1  1  0.722862  0.825025  0.547887  1
  Ho  Ho2  1  0.277138  0.825025  0.102162  1
  Ho  Ho3  1  0.727912  0.182390  0.910303  1
  Ho  Ho4  1  0.632711  0.320494  0.306880  1
  Ho  Ho5  1  0.367289  0.674169  0.687783  1
  Ho  Ho6  1  0.013614  0.320494  0.687783  1
  Ho  Ho7  1  0.986386  0.674169  0.306880  1
  Ho  Ho8  1  0.227796  0.413376  0.185581  1
  Ho  Ho9  1  0.777960  0.587326  0.809366  1
  Ho  Ho10  1  0.222040  0.031406  0.809366  1
  Ho  Ho11  1  0.772204  0.957785  0.185581  1
  Tl  Tl12  1  0.500000  0.498079  0.998079  1
  Ni  Ni13  1  0.000000  0.650921  0.650921  1
  Ni  Ni14  1  0.384583  0.887464  0.502881  1
  Ni  Ni15  1  0.615417  0.118299  0.502881  1
  Os  Os16  1  0.000000  0.351496  0.351496  1
  Os  Os17  1  0.000000  0.999692  0.999692  1
