# generated using pymatgen
data_Zr6GaCuC2
_symmetry_space_group_name_H-M   'P 1'
_cell_length_a   5.97844700
_cell_length_b   5.97844833
_cell_length_c   8.98301300
_cell_angle_alpha   90.00000000
_cell_angle_beta   90.00000000
_cell_angle_gamma   146.25760618
_symmetry_Int_Tables_number   1
_chemical_formula_structural   Zr6GaCuC2
_chemical_formula_sum   'Zr6 Ga1 Cu1 C2'
_cell_volume   178.34114996
_cell_formula_units_Z   1
loop_
 _symmetry_equiv_pos_site_id
 _symmetry_equiv_pos_as_xyz
  1  'x, y, z'
loop_
 _atom_site_type_symbol
 _atom_site_label
 _atom_site_symmetry_multiplicity
 _atom_site_fract_x
 _atom_site_fract_y
 _atom_site_fract_z
 _atom_site_occupancy
  Zr  Zr0  1  0.126803  0.873195  0.050722  1
  Zr  Zr1  1  0.447504  0.552495  0.250000  1
  Zr  Zr2  1  0.126803  0.873195  0.449278  1
  Zr  Zr3  1  0.869301  0.130697  0.554832  1
  Zr  Zr4  1  0.557536  0.442463  0.750000  1
  Zr  Zr5  1  0.869301  0.130697  0.945169  1
  Ga  Ga6  1  0.753720  0.246279  0.250000  1
  Cu  Cu7  1  0.250600  0.749399  0.750000  1
  C  C8  1  0.499212  0.500786  0.998924  1
  C  C9  1  0.499212  0.500786  0.501076  1
