# generated using pymatgen
data_Tm3Lu3Al24(CuOs3)2
_symmetry_space_group_name_H-M   'P 1'
_cell_length_a   8.86177404
_cell_length_b   8.76457009
_cell_length_c   9.46886700
_cell_angle_alpha   90.00000000
_cell_angle_beta   90.00000000
_cell_angle_gamma   120.37742570
_symmetry_Int_Tables_number   1
_chemical_formula_structural   Tm3Lu3Al24(CuOs3)2
_chemical_formula_sum   'Tm3 Lu3 Al24 Cu2 Os6'
_cell_volume   634.47664133
_cell_formula_units_Z   1
loop_
 _symmetry_equiv_pos_site_id
 _symmetry_equiv_pos_as_xyz
  1  'x, y, z'
loop_
 _atom_site_type_symbol
 _atom_site_label
 _atom_site_symmetry_multiplicity
 _atom_site_fract_x
 _atom_site_fract_y
 _atom_site_fract_z
 _atom_site_occupancy
  Tm  Tm0  1  0.385267  0.202948  0.750000  1
  Tm  Tm1  1  0.181855  0.796570  0.250000  1
  Tm  Tm2  1  0.818203  0.203501  0.750000  1
  Lu  Lu3  1  0.197608  0.394890  0.250000  1
  Lu  Lu4  1  0.802958  0.605443  0.750000  1
  Lu  Lu5  1  0.612704  0.794951  0.250000  1
  Al  Al6  1  0.333620  0.666703  0.025342  1
  Al  Al7  1  0.666656  0.333724  0.974918  1
  Al  Al8  1  0.666656  0.333724  0.525082  1
  Al  Al9  1  0.333620  0.666703  0.474658  1
  Al  Al10  1  0.165333  0.330138  0.576319  1
  Al  Al11  1  0.834788  0.670183  0.423766  1
  Al  Al12  1  0.675830  0.834829  0.577860  1
  Al  Al13  1  0.834788  0.670183  0.076234  1
  Al  Al14  1  0.324380  0.165310  0.421875  1
  Al  Al15  1  0.165333  0.330138  0.923681  1
  Al  Al16  1  0.159108  0.834881  0.578196  1
  Al  Al17  1  0.324380  0.165310  0.078125  1
  Al  Al18  1  0.840877  0.164840  0.421727  1
  Al  Al19  1  0.675830  0.834829  0.922140  1
  Al  Al20  1  0.840877  0.164840  0.078273  1
  Al  Al21  1  0.159108  0.834881  0.921804  1
  Al  Al22  1  0.557790  0.114954  0.250000  1
  Al  Al23  1  0.442305  0.884330  0.750000  1
  Al  Al24  1  0.873963  0.434288  0.250000  1
  Al  Al25  1  0.126248  0.565638  0.750000  1
  Al  Al26  1  0.560646  0.434458  0.250000  1
  Al  Al27  1  0.439536  0.565688  0.750000  1
  Al  Al28  1  0.997027  0.996311  0.250000  1
  Al  Al29  1  0.001627  0.003089  0.750000  1
  Cu  Cu30  1  0.499983  0.000203  0.999853  1
  Cu  Cu31  1  0.499983  0.000203  0.500147  1
  Os  Os32  1  0.000094  0.500039  0.000242  1
  Os  Os33  1  0.500205  0.500487  0.000499  1
  Os  Os34  1  0.000094  0.500039  0.499758  1
  Os  Os35  1  0.500205  0.500487  0.499501  1
  Os  Os36  1  0.000256  0.000132  0.000136  1
  Os  Os37  1  0.000256  0.000132  0.499864  1
