# generated using pymatgen
data_Tm4Co3Ni5(PRu)12
_symmetry_space_group_name_H-M   'P 1'
_cell_length_a   3.77701600
_cell_length_b   10.65272072
_cell_length_c   12.03996919
_cell_angle_alpha   90.08266514
_cell_angle_beta   90.00000000
_cell_angle_gamma   90.00000000
_symmetry_Int_Tables_number   1
_chemical_formula_structural   Tm4Co3Ni5(PRu)12
_chemical_formula_sum   'Tm4 Co3 Ni5 P12 Ru12'
_cell_volume   484.43363532
_cell_formula_units_Z   1
loop_
 _symmetry_equiv_pos_site_id
 _symmetry_equiv_pos_as_xyz
  1  'x, y, z'
loop_
 _atom_site_type_symbol
 _atom_site_label
 _atom_site_symmetry_multiplicity
 _atom_site_fract_x
 _atom_site_fract_y
 _atom_site_fract_z
 _atom_site_occupancy
  Tm  Tm0  1  0.250000  0.587457  0.707246  1
  Tm  Tm1  1  0.250000  0.912668  0.206416  1
  Tm  Tm2  1  0.750000  0.412666  0.293209  1
  Tm  Tm3  1  0.750000  0.087604  0.793553  1
  Co  Co4  1  0.250000  0.036943  0.431093  1
  Co  Co5  1  0.750000  0.537696  0.071761  1
  Co  Co6  1  0.750000  0.962650  0.568774  1
  Ni  Ni7  1  0.250000  0.890664  0.698674  1
  Ni  Ni8  1  0.250000  0.611105  0.199071  1
  Ni  Ni9  1  0.750000  0.109575  0.301197  1
  Ni  Ni10  1  0.750000  0.391997  0.800748  1
  Ni  Ni11  1  0.250000  0.461275  0.929997  1
  P  P12  1  0.250000  0.423401  0.111298  1
  P  P13  1  0.250000  0.077154  0.610251  1
  P  P14  1  0.750000  0.579923  0.891410  1
  P  P15  1  0.750000  0.922760  0.389405  1
  P  P16  1  0.250000  0.267701  0.874084  1
  P  P17  1  0.250000  0.230436  0.374384  1
  P  P18  1  0.750000  0.730593  0.124998  1
  P  P19  1  0.750000  0.769234  0.625552  1
  P  P20  1  0.250000  0.600679  0.389221  1
  P  P21  1  0.250000  0.899196  0.889153  1
  P  P22  1  0.750000  0.399803  0.611450  1
  P  P23  1  0.750000  0.100288  0.110950  1
  Ru  Ru24  1  0.250000  0.707748  0.986596  1
  Ru  Ru25  1  0.250000  0.792261  0.487422  1
  Ru  Ru26  1  0.750000  0.288936  0.010501  1
  Ru  Ru27  1  0.750000  0.207878  0.512155  1
  Ru  Ru28  1  0.250000  0.406205  0.485854  1
  Ru  Ru29  1  0.250000  0.092506  0.986352  1
  Ru  Ru30  1  0.750000  0.593811  0.513714  1
  Ru  Ru31  1  0.750000  0.906056  0.014373  1
  Ru  Ru32  1  0.250000  0.223469  0.182156  1
  Ru  Ru33  1  0.250000  0.276221  0.682024  1
  Ru  Ru34  1  0.750000  0.777951  0.817317  1
  Ru  Ru35  1  0.750000  0.723492  0.317640  1
