# generated using pymatgen
data_Tb8ReOs2WC8
_symmetry_space_group_name_H-M   'P 1'
_cell_length_a   5.14992000
_cell_length_b   6.59141304
_cell_length_c   9.91624959
_cell_angle_alpha   90.22787137
_cell_angle_beta   90.00000000
_cell_angle_gamma   90.00000000
_symmetry_Int_Tables_number   1
_chemical_formula_structural   Tb8ReOs2WC8
_chemical_formula_sum   'Tb8 Re1 Os2 W1 C8'
_cell_volume   336.60690786
_cell_formula_units_Z   1
loop_
 _symmetry_equiv_pos_site_id
 _symmetry_equiv_pos_as_xyz
  1  'x, y, z'
loop_
 _atom_site_type_symbol
 _atom_site_label
 _atom_site_symmetry_multiplicity
 _atom_site_fract_x
 _atom_site_fract_y
 _atom_site_fract_z
 _atom_site_occupancy
  Tb  Tb0  1  0.750000  0.820165  0.053963  1
  Tb  Tb1  1  0.250000  0.678636  0.555269  1
  Tb  Tb2  1  0.750000  0.317830  0.443847  1
  Tb  Tb3  1  0.250000  0.181873  0.943883  1
  Tb  Tb4  1  0.750000  0.469270  0.783518  1
  Tb  Tb5  1  0.250000  0.033972  0.281583  1
  Tb  Tb6  1  0.750000  0.969106  0.713690  1
  Tb  Tb7  1  0.250000  0.529980  0.214618  1
  Re  Re8  1  0.250000  0.724438  0.863122  1
  Os  Os9  1  0.750000  0.275579  0.134611  1
  Os  Os10  1  0.250000  0.223462  0.636488  1
  W  W11  1  0.750000  0.777400  0.365607  1
  C  C12  1  0.750000  0.177966  0.951891  1
  C  C13  1  0.250000  0.820843  0.047811  1
  C  C14  1  0.750000  0.676664  0.553347  1
  C  C15  1  0.250000  0.321349  0.454657  1
  C  C16  1  0.750000  0.045050  0.259037  1
  C  C17  1  0.250000  0.457408  0.760222  1
  C  C18  1  0.750000  0.540121  0.240367  1
  C  C19  1  0.250000  0.958888  0.742469  1
