# generated using pymatgen
data_Lu3ThZnRh
_symmetry_space_group_name_H-M   'P 1'
_cell_length_a   9.44246066
_cell_length_b   9.44246045
_cell_length_c   9.44246200
_cell_angle_alpha   60.00000157
_cell_angle_beta   60.00000232
_cell_angle_gamma   60.00000484
_symmetry_Int_Tables_number   1
_chemical_formula_structural   Lu3ThZnRh
_chemical_formula_sum   'Lu12 Th4 Zn4 Rh4'
_cell_volume   595.30651463
_cell_formula_units_Z   4
loop_
 _symmetry_equiv_pos_site_id
 _symmetry_equiv_pos_as_xyz
  1  'x, y, z'
loop_
 _atom_site_type_symbol
 _atom_site_label
 _atom_site_symmetry_multiplicity
 _atom_site_fract_x
 _atom_site_fract_y
 _atom_site_fract_z
 _atom_site_occupancy
  Lu  Lu0  1  0.812263  0.187737  0.187737  1
  Lu  Lu1  1  0.187737  0.812263  0.812263  1
  Lu  Lu2  1  0.187737  0.812263  0.187737  1
  Lu  Lu3  1  0.812263  0.187737  0.812263  1
  Lu  Lu4  1  0.187737  0.187737  0.812263  1
  Lu  Lu5  1  0.812263  0.812263  0.187737  1
  Lu  Lu6  1  0.932662  0.567338  0.567338  1
  Lu  Lu7  1  0.567338  0.932662  0.932662  1
  Lu  Lu8  1  0.567338  0.932662  0.567338  1
  Lu  Lu9  1  0.932662  0.567338  0.932662  1
  Lu  Lu10  1  0.567338  0.567338  0.932662  1
  Lu  Lu11  1  0.932662  0.932662  0.567338  1
  Th  Th12  1  0.355625  0.355625  0.355625  1
  Th  Th13  1  0.355625  0.355625  0.933126  1
  Th  Th14  1  0.355625  0.933126  0.355625  1
  Th  Th15  1  0.933126  0.355625  0.355625  1
  Zn  Zn16  1  0.582573  0.582573  0.582573  1
  Zn  Zn17  1  0.582573  0.582573  0.252281  1
  Zn  Zn18  1  0.582573  0.252281  0.582573  1
  Zn  Zn19  1  0.252281  0.582573  0.582573  1
  Rh  Rh20  1  0.143181  0.143181  0.143181  1
  Rh  Rh21  1  0.143181  0.143181  0.570455  1
  Rh  Rh22  1  0.143181  0.570455  0.143181  1
  Rh  Rh23  1  0.570455  0.143181  0.143181  1
