# generated using pymatgen
data_Dy5Sc3Au4
_symmetry_space_group_name_H-M   'P 1'
_cell_length_a   4.81578200
_cell_length_b   7.07045621
_cell_length_c   8.66627514
_cell_angle_alpha   90.07384338
_cell_angle_beta   90.00000000
_cell_angle_gamma   90.00000000
_symmetry_Int_Tables_number   1
_chemical_formula_structural   Dy5Sc3Au4
_chemical_formula_sum   'Dy5 Sc3 Au4'
_cell_volume   295.08448021
_cell_formula_units_Z   1
loop_
 _symmetry_equiv_pos_site_id
 _symmetry_equiv_pos_as_xyz
  1  'x, y, z'
loop_
 _atom_site_type_symbol
 _atom_site_label
 _atom_site_symmetry_multiplicity
 _atom_site_fract_x
 _atom_site_fract_y
 _atom_site_fract_z
 _atom_site_occupancy
  Dy  Dy0  1  0.750000  0.647759  0.420781  1
  Dy  Dy1  1  0.250000  0.480142  0.174458  1
  Dy  Dy2  1  0.250000  0.991168  0.319576  1
  Dy  Dy3  1  0.750000  0.515620  0.822844  1
  Dy  Dy4  1  0.750000  0.020548  0.684477  1
  Sc  Sc5  1  0.250000  0.855101  0.924846  1
  Sc  Sc6  1  0.250000  0.352979  0.580716  1
  Sc  Sc7  1  0.750000  0.145875  0.075526  1
  Au  Au8  1  0.250000  0.242479  0.896672  1
  Au  Au9  1  0.250000  0.747414  0.610008  1
  Au  Au10  1  0.750000  0.757262  0.093085  1
  Au  Au11  1  0.750000  0.243654  0.397012  1
