# generated using pymatgen
data_Y5Tl3S
_symmetry_space_group_name_H-M   'P 1'
_cell_length_a   9.14203300
_cell_length_b   9.14203391
_cell_length_c   6.74583600
_cell_angle_alpha   90.00000000
_cell_angle_beta   90.00000000
_cell_angle_gamma   120.00000758
_symmetry_Int_Tables_number   1
_chemical_formula_structural   Y5Tl3S
_chemical_formula_sum   'Y10 Tl6 S2'
_cell_volume   488.26094747
_cell_formula_units_Z   2
loop_
 _symmetry_equiv_pos_site_id
 _symmetry_equiv_pos_as_xyz
  1  'x, y, z'
loop_
 _atom_site_type_symbol
 _atom_site_label
 _atom_site_symmetry_multiplicity
 _atom_site_fract_x
 _atom_site_fract_y
 _atom_site_fract_z
 _atom_site_occupancy
  Y  Y0  1  0.758256  0.758256  0.750000  1
  Y  Y1  1  0.241744  0.000000  0.750000  1
  Y  Y2  1  0.000000  0.241744  0.750000  1
  Y  Y3  1  0.241744  0.241744  0.250000  1
  Y  Y4  1  0.758256  0.000000  0.250000  1
  Y  Y5  1  0.000000  0.758256  0.250000  1
  Y  Y6  1  0.666667  0.333333  0.000000  1
  Y  Y7  1  0.333333  0.666667  0.000000  1
  Y  Y8  1  0.333333  0.666667  0.500000  1
  Y  Y9  1  0.666667  0.333333  0.500000  1
  Tl  Tl10  1  0.402928  0.402928  0.750000  1
  Tl  Tl11  1  0.597072  0.000000  0.750000  1
  Tl  Tl12  1  0.000000  0.597072  0.750000  1
  Tl  Tl13  1  0.597072  0.597072  0.250000  1
  Tl  Tl14  1  0.402928  0.000000  0.250000  1
  Tl  Tl15  1  0.000000  0.402928  0.250000  1
  S  S16  1  0.000000  0.000000  0.000000  1
  S  S17  1  0.000000  0.000000  0.500000  1
