# generated using pymatgen
data_TaNb3(VSi)4
_symmetry_space_group_name_H-M   'P 1'
_cell_length_a   6.59790704
_cell_length_b   3.40050200
_cell_length_c   7.93090705
_cell_angle_alpha   90.00000000
_cell_angle_beta   89.98776171
_cell_angle_gamma   90.00000000
_symmetry_Int_Tables_number   1
_chemical_formula_structural   TaNb3(VSi)4
_chemical_formula_sum   'Ta1 Nb3 V4 Si4'
_cell_volume   177.93938148
_cell_formula_units_Z   1
loop_
 _symmetry_equiv_pos_site_id
 _symmetry_equiv_pos_as_xyz
  1  'x, y, z'
loop_
 _atom_site_type_symbol
 _atom_site_label
 _atom_site_symmetry_multiplicity
 _atom_site_fract_x
 _atom_site_fract_y
 _atom_site_fract_z
 _atom_site_occupancy
  Ta  Ta0  1  0.545528  0.249999  0.167945  1
  Nb  Nb1  1  0.044858  0.249999  0.331751  1
  Nb  Nb2  1  0.954663  0.749999  0.668473  1
  Nb  Nb3  1  0.455149  0.749999  0.832553  1
  V  V4  1  0.870936  0.749999  0.061156  1
  V  V5  1  0.372020  0.749999  0.438452  1
  V  V6  1  0.628357  0.249999  0.560300  1
  V  V7  1  0.128826  0.249999  0.939298  1
  Si  Si8  1  0.246990  0.749999  0.137913  1
  Si  Si9  1  0.747115  0.749999  0.361970  1
  Si  Si10  1  0.252776  0.249999  0.637827  1
  Si  Si11  1  0.752783  0.249999  0.862362  1
