# generated using pymatgen
data_Nd7Dy10Tm3Si16
_symmetry_space_group_name_H-M   'P 1'
_cell_length_a   7.73214114
_cell_length_b   7.73691681
_cell_length_c   14.30214800
_cell_angle_alpha   89.98221198
_cell_angle_beta   89.91192376
_cell_angle_gamma   90.08459530
_symmetry_Int_Tables_number   1
_chemical_formula_structural   Nd7Dy10Tm3Si16
_chemical_formula_sum   'Nd7 Dy10 Tm3 Si16'
_cell_volume   855.59445253
_cell_formula_units_Z   1
loop_
 _symmetry_equiv_pos_site_id
 _symmetry_equiv_pos_as_xyz
  1  'x, y, z'
loop_
 _atom_site_type_symbol
 _atom_site_label
 _atom_site_symmetry_multiplicity
 _atom_site_fract_x
 _atom_site_fract_y
 _atom_site_fract_z
 _atom_site_occupancy
  Nd  Nd0  1  0.358781  0.007185  0.958086  1
  Nd  Nd1  1  0.992524  0.642599  0.540604  1
  Nd  Nd2  1  0.490416  0.858788  0.209482  1
  Nd  Nd3  1  0.509955  0.138855  0.707626  1
  Nd  Nd4  1  0.860831  0.490370  0.792012  1
  Nd  Nd5  1  0.138637  0.509447  0.292436  1
  Nd  Nd6  1  0.007112  0.358503  0.042605  1
  Dy  Dy7  1  0.491231  0.361615  0.124653  1
  Dy  Dy8  1  0.991487  0.135887  0.624521  1
  Dy  Dy9  1  0.862832  0.008573  0.875005  1
  Dy  Dy10  1  0.136775  0.992869  0.374947  1
  Dy  Dy11  1  0.511836  0.639404  0.623211  1
  Dy  Dy12  1  0.361499  0.490924  0.875415  1
  Dy  Dy13  1  0.639218  0.510378  0.375794  1
  Dy  Dy14  1  0.006994  0.862010  0.126537  1
  Dy  Dy15  1  0.635970  0.996044  0.455972  1
  Dy  Dy16  1  0.316450  0.317107  0.499663  1
  Tm  Tm17  1  0.185166  0.815433  0.749290  1
  Tm  Tm18  1  0.813857  0.183301  0.250545  1
  Tm  Tm19  1  0.683301  0.682357  0.000376  1
  Si  Si20  1  0.293374  0.937087  0.561098  1
  Si  Si21  1  0.709045  0.063189  0.062668  1
  Si  Si22  1  0.932220  0.288145  0.437482  1
  Si  Si23  1  0.437904  0.208955  0.311963  1
  Si  Si24  1  0.565138  0.788544  0.812445  1
  Si  Si25  1  0.211051  0.436822  0.688119  1
  Si  Si26  1  0.788810  0.564850  0.188077  1
  Si  Si27  1  0.064720  0.710007  0.938149  1
  Si  Si28  1  0.800342  0.843207  0.691484  1
  Si  Si29  1  0.202701  0.154116  0.190001  1
  Si  Si30  1  0.842607  0.801751  0.313406  1
  Si  Si31  1  0.349446  0.707181  0.437989  1
  Si  Si32  1  0.654158  0.296647  0.940152  1
  Si  Si33  1  0.701730  0.341942  0.558651  1
  Si  Si34  1  0.296571  0.654407  0.060386  1
  Si  Si35  1  0.155307  0.201503  0.809146  1
