# generated using pymatgen
data_DyY7Ti11Si16Au
_symmetry_space_group_name_H-M   'P 1'
_cell_length_a   7.07908392
_cell_length_b   7.07919099
_cell_length_c   12.91649203
_cell_angle_alpha   89.86730101
_cell_angle_beta   90.13329721
_cell_angle_gamma   89.59645945
_symmetry_Int_Tables_number   1
_chemical_formula_structural   DyY7Ti11Si16Au
_chemical_formula_sum   'Dy1 Y7 Ti11 Si16 Au1'
_cell_volume   647.27993135
_cell_formula_units_Z   1
loop_
 _symmetry_equiv_pos_site_id
 _symmetry_equiv_pos_as_xyz
  1  'x, y, z'
loop_
 _atom_site_type_symbol
 _atom_site_label
 _atom_site_symmetry_multiplicity
 _atom_site_fract_x
 _atom_site_fract_y
 _atom_site_fract_z
 _atom_site_occupancy
  Dy  Dy0  1  0.343707  0.999490  0.468539  1
  Y  Y1  1  0.997282  0.659321  0.033164  1
  Y  Y2  1  0.999572  0.343691  0.531455  1
  Y  Y3  1  0.659315  0.997265  0.966860  1
  Y  Y4  1  0.159974  0.502640  0.783081  1
  Y  Y5  1  0.842006  0.499249  0.285690  1
  Y  Y6  1  0.502604  0.159958  0.216911  1
  Y  Y7  1  0.499233  0.842009  0.714274  1
  Ti  Ti8  1  0.348738  0.505715  0.376317  1
  Ti  Ti9  1  0.851658  0.992276  0.377367  1
  Ti  Ti10  1  0.008210  0.150456  0.125215  1
  Ti  Ti11  1  0.992323  0.851668  0.622621  1
  Ti  Ti12  1  0.505700  0.348721  0.623658  1
  Ti  Ti13  1  0.150475  0.008186  0.874791  1
  Ti  Ti14  1  0.825303  0.173500  0.749575  1
  Ti  Ti15  1  0.173581  0.825285  0.250411  1
  Ti  Ti16  1  0.327034  0.327052  0.000016  1
  Ti  Ti17  1  0.491956  0.649319  0.125870  1
  Ti  Ti18  1  0.649315  0.492001  0.874126  1
  Si  Si19  1  0.062678  0.714523  0.433956  1
  Si  Si20  1  0.952021  0.290867  0.935261  1
  Si  Si21  1  0.714458  0.062570  0.566088  1
  Si  Si22  1  0.208583  0.453178  0.185285  1
  Si  Si23  1  0.792404  0.545114  0.690449  1
  Si  Si24  1  0.453120  0.208564  0.814701  1
  Si  Si25  1  0.544980  0.792452  0.309548  1
  Si  Si26  1  0.290854  0.951989  0.064777  1
  Si  Si27  1  0.798303  0.868399  0.184919  1
  Si  Si28  1  0.281187  0.625697  0.570351  1
  Si  Si29  1  0.705409  0.369340  0.066776  1
  Si  Si30  1  0.625563  0.281183  0.429675  1
  Si  Si31  1  0.369314  0.705427  0.933263  1
  Si  Si32  1  0.131889  0.201963  0.316646  1
  Si  Si33  1  0.202013  0.131744  0.683338  1
  Si  Si34  1  0.868420  0.798290  0.815033  1
  Au  Au35  1  0.670816  0.670900  0.499992  1
