# generated using pymatgen
data_Ce2PrLu(SnRu)4
_symmetry_space_group_name_H-M   'P 1'
_cell_length_a   6.26821855
_cell_length_b   6.26821912
_cell_length_c   10.15602703
_cell_angle_alpha   78.23580696
_cell_angle_beta   78.23580501
_cell_angle_gamma   45.10676678
_symmetry_Int_Tables_number   1
_chemical_formula_structural   Ce2PrLu(SnRu)4
_chemical_formula_sum   'Ce2 Pr1 Lu1 Sn4 Ru4'
_cell_volume   275.71149597
_cell_formula_units_Z   1
loop_
 _symmetry_equiv_pos_site_id
 _symmetry_equiv_pos_as_xyz
  1  'x, y, z'
loop_
 _atom_site_type_symbol
 _atom_site_label
 _atom_site_symmetry_multiplicity
 _atom_site_fract_x
 _atom_site_fract_y
 _atom_site_fract_z
 _atom_site_occupancy
  Ce  Ce0  1  0.862563  0.862563  0.911666  1
  Ce  Ce1  1  0.140773  0.140773  0.085389  1
  Pr  Pr2  1  0.877975  0.877975  0.408096  1
  Lu  Lu3  1  0.122142  0.122142  0.595219  1
  Sn  Sn4  1  0.424426  0.424426  0.156716  1
  Sn  Sn5  1  0.405575  0.405575  0.648314  1
  Sn  Sn6  1  0.575642  0.575642  0.839811  1
  Sn  Sn7  1  0.595099  0.595099  0.357925  1
  Ru  Ru8  1  0.814461  0.814461  0.146564  1
  Ru  Ru9  1  0.194779  0.194779  0.307185  1
  Ru  Ru10  1  0.182288  0.182288  0.847740  1
  Ru  Ru11  1  0.804277  0.804277  0.695374  1
