# generated using pymatgen
data_Mn2SeCl2O3
_symmetry_space_group_name_H-M   'P 1'
_cell_length_a   10.81271700
_cell_length_b   8.13072372
_cell_length_c   8.03600728
_cell_angle_alpha   79.58790571
_cell_angle_beta   90.00000000
_cell_angle_gamma   90.00000000
_symmetry_Int_Tables_number   1
_chemical_formula_structural   Mn2SeCl2O3
_chemical_formula_sum   'Mn8 Se4 Cl8 O12'
_cell_volume   694.85382131
_cell_formula_units_Z   4
loop_
 _symmetry_equiv_pos_site_id
 _symmetry_equiv_pos_as_xyz
  1  'x, y, z'
loop_
 _atom_site_type_symbol
 _atom_site_label
 _atom_site_symmetry_multiplicity
 _atom_site_fract_x
 _atom_site_fract_y
 _atom_site_fract_z
 _atom_site_occupancy
  Mn  Mn0  1  0.013048  0.101778  0.224720  1
  Mn  Mn1  1  0.281575  0.127424  0.906762  1
  Mn  Mn2  1  0.513048  0.398222  0.775280  1
  Mn  Mn3  1  0.781575  0.372576  0.093238  1
  Mn  Mn4  1  0.986952  0.898222  0.775280  1
  Mn  Mn5  1  0.718425  0.872576  0.093238  1
  Mn  Mn6  1  0.218425  0.627424  0.906762  1
  Mn  Mn7  1  0.486952  0.601778  0.224720  1
  Se  Se8  1  0.965415  0.689246  0.183306  1
  Se  Se9  1  0.534585  0.189246  0.183306  1
  Se  Se10  1  0.465415  0.810754  0.816694  1
  Se  Se11  1  0.034585  0.310754  0.816694  1
  Cl  Cl12  1  0.274546  0.534800  0.219793  1
  Cl  Cl13  1  0.225454  0.034800  0.219793  1
  Cl  Cl14  1  0.396927  0.238350  0.610758  1
  Cl  Cl15  1  0.896927  0.261650  0.389242  1
  Cl  Cl16  1  0.725454  0.465200  0.780207  1
  Cl  Cl17  1  0.603073  0.761650  0.389242  1
  Cl  Cl18  1  0.774546  0.965200  0.780207  1
  Cl  Cl19  1  0.103073  0.738350  0.610758  1
  O  O20  1  0.043930  0.722871  0.990414  1
  O  O21  1  0.677677  0.124167  0.122710  1
  O  O22  1  0.087687  0.109223  0.810342  1
  O  O23  1  0.956070  0.277129  0.009586  1
  O  O24  1  0.412313  0.609223  0.810342  1
  O  O25  1  0.543930  0.777129  0.009586  1
  O  O26  1  0.456070  0.222871  0.990414  1
  O  O27  1  0.322323  0.875833  0.877290  1
  O  O28  1  0.587687  0.390777  0.189658  1
  O  O29  1  0.177677  0.375833  0.877290  1
  O  O30  1  0.912313  0.890777  0.189658  1
  O  O31  1  0.822323  0.624167  0.122710  1
