# generated using pymatgen
data_TbDy(AuBr6)2
_symmetry_space_group_name_H-M   'P 1'
_cell_length_a   8.31672280
_cell_length_b   10.45812366
_cell_length_c   14.87402786
_cell_angle_alpha   103.37588978
_cell_angle_beta   96.45984481
_cell_angle_gamma   112.70367770
_symmetry_Int_Tables_number   1
_chemical_formula_structural   TbDy(AuBr6)2
_chemical_formula_sum   'Tb2 Dy2 Au4 Br24'
_cell_volume   1131.35371041
_cell_formula_units_Z   2
loop_
 _symmetry_equiv_pos_site_id
 _symmetry_equiv_pos_as_xyz
  1  'x, y, z'
loop_
 _atom_site_type_symbol
 _atom_site_label
 _atom_site_symmetry_multiplicity
 _atom_site_fract_x
 _atom_site_fract_y
 _atom_site_fract_z
 _atom_site_occupancy
  Tb  Tb0  1  0.975585  0.313049  0.870977  1
  Tb  Tb1  1  0.024415  0.686951  0.129023  1
  Dy  Dy2  1  0.579998  0.924495  0.621908  1
  Dy  Dy3  1  0.420002  0.075505  0.378092  1
  Au  Au4  1  0.295220  0.631973  0.762596  1
  Au  Au5  1  0.704780  0.368027  0.237404  1
  Au  Au6  1  0.500000  0.500000  0.500000  1
  Au  Au7  1  0.000000  0.000000  0.000000  1
  Br  Br8  1  0.610336  0.737588  0.748005  1
  Br  Br9  1  0.389664  0.262412  0.251995  1
  Br  Br10  1  0.278895  0.849740  0.732430  1
  Br  Br11  1  0.721105  0.150260  0.267570  1
  Br  Br12  1  0.977431  0.529572  0.772670  1
  Br  Br13  1  0.022569  0.470428  0.227330  1
  Br  Br14  1  0.309801  0.410418  0.788507  1
  Br  Br15  1  0.690199  0.589582  0.211493  1
  Br  Br16  1  0.686115  0.363567  0.506170  1
  Br  Br17  1  0.313885  0.636433  0.493830  1
  Br  Br18  1  0.763823  0.733153  0.527621  1
  Br  Br19  1  0.236177  0.266847  0.472379  1
  Br  Br20  1  0.790618  0.112533  0.976884  1
  Br  Br21  1  0.209382  0.887467  0.023116  1
  Br  Br22  1  0.768644  0.791930  0.032925  1
  Br  Br23  1  0.231356  0.208070  0.967075  1
  Br  Br24  1  0.620277  0.192085  0.745933  1
  Br  Br25  1  0.379723  0.807915  0.254067  1
  Br  Br26  1  0.944952  0.056978  0.727225  1
  Br  Br27  1  0.055048  0.943022  0.272775  1
  Br  Br28  1  0.721252  0.046738  0.481290  1
  Br  Br29  1  0.278748  0.953262  0.518710  1
  Br  Br30  1  0.767060  0.437145  0.976639  1
  Br  Br31  1  0.232940  0.562855  0.023361  1
