# generated using pymatgen
data_Nd8Dy12Si15S
_symmetry_space_group_name_H-M   'P 1'
_cell_length_a   7.59170618
_cell_length_b   7.75301661
_cell_length_c   14.77628900
_cell_angle_alpha   89.84035087
_cell_angle_beta   86.99409154
_cell_angle_gamma   90.24583164
_symmetry_Int_Tables_number   1
_chemical_formula_structural   Nd8Dy12Si15S
_chemical_formula_sum   'Nd8 Dy12 Si15 S1'
_cell_volume   868.50348893
_cell_formula_units_Z   1
loop_
 _symmetry_equiv_pos_site_id
 _symmetry_equiv_pos_as_xyz
  1  'x, y, z'
loop_
 _atom_site_type_symbol
 _atom_site_label
 _atom_site_symmetry_multiplicity
 _atom_site_fract_x
 _atom_site_fract_y
 _atom_site_fract_z
 _atom_site_occupancy
  Nd  Nd0  1  0.004322  0.826971  0.101940  1
  Nd  Nd1  1  0.477257  0.681453  0.399195  1
  Nd  Nd2  1  0.497736  0.316738  0.901449  1
  Nd  Nd3  1  0.022154  0.179519  0.601666  1
  Nd  Nd4  1  0.001721  0.179273  0.901337  1
  Nd  Nd5  1  0.522004  0.317296  0.600921  1
  Nd  Nd6  1  0.498026  0.687225  0.100337  1
  Nd  Nd7  1  0.977089  0.817880  0.399179  1
  Dy  Dy8  1  0.671309  0.996033  0.245525  1
  Dy  Dy9  1  0.168462  0.505730  0.244699  1
  Dy  Dy10  1  0.831001  0.491816  0.750306  1
  Dy  Dy11  1  0.329246  0.005512  0.754063  1
  Dy  Dy12  1  0.645807  0.830552  0.880585  1
  Dy  Dy13  1  0.172669  0.677618  0.624038  1
  Dy  Dy14  1  0.850329  0.342421  0.113683  1
  Dy  Dy15  1  0.327092  0.178942  0.376942  1
  Dy  Dy16  1  0.354594  0.166765  0.120288  1
  Dy  Dy17  1  0.827883  0.321625  0.377162  1
  Dy  Dy18  1  0.144498  0.664536  0.884063  1
  Dy  Dy19  1  0.672621  0.820014  0.624054  1
  Si  Si20  1  0.784741  0.622738  0.250650  1
  Si  Si21  1  0.285074  0.877536  0.251558  1
  Si  Si22  1  0.714465  0.121320  0.750405  1
  Si  Si23  1  0.214997  0.377489  0.750509  1
  Si  Si24  1  0.044764  0.116383  0.249785  1
  Si  Si25  1  0.547055  0.388328  0.249825  1
  Si  Si26  1  0.453434  0.611086  0.752080  1
  Si  Si27  1  0.954044  0.884828  0.751680  1
  Si  Si28  1  0.356177  0.968417  0.540994  1
  Si  Si29  1  0.699970  0.039038  0.041782  1
  Si  Si30  1  0.144766  0.468761  0.460152  1
  Si  Si31  1  0.204038  0.463181  0.044462  1
  Si  Si32  1  0.644503  0.030032  0.459601  1
  Si  Si33  1  0.305615  0.962267  0.955936  1
  Si  Si34  1  0.856363  0.528346  0.541972  1
  S  S35  1  0.794174  0.532329  0.947172  1
