# generated using pymatgen
data_Hf3(Ga3Tc)2
_symmetry_space_group_name_H-M   'P 1'
_cell_length_a   8.76454600
_cell_length_b   5.44038800
_cell_length_c   7.79037600
_cell_angle_alpha   90.00000000
_cell_angle_beta   90.00000000
_cell_angle_gamma   90.00000000
_symmetry_Int_Tables_number   1
_chemical_formula_structural   Hf3(Ga3Tc)2
_chemical_formula_sum   'Hf6 Ga12 Tc4'
_cell_volume   371.46484422
_cell_formula_units_Z   2
loop_
 _symmetry_equiv_pos_site_id
 _symmetry_equiv_pos_as_xyz
  1  'x, y, z'
loop_
 _atom_site_type_symbol
 _atom_site_label
 _atom_site_symmetry_multiplicity
 _atom_site_fract_x
 _atom_site_fract_y
 _atom_site_fract_z
 _atom_site_occupancy
  Hf  Hf0  1  0.527623  0.249999  0.154418  1
  Hf  Hf1  1  0.972377  0.249999  0.154418  1
  Hf  Hf2  1  0.749999  0.750000  0.281850  1
  Hf  Hf3  1  0.250000  0.249999  0.718149  1
  Hf  Hf4  1  0.027623  0.750000  0.845582  1
  Hf  Hf5  1  0.472378  0.750000  0.845582  1
  Ga  Ga6  1  0.250000  0.011545  0.034591  1
  Ga  Ga7  1  0.250000  0.488456  0.034591  1
  Ga  Ga8  1  0.064076  0.750000  0.224001  1
  Ga  Ga9  1  0.435924  0.750000  0.224001  1
  Ga  Ga10  1  0.250000  0.249999  0.365681  1
  Ga  Ga11  1  0.749999  0.249999  0.431692  1
  Ga  Ga12  1  0.250000  0.750000  0.568308  1
  Ga  Ga13  1  0.749999  0.750000  0.634319  1
  Ga  Ga14  1  0.564076  0.249999  0.775999  1
  Ga  Ga15  1  0.935923  0.249999  0.775999  1
  Ga  Ga16  1  0.749999  0.511545  0.965409  1
  Ga  Ga17  1  0.749999  0.988455  0.965409  1
  Tc  Tc18  1  0.000000  0.000000  0.500000  1
  Tc  Tc19  1  0.500000  0.000000  0.500000  1
  Tc  Tc20  1  0.000000  0.500001  0.500000  1
  Tc  Tc21  1  0.500000  0.500001  0.500000  1
