# generated using pymatgen
data_AcCu4Ir
_symmetry_space_group_name_H-M   'P 1'
_cell_length_a   5.40083737
_cell_length_b   5.40083672
_cell_length_c   4.11326700
_cell_angle_alpha   90.00000000
_cell_angle_beta   90.00000000
_cell_angle_gamma   123.57389660
_symmetry_Int_Tables_number   1
_chemical_formula_structural   AcCu4Ir
_chemical_formula_sum   'Ac1 Cu4 Ir1'
_cell_volume   99.96417346
_cell_formula_units_Z   1
loop_
 _symmetry_equiv_pos_site_id
 _symmetry_equiv_pos_as_xyz
  1  'x, y, z'
loop_
 _atom_site_type_symbol
 _atom_site_label
 _atom_site_symmetry_multiplicity
 _atom_site_fract_x
 _atom_site_fract_y
 _atom_site_fract_z
 _atom_site_occupancy
  Ac  Ac0  1  0.000000  0.000000  0.000000  1
  Cu  Cu1  1  0.000000  0.500000  0.500000  1
  Cu  Cu2  1  0.328036  0.671964  0.000000  1
  Cu  Cu3  1  0.671964  0.328036  0.000000  1
  Cu  Cu4  1  0.500000  0.000000  0.500000  1
  Ir  Ir5  1  0.500000  0.500000  0.500000  1
