# generated using pymatgen
data_DyYU(SnRh)3
_symmetry_space_group_name_H-M   'P 1'
_cell_length_a   7.52175418
_cell_length_b   7.52671574
_cell_length_c   3.85317000
_cell_angle_alpha   90.00000000
_cell_angle_beta   90.00000000
_cell_angle_gamma   118.90107199
_symmetry_Int_Tables_number   1
_chemical_formula_structural   DyYU(SnRh)3
_chemical_formula_sum   'Dy1 Y1 U1 Sn3 Rh3'
_cell_volume   190.97516282
_cell_formula_units_Z   1
loop_
 _symmetry_equiv_pos_site_id
 _symmetry_equiv_pos_as_xyz
  1  'x, y, z'
loop_
 _atom_site_type_symbol
 _atom_site_label
 _atom_site_symmetry_multiplicity
 _atom_site_fract_x
 _atom_site_fract_y
 _atom_site_fract_z
 _atom_site_occupancy
  Dy  Dy0  1  0.000362  0.593964  0.500000  1
  Y  Y1  1  0.594036  0.000108  0.500000  1
  U  U2  1  0.414403  0.414458  0.500000  1
  Sn  Sn3  1  0.755507  0.755494  0.000000  1
  Sn  Sn4  1  0.258823  0.986696  0.000000  1
  Sn  Sn5  1  0.986571  0.258644  0.000000  1
  Rh  Rh6  1  0.635034  0.338709  0.000000  1
  Rh  Rh7  1  0.337050  0.634102  0.000000  1
  Rh  Rh8  1  0.018216  0.017826  0.500000  1
