# generated using pymatgen
data_Tm2LuAl5Ni
_symmetry_space_group_name_H-M   'P 1'
_cell_length_a   6.91493300
_cell_length_b   6.88111271
_cell_length_c   4.25004900
_cell_angle_alpha   90.00000000
_cell_angle_beta   90.00000000
_cell_angle_gamma   120.16272352
_symmetry_Int_Tables_number   1
_chemical_formula_structural   Tm2LuAl5Ni
_chemical_formula_sum   'Tm2 Lu1 Al5 Ni1'
_cell_volume   174.84642695
_cell_formula_units_Z   1
loop_
 _symmetry_equiv_pos_site_id
 _symmetry_equiv_pos_as_xyz
  1  'x, y, z'
loop_
 _atom_site_type_symbol
 _atom_site_label
 _atom_site_symmetry_multiplicity
 _atom_site_fract_x
 _atom_site_fract_y
 _atom_site_fract_z
 _atom_site_occupancy
  Tm  Tm0  1  0.001068  0.594928  0.000000  1
  Tm  Tm1  1  0.406141  0.405072  0.000000  1
  Lu  Lu2  1  0.596060  0.000000  0.000000  1
  Al  Al3  1  0.231016  0.000000  0.500000  1
  Al  Al4  1  0.999701  0.230842  0.500000  1
  Al  Al5  1  0.768859  0.769158  0.500000  1
  Al  Al6  1  0.334205  0.668228  0.500000  1
  Al  Al7  1  0.665977  0.331772  0.500000  1
  Ni  Ni8  1  0.996972  0.000000  0.000000  1
