# generated using pymatgen
data_Tm2TlCu3S5
_symmetry_space_group_name_H-M   'P 1'
_cell_length_a   3.89989300
_cell_length_b   7.23721679
_cell_length_c   16.36284600
_cell_angle_alpha   90.00000000
_cell_angle_beta   90.00000000
_cell_angle_gamma   74.36946220
_symmetry_Int_Tables_number   1
_chemical_formula_structural   Tm2TlCu3S5
_chemical_formula_sum   'Tm4 Tl2 Cu6 S10'
_cell_volume   444.75211034
_cell_formula_units_Z   2
loop_
 _symmetry_equiv_pos_site_id
 _symmetry_equiv_pos_as_xyz
  1  'x, y, z'
loop_
 _atom_site_type_symbol
 _atom_site_label
 _atom_site_symmetry_multiplicity
 _atom_site_fract_x
 _atom_site_fract_y
 _atom_site_fract_z
 _atom_site_occupancy
  Tm  Tm0  1  0.192630  0.614744  0.093327  1
  Tm  Tm1  1  0.192630  0.614744  0.406672  1
  Tm  Tm2  1  0.807371  0.385256  0.593328  1
  Tm  Tm3  1  0.807371  0.385256  0.906672  1
  Tl  Tl4  1  0.936322  0.127355  0.250000  1
  Tl  Tl5  1  0.063679  0.872645  0.750000  1
  Cu  Cu6  1  0.416069  0.167865  0.035419  1
  Cu  Cu7  1  0.653346  0.693307  0.250000  1
  Cu  Cu8  1  0.416069  0.167865  0.464581  1
  Cu  Cu9  1  0.583932  0.832135  0.535419  1
  Cu  Cu10  1  0.346655  0.306693  0.750000  1
  Cu  Cu11  1  0.583932  0.832135  0.964581  1
  S  S12  1  0.831571  0.336859  0.070126  1
  S  S13  1  0.562105  0.875790  0.113489  1
  S  S14  1  0.241220  0.517562  0.250000  1
  S  S15  1  0.562105  0.875790  0.386511  1
  S  S16  1  0.831571  0.336859  0.429874  1
  S  S17  1  0.168431  0.663139  0.570125  1
  S  S18  1  0.437896  0.124210  0.613489  1
  S  S19  1  0.758781  0.482438  0.750000  1
  S  S20  1  0.437896  0.124210  0.886511  1
  S  S21  1  0.168431  0.663139  0.929874  1
