# generated using pymatgen
data_TbZr(Si7Ir3)2
_symmetry_space_group_name_H-M   'P 1'
_cell_length_a   8.02338276
_cell_length_b   8.02338365
_cell_length_c   8.02338206
_cell_angle_alpha   56.66607589
_cell_angle_beta   56.66606674
_cell_angle_gamma   56.66606494
_symmetry_Int_Tables_number   1
_chemical_formula_structural   TbZr(Si7Ir3)2
_chemical_formula_sum   'Tb1 Zr1 Si14 Ir6'
_cell_volume   337.10109539
_cell_formula_units_Z   1
loop_
 _symmetry_equiv_pos_site_id
 _symmetry_equiv_pos_as_xyz
  1  'x, y, z'
loop_
 _atom_site_type_symbol
 _atom_site_label
 _atom_site_symmetry_multiplicity
 _atom_site_fract_x
 _atom_site_fract_y
 _atom_site_fract_z
 _atom_site_occupancy
  Tb  Tb0  1  0.500000  0.500000  0.500000  1
  Zr  Zr1  1  0.000000  0.000000  0.000000  1
  Si  Si2  1  0.852091  0.061962  0.675687  1
  Si  Si3  1  0.675687  0.852091  0.061962  1
  Si  Si4  1  0.061962  0.675687  0.852091  1
  Si  Si5  1  0.649843  0.828761  0.433423  1
  Si  Si6  1  0.250257  0.250257  0.250257  1
  Si  Si7  1  0.749743  0.749743  0.749743  1
  Si  Si8  1  0.171239  0.566577  0.350157  1
  Si  Si9  1  0.566577  0.350157  0.171239  1
  Si  Si10  1  0.350157  0.171239  0.566577  1
  Si  Si11  1  0.938038  0.324313  0.147909  1
  Si  Si12  1  0.324313  0.147909  0.938038  1
  Si  Si13  1  0.147909  0.938038  0.324313  1
  Si  Si14  1  0.828761  0.433423  0.649843  1
  Si  Si15  1  0.433423  0.649843  0.828761  1
  Ir  Ir16  1  0.751706  0.069697  0.428069  1
  Ir  Ir17  1  0.428069  0.751706  0.069697  1
  Ir  Ir18  1  0.069697  0.428069  0.751706  1
  Ir  Ir19  1  0.248294  0.930303  0.571931  1
  Ir  Ir20  1  0.571931  0.248294  0.930303  1
  Ir  Ir21  1  0.930303  0.571931  0.248294  1
