# generated using pymatgen
data_CsS2BrO8
_symmetry_space_group_name_H-M   'P 1'
_cell_length_a   4.41719454
_cell_length_b   5.39952914
_cell_length_c   9.27551555
_cell_angle_alpha   79.49347491
_cell_angle_beta   89.80092352
_cell_angle_gamma   76.54437357
_symmetry_Int_Tables_number   1
_chemical_formula_structural   CsS2BrO8
_chemical_formula_sum   'Cs1 S2 Br1 O8'
_cell_volume   211.37268579
_cell_formula_units_Z   1
loop_
 _symmetry_equiv_pos_site_id
 _symmetry_equiv_pos_as_xyz
  1  'x, y, z'
loop_
 _atom_site_type_symbol
 _atom_site_label
 _atom_site_symmetry_multiplicity
 _atom_site_fract_x
 _atom_site_fract_y
 _atom_site_fract_z
 _atom_site_occupancy
  Cs  Cs0  1  0.000000  0.500000  0.000000  1
  S  S1  1  0.536310  0.886982  0.269410  1
  S  S2  1  0.463691  0.113018  0.730590  1
  Br  Br3  1  0.000000  0.000000  0.500000  1
  O  O4  1  0.665129  0.043240  0.151945  1
  O  O5  1  0.441255  0.664748  0.234697  1
  O  O6  1  0.257813  0.085715  0.319715  1
  O  O7  1  0.771038  0.773054  0.402998  1
  O  O8  1  0.228961  0.226946  0.597002  1
  O  O9  1  0.742188  0.914284  0.680286  1
  O  O10  1  0.558746  0.335252  0.765303  1
  O  O11  1  0.334869  0.956760  0.848056  1
