# generated using pymatgen
data_Tb3DyEr16(CoBi2)4
_symmetry_space_group_name_H-M   'P 1'
_cell_length_a   7.95087232
_cell_length_b   8.86458200
_cell_length_c   12.37311293
_cell_angle_alpha   90.00000000
_cell_angle_beta   89.98423461
_cell_angle_gamma   90.00000000
_symmetry_Int_Tables_number   1
_chemical_formula_structural   Tb3DyEr16(CoBi2)4
_chemical_formula_sum   'Tb3 Dy1 Er16 Co4 Bi8'
_cell_volume   872.07131443
_cell_formula_units_Z   1
loop_
 _symmetry_equiv_pos_site_id
 _symmetry_equiv_pos_as_xyz
  1  'x, y, z'
loop_
 _atom_site_type_symbol
 _atom_site_label
 _atom_site_symmetry_multiplicity
 _atom_site_fract_x
 _atom_site_fract_y
 _atom_site_fract_z
 _atom_site_occupancy
  Tb  Tb0  1  0.845832  0.750000  0.199393  1
  Tb  Tb1  1  0.120940  0.750000  0.812326  1
  Tb  Tb2  1  0.378837  0.750000  0.312254  1
  Dy  Dy3  1  0.653975  0.750000  0.699103  1
  Er  Er4  1  0.346153  0.250000  0.301341  1
  Er  Er5  1  0.153681  0.250000  0.801394  1
  Er  Er6  1  0.881260  0.250000  0.186473  1
  Er  Er7  1  0.618826  0.250000  0.686513  1
  Er  Er8  1  0.551433  0.750000  0.996980  1
  Er  Er9  1  0.447129  0.250000  0.002491  1
  Er  Er10  1  0.052699  0.250000  0.502544  1
  Er  Er11  1  0.947390  0.750000  0.497549  1
  Er  Er12  1  0.825431  0.461899  0.936396  1
  Er  Er13  1  0.174066  0.534480  0.063680  1
  Er  Er14  1  0.326331  0.535032  0.564155  1
  Er  Er15  1  0.174066  0.965520  0.063680  1
  Er  Er16  1  0.674560  0.462142  0.436671  1
  Er  Er17  1  0.825431  0.038101  0.936396  1
  Er  Er18  1  0.674560  0.037858  0.436671  1
  Er  Er19  1  0.326331  0.964968  0.564155  1
  Co  Co20  1  0.936539  0.750000  0.992634  1
  Co  Co21  1  0.062984  0.250000  0.007394  1
  Co  Co22  1  0.437422  0.250000  0.507230  1
  Co  Co23  1  0.563715  0.750000  0.493005  1
  Bi  Bi24  1  0.932296  0.009224  0.672879  1
  Bi  Bi25  1  0.067267  0.993700  0.327131  1
  Bi  Bi26  1  0.433234  0.993498  0.826985  1
  Bi  Bi27  1  0.067267  0.506300  0.327131  1
  Bi  Bi28  1  0.567407  0.009506  0.172792  1
  Bi  Bi29  1  0.932296  0.490776  0.672879  1
  Bi  Bi30  1  0.567407  0.490494  0.172792  1
  Bi  Bi31  1  0.433234  0.506502  0.826985  1
