# generated using pymatgen
data_NaBe2As3O10
_symmetry_space_group_name_H-M   'P 1'
_cell_length_a   7.63166585
_cell_length_b   7.63166646
_cell_length_c   9.03865800
_cell_angle_alpha   66.60299595
_cell_angle_beta   66.60299395
_cell_angle_gamma   69.72868196
_symmetry_Int_Tables_number   1
_chemical_formula_structural   NaBe2As3O10
_chemical_formula_sum   'Na2 Be4 As6 O20'
_cell_volume   432.14043501
_cell_formula_units_Z   2
loop_
 _symmetry_equiv_pos_site_id
 _symmetry_equiv_pos_as_xyz
  1  'x, y, z'
loop_
 _atom_site_type_symbol
 _atom_site_label
 _atom_site_symmetry_multiplicity
 _atom_site_fract_x
 _atom_site_fract_y
 _atom_site_fract_z
 _atom_site_occupancy
  Na  Na0  1  0.639664  0.360336  0.250000  1
  Na  Na1  1  0.360336  0.639664  0.750000  1
  Be  Be2  1  0.702898  0.758199  0.952535  1
  Be  Be3  1  0.297102  0.241801  0.047465  1
  Be  Be4  1  0.241801  0.297102  0.547465  1
  Be  Be5  1  0.758199  0.702898  0.452535  1
  As  As6  1  0.871698  0.465597  0.775160  1
  As  As7  1  0.465597  0.871698  0.275160  1
  As  As8  1  0.128302  0.534403  0.224840  1
  As  As9  1  0.064486  0.935514  0.250000  1
  As  As10  1  0.935514  0.064486  0.750000  1
  As  As11  1  0.534403  0.128302  0.724840  1
  O  O12  1  0.587797  0.720540  0.152940  1
  O  O13  1  0.412203  0.279460  0.847060  1
  O  O14  1  0.279460  0.412203  0.347060  1
  O  O15  1  0.887825  0.552157  0.336774  1
  O  O16  1  0.782029  0.162445  0.619415  1
  O  O17  1  0.161160  0.089995  0.621707  1
  O  O18  1  0.837555  0.217971  0.880585  1
  O  O19  1  0.216265  0.467073  0.047426  1
  O  O20  1  0.720540  0.587797  0.652940  1
  O  O21  1  0.217971  0.837555  0.380585  1
  O  O22  1  0.552157  0.887825  0.836774  1
  O  O23  1  0.910005  0.838840  0.878293  1
  O  O24  1  0.447843  0.112175  0.163226  1
  O  O25  1  0.112175  0.447843  0.663226  1
  O  O26  1  0.532927  0.783735  0.452574  1
  O  O27  1  0.838840  0.910005  0.378293  1
  O  O28  1  0.162445  0.782029  0.119415  1
  O  O29  1  0.467073  0.216265  0.547426  1
  O  O30  1  0.783735  0.532927  0.952574  1
  O  O31  1  0.089995  0.161160  0.121707  1
