# generated using pymatgen
data_Nd10CuSn2Bi4P
_symmetry_space_group_name_H-M   'P 1'
_cell_length_a   9.59478322
_cell_length_b   9.57668148
_cell_length_c   6.64761246
_cell_angle_alpha   89.92384488
_cell_angle_beta   90.03800636
_cell_angle_gamma   119.93760400
_symmetry_Int_Tables_number   1
_chemical_formula_structural   Nd10CuSn2Bi4P
_chemical_formula_sum   'Nd10 Cu1 Sn2 Bi4 P1'
_cell_volume   529.32068760
_cell_formula_units_Z   1
loop_
 _symmetry_equiv_pos_site_id
 _symmetry_equiv_pos_as_xyz
  1  'x, y, z'
loop_
 _atom_site_type_symbol
 _atom_site_label
 _atom_site_symmetry_multiplicity
 _atom_site_fract_x
 _atom_site_fract_y
 _atom_site_fract_z
 _atom_site_occupancy
  Nd  Nd0  1  0.663076  0.330558  0.997445  1
  Nd  Nd1  1  0.336924  0.667483  0.997445  1
  Nd  Nd2  1  0.336269  0.666873  0.502493  1
  Nd  Nd3  1  0.663731  0.330603  0.502493  1
  Nd  Nd4  1  0.747940  0.752227  0.754848  1
  Nd  Nd5  1  0.252060  0.004287  0.754848  1
  Nd  Nd6  1  0.000000  0.247976  0.755542  1
  Nd  Nd7  1  0.248708  0.248685  0.244585  1
  Nd  Nd8  1  0.751292  0.999977  0.244585  1
  Nd  Nd9  1  0.000000  0.751779  0.244056  1
  Cu  Cu10  1  0.000000  0.000270  0.500965  1
  Sn  Sn11  1  0.389251  0.389567  0.747607  1
  Sn  Sn12  1  0.610749  0.000316  0.747607  1
  Bi  Bi13  1  0.000000  0.611967  0.747244  1
  Bi  Bi14  1  0.610575  0.609660  0.253078  1
  Bi  Bi15  1  0.389425  0.999085  0.253078  1
  Bi  Bi16  1  0.000000  0.389445  0.252153  1
  P  P17  1  0.000000  0.999243  0.999927  1
