# generated using pymatgen
data_Sc3Al3SiGeIr
_symmetry_space_group_name_H-M   'P 1'
_cell_length_a   6.67989600
_cell_length_b   6.67989682
_cell_length_c   4.07015700
_cell_angle_alpha   90.00000000
_cell_angle_beta   90.00000000
_cell_angle_gamma   120.00000584
_symmetry_Int_Tables_number   1
_chemical_formula_structural   Sc3Al3SiGeIr
_chemical_formula_sum   'Sc3 Al3 Si1 Ge1 Ir1'
_cell_volume   157.28279678
_cell_formula_units_Z   1
loop_
 _symmetry_equiv_pos_site_id
 _symmetry_equiv_pos_as_xyz
  1  'x, y, z'
loop_
 _atom_site_type_symbol
 _atom_site_label
 _atom_site_symmetry_multiplicity
 _atom_site_fract_x
 _atom_site_fract_y
 _atom_site_fract_z
 _atom_site_occupancy
  Sc  Sc0  1  0.416729  0.003208  0.000000  1
  Sc  Sc1  1  0.996792  0.413521  0.000000  1
  Sc  Sc2  1  0.586479  0.583271  0.000000  1
  Al  Al3  1  0.763120  0.003283  0.500000  1
  Al  Al4  1  0.240162  0.236880  0.500000  1
  Al  Al5  1  0.996717  0.759837  0.500000  1
  Si  Si6  1  0.666667  0.333334  0.500000  1
  Ge  Ge7  1  0.333334  0.666667  0.500000  1
  Ir  Ir8  1  0.000000  0.000000  0.000000  1
