# generated using pymatgen
data_YbErTm4(CoSn6)2
_symmetry_space_group_name_H-M   'P 1'
_cell_length_a   8.40774340
_cell_length_b   8.40774434
_cell_length_c   13.08018906
_cell_angle_alpha   90.05505691
_cell_angle_beta   89.94495057
_cell_angle_gamma   148.45260854
_symmetry_Int_Tables_number   1
_chemical_formula_structural   YbErTm4(CoSn6)2
_chemical_formula_sum   'Yb1 Er1 Tm4 Co2 Sn12'
_cell_volume   483.77509238
_cell_formula_units_Z   1
loop_
 _symmetry_equiv_pos_site_id
 _symmetry_equiv_pos_as_xyz
  1  'x, y, z'
loop_
 _atom_site_type_symbol
 _atom_site_label
 _atom_site_symmetry_multiplicity
 _atom_site_fract_x
 _atom_site_fract_y
 _atom_site_fract_z
 _atom_site_occupancy
  Yb  Yb0  1  0.899859  0.100141  0.403190  1
  Er  Er1  1  0.898635  0.101365  0.094695  1
  Tm  Tm2  1  0.101582  0.898418  0.596181  1
  Tm  Tm3  1  0.901307  0.098693  0.752194  1
  Tm  Tm4  1  0.101157  0.898843  0.905081  1
  Tm  Tm5  1  0.099305  0.900695  0.248714  1
  Co  Co6  1  0.298733  0.701267  0.250050  1
  Co  Co7  1  0.699751  0.300249  0.749925  1
  Sn  Sn8  1  0.757674  0.242326  0.572170  1
  Sn  Sn9  1  0.428052  0.571948  0.577120  1
  Sn  Sn10  1  0.573827  0.426173  0.424698  1
  Sn  Sn11  1  0.732525  0.267475  0.248753  1
  Sn  Sn12  1  0.266554  0.733446  0.750405  1
  Sn  Sn13  1  0.242545  0.757455  0.070979  1
  Sn  Sn14  1  0.242590  0.757410  0.429012  1
  Sn  Sn15  1  0.573039  0.426961  0.073845  1
  Sn  Sn16  1  0.454732  0.545268  0.247693  1
  Sn  Sn17  1  0.545499  0.454501  0.751198  1
  Sn  Sn18  1  0.756781  0.243219  0.928309  1
  Sn  Sn19  1  0.425852  0.574148  0.925788  1
