# generated using pymatgen
data_Y19HoSi15Pt
_symmetry_space_group_name_H-M   'P 1'
_cell_length_a   7.41110700
_cell_length_b   7.73656148
_cell_length_c   14.66886200
_cell_angle_alpha   90.00000000
_cell_angle_beta   90.00000000
_cell_angle_gamma   90.09925374
_symmetry_Int_Tables_number   1
_chemical_formula_structural   Y19HoSi15Pt
_chemical_formula_sum   'Y19 Ho1 Si15 Pt1'
_cell_volume   841.05972345
_cell_formula_units_Z   1
loop_
 _symmetry_equiv_pos_site_id
 _symmetry_equiv_pos_as_xyz
  1  'x, y, z'
loop_
 _atom_site_type_symbol
 _atom_site_label
 _atom_site_symmetry_multiplicity
 _atom_site_fract_x
 _atom_site_fract_y
 _atom_site_fract_z
 _atom_site_occupancy
  Y  Y0  1  0.680020  0.178934  0.622663  1
  Y  Y1  1  0.186686  0.323500  0.876889  1
  Y  Y2  1  0.317769  0.820205  0.123253  1
  Y  Y3  1  0.817522  0.678000  0.376520  1
  Y  Y4  1  0.317769  0.820205  0.376747  1
  Y  Y5  1  0.817522  0.678000  0.123480  1
  Y  Y6  1  0.680020  0.178934  0.877337  1
  Y  Y7  1  0.186686  0.323500  0.623111  1
  Y  Y8  1  0.525488  0.681864  0.594231  1
  Y  Y9  1  0.027070  0.817565  0.904165  1
  Y  Y10  1  0.473169  0.316021  0.097615  1
  Y  Y11  1  0.973057  0.183014  0.402369  1
  Y  Y12  1  0.473169  0.316021  0.402385  1
  Y  Y13  1  0.973057  0.183014  0.097631  1
  Y  Y14  1  0.525488  0.681864  0.905769  1
  Y  Y15  1  0.027070  0.817565  0.595835  1
  Y  Y16  1  0.355933  0.984545  0.750000  1
  Y  Y17  1  0.148557  0.485961  0.250000  1
  Y  Y18  1  0.648850  0.012921  0.250000  1
  Ho  Ho19  1  0.843484  0.508988  0.750000  1
  Si  Si20  1  0.646325  0.971941  0.458925  1
  Si  Si21  1  0.145985  0.527737  0.040332  1
  Si  Si22  1  0.351872  0.025907  0.960412  1
  Si  Si23  1  0.852278  0.472752  0.539814  1
  Si  Si24  1  0.351872  0.025907  0.539588  1
  Si  Si25  1  0.852278  0.472752  0.960186  1
  Si  Si26  1  0.646325  0.971941  0.041075  1
  Si  Si27  1  0.145985  0.527737  0.459668  1
  Si  Si28  1  0.979720  0.101764  0.750000  1
  Si  Si29  1  0.521803  0.603266  0.250000  1
  Si  Si30  1  0.021845  0.895496  0.250000  1
  Si  Si31  1  0.741806  0.875429  0.750000  1
  Si  Si32  1  0.229017  0.631037  0.750000  1
  Si  Si33  1  0.266771  0.126949  0.250000  1
  Si  Si34  1  0.766117  0.373138  0.250000  1
  Pt  Pt35  1  0.481610  0.405625  0.750000  1
