# generated using pymatgen
data_K3LiSn4
_symmetry_space_group_name_H-M   'P 1'
_cell_length_a   8.76113135
_cell_length_b   8.76113201
_cell_length_c   10.24902500
_cell_angle_alpha   90.00000000
_cell_angle_beta   90.00000000
_cell_angle_gamma   134.09563916
_symmetry_Int_Tables_number   1
_chemical_formula_structural   K3LiSn4
_chemical_formula_sum   'K6 Li2 Sn8'
_cell_volume   564.98358300
_cell_formula_units_Z   2
loop_
 _symmetry_equiv_pos_site_id
 _symmetry_equiv_pos_as_xyz
  1  'x, y, z'
loop_
 _atom_site_type_symbol
 _atom_site_label
 _atom_site_symmetry_multiplicity
 _atom_site_fract_x
 _atom_site_fract_y
 _atom_site_fract_z
 _atom_site_occupancy
  K  K0  1  0.231986  0.768014  0.250000  1
  K  K1  1  0.768014  0.231986  0.750000  1
  K  K2  1  0.612170  0.387830  0.049724  1
  K  K3  1  0.387830  0.612170  0.950276  1
  K  K4  1  0.387830  0.612170  0.549724  1
  K  K5  1  0.612170  0.387830  0.450276  1
  Li  Li6  1  0.000000  0.000000  0.000000  1
  Li  Li7  1  0.000000  0.000000  0.500000  1
  Sn  Sn8  1  0.189999  0.270662  0.250000  1
  Sn  Sn9  1  0.810001  0.729338  0.750000  1
  Sn  Sn10  1  0.729338  0.810001  0.250000  1
  Sn  Sn11  1  0.270662  0.189999  0.750000  1
  Sn  Sn12  1  0.830340  0.169660  0.106106  1
  Sn  Sn13  1  0.169660  0.830340  0.893894  1
  Sn  Sn14  1  0.169660  0.830340  0.606106  1
  Sn  Sn15  1  0.830340  0.169660  0.393894  1
