# generated using pymatgen
data_Sc12Al4Zn3Cu5C4
_symmetry_space_group_name_H-M   'P 1'
_cell_length_a   8.58096002
_cell_length_b   8.58656863
_cell_length_c   8.58095939
_cell_angle_alpha   60.02110649
_cell_angle_beta   59.98033152
_cell_angle_gamma   60.02111556
_symmetry_Int_Tables_number   1
_chemical_formula_structural   Sc12Al4Zn3Cu5C4
_chemical_formula_sum   'Sc12 Al4 Zn3 Cu5 C4'
_cell_volume   447.14691814
_cell_formula_units_Z   1
loop_
 _symmetry_equiv_pos_site_id
 _symmetry_equiv_pos_as_xyz
  1  'x, y, z'
loop_
 _atom_site_type_symbol
 _atom_site_label
 _atom_site_symmetry_multiplicity
 _atom_site_fract_x
 _atom_site_fract_y
 _atom_site_fract_z
 _atom_site_occupancy
  Sc  Sc0  1  0.805340  0.197486  0.805340  1
  Sc  Sc1  1  0.056929  0.445631  0.445364  1
  Sc  Sc2  1  0.444770  0.051696  0.057305  1
  Sc  Sc3  1  0.054486  0.445008  0.054486  1
  Sc  Sc4  1  0.445364  0.445631  0.056929  1
  Sc  Sc5  1  0.057305  0.051696  0.444770  1
  Sc  Sc6  1  0.804634  0.805566  0.197623  1
  Sc  Sc7  1  0.197623  0.805566  0.804634  1
  Sc  Sc8  1  0.804525  0.195129  0.194572  1
  Sc  Sc9  1  0.194572  0.195129  0.804525  1
  Sc  Sc10  1  0.445152  0.054371  0.445152  1
  Sc  Sc11  1  0.194672  0.805175  0.194672  1
  Al  Al12  1  0.627006  0.631316  0.627006  1
  Al  Al13  1  0.126313  0.624616  0.618950  1
  Al  Al14  1  0.622564  0.120882  0.622564  1
  Al  Al15  1  0.618950  0.624616  0.126313  1
  Zn  Zn16  1  0.421434  0.421955  0.736185  1
  Zn  Zn17  1  0.736185  0.421955  0.421434  1
  Zn  Zn18  1  0.828876  0.827477  0.828876  1
  Cu  Cu19  1  0.421066  0.419561  0.421066  1
  Cu  Cu20  1  0.510590  0.829735  0.831584  1
  Cu  Cu21  1  0.829604  0.514146  0.829604  1
  Cu  Cu22  1  0.831584  0.829735  0.510590  1
  Cu  Cu23  1  0.422294  0.735547  0.422294  1
  C  C24  1  0.124977  0.126120  0.124977  1
  C  C25  1  0.625100  0.124925  0.123724  1
  C  C26  1  0.124360  0.624408  0.124360  1
  C  C27  1  0.123724  0.124925  0.625100  1
