# generated using pymatgen
data_Zr3TaCo2N
_symmetry_space_group_name_H-M   'P 1'
_cell_length_a   8.51635098
_cell_length_b   8.51635093
_cell_length_c   8.51635000
_cell_angle_alpha   59.99999584
_cell_angle_beta   59.99999603
_cell_angle_gamma   59.99999492
_symmetry_Int_Tables_number   1
_chemical_formula_structural   Zr3TaCo2N
_chemical_formula_sum   'Zr12 Ta4 Co8 N4'
_cell_volume   436.76271871
_cell_formula_units_Z   4
loop_
 _symmetry_equiv_pos_site_id
 _symmetry_equiv_pos_as_xyz
  1  'x, y, z'
loop_
 _atom_site_type_symbol
 _atom_site_label
 _atom_site_symmetry_multiplicity
 _atom_site_fract_x
 _atom_site_fract_y
 _atom_site_fract_z
 _atom_site_occupancy
  Zr  Zr0  1  0.811547  0.811547  0.188453  1
  Zr  Zr1  1  0.188453  0.188453  0.811547  1
  Zr  Zr2  1  0.811547  0.188453  0.811547  1
  Zr  Zr3  1  0.188453  0.811547  0.188453  1
  Zr  Zr4  1  0.188453  0.811547  0.811547  1
  Zr  Zr5  1  0.811547  0.188453  0.188453  1
  Zr  Zr6  1  0.438453  0.438453  0.061547  1
  Zr  Zr7  1  0.061547  0.061547  0.438453  1
  Zr  Zr8  1  0.438453  0.061547  0.438453  1
  Zr  Zr9  1  0.061547  0.438453  0.061547  1
  Zr  Zr10  1  0.061547  0.438453  0.438453  1
  Zr  Zr11  1  0.438453  0.061547  0.061547  1
  Ta  Ta12  1  0.125000  0.625000  0.625000  1
  Ta  Ta13  1  0.625000  0.125000  0.625000  1
  Ta  Ta14  1  0.625000  0.625000  0.125000  1
  Ta  Ta15  1  0.625000  0.625000  0.625000  1
  Co  Co16  1  0.736712  0.421095  0.421095  1
  Co  Co17  1  0.421095  0.736712  0.421095  1
  Co  Co18  1  0.421095  0.421095  0.736712  1
  Co  Co19  1  0.421095  0.421095  0.421095  1
  Co  Co20  1  0.513288  0.828905  0.828905  1
  Co  Co21  1  0.828905  0.513288  0.828905  1
  Co  Co22  1  0.828905  0.828905  0.513288  1
  Co  Co23  1  0.828905  0.828905  0.828905  1
  N  N24  1  0.625000  0.125000  0.125000  1
  N  N25  1  0.125000  0.625000  0.125000  1
  N  N26  1  0.125000  0.125000  0.625000  1
  N  N27  1  0.125000  0.125000  0.125000  1
