# generated using pymatgen
data_TbHo2In3HgIr2
_symmetry_space_group_name_H-M   'P 1'
_cell_length_a   7.79859614
_cell_length_b   7.79530624
_cell_length_c   3.86737000
_cell_angle_alpha   90.00000000
_cell_angle_beta   90.00000000
_cell_angle_gamma   120.03529933
_symmetry_Int_Tables_number   1
_chemical_formula_structural   TbHo2In3HgIr2
_chemical_formula_sum   'Tb1 Ho2 In3 Hg1 Ir2'
_cell_volume   203.53606725
_cell_formula_units_Z   1
loop_
 _symmetry_equiv_pos_site_id
 _symmetry_equiv_pos_as_xyz
  1  'x, y, z'
loop_
 _atom_site_type_symbol
 _atom_site_label
 _atom_site_symmetry_multiplicity
 _atom_site_fract_x
 _atom_site_fract_y
 _atom_site_fract_z
 _atom_site_occupancy
  Tb  Tb0  1  0.584905  0.614726  0.000000  1
  Ho  Ho1  1  0.384294  0.969289  0.000000  1
  Ho  Ho2  1  0.030750  0.415163  0.000000  1
  In  In3  1  0.002101  0.744535  0.500000  1
  In  In4  1  0.255138  0.256825  0.500000  1
  In  In5  1  0.743112  0.998981  0.500000  1
  Hg  Hg6  1  0.666803  0.332792  0.500000  1
  Ir  Ir7  1  0.000705  0.000680  0.000000  1
  Ir  Ir8  1  0.332193  0.667011  0.500000  1
