# generated using pymatgen
data_ZrBeCu3Pt
_symmetry_space_group_name_H-M   'P 1'
_cell_length_a   4.82690358
_cell_length_b   4.82690264
_cell_length_c   4.79811232
_cell_angle_alpha   59.80130522
_cell_angle_beta   59.80130936
_cell_angle_gamma   59.99999162
_symmetry_Int_Tables_number   1
_chemical_formula_structural   ZrBeCu3Pt
_chemical_formula_sum   'Zr1 Be1 Cu3 Pt1'
_cell_volume   78.81006894
_cell_formula_units_Z   1
loop_
 _symmetry_equiv_pos_site_id
 _symmetry_equiv_pos_as_xyz
  1  'x, y, z'
loop_
 _atom_site_type_symbol
 _atom_site_label
 _atom_site_symmetry_multiplicity
 _atom_site_fract_x
 _atom_site_fract_y
 _atom_site_fract_z
 _atom_site_occupancy
  Zr  Zr0  1  0.000578  0.000578  0.998266  1
  Be  Be1  1  0.620810  0.620810  0.137569  1
  Cu  Cu2  1  0.624735  0.125891  0.624639  1
  Cu  Cu3  1  0.125891  0.624735  0.624639  1
  Cu  Cu4  1  0.624735  0.624735  0.624639  1
  Pt  Pt5  1  0.253250  0.253250  0.240249  1
