# generated using pymatgen
data_La3(CrC3)2
_symmetry_space_group_name_H-M   'P 1'
_cell_length_a   8.35720400
_cell_length_b   8.35720353
_cell_length_c   5.29815600
_cell_angle_alpha   90.00000000
_cell_angle_beta   90.00000000
_cell_angle_gamma   119.99999396
_symmetry_Int_Tables_number   1
_chemical_formula_structural   La3(CrC3)2
_chemical_formula_sum   'La6 Cr4 C12'
_cell_volume   320.46262227
_cell_formula_units_Z   2
loop_
 _symmetry_equiv_pos_site_id
 _symmetry_equiv_pos_as_xyz
  1  'x, y, z'
loop_
 _atom_site_type_symbol
 _atom_site_label
 _atom_site_symmetry_multiplicity
 _atom_site_fract_x
 _atom_site_fract_y
 _atom_site_fract_z
 _atom_site_occupancy
  La  La0  1  0.612038  0.690258  0.750000  1
  La  La1  1  0.921780  0.612038  0.250000  1
  La  La2  1  0.690258  0.078220  0.250000  1
  La  La3  1  0.309742  0.921780  0.750000  1
  La  La4  1  0.078220  0.387962  0.750000  1
  La  La5  1  0.387962  0.309742  0.250000  1
  Cr  Cr6  1  0.000000  0.000000  0.500000  1
  Cr  Cr7  1  0.000000  0.000000  0.000000  1
  Cr  Cr8  1  0.666667  0.333333  0.750000  1
  Cr  Cr9  1  0.333333  0.666667  0.250000  1
  C  C10  1  0.951533  0.772214  0.750000  1
  C  C11  1  0.179318  0.951533  0.250000  1
  C  C12  1  0.772214  0.820682  0.250000  1
  C  C13  1  0.227786  0.179318  0.750000  1
  C  C14  1  0.820682  0.048467  0.750000  1
  C  C15  1  0.048467  0.227786  0.250000  1
  C  C16  1  0.854888  0.580753  0.750000  1
  C  C17  1  0.274134  0.854888  0.250000  1
  C  C18  1  0.580753  0.725866  0.250000  1
  C  C19  1  0.419247  0.274134  0.750000  1
  C  C20  1  0.145112  0.419247  0.250000  1
  C  C21  1  0.725866  0.145112  0.750000  1
