# generated using pymatgen
data_LuGa3Pt2
_symmetry_space_group_name_H-M   'P 1'
_cell_length_a   7.14139600
_cell_length_b   7.14139619
_cell_length_c   7.29035200
_cell_angle_alpha   90.00000000
_cell_angle_beta   90.00000000
_cell_angle_gamma   120.00000837
_symmetry_Int_Tables_number   1
_chemical_formula_structural   LuGa3Pt2
_chemical_formula_sum   'Lu3 Ga9 Pt6'
_cell_volume   321.99218901
_cell_formula_units_Z   3
loop_
 _symmetry_equiv_pos_site_id
 _symmetry_equiv_pos_as_xyz
  1  'x, y, z'
loop_
 _atom_site_type_symbol
 _atom_site_label
 _atom_site_symmetry_multiplicity
 _atom_site_fract_x
 _atom_site_fract_y
 _atom_site_fract_z
 _atom_site_occupancy
  Lu  Lu0  1  0.591715  0.999992  0.750000  1
  Lu  Lu1  1  0.408277  0.408285  0.750000  1
  Lu  Lu2  1  0.000008  0.591723  0.750000  1
  Ga  Ga3  1  0.379127  0.379090  0.250000  1
  Ga  Ga4  1  0.999962  0.620873  0.250000  1
  Ga  Ga5  1  0.620910  0.000038  0.250000  1
  Ga  Ga6  1  0.269440  0.999985  0.010805  1
  Ga  Ga7  1  0.269440  0.999985  0.489195  1
  Ga  Ga8  1  0.000015  0.269454  0.489195  1
  Ga  Ga9  1  0.000015  0.269454  0.010805  1
  Ga  Ga10  1  0.730546  0.730560  0.010805  1
  Ga  Ga11  1  0.730546  0.730560  0.489195  1
  Pt  Pt12  1  0.666667  0.333333  0.458775  1
  Pt  Pt13  1  0.000000  0.000000  0.750000  1
  Pt  Pt14  1  0.666667  0.333333  0.041225  1
  Pt  Pt15  1  0.333333  0.666667  0.041247  1
  Pt  Pt16  1  0.333333  0.666667  0.458753  1
  Pt  Pt17  1  0.000000  0.000000  0.250000  1
