# generated using pymatgen
data_Lu4Co16Si5Tc4P7
_symmetry_space_group_name_H-M   'P 1'
_cell_length_a   3.70757400
_cell_length_b   10.34545300
_cell_length_c   11.82983600
_cell_angle_alpha   90.00035849
_cell_angle_beta   90.00000000
_cell_angle_gamma   90.00000000
_symmetry_Int_Tables_number   1
_chemical_formula_structural   Lu4Co16Si5Tc4P7
_chemical_formula_sum   'Lu4 Co16 Si5 Tc4 P7'
_cell_volume   453.75148972
_cell_formula_units_Z   1
loop_
 _symmetry_equiv_pos_site_id
 _symmetry_equiv_pos_as_xyz
  1  'x, y, z'
loop_
 _atom_site_type_symbol
 _atom_site_label
 _atom_site_symmetry_multiplicity
 _atom_site_fract_x
 _atom_site_fract_y
 _atom_site_fract_z
 _atom_site_occupancy
  Lu  Lu0  1  0.250000  0.581548  0.702840  1
  Lu  Lu1  1  0.250000  0.917156  0.202538  1
  Lu  Lu2  1  0.750000  0.417268  0.297088  1
  Lu  Lu3  1  0.750000  0.080350  0.797327  1
  Co  Co4  1  0.250000  0.408193  0.485917  1
  Co  Co5  1  0.250000  0.088561  0.990442  1
  Co  Co6  1  0.750000  0.592339  0.512370  1
  Co  Co7  1  0.750000  0.906534  0.013115  1
  Co  Co8  1  0.250000  0.214715  0.177780  1
  Co  Co9  1  0.250000  0.286427  0.672826  1
  Co  Co10  1  0.750000  0.785018  0.822980  1
  Co  Co11  1  0.750000  0.715310  0.323018  1
  Co  Co12  1  0.250000  0.882584  0.701618  1
  Co  Co13  1  0.250000  0.617073  0.202351  1
  Co  Co14  1  0.750000  0.116288  0.297983  1
  Co  Co15  1  0.750000  0.385114  0.797068  1
  Co  Co16  1  0.250000  0.468736  0.932187  1
  Co  Co17  1  0.250000  0.035415  0.430721  1
  Co  Co18  1  0.750000  0.536750  0.070223  1
  Co  Co19  1  0.750000  0.964192  0.569350  1
  Si  Si20  1  0.250000  0.418045  0.114781  1
  Si  Si21  1  0.250000  0.082090  0.615566  1
  Si  Si22  1  0.750000  0.581557  0.885029  1
  Si  Si23  1  0.750000  0.918375  0.384833  1
  Si  Si24  1  0.250000  0.268256  0.865253  1
  Tc  Tc25  1  0.250000  0.710200  0.989016  1
  Tc  Tc26  1  0.250000  0.790638  0.488263  1
  Tc  Tc27  1  0.750000  0.291179  0.012237  1
  Tc  Tc28  1  0.750000  0.209235  0.510428  1
  P  P29  1  0.250000  0.231537  0.364699  1
  P  P30  1  0.750000  0.731905  0.135311  1
  P  P31  1  0.750000  0.768031  0.635303  1
  P  P32  1  0.250000  0.596481  0.389867  1
  P  P33  1  0.250000  0.903464  0.890355  1
  P  P34  1  0.750000  0.403061  0.609898  1
  P  P35  1  0.750000  0.096377  0.109420  1
