# generated using pymatgen
data_Ta12Mn11NiN4
_symmetry_space_group_name_H-M   'P 1'
_cell_length_a   8.02623859
_cell_length_b   8.01086727
_cell_length_c   8.01085000
_cell_angle_alpha   60.00001997
_cell_angle_beta   60.06344924
_cell_angle_gamma   60.06347492
_symmetry_Int_Tables_number   1
_chemical_formula_structural   Ta12Mn11NiN4
_chemical_formula_sum   'Ta12 Mn11 Ni1 N4'
_cell_volume   364.56182663
_cell_formula_units_Z   1
loop_
 _symmetry_equiv_pos_site_id
 _symmetry_equiv_pos_as_xyz
  1  'x, y, z'
loop_
 _atom_site_type_symbol
 _atom_site_label
 _atom_site_symmetry_multiplicity
 _atom_site_fract_x
 _atom_site_fract_y
 _atom_site_fract_z
 _atom_site_occupancy
  Ta  Ta0  1  0.802814  0.804586  0.196298  1
  Ta  Ta1  1  0.195184  0.195042  0.804885  1
  Ta  Ta2  1  0.802805  0.196318  0.804581  1
  Ta  Ta3  1  0.195198  0.804884  0.195031  1
  Ta  Ta4  1  0.195194  0.804888  0.804888  1
  Ta  Ta5  1  0.802806  0.196318  0.196293  1
  Ta  Ta6  1  0.443896  0.445363  0.055371  1
  Ta  Ta7  1  0.052956  0.050321  0.448362  1
  Ta  Ta8  1  0.443900  0.055366  0.445365  1
  Ta  Ta9  1  0.052961  0.448367  0.050311  1
  Ta  Ta10  1  0.052962  0.448366  0.448361  1
  Ta  Ta11  1  0.443902  0.055365  0.055369  1
  Mn  Mn12  1  0.127632  0.624121  0.624130  1
  Mn  Mn13  1  0.620616  0.123532  0.627935  1
  Mn  Mn14  1  0.620588  0.627933  0.123524  1
  Mn  Mn15  1  0.620582  0.627925  0.627956  1
  Mn  Mn16  1  0.425266  0.726082  0.424331  1
  Mn  Mn17  1  0.425268  0.424278  0.726139  1
  Mn  Mn18  1  0.425266  0.424278  0.424332  1
  Mn  Mn19  1  0.520304  0.826583  0.826549  1
  Mn  Mn20  1  0.828410  0.516513  0.827531  1
  Mn  Mn21  1  0.828415  0.827548  0.516480  1
  Mn  Mn22  1  0.828420  0.827545  0.827546  1
  Ni  Ni23  1  0.749005  0.417012  0.416991  1
  N  N24  1  0.625335  0.124890  0.124887  1
  N  N25  1  0.123442  0.624639  0.125960  1
  N  N26  1  0.123436  0.125968  0.624630  1
  N  N27  1  0.123437  0.125968  0.125967  1
