# generated using pymatgen
data_Dy4SbRh3O14
_symmetry_space_group_name_H-M   'P 1'
_cell_length_a   7.31162100
_cell_length_b   7.31162107
_cell_length_c   7.31162214
_cell_angle_alpha   59.35559129
_cell_angle_beta   59.35559261
_cell_angle_gamma   59.35559170
_symmetry_Int_Tables_number   1
_chemical_formula_structural   Dy4SbRh3O14
_chemical_formula_sum   'Dy4 Sb1 Rh3 O14'
_cell_volume   272.33817545
_cell_formula_units_Z   1
loop_
 _symmetry_equiv_pos_site_id
 _symmetry_equiv_pos_as_xyz
  1  'x, y, z'
loop_
 _atom_site_type_symbol
 _atom_site_label
 _atom_site_symmetry_multiplicity
 _atom_site_fract_x
 _atom_site_fract_y
 _atom_site_fract_z
 _atom_site_occupancy
  Dy  Dy0  1  0.125000  0.625000  0.125000  1
  Dy  Dy1  1  0.125000  0.125000  0.625000  1
  Dy  Dy2  1  0.625000  0.125000  0.125000  1
  Dy  Dy3  1  0.125000  0.125000  0.125000  1
  Sb  Sb4  1  0.625000  0.625000  0.625000  1
  Rh  Rh5  1  0.125000  0.625000  0.625000  1
  Rh  Rh6  1  0.625000  0.125000  0.625000  1
  Rh  Rh7  1  0.625000  0.625000  0.125000  1
  O  O8  1  0.289736  0.711763  0.711763  1
  O  O9  1  0.539809  0.963356  0.963356  1
  O  O10  1  0.711763  0.289736  0.711763  1
  O  O11  1  0.286644  0.286644  0.710191  1
  O  O12  1  0.711763  0.711763  0.289736  1
  O  O13  1  0.000047  0.000047  0.000047  1
  O  O14  1  0.286644  0.710191  0.286644  1
  O  O15  1  0.963356  0.539809  0.963356  1
  O  O16  1  0.963356  0.963356  0.539809  1
  O  O17  1  0.538237  0.538237  0.960264  1
  O  O18  1  0.249953  0.249953  0.249953  1
  O  O19  1  0.538237  0.960264  0.538237  1
  O  O20  1  0.710191  0.286644  0.286644  1
  O  O21  1  0.960264  0.538237  0.538237  1
