# generated using pymatgen
data_Y3Er2Bi2Ru
_symmetry_space_group_name_H-M   'P 1'
_cell_length_a   7.96792500
_cell_length_b   8.97835200
_cell_length_c   12.52861000
_cell_angle_alpha   90.00000000
_cell_angle_beta   90.00000000
_cell_angle_gamma   90.00000000
_symmetry_Int_Tables_number   1
_chemical_formula_structural   Y3Er2Bi2Ru
_chemical_formula_sum   'Y12 Er8 Bi8 Ru4'
_cell_volume   896.28216807
_cell_formula_units_Z   4
loop_
 _symmetry_equiv_pos_site_id
 _symmetry_equiv_pos_as_xyz
  1  'x, y, z'
loop_
 _atom_site_type_symbol
 _atom_site_label
 _atom_site_symmetry_multiplicity
 _atom_site_fract_x
 _atom_site_fract_y
 _atom_site_fract_z
 _atom_site_occupancy
  Y  Y0  1  0.657829  0.750000  0.706794  1
  Y  Y1  1  0.342171  0.250000  0.293206  1
  Y  Y2  1  0.157829  0.250000  0.793206  1
  Y  Y3  1  0.842171  0.750000  0.206794  1
  Y  Y4  1  0.128558  0.750000  0.810363  1
  Y  Y5  1  0.871442  0.250000  0.189637  1
  Y  Y6  1  0.628558  0.250000  0.689637  1
  Y  Y7  1  0.371442  0.750000  0.310363  1
  Y  Y8  1  0.551954  0.750000  0.995508  1
  Y  Y9  1  0.448046  0.250000  0.004492  1
  Y  Y10  1  0.051954  0.250000  0.504492  1
  Y  Y11  1  0.948046  0.750000  0.495508  1
  Er  Er12  1  0.827366  0.460200  0.934913  1
  Er  Er13  1  0.172634  0.539800  0.065087  1
  Er  Er14  1  0.327366  0.539800  0.565087  1
  Er  Er15  1  0.172634  0.960200  0.065087  1
  Er  Er16  1  0.672634  0.460200  0.434913  1
  Er  Er17  1  0.827366  0.039800  0.934913  1
  Er  Er18  1  0.672634  0.039800  0.434913  1
  Er  Er19  1  0.327366  0.960200  0.565087  1
  Bi  Bi20  1  0.934954  0.005218  0.673060  1
  Bi  Bi21  1  0.065046  0.994782  0.326940  1
  Bi  Bi22  1  0.434954  0.994782  0.826940  1
  Bi  Bi23  1  0.065046  0.505218  0.326940  1
  Bi  Bi24  1  0.565046  0.005218  0.173060  1
  Bi  Bi25  1  0.934954  0.494782  0.673060  1
  Bi  Bi26  1  0.565046  0.494782  0.173060  1
  Bi  Bi27  1  0.434954  0.505218  0.826940  1
  Ru  Ru28  1  0.931240  0.750000  0.991098  1
  Ru  Ru29  1  0.068760  0.250000  0.008902  1
  Ru  Ru30  1  0.431240  0.250000  0.508902  1
  Ru  Ru31  1  0.568760  0.750000  0.491098  1
