# generated using pymatgen
data_NdTmFe3P7Ru9
_symmetry_space_group_name_H-M   'P 1'
_cell_length_a   9.32681900
_cell_length_b   9.32681909
_cell_length_c   3.86133300
_cell_angle_alpha   90.00000000
_cell_angle_beta   90.00000000
_cell_angle_gamma   120.00000325
_symmetry_Int_Tables_number   1
_chemical_formula_structural   NdTmFe3P7Ru9
_chemical_formula_sum   'Nd1 Tm1 Fe3 P7 Ru9'
_cell_volume   290.89414203
_cell_formula_units_Z   1
loop_
 _symmetry_equiv_pos_site_id
 _symmetry_equiv_pos_as_xyz
  1  'x, y, z'
loop_
 _atom_site_type_symbol
 _atom_site_label
 _atom_site_symmetry_multiplicity
 _atom_site_fract_x
 _atom_site_fract_y
 _atom_site_fract_z
 _atom_site_occupancy
  Nd  Nd0  1  0.333333  0.666667  0.000000  1
  Tm  Tm1  1  0.000000  0.000000  0.500000  1
  Fe  Fe2  1  0.933803  0.443336  0.000000  1
  Fe  Fe3  1  0.509534  0.066197  0.000000  1
  Fe  Fe4  1  0.556664  0.490466  0.000000  1
  P  P5  1  0.972033  0.224685  0.000000  1
  P  P6  1  0.252652  0.027967  0.000000  1
  P  P7  1  0.775315  0.747348  0.000000  1
  P  P8  1  0.059561  0.612697  0.500000  1
  P  P9  1  0.553136  0.940439  0.500000  1
  P  P10  1  0.387303  0.446864  0.500000  1
  P  P11  1  0.666667  0.333333  0.000000  1
  Ru  Ru12  1  0.729457  0.974809  0.000000  1
  Ru  Ru13  1  0.245352  0.270543  0.000000  1
  Ru  Ru14  1  0.025191  0.754648  0.000000  1
  Ru  Ru15  1  0.102029  0.381494  0.500000  1
  Ru  Ru16  1  0.279466  0.897971  0.500000  1
  Ru  Ru17  1  0.618506  0.720534  0.500000  1
  Ru  Ru18  1  0.754834  0.218023  0.500000  1
  Ru  Ru19  1  0.463190  0.245166  0.500000  1
  Ru  Ru20  1  0.781977  0.536810  0.500000  1
