# generated using pymatgen
data_Tb3Y16Lu(Cd3Ru)2
_symmetry_space_group_name_H-M   'P 1'
_cell_length_a   9.63890600
_cell_length_b   9.63890424
_cell_length_c   9.88512500
_cell_angle_alpha   90.00000000
_cell_angle_beta   90.00000000
_cell_angle_gamma   119.99999919
_symmetry_Int_Tables_number   1
_chemical_formula_structural   Tb3Y16Lu(Cd3Ru)2
_chemical_formula_sum   'Tb3 Y16 Lu1 Cd6 Ru2'
_cell_volume   795.36817779
_cell_formula_units_Z   1
loop_
 _symmetry_equiv_pos_site_id
 _symmetry_equiv_pos_as_xyz
  1  'x, y, z'
loop_
 _atom_site_type_symbol
 _atom_site_label
 _atom_site_symmetry_multiplicity
 _atom_site_fract_x
 _atom_site_fract_y
 _atom_site_fract_z
 _atom_site_occupancy
  Tb  Tb0  1  0.209060  0.790940  0.439936  1
  Tb  Tb1  1  0.209060  0.418120  0.439936  1
  Tb  Tb2  1  0.581880  0.790940  0.439936  1
  Y  Y3  1  0.000000  0.000000  0.000222  1
  Y  Y4  1  0.790955  0.209045  0.559818  1
  Y  Y5  1  0.790955  0.581910  0.559818  1
  Y  Y6  1  0.418090  0.209045  0.559818  1
  Y  Y7  1  0.790057  0.209943  0.940184  1
  Y  Y8  1  0.790057  0.580112  0.940184  1
  Y  Y9  1  0.419888  0.209943  0.940184  1
  Y  Y10  1  0.209878  0.790122  0.059697  1
  Y  Y11  1  0.209878  0.419758  0.059697  1
  Y  Y12  1  0.580242  0.790122  0.059697  1
  Y  Y13  1  0.541278  0.458722  0.250191  1
  Y  Y14  1  0.541278  0.082556  0.250191  1
  Y  Y15  1  0.917444  0.458722  0.250191  1
  Y  Y16  1  0.458726  0.541274  0.749812  1
  Y  Y17  1  0.458726  0.917454  0.749812  1
  Y  Y18  1  0.082546  0.541274  0.749812  1
  Lu  Lu19  1  0.000000  0.000000  0.499879  1
  Cd  Cd20  1  0.885966  0.114034  0.251461  1
  Cd  Cd21  1  0.885966  0.771934  0.251461  1
  Cd  Cd22  1  0.228066  0.114034  0.251461  1
  Cd  Cd23  1  0.114040  0.885960  0.748548  1
  Cd  Cd24  1  0.114040  0.228080  0.748548  1
  Cd  Cd25  1  0.771920  0.885960  0.748548  1
  Ru  Ru26  1  0.333333  0.666667  0.251514  1
  Ru  Ru27  1  0.666667  0.333333  0.749441  1
