# generated using pymatgen
data_Sm2Th6TiSe17
_symmetry_space_group_name_H-M   'P 1'
_cell_length_a   8.43487290
_cell_length_b   8.43487327
_cell_length_c   11.15689893
_cell_angle_alpha   80.68084638
_cell_angle_beta   80.68085089
_cell_angle_gamma   65.35453102
_symmetry_Int_Tables_number   1
_chemical_formula_structural   Sm2Th6TiSe17
_chemical_formula_sum   'Sm2 Th6 Ti1 Se17'
_cell_volume   707.99456946
_cell_formula_units_Z   1
loop_
 _symmetry_equiv_pos_site_id
 _symmetry_equiv_pos_as_xyz
  1  'x, y, z'
loop_
 _atom_site_type_symbol
 _atom_site_label
 _atom_site_symmetry_multiplicity
 _atom_site_fract_x
 _atom_site_fract_y
 _atom_site_fract_z
 _atom_site_occupancy
  Sm  Sm0  1  0.814099  0.304172  0.297050  1
  Sm  Sm1  1  0.304172  0.814099  0.297050  1
  Th  Th2  1  0.185404  0.698668  0.700839  1
  Th  Th3  1  0.698668  0.185404  0.700839  1
  Th  Th4  1  0.204397  0.204397  0.539073  1
  Th  Th5  1  0.794753  0.794753  0.457014  1
  Th  Th6  1  0.679884  0.679884  0.984457  1
  Th  Th7  1  0.320042  0.320042  0.021598  1
  Ti  Ti8  1  0.004317  0.004317  0.007365  1
  Se  Se9  1  0.822364  0.431256  0.535126  1
  Se  Se10  1  0.431256  0.822364  0.535126  1
  Se  Se11  1  0.176369  0.568839  0.467411  1
  Se  Se12  1  0.568839  0.176369  0.467411  1
  Se  Se13  1  0.943486  0.321117  0.023571  1
  Se  Se14  1  0.321117  0.943486  0.023571  1
  Se  Se15  1  0.056984  0.680195  0.972161  1
  Se  Se16  1  0.680195  0.056984  0.972161  1
  Se  Se17  1  0.208812  0.208812  0.275213  1
  Se  Se18  1  0.789355  0.789355  0.725477  1
  Se  Se19  1  0.058434  0.058434  0.776083  1
  Se  Se20  1  0.938831  0.938831  0.224539  1
  Se  Se21  1  0.303282  0.303282  0.754606  1
  Se  Se22  1  0.696835  0.696835  0.244067  1
  Se  Se23  1  0.520059  0.520059  0.832358  1
  Se  Se24  1  0.480144  0.480144  0.162045  1
  Se  Se25  1  0.997901  0.997901  0.503790  1
