# generated using pymatgen
data_Ho3(CuSi2)2
_symmetry_space_group_name_H-M   'P 1'
_cell_length_a   5.63727673
_cell_length_b   5.63727666
_cell_length_c   7.98652582
_cell_angle_alpha   79.08368684
_cell_angle_beta   79.08368844
_cell_angle_gamma   42.04593071
_symmetry_Int_Tables_number   1
_chemical_formula_structural   Ho3(CuSi2)2
_chemical_formula_sum   'Ho3 Cu2 Si4'
_cell_volume   166.44352831
_cell_formula_units_Z   1
loop_
 _symmetry_equiv_pos_site_id
 _symmetry_equiv_pos_as_xyz
  1  'x, y, z'
loop_
 _atom_site_type_symbol
 _atom_site_label
 _atom_site_symmetry_multiplicity
 _atom_site_fract_x
 _atom_site_fract_y
 _atom_site_fract_z
 _atom_site_occupancy
  Ho  Ho0  1  0.339797  0.339797  0.670698  1
  Ho  Ho1  1  0.660203  0.660203  0.329302  1
  Ho  Ho2  1  0.000000  0.000000  0.000000  1
  Cu  Cu3  1  0.383965  0.383965  0.286073  1
  Cu  Cu4  1  0.616035  0.616035  0.713927  1
  Si  Si5  1  0.061003  0.061003  0.610530  1
  Si  Si6  1  0.938997  0.938997  0.389470  1
  Si  Si7  1  0.716249  0.716249  0.942033  1
  Si  Si8  1  0.283751  0.283751  0.057967  1
