# generated using pymatgen
data_YbZr7(Si4Mo3)4
_symmetry_space_group_name_H-M   'P 1'
_cell_length_a   6.62355142
_cell_length_b   6.78349510
_cell_length_c   12.73402334
_cell_angle_alpha   90.09643619
_cell_angle_beta   89.97749353
_cell_angle_gamma   90.05632009
_symmetry_Int_Tables_number   1
_chemical_formula_structural   YbZr7(Si4Mo3)4
_chemical_formula_sum   'Yb1 Zr7 Si16 Mo12'
_cell_volume   572.14908988
_cell_formula_units_Z   1
loop_
 _symmetry_equiv_pos_site_id
 _symmetry_equiv_pos_as_xyz
  1  'x, y, z'
loop_
 _atom_site_type_symbol
 _atom_site_label
 _atom_site_symmetry_multiplicity
 _atom_site_fract_x
 _atom_site_fract_y
 _atom_site_fract_z
 _atom_site_occupancy
  Yb  Yb0  1  0.996638  0.166675  0.089936  1
  Zr  Zr1  1  0.499570  0.329810  0.093534  1
  Zr  Zr2  1  0.998023  0.171384  0.407117  1
  Zr  Zr3  1  0.503433  0.670549  0.593743  1
  Zr  Zr4  1  0.003837  0.826130  0.903792  1
  Zr  Zr5  1  0.503879  0.671016  0.905385  1
  Zr  Zr6  1  0.002551  0.829846  0.594406  1
  Zr  Zr7  1  0.496491  0.329581  0.407906  1
  Si  Si8  1  0.665972  0.041282  0.543032  1
  Si  Si9  1  0.166508  0.460386  0.955520  1
  Si  Si10  1  0.337501  0.958295  0.042824  1
  Si  Si11  1  0.834449  0.541836  0.458068  1
  Si  Si12  1  0.333494  0.958072  0.457875  1
  Si  Si13  1  0.834371  0.542606  0.043136  1
  Si  Si14  1  0.663748  0.040123  0.955543  1
  Si  Si15  1  0.165653  0.458463  0.543602  1
  Si  Si16  1  0.532456  0.376189  0.749399  1
  Si  Si17  1  0.032465  0.125957  0.751165  1
  Si  Si18  1  0.466179  0.625045  0.250482  1
  Si  Si19  1  0.966890  0.873983  0.250841  1
  Si  Si20  1  0.797448  0.635605  0.749627  1
  Si  Si21  1  0.298922  0.864678  0.749354  1
  Si  Si22  1  0.200574  0.362260  0.249884  1
  Si  Si23  1  0.700206  0.137739  0.250374  1
  Mo  Mo24  1  0.831894  0.335326  0.623673  1
  Mo  Mo25  1  0.334534  0.164809  0.875203  1
  Mo  Mo26  1  0.168772  0.665152  0.124273  1
  Mo  Mo27  1  0.666024  0.834937  0.377257  1
  Mo  Mo28  1  0.168678  0.663113  0.377084  1
  Mo  Mo29  1  0.665059  0.832874  0.124849  1
  Mo  Mo30  1  0.829315  0.337491  0.875043  1
  Mo  Mo31  1  0.332309  0.164667  0.623383  1
  Mo  Mo32  1  0.666736  0.989186  0.749015  1
  Mo  Mo33  1  0.165760  0.512691  0.750495  1
  Mo  Mo34  1  0.335384  0.007866  0.251523  1
  Mo  Mo35  1  0.834281  0.494374  0.251657  1
