# generated using pymatgen
data_Ho12Tm4Cd4NiRu3
_symmetry_space_group_name_H-M   'P 1'
_cell_length_a   9.48688391
_cell_length_b   9.59521999
_cell_length_c   9.59522000
_cell_angle_alpha   59.99999995
_cell_angle_beta   59.62151933
_cell_angle_gamma   59.62152690
_symmetry_Int_Tables_number   1
_chemical_formula_structural   Ho12Tm4Cd4NiRu3
_chemical_formula_sum   'Ho12 Tm4 Cd4 Ni1 Ru3'
_cell_volume   614.05909601
_cell_formula_units_Z   1
loop_
 _symmetry_equiv_pos_site_id
 _symmetry_equiv_pos_as_xyz
  1  'x, y, z'
loop_
 _atom_site_type_symbol
 _atom_site_label
 _atom_site_symmetry_multiplicity
 _atom_site_fract_x
 _atom_site_fract_y
 _atom_site_fract_z
 _atom_site_occupancy
  Ho  Ho0  1  0.810024  0.189162  0.189162  1
  Ho  Ho1  1  0.186677  0.811757  0.811757  1
  Ho  Ho2  1  0.186677  0.811757  0.189809  1
  Ho  Ho3  1  0.810024  0.189162  0.811653  1
  Ho  Ho4  1  0.186677  0.189809  0.811757  1
  Ho  Ho5  1  0.810024  0.811653  0.189162  1
  Ho  Ho6  1  0.937862  0.561613  0.561613  1
  Ho  Ho7  1  0.559073  0.937502  0.937502  1
  Ho  Ho8  1  0.559073  0.937502  0.565923  1
  Ho  Ho9  1  0.937862  0.561613  0.938911  1
  Ho  Ho10  1  0.559073  0.565923  0.937502  1
  Ho  Ho11  1  0.937862  0.938911  0.561613  1
  Tm  Tm12  1  0.350350  0.345359  0.345359  1
  Tm  Tm13  1  0.350350  0.345359  0.958930  1
  Tm  Tm14  1  0.350350  0.958930  0.345359  1
  Tm  Tm15  1  0.965081  0.344973  0.344973  1
  Cd  Cd16  1  0.579126  0.580200  0.580200  1
  Cd  Cd17  1  0.579126  0.580200  0.260477  1
  Cd  Cd18  1  0.579126  0.260477  0.580200  1
  Cd  Cd19  1  0.256325  0.581226  0.581226  1
  Ni  Ni20  1  0.573897  0.142034  0.142034  1
  Ru  Ru21  1  0.145121  0.139550  0.139550  1
  Ru  Ru22  1  0.145121  0.139550  0.575780  1
  Ru  Ru23  1  0.145121  0.575780  0.139550  1
