# generated using pymatgen
data_ScUP7Ru12
_symmetry_space_group_name_H-M   'P 1'
_cell_length_a   9.42355600
_cell_length_b   9.42355560
_cell_length_c   3.89331900
_cell_angle_alpha   90.00000000
_cell_angle_beta   90.00000000
_cell_angle_gamma   120.00000048
_symmetry_Int_Tables_number   1
_chemical_formula_structural   ScUP7Ru12
_chemical_formula_sum   'Sc1 U1 P7 Ru12'
_cell_volume   299.41960395
_cell_formula_units_Z   1
loop_
 _symmetry_equiv_pos_site_id
 _symmetry_equiv_pos_as_xyz
  1  'x, y, z'
loop_
 _atom_site_type_symbol
 _atom_site_label
 _atom_site_symmetry_multiplicity
 _atom_site_fract_x
 _atom_site_fract_y
 _atom_site_fract_z
 _atom_site_occupancy
  Sc  Sc0  1  0.666667  0.333333  0.500000  1
  U  U1  1  0.333333  0.666667  0.000000  1
  P  P2  1  0.602913  0.715837  0.500000  1
  P  P3  1  0.000000  0.000000  0.000000  1
  P  P4  1  0.284163  0.887077  0.500000  1
  P  P5  1  0.112923  0.397087  0.500000  1
  P  P6  1  0.881585  0.572631  0.000000  1
  P  P7  1  0.427369  0.308955  0.000000  1
  P  P8  1  0.691045  0.118415  0.000000  1
  Ru  Ru9  1  0.551302  0.940741  0.500000  1
  Ru  Ru10  1  0.389440  0.448698  0.500000  1
  Ru  Ru11  1  0.910527  0.122367  0.500000  1
  Ru  Ru12  1  0.211839  0.089473  0.500000  1
  Ru  Ru13  1  0.877633  0.788161  0.500000  1
  Ru  Ru14  1  0.724125  0.889695  0.000000  1
  Ru  Ru15  1  0.110305  0.834429  0.000000  1
  Ru  Ru16  1  0.165571  0.275875  0.000000  1
  Ru  Ru17  1  0.429878  0.070589  0.000000  1
  Ru  Ru18  1  0.929411  0.359290  0.000000  1
  Ru  Ru19  1  0.640710  0.570122  0.000000  1
  Ru  Ru20  1  0.059259  0.610560  0.500000  1
