# generated using pymatgen
data_Dy7Ho5TcOs3
_symmetry_space_group_name_H-M   'P 1'
_cell_length_a   6.29813715
_cell_length_b   7.41236479
_cell_length_c   9.05585725
_cell_angle_alpha   90.01140896
_cell_angle_beta   90.02432587
_cell_angle_gamma   90.07434608
_symmetry_Int_Tables_number   1
_chemical_formula_structural   Dy7Ho5TcOs3
_chemical_formula_sum   'Dy7 Ho5 Tc1 Os3'
_cell_volume   422.76405303
_cell_formula_units_Z   1
loop_
 _symmetry_equiv_pos_site_id
 _symmetry_equiv_pos_as_xyz
  1  'x, y, z'
loop_
 _atom_site_type_symbol
 _atom_site_label
 _atom_site_symmetry_multiplicity
 _atom_site_fract_x
 _atom_site_fract_y
 _atom_site_fract_z
 _atom_site_occupancy
  Dy  Dy0  1  0.334929  0.675032  0.062708  1
  Dy  Dy1  1  0.166072  0.175535  0.436905  1
  Dy  Dy2  1  0.667310  0.324383  0.562703  1
  Dy  Dy3  1  0.871126  0.540153  0.249939  1
  Dy  Dy4  1  0.627038  0.040041  0.249902  1
  Dy  Dy5  1  0.130604  0.459322  0.750069  1
  Dy  Dy6  1  0.369129  0.959953  0.750072  1
  Ho  Ho7  1  0.834042  0.824923  0.936741  1
  Ho  Ho8  1  0.667401  0.324383  0.937363  1
  Ho  Ho9  1  0.833989  0.824777  0.563263  1
  Ho  Ho10  1  0.334934  0.674973  0.437266  1
  Ho  Ho11  1  0.166048  0.175494  0.062976  1
  Tc  Tc12  1  0.037556  0.883839  0.250048  1
  Os  Os13  1  0.460690  0.383238  0.249801  1
  Os  Os14  1  0.959767  0.117335  0.750331  1
  Os  Os15  1  0.539365  0.616614  0.749912  1
