# generated using pymatgen
data_TbErHfPtF14
_symmetry_space_group_name_H-M   'P 1'
_cell_length_a   5.62632604
_cell_length_b   8.97269591
_cell_length_c   12.04644320
_cell_angle_alpha   62.35118219
_cell_angle_beta   90.19986302
_cell_angle_gamma   90.09526220
_symmetry_Int_Tables_number   1
_chemical_formula_structural   TbErHfPtF14
_chemical_formula_sum   'Tb2 Er2 Hf2 Pt2 F28'
_cell_volume   538.69617319
_cell_formula_units_Z   2
loop_
 _symmetry_equiv_pos_site_id
 _symmetry_equiv_pos_as_xyz
  1  'x, y, z'
loop_
 _atom_site_type_symbol
 _atom_site_label
 _atom_site_symmetry_multiplicity
 _atom_site_fract_x
 _atom_site_fract_y
 _atom_site_fract_z
 _atom_site_occupancy
  Tb  Tb0  1  0.759990  0.182308  0.239506  1
  Tb  Tb1  1  0.240010  0.817692  0.760494  1
  Er  Er2  1  0.257540  0.812402  0.269768  1
  Er  Er3  1  0.742460  0.187598  0.730232  1
  Hf  Hf4  1  0.755035  0.727231  0.045013  1
  Hf  Hf5  1  0.244965  0.272769  0.954987  1
  Pt  Pt6  1  0.259634  0.274388  0.456615  1
  Pt  Pt7  1  0.740366  0.725612  0.543385  1
  F  F8  1  0.935101  0.703993  0.416152  1
  F  F9  1  0.064899  0.296007  0.583848  1
  F  F10  1  0.463706  0.289496  0.080051  1
  F  F11  1  0.536294  0.710504  0.919949  1
  F  F12  1  0.481352  0.732956  0.149042  1
  F  F13  1  0.518648  0.267044  0.850958  1
  F  F14  1  0.969460  0.272004  0.366011  1
  F  F15  1  0.030540  0.727996  0.633989  1
  F  F16  1  0.965322  0.750886  0.171982  1
  F  F17  1  0.034678  0.249114  0.828018  1
  F  F18  1  0.448849  0.259439  0.324370  1
  F  F19  1  0.551151  0.740561  0.675630  1
  F  F20  1  0.777561  0.476371  0.142024  1
  F  F21  1  0.222439  0.523629  0.857976  1
  F  F22  1  0.266356  0.521842  0.359751  1
  F  F23  1  0.733644  0.478158  0.640249  1
  F  F24  1  0.952178  0.274607  0.050864  1
  F  F25  1  0.047822  0.725393  0.949136  1
  F  F26  1  0.442500  0.715977  0.459499  1
  F  F27  1  0.557500  0.284023  0.540501  1
  F  F28  1  0.739541  0.972866  0.452630  1
  F  F29  1  0.260459  0.027134  0.547370  1
  F  F30  1  0.243106  0.022524  0.060822  1
  F  F31  1  0.756894  0.977476  0.939178  1
  F  F32  1  0.575736  0.966940  0.238828  1
  F  F33  1  0.424264  0.033060  0.761172  1
  F  F34  1  0.082227  0.023925  0.273092  1
  F  F35  1  0.917773  0.976075  0.726908  1
