# generated using pymatgen
data_Gd3HoLuPb3
_symmetry_space_group_name_H-M   'P 1'
_cell_length_a   9.04905700
_cell_length_b   9.04905617
_cell_length_c   6.61859500
_cell_angle_alpha   90.00000000
_cell_angle_beta   90.00000000
_cell_angle_gamma   120.00000667
_symmetry_Int_Tables_number   1
_chemical_formula_structural   Gd3HoLuPb3
_chemical_formula_sum   'Gd6 Ho2 Lu2 Pb6'
_cell_volume   469.35669533
_cell_formula_units_Z   2
loop_
 _symmetry_equiv_pos_site_id
 _symmetry_equiv_pos_as_xyz
  1  'x, y, z'
loop_
 _atom_site_type_symbol
 _atom_site_label
 _atom_site_symmetry_multiplicity
 _atom_site_fract_x
 _atom_site_fract_y
 _atom_site_fract_z
 _atom_site_occupancy
  Gd  Gd0  1  0.761544  0.761544  0.750584  1
  Gd  Gd1  1  0.238456  0.000000  0.750584  1
  Gd  Gd2  1  0.000000  0.238456  0.750584  1
  Gd  Gd3  1  0.238456  0.238456  0.249416  1
  Gd  Gd4  1  0.761544  0.000000  0.249416  1
  Gd  Gd5  1  0.000000  0.761544  0.249416  1
  Ho  Ho6  1  0.333333  0.666667  0.500000  1
  Ho  Ho7  1  0.666667  0.333333  0.500000  1
  Lu  Lu8  1  0.666667  0.333333  0.000000  1
  Lu  Lu9  1  0.333333  0.666667  0.000000  1
  Pb  Pb10  1  0.396774  0.396774  0.752540  1
  Pb  Pb11  1  0.603226  0.000000  0.752540  1
  Pb  Pb12  1  0.000000  0.603226  0.752540  1
  Pb  Pb13  1  0.603226  0.603226  0.247460  1
  Pb  Pb14  1  0.396774  0.000000  0.247460  1
  Pb  Pb15  1  0.000000  0.396774  0.247460  1
