# generated using pymatgen
data_Lu4Sc2B4Ir7Rh3
_symmetry_space_group_name_H-M   'P 1'
_cell_length_a   9.68860888
_cell_length_b   9.69914782
_cell_length_c   3.14346800
_cell_angle_alpha   90.00000000
_cell_angle_beta   90.00000000
_cell_angle_gamma   90.03273538
_symmetry_Int_Tables_number   1
_chemical_formula_structural   Lu4Sc2B4Ir7Rh3
_chemical_formula_sum   'Lu4 Sc2 B4 Ir7 Rh3'
_cell_volume   295.39556820
_cell_formula_units_Z   1
loop_
 _symmetry_equiv_pos_site_id
 _symmetry_equiv_pos_as_xyz
  1  'x, y, z'
loop_
 _atom_site_type_symbol
 _atom_site_label
 _atom_site_symmetry_multiplicity
 _atom_site_fract_x
 _atom_site_fract_y
 _atom_site_fract_z
 _atom_site_occupancy
  Lu  Lu0  1  0.824417  0.324693  0.000000  1
  Lu  Lu1  1  0.324858  0.175322  0.000000  1
  Lu  Lu2  1  0.675242  0.824652  0.000000  1
  Lu  Lu3  1  0.175033  0.676123  0.000000  1
  Sc  Sc4  1  0.000253  0.000009  0.000000  1
  Sc  Sc5  1  0.498117  0.499426  0.000000  1
  B  B6  1  0.622327  0.122075  0.000000  1
  B  B7  1  0.120158  0.377086  0.000000  1
  B  B8  1  0.877760  0.621512  0.000000  1
  B  B9  1  0.378943  0.878587  0.000000  1
  Ir  Ir10  1  0.070705  0.225108  0.500000  1
  Ir  Ir11  1  0.224759  0.930395  0.500000  1
  Ir  Ir12  1  0.776170  0.069212  0.500000  1
  Ir  Ir13  1  0.930480  0.775149  0.500000  1
  Ir  Ir14  1  0.430558  0.724995  0.500000  1
  Ir  Ir15  1  0.570378  0.275749  0.500000  1
  Ir  Ir16  1  0.724147  0.569255  0.500000  1
  Rh  Rh17  1  0.274889  0.430033  0.500000  1
  Rh  Rh18  1  0.500182  0.000757  0.500000  1
  Rh  Rh19  1  0.000624  0.499862  0.500000  1
