# generated using pymatgen
data_Tb8Hf3Ta(Si2W)8
_symmetry_space_group_name_H-M   'P 1'
_cell_length_a   6.99225309
_cell_length_b   6.99225266
_cell_length_c   12.95771713
_cell_angle_alpha   89.96048556
_cell_angle_beta   90.03951286
_cell_angle_gamma   90.03150194
_symmetry_Int_Tables_number   1
_chemical_formula_structural   Tb8Hf3Ta(Si2W)8
_chemical_formula_sum   'Tb8 Hf3 Ta1 Si16 W8'
_cell_volume   633.52312993
_cell_formula_units_Z   1
loop_
 _symmetry_equiv_pos_site_id
 _symmetry_equiv_pos_as_xyz
  1  'x, y, z'
loop_
 _atom_site_type_symbol
 _atom_site_label
 _atom_site_symmetry_multiplicity
 _atom_site_fract_x
 _atom_site_fract_y
 _atom_site_fract_z
 _atom_site_occupancy
  Tb  Tb0  1  0.999636  0.337246  0.217643  1
  Tb  Tb1  1  0.002230  0.662528  0.719687  1
  Tb  Tb2  1  0.162159  0.498197  0.468787  1
  Tb  Tb3  1  0.500703  0.838300  0.030745  1
  Tb  Tb4  1  0.838300  0.500703  0.969255  1
  Tb  Tb5  1  0.498197  0.162159  0.531213  1
  Tb  Tb6  1  0.337246  0.999636  0.782357  1
  Tb  Tb7  1  0.662528  0.002230  0.280313  1
  Hf  Hf8  1  0.832471  0.832471  0.500000  1
  Hf  Hf9  1  0.332203  0.667571  0.248951  1
  Hf  Hf10  1  0.667571  0.332203  0.751049  1
  Ta  Ta11  1  0.167112  0.167112  0.000000  1
  Si  Si12  1  0.373999  0.295069  0.318190  1
  Si  Si13  1  0.625284  0.705873  0.818024  1
  Si  Si14  1  0.205201  0.874320  0.568318  1
  Si  Si15  1  0.124704  0.797241  0.931947  1
  Si  Si16  1  0.797241  0.124704  0.068053  1
  Si  Si17  1  0.874320  0.205201  0.431682  1
  Si  Si18  1  0.295069  0.373999  0.681810  1
  Si  Si19  1  0.705873  0.625284  0.181976  1
  Si  Si20  1  0.290213  0.042430  0.186366  1
  Si  Si21  1  0.708763  0.958917  0.688308  1
  Si  Si22  1  0.458689  0.790782  0.437752  1
  Si  Si23  1  0.210085  0.537988  0.061115  1
  Si  Si24  1  0.537988  0.210085  0.938885  1
  Si  Si25  1  0.790782  0.458689  0.562248  1
  Si  Si26  1  0.042430  0.290213  0.813634  1
  Si  Si27  1  0.958917  0.708763  0.311692  1
  W  W28  1  0.162088  0.994183  0.375574  1
  W  W29  1  0.837379  0.006576  0.877497  1
  W  W30  1  0.506154  0.661957  0.626460  1
  W  W31  1  0.337678  0.494070  0.874290  1
  W  W32  1  0.494070  0.337678  0.125710  1
  W  W33  1  0.661957  0.506154  0.373540  1
  W  W34  1  0.994183  0.162088  0.624426  1
  W  W35  1  0.006576  0.837379  0.122503  1
