# generated using pymatgen
data_Tb5Ho5In8(PdRh)2
_symmetry_space_group_name_H-M   'P 1'
_cell_length_a   3.63003500
_cell_length_b   8.13239779
_cell_length_c   18.28454145
_cell_angle_alpha   89.92662879
_cell_angle_beta   90.00000000
_cell_angle_gamma   90.00000000
_symmetry_Int_Tables_number   1
_chemical_formula_structural   Tb5Ho5In8(PdRh)2
_chemical_formula_sum   'Tb5 Ho5 In8 Pd2 Rh2'
_cell_volume   539.77546888
_cell_formula_units_Z   1
loop_
 _symmetry_equiv_pos_site_id
 _symmetry_equiv_pos_as_xyz
  1  'x, y, z'
loop_
 _atom_site_type_symbol
 _atom_site_label
 _atom_site_symmetry_multiplicity
 _atom_site_fract_x
 _atom_site_fract_y
 _atom_site_fract_z
 _atom_site_occupancy
  Tb  Tb0  1  0.000000  0.499989  0.499897  1
  Tb  Tb1  1  0.000000  0.999971  0.000023  1
  Tb  Tb2  1  0.000000  0.731454  0.278483  1
  Tb  Tb3  1  0.000000  0.268532  0.721503  1
  Tb  Tb4  1  0.000000  0.748566  0.780252  1
  Ho  Ho5  1  0.000000  0.252184  0.219851  1
  Ho  Ho6  1  0.000000  0.613889  0.087177  1
  Ho  Ho7  1  0.000000  0.385918  0.913082  1
  Ho  Ho8  1  0.000000  0.884072  0.584442  1
  Ho  Ho9  1  0.000000  0.116071  0.415272  1
  In  In10  1  0.500000  0.708065  0.931842  1
  In  In11  1  0.500000  0.291713  0.068680  1
  In  In12  1  0.500000  0.792329  0.432107  1
  In  In13  1  0.500000  0.207908  0.567800  1
  In  In14  1  0.500000  0.578949  0.649536  1
  In  In15  1  0.500000  0.420683  0.350171  1
  In  In16  1  0.500000  0.921132  0.150084  1
  In  In17  1  0.500000  0.079438  0.849971  1
  Pd  Pd18  1  0.500000  0.978563  0.695785  1
  Pd  Pd19  1  0.500000  0.022313  0.303894  1
  Rh  Rh20  1  0.500000  0.519409  0.194638  1
  Rh  Rh21  1  0.500000  0.478852  0.805512  1
