# generated using pymatgen
data_KV2Tc4Te7
_symmetry_space_group_name_H-M   'P 1'
_cell_length_a   10.22885437
_cell_length_b   10.25213408
_cell_length_c   10.25890400
_cell_angle_alpha   60.69257554
_cell_angle_beta   60.70236260
_cell_angle_gamma   60.90543754
_symmetry_Int_Tables_number   1
_chemical_formula_structural   KV2Tc4Te7
_chemical_formula_sum   'K2 V4 Tc8 Te14'
_cell_volume   773.87728385
_cell_formula_units_Z   2
loop_
 _symmetry_equiv_pos_site_id
 _symmetry_equiv_pos_as_xyz
  1  'x, y, z'
loop_
 _atom_site_type_symbol
 _atom_site_label
 _atom_site_symmetry_multiplicity
 _atom_site_fract_x
 _atom_site_fract_y
 _atom_site_fract_z
 _atom_site_occupancy
  K  K0  1  0.630736  0.621511  0.628429  1
  K  K1  1  0.376426  0.375392  0.376680  1
  V  V2  1  0.817449  0.097077  0.947743  1
  V  V3  1  0.050222  0.186178  0.903971  1
  V  V4  1  0.901586  0.055043  0.183090  1
  V  V5  1  0.186057  0.900778  0.052398  1
  Tc  Tc6  1  0.711805  0.878322  0.009177  1
  Tc  Tc7  1  0.005672  0.714721  0.876669  1
  Tc  Tc8  1  0.876213  0.010094  0.712090  1
  Tc  Tc9  1  0.285070  0.124511  0.989681  1
  Tc  Tc10  1  0.989062  0.289931  0.120994  1
  Tc  Tc11  1  0.118866  0.994083  0.286076  1
  Tc  Tc12  1  0.949359  0.809994  0.109061  1
  Tc  Tc13  1  0.109276  0.948225  0.809828  1
  Te  Te14  1  0.421978  0.813753  0.159628  1
  Te  Te15  1  0.156611  0.426982  0.808645  1
  Te  Te16  1  0.808048  0.161579  0.424056  1
  Te  Te17  1  0.576278  0.189604  0.842060  1
  Te  Te18  1  0.836681  0.577811  0.189355  1
  Te  Te19  1  0.187777  0.840053  0.574977  1
  Te  Te20  1  0.642905  0.962239  0.255618  1
  Te  Te21  1  0.250237  0.639133  0.968941  1
  Te  Te22  1  0.978050  0.247390  0.636644  1
  Te  Te23  1  0.364123  0.028211  0.742859  1
  Te  Te24  1  0.742708  0.359843  0.030940  1
  Te  Te25  1  0.031489  0.741732  0.361988  1
  Te  Te26  1  0.773739  0.782068  0.778547  1
  Te  Te27  1  0.221576  0.223741  0.219851  1
