# generated using pymatgen
data_La3TlIn2Ag2Ir
_symmetry_space_group_name_H-M   'P 1'
_cell_length_a   8.05439650
_cell_length_b   8.10272810
_cell_length_c   4.10545000
_cell_angle_alpha   90.00000000
_cell_angle_beta   90.00000000
_cell_angle_gamma   120.27752636
_symmetry_Int_Tables_number   1
_chemical_formula_structural   La3TlIn2Ag2Ir
_chemical_formula_sum   'La3 Tl1 In2 Ag2 Ir1'
_cell_volume   231.38454230
_cell_formula_units_Z   1
loop_
 _symmetry_equiv_pos_site_id
 _symmetry_equiv_pos_as_xyz
  1  'x, y, z'
loop_
 _atom_site_type_symbol
 _atom_site_label
 _atom_site_symmetry_multiplicity
 _atom_site_fract_x
 _atom_site_fract_y
 _atom_site_fract_z
 _atom_site_occupancy
  La  La0  1  0.575466  0.600114  0.000000  1
  La  La1  1  0.398143  0.970688  0.000000  1
  La  La2  1  0.028447  0.429359  0.000000  1
  Tl  Tl3  1  0.992712  0.739352  0.500000  1
  In  In4  1  0.259118  0.255335  0.500000  1
  In  In5  1  0.744721  0.006229  0.500000  1
  Ag  Ag6  1  0.999367  0.009939  0.000000  1
  Ag  Ag7  1  0.659472  0.325199  0.500000  1
  Ir  Ir8  1  0.342554  0.663786  0.500000  1
