# generated using pymatgen
data_K4TbIn3I16
_symmetry_space_group_name_H-M   'P 1'
_cell_length_a   8.44765377
_cell_length_b   8.69450997
_cell_length_c   17.19372348
_cell_angle_alpha   84.29585159
_cell_angle_beta   90.32991348
_cell_angle_gamma   90.28105207
_symmetry_Int_Tables_number   1
_chemical_formula_structural   K4TbIn3I16
_chemical_formula_sum   'K4 Tb1 In3 I16'
_cell_volume   1256.56231642
_cell_formula_units_Z   1
loop_
 _symmetry_equiv_pos_site_id
 _symmetry_equiv_pos_as_xyz
  1  'x, y, z'
loop_
 _atom_site_type_symbol
 _atom_site_label
 _atom_site_symmetry_multiplicity
 _atom_site_fract_x
 _atom_site_fract_y
 _atom_site_fract_z
 _atom_site_occupancy
  K  K0  1  0.501055  0.256279  0.637105  1
  K  K1  1  0.997328  0.744057  0.862117  1
  K  K2  1  0.499958  0.743962  0.361666  1
  K  K3  1  0.000029  0.257042  0.139632  1
  Tb  Tb4  1  0.143180  0.241389  0.862094  1
  In  In5  1  0.358596  0.243064  0.361818  1
  In  In6  1  0.858650  0.757620  0.137853  1
  In  In7  1  0.640990  0.756432  0.638477  1
  I  I8  1  0.838153  0.120510  0.912771  1
  I  I9  1  0.351246  0.874128  0.589489  1
  I  I10  1  0.149201  0.877161  0.089476  1
  I  I11  1  0.649869  0.127018  0.410578  1
  I  I12  1  0.385466  0.425111  0.221439  1
  I  I13  1  0.886566  0.575037  0.278356  1
  I  I14  1  0.616261  0.570164  0.778112  1
  I  I15  1  0.113454  0.435210  0.716170  1
  I  I16  1  0.652716  0.993589  0.162357  1
  I  I17  1  0.151858  0.004618  0.338222  1
  I  I18  1  0.355210  0.992270  0.835218  1
  I  I19  1  0.848745  0.994764  0.662378  1
  I  I20  1  0.249309  0.428775  0.471321  1
  I  I21  1  0.750307  0.569368  0.028297  1
  I  I22  1  0.749360  0.571657  0.528403  1
  I  I23  1  0.252496  0.440779  0.976651  1
