# generated using pymatgen
data_Sr5Cd2P5F
_symmetry_space_group_name_H-M   'P 1'
_cell_length_a   10.79975782
_cell_length_b   10.79975815
_cell_length_c   13.73355500
_cell_angle_alpha   90.00000000
_cell_angle_beta   90.00000000
_cell_angle_gamma   156.30383144
_symmetry_Int_Tables_number   1
_chemical_formula_structural   Sr5Cd2P5F
_chemical_formula_sum   'Sr10 Cd4 P10 F2'
_cell_volume   643.74591091
_cell_formula_units_Z   2
loop_
 _symmetry_equiv_pos_site_id
 _symmetry_equiv_pos_as_xyz
  1  'x, y, z'
loop_
 _atom_site_type_symbol
 _atom_site_label
 _atom_site_symmetry_multiplicity
 _atom_site_fract_x
 _atom_site_fract_y
 _atom_site_fract_z
 _atom_site_occupancy
  Sr  Sr0  1  0.907063  0.092937  0.250000  1
  Sr  Sr1  1  0.092937  0.907063  0.750000  1
  Sr  Sr2  1  0.096897  0.903103  0.250000  1
  Sr  Sr3  1  0.903103  0.096897  0.750000  1
  Sr  Sr4  1  0.731928  0.268072  0.617611  1
  Sr  Sr5  1  0.268072  0.731928  0.117611  1
  Sr  Sr6  1  0.268072  0.731928  0.382389  1
  Sr  Sr7  1  0.731928  0.268072  0.882389  1
  Sr  Sr8  1  0.000000  0.000000  0.000000  1
  Sr  Sr9  1  0.000000  0.000000  0.500000  1
  Cd  Cd10  1  0.631414  0.368586  0.083373  1
  Cd  Cd11  1  0.368586  0.631414  0.583373  1
  Cd  Cd12  1  0.368586  0.631414  0.916627  1
  Cd  Cd13  1  0.631414  0.368586  0.416627  1
  P  P14  1  0.509433  0.490567  0.167457  1
  P  P15  1  0.490567  0.509433  0.667457  1
  P  P16  1  0.490567  0.509433  0.832543  1
  P  P17  1  0.509433  0.490567  0.332543  1
  P  P18  1  0.703479  0.296521  0.250000  1
  P  P19  1  0.296521  0.703479  0.750000  1
  P  P20  1  0.851423  0.148577  0.019139  1
  P  P21  1  0.148577  0.851423  0.519139  1
  P  P22  1  0.148577  0.851423  0.980861  1
  P  P23  1  0.851423  0.148577  0.480861  1
  F  F24  1  0.347284  0.652716  0.250000  1
  F  F25  1  0.652716  0.347284  0.750000  1
