# generated using pymatgen
data_TbPa3(SiNi)4
_symmetry_space_group_name_H-M   'P 1'
_cell_length_a   4.15805300
_cell_length_b   7.11522541
_cell_length_c   7.02078974
_cell_angle_alpha   89.92357760
_cell_angle_beta   90.00000000
_cell_angle_gamma   90.00000000
_symmetry_Int_Tables_number   1
_chemical_formula_structural   TbPa3(SiNi)4
_chemical_formula_sum   'Tb1 Pa3 Si4 Ni4'
_cell_volume   207.71328031
_cell_formula_units_Z   1
loop_
 _symmetry_equiv_pos_site_id
 _symmetry_equiv_pos_as_xyz
  1  'x, y, z'
loop_
 _atom_site_type_symbol
 _atom_site_label
 _atom_site_symmetry_multiplicity
 _atom_site_fract_x
 _atom_site_fract_y
 _atom_site_fract_z
 _atom_site_occupancy
  Tb  Tb0  1  0.250000  0.992726  0.289004  1
  Pa  Pa1  1  0.250000  0.491985  0.210274  1
  Pa  Pa2  1  0.750000  0.515468  0.792636  1
  Pa  Pa3  1  0.750000  0.014000  0.710350  1
  Si  Si4  1  0.250000  0.801217  0.909056  1
  Si  Si5  1  0.750000  0.218797  0.089987  1
  Si  Si6  1  0.750000  0.710737  0.409537  1
  Si  Si7  1  0.250000  0.300839  0.592018  1
  Ni  Ni8  1  0.250000  0.685858  0.583055  1
  Ni  Ni9  1  0.750000  0.290709  0.423392  1
  Ni  Ni10  1  0.750000  0.783383  0.074375  1
  Ni  Ni11  1  0.250000  0.194282  0.916316  1
