# generated using pymatgen
data_MnAg2BrF12
_symmetry_space_group_name_H-M   'P 1'
_cell_length_a   5.44163143
_cell_length_b   5.41397951
_cell_length_c   10.12077618
_cell_angle_alpha   75.11735148
_cell_angle_beta   75.05866824
_cell_angle_gamma   60.76175139
_symmetry_Int_Tables_number   1
_chemical_formula_structural   MnAg2BrF12
_chemical_formula_sum   'Mn1 Ag2 Br1 F12'
_cell_volume   248.33414632
_cell_formula_units_Z   1
loop_
 _symmetry_equiv_pos_site_id
 _symmetry_equiv_pos_as_xyz
  1  'x, y, z'
loop_
 _atom_site_type_symbol
 _atom_site_label
 _atom_site_symmetry_multiplicity
 _atom_site_fract_x
 _atom_site_fract_y
 _atom_site_fract_z
 _atom_site_occupancy
  Mn  Mn0  1  0.724701  0.766396  0.750078  1
  Ag  Ag1  1  0.483455  0.492531  0.530538  1
  Ag  Ag2  1  0.005198  0.017142  0.969576  1
  Br  Br3  1  0.277706  0.229117  0.249978  1
  F  F4  1  0.479454  0.808702  0.639006  1
  F  F5  1  0.491788  0.246162  0.368489  1
  F  F6  1  0.771353  0.080805  0.639787  1
  F  F7  1  0.275239  0.884187  0.368150  1
  F  F8  1  0.678697  0.462446  0.861586  1
  F  F9  1  0.274331  0.563434  0.138983  1
  F  F10  1  0.969433  0.726661  0.861152  1
  F  F11  1  0.057148  0.220301  0.132240  1
  F  F12  1  0.627361  0.004741  0.134037  1
  F  F13  1  0.413298  0.017296  0.859207  1
  F  F14  1  0.943174  0.451625  0.358046  1
  F  F15  1  0.027666  0.528451  0.639147  1
