# generated using pymatgen
data_K16ZrTiBi8
_symmetry_space_group_name_H-M   'P 1'
_cell_length_a   11.79272968
_cell_length_b   11.79272497
_cell_length_c   11.79509507
_cell_angle_alpha   60.00341149
_cell_angle_beta   60.00330978
_cell_angle_gamma   59.99592726
_symmetry_Int_Tables_number   1
_chemical_formula_structural   K16ZrTiBi8
_chemical_formula_sum   'K16 Zr1 Ti1 Bi8'
_cell_volume   1159.90828105
_cell_formula_units_Z   1
loop_
 _symmetry_equiv_pos_site_id
 _symmetry_equiv_pos_as_xyz
  1  'x, y, z'
loop_
 _atom_site_type_symbol
 _atom_site_label
 _atom_site_symmetry_multiplicity
 _atom_site_fract_x
 _atom_site_fract_y
 _atom_site_fract_z
 _atom_site_occupancy
  K  K0  1  0.623264  0.130151  0.623293  1
  K  K1  1  0.623302  0.623302  0.130092  1
  K  K2  1  0.130152  0.623263  0.623291  1
  K  K3  1  0.623303  0.623303  0.623305  1
  K  K4  1  0.026047  0.026047  0.473959  1
  K  K5  1  0.777691  0.222246  0.222206  1
  K  K6  1  0.222237  0.777704  0.777857  1
  K  K7  1  0.777751  0.777752  0.222246  1
  K  K8  1  0.777703  0.222239  0.777853  1
  K  K9  1  0.222243  0.777693  0.222206  1
  K  K10  1  0.473975  0.026067  0.473910  1
  K  K11  1  0.473988  0.026056  0.026047  1
  K  K12  1  0.026068  0.473974  0.473908  1
  K  K13  1  0.026058  0.473986  0.026048  1
  K  K14  1  0.222190  0.222190  0.777802  1
  K  K15  1  0.473913  0.473911  0.026092  1
  Zr  Zr16  1  0.750044  0.750040  0.749922  1
  Ti  Ti17  1  0.500034  0.500035  0.499997  1
  Bi  Bi18  1  0.401080  0.796672  0.401111  1
  Bi  Bi19  1  0.852168  0.852168  0.443554  1
  Bi  Bi20  1  0.443577  0.852151  0.852149  1
  Bi  Bi21  1  0.852167  0.852167  0.852134  1
  Bi  Bi22  1  0.796672  0.401079  0.401111  1
  Bi  Bi23  1  0.401114  0.401115  0.401149  1
  Bi  Bi24  1  0.401110  0.401111  0.796608  1
  Bi  Bi25  1  0.852152  0.443578  0.852149  1
