# generated using pymatgen
data_Sc5Cd3InNi2
_symmetry_space_group_name_H-M   'P 1'
_cell_length_a   3.33922500
_cell_length_b   7.57340573
_cell_length_c   17.38300797
_cell_angle_alpha   90.07737686
_cell_angle_beta   90.00000000
_cell_angle_gamma   90.00000000
_symmetry_Int_Tables_number   1
_chemical_formula_structural   Sc5Cd3InNi2
_chemical_formula_sum   'Sc10 Cd6 In2 Ni4'
_cell_volume   439.60380213
_cell_formula_units_Z   2
loop_
 _symmetry_equiv_pos_site_id
 _symmetry_equiv_pos_as_xyz
  1  'x, y, z'
loop_
 _atom_site_type_symbol
 _atom_site_label
 _atom_site_symmetry_multiplicity
 _atom_site_fract_x
 _atom_site_fract_y
 _atom_site_fract_z
 _atom_site_occupancy
  Sc  Sc0  1  0.500000  0.124670  0.911886  1
  Sc  Sc1  1  0.500000  0.621605  0.588307  1
  Sc  Sc2  1  0.500000  0.379443  0.411858  1
  Sc  Sc3  1  0.500000  0.879913  0.088494  1
  Sc  Sc4  1  0.500000  0.999745  0.499377  1
  Sc  Sc5  1  0.500000  0.755030  0.778487  1
  Sc  Sc6  1  0.500000  0.743912  0.279746  1
  Sc  Sc7  1  0.500000  0.255829  0.721329  1
  Sc  Sc8  1  0.500000  0.498889  0.000786  1
  Sc  Sc9  1  0.500000  0.241792  0.220040  1
  Cd  Cd10  1  0.000000  0.202761  0.066772  1
  Cd  Cd11  1  0.000000  0.705300  0.432085  1
  Cd  Cd12  1  0.000000  0.934298  0.650254  1
  Cd  Cd13  1  0.000000  0.067113  0.349716  1
  Cd  Cd14  1  0.000000  0.294355  0.567898  1
  Cd  Cd15  1  0.000000  0.433906  0.849588  1
  In  In16  1  0.000000  0.566532  0.150624  1
  In  In17  1  0.000000  0.797193  0.932946  1
  Ni  Ni18  1  0.000000  0.460363  0.303884  1
  Ni  Ni19  1  0.000000  0.539863  0.695524  1
  Ni  Ni20  1  0.000000  0.037731  0.804795  1
  Ni  Ni21  1  0.000000  0.959755  0.195603  1
