# generated using pymatgen
data_Yb2Cu9Ir
_symmetry_space_group_name_H-M   'P 1'
_cell_length_a   5.07238725
_cell_length_b   5.07238781
_cell_length_c   8.19670400
_cell_angle_alpha   90.00000000
_cell_angle_beta   90.00000000
_cell_angle_gamma   121.97511169
_symmetry_Int_Tables_number   1
_chemical_formula_structural   Yb2Cu9Ir
_chemical_formula_sum   'Yb2 Cu9 Ir1'
_cell_volume   178.89673453
_cell_formula_units_Z   1
loop_
 _symmetry_equiv_pos_site_id
 _symmetry_equiv_pos_as_xyz
  1  'x, y, z'
loop_
 _atom_site_type_symbol
 _atom_site_label
 _atom_site_symmetry_multiplicity
 _atom_site_fract_x
 _atom_site_fract_y
 _atom_site_fract_z
 _atom_site_occupancy
  Yb  Yb0  1  0.000000  0.000000  0.729963  1
  Yb  Yb1  1  0.000000  0.000000  0.270037  1
  Cu  Cu2  1  0.669875  0.330125  0.753138  1
  Cu  Cu3  1  0.669875  0.330125  0.246862  1
  Cu  Cu4  1  0.500000  0.500000  0.000000  1
  Cu  Cu5  1  0.330125  0.669875  0.753138  1
  Cu  Cu6  1  0.500000  0.000000  0.500000  1
  Cu  Cu7  1  0.000000  0.500000  0.000000  1
  Cu  Cu8  1  0.500000  0.000000  0.000000  1
  Cu  Cu9  1  0.330125  0.669875  0.246862  1
  Cu  Cu10  1  0.000000  0.500000  0.500000  1
  Ir  Ir11  1  0.500000  0.500000  0.500000  1
