# generated using pymatgen
data_Li2Tb3AgPb3
_symmetry_space_group_name_H-M   'P 1'
_cell_length_a   7.43628701
_cell_length_b   7.45178014
_cell_length_c   4.65587600
_cell_angle_alpha   90.00000000
_cell_angle_beta   90.00000000
_cell_angle_gamma   120.06895514
_symmetry_Int_Tables_number   1
_chemical_formula_structural   Li2Tb3AgPb3
_chemical_formula_sum   'Li2 Tb3 Ag1 Pb3'
_cell_volume   223.27804950
_cell_formula_units_Z   1
loop_
 _symmetry_equiv_pos_site_id
 _symmetry_equiv_pos_as_xyz
  1  'x, y, z'
loop_
 _atom_site_type_symbol
 _atom_site_label
 _atom_site_symmetry_multiplicity
 _atom_site_fract_x
 _atom_site_fract_y
 _atom_site_fract_z
 _atom_site_occupancy
  Li  Li0  1  0.233474  0.003820  0.000000  1
  Li  Li1  1  0.766526  0.770347  0.000000  1
  Tb  Tb2  1  0.573492  0.003983  0.500000  1
  Tb  Tb3  1  0.426508  0.430491  0.500000  1
  Tb  Tb4  1  0.000000  0.554787  0.500000  1
  Ag  Ag5  1  0.000000  0.237545  0.000000  1
  Pb  Pb6  1  0.000000  0.986902  0.500000  1
  Pb  Pb7  1  0.341166  0.676647  0.000000  1
  Pb  Pb8  1  0.658834  0.335479  0.000000  1
