# generated using pymatgen
data_KTcOF6
_symmetry_space_group_name_H-M   'P 1'
_cell_length_a   7.04556700
_cell_length_b   7.97402739
_cell_length_c   10.64141900
_cell_angle_alpha   87.39878235
_cell_angle_beta   90.00000000
_cell_angle_gamma   90.00000000
_symmetry_Int_Tables_number   1
_chemical_formula_structural   KTcOF6
_chemical_formula_sum   'K4 Tc4 O4 F24'
_cell_volume   597.23532984
_cell_formula_units_Z   4
loop_
 _symmetry_equiv_pos_site_id
 _symmetry_equiv_pos_as_xyz
  1  'x, y, z'
loop_
 _atom_site_type_symbol
 _atom_site_label
 _atom_site_symmetry_multiplicity
 _atom_site_fract_x
 _atom_site_fract_y
 _atom_site_fract_z
 _atom_site_occupancy
  K  K0  1  0.277218  0.207601  0.001185  1
  K  K1  1  0.722782  0.792399  0.998815  1
  K  K2  1  0.777218  0.792399  0.498815  1
  K  K3  1  0.222782  0.207601  0.501185  1
  Tc  Tc4  1  0.213655  0.726686  0.263298  1
  Tc  Tc5  1  0.286345  0.726686  0.763298  1
  Tc  Tc6  1  0.786345  0.273314  0.736702  1
  Tc  Tc7  1  0.713655  0.273314  0.236702  1
  O  O8  1  0.231312  0.573163  0.159579  1
  O  O9  1  0.768688  0.426837  0.840421  1
  O  O10  1  0.268688  0.573163  0.659579  1
  O  O11  1  0.731312  0.426837  0.340421  1
  F  F12  1  0.935821  0.734656  0.245016  1
  F  F13  1  0.435821  0.265344  0.254984  1
  F  F14  1  0.446940  0.832781  0.208172  1
  F  F15  1  0.649825  0.096109  0.359697  1
  F  F16  1  0.564179  0.734656  0.745016  1
  F  F17  1  0.149825  0.903891  0.140303  1
  F  F18  1  0.350175  0.903891  0.640303  1
  F  F19  1  0.914586  0.353184  0.125227  1
  F  F20  1  0.173287  0.895670  0.388319  1
  F  F21  1  0.064179  0.265344  0.754984  1
  F  F22  1  0.897473  0.427580  0.609541  1
  F  F23  1  0.414586  0.646816  0.374773  1
  F  F24  1  0.553060  0.167219  0.791828  1
  F  F25  1  0.850175  0.096109  0.859697  1
  F  F26  1  0.585414  0.353184  0.625227  1
  F  F27  1  0.102527  0.572420  0.390459  1
  F  F28  1  0.673287  0.104330  0.111681  1
  F  F29  1  0.053060  0.832781  0.708172  1
  F  F30  1  0.826713  0.104330  0.611681  1
  F  F31  1  0.397473  0.572420  0.890459  1
  F  F32  1  0.326713  0.895670  0.888319  1
  F  F33  1  0.085414  0.646816  0.874773  1
  F  F34  1  0.602527  0.427580  0.109541  1
  F  F35  1  0.946940  0.167219  0.291828  1
