# generated using pymatgen
data_PrNbAs3Rh4
_symmetry_space_group_name_H-M   'P 1'
_cell_length_a   4.09163200
_cell_length_b   11.42063400
_cell_length_c   12.94141400
_cell_angle_alpha   90.00000000
_cell_angle_beta   90.00000000
_cell_angle_gamma   90.00000000
_symmetry_Int_Tables_number   1
_chemical_formula_structural   PrNbAs3Rh4
_chemical_formula_sum   'Pr4 Nb4 As12 Rh16'
_cell_volume   604.73974291
_cell_formula_units_Z   4
loop_
 _symmetry_equiv_pos_site_id
 _symmetry_equiv_pos_as_xyz
  1  'x, y, z'
loop_
 _atom_site_type_symbol
 _atom_site_label
 _atom_site_symmetry_multiplicity
 _atom_site_fract_x
 _atom_site_fract_y
 _atom_site_fract_z
 _atom_site_occupancy
  Pr  Pr0  1  0.250000  0.578233  0.702777  1
  Pr  Pr1  1  0.250000  0.921767  0.202777  1
  Pr  Pr2  1  0.750000  0.421767  0.297223  1
  Pr  Pr3  1  0.750000  0.078233  0.797223  1
  Nb  Nb4  1  0.250000  0.705343  0.989282  1
  Nb  Nb5  1  0.250000  0.794657  0.489282  1
  Nb  Nb6  1  0.750000  0.294657  0.010718  1
  Nb  Nb7  1  0.750000  0.205343  0.510718  1
  As  As8  1  0.250000  0.418130  0.117321  1
  As  As9  1  0.250000  0.081870  0.617321  1
  As  As10  1  0.750000  0.581870  0.882679  1
  As  As11  1  0.750000  0.918130  0.382679  1
  As  As12  1  0.250000  0.262594  0.869988  1
  As  As13  1  0.250000  0.237406  0.369988  1
  As  As14  1  0.750000  0.737406  0.130012  1
  As  As15  1  0.750000  0.762594  0.630012  1
  As  As16  1  0.250000  0.599960  0.392145  1
  As  As17  1  0.250000  0.900040  0.892145  1
  As  As18  1  0.750000  0.400040  0.607855  1
  As  As19  1  0.750000  0.099960  0.107855  1
  Rh  Rh20  1  0.250000  0.406981  0.489469  1
  Rh  Rh21  1  0.250000  0.093019  0.989469  1
  Rh  Rh22  1  0.750000  0.593019  0.510531  1
  Rh  Rh23  1  0.750000  0.906981  0.010531  1
  Rh  Rh24  1  0.250000  0.223089  0.180684  1
  Rh  Rh25  1  0.250000  0.276911  0.680684  1
  Rh  Rh26  1  0.750000  0.776911  0.819316  1
  Rh  Rh27  1  0.750000  0.723089  0.319316  1
  Rh  Rh28  1  0.250000  0.887900  0.700059  1
  Rh  Rh29  1  0.250000  0.612100  0.200059  1
  Rh  Rh30  1  0.750000  0.112100  0.299941  1
  Rh  Rh31  1  0.750000  0.387900  0.799941  1
  Rh  Rh32  1  0.250000  0.464373  0.933374  1
  Rh  Rh33  1  0.250000  0.035627  0.433374  1
  Rh  Rh34  1  0.750000  0.535627  0.066626  1
  Rh  Rh35  1  0.750000  0.964373  0.566626  1
