# generated using pymatgen
data_HfAgBiS4
_symmetry_space_group_name_H-M   'P 1'
_cell_length_a   7.82888082
_cell_length_b   7.82888128
_cell_length_c   7.82888100
_cell_angle_alpha   118.46237152
_cell_angle_beta   121.66309757
_cell_angle_gamma   89.91376416
_symmetry_Int_Tables_number   1
_chemical_formula_structural   HfAgBiS4
_chemical_formula_sum   'Hf2 Ag2 Bi2 S8'
_cell_volume   338.64677203
_cell_formula_units_Z   2
loop_
 _symmetry_equiv_pos_site_id
 _symmetry_equiv_pos_as_xyz
  1  'x, y, z'
loop_
 _atom_site_type_symbol
 _atom_site_label
 _atom_site_symmetry_multiplicity
 _atom_site_fract_x
 _atom_site_fract_y
 _atom_site_fract_z
 _atom_site_occupancy
  Hf  Hf0  1  0.000000  0.000000  0.000000  1
  Hf  Hf1  1  0.500000  0.000000  0.500000  1
  Ag  Ag2  1  0.364918  0.614918  0.750000  1
  Ag  Ag3  1  0.635082  0.385082  0.250000  1
  Bi  Bi4  1  0.000000  0.000000  0.500000  1
  Bi  Bi5  1  0.000000  0.500000  0.000000  1
  S  S6  1  0.251157  0.782412  0.031256  1
  S  S7  1  0.748843  0.780098  0.531256  1
  S  S8  1  0.231508  0.228237  0.003270  1
  S  S9  1  0.724967  0.228237  0.496730  1
  S  S10  1  0.768492  0.771763  0.996730  1
  S  S11  1  0.275033  0.771763  0.503270  1
  S  S12  1  0.748843  0.217588  0.968744  1
  S  S13  1  0.251157  0.219902  0.468744  1
