# generated using pymatgen
data_Tm3Lu17Bi12
_symmetry_space_group_name_H-M   'P 1'
_cell_length_a   8.13809130
_cell_length_b   9.38686300
_cell_length_c   11.80285745
_cell_angle_alpha   90.00000000
_cell_angle_beta   90.03145320
_cell_angle_gamma   90.00000000
_symmetry_Int_Tables_number   1
_chemical_formula_structural   Tm3Lu17Bi12
_chemical_formula_sum   'Tm3 Lu17 Bi12'
_cell_volume   901.63369610
_cell_formula_units_Z   1
loop_
 _symmetry_equiv_pos_site_id
 _symmetry_equiv_pos_as_xyz
  1  'x, y, z'
loop_
 _atom_site_type_symbol
 _atom_site_label
 _atom_site_symmetry_multiplicity
 _atom_site_fract_x
 _atom_site_fract_y
 _atom_site_fract_z
 _atom_site_occupancy
  Tm  Tm0  1  0.811968  0.750000  0.217649  1
  Tm  Tm1  1  0.312024  0.750000  0.282401  1
  Tm  Tm2  1  0.688159  0.250000  0.717528  1
  Lu  Lu3  1  0.024941  0.250000  0.511091  1
  Lu  Lu4  1  0.975333  0.750000  0.489189  1
  Lu  Lu5  1  0.475156  0.750000  0.010733  1
  Lu  Lu6  1  0.524670  0.250000  0.989035  1
  Lu  Lu7  1  0.355219  0.250000  0.281978  1
  Lu  Lu8  1  0.644613  0.750000  0.718015  1
  Lu  Lu9  1  0.144602  0.750000  0.781984  1
  Lu  Lu10  1  0.855403  0.250000  0.217889  1
  Lu  Lu11  1  0.188366  0.250000  0.782815  1
  Lu  Lu12  1  0.193998  0.066961  0.060288  1
  Lu  Lu13  1  0.805907  0.932997  0.939621  1
  Lu  Lu14  1  0.306081  0.932961  0.560410  1
  Lu  Lu15  1  0.805907  0.567003  0.939621  1
  Lu  Lu16  1  0.693897  0.067015  0.439677  1
  Lu  Lu17  1  0.193998  0.433039  0.060288  1
  Lu  Lu18  1  0.693897  0.432985  0.439677  1
  Lu  Lu19  1  0.306081  0.567039  0.560410  1
  Bi  Bi20  1  0.404834  0.250000  0.542214  1
  Bi  Bi21  1  0.594900  0.750000  0.457954  1
  Bi  Bi22  1  0.094772  0.750000  0.042051  1
  Bi  Bi23  1  0.905688  0.250000  0.957385  1
  Bi  Bi24  1  0.066975  0.004307  0.325807  1
  Bi  Bi25  1  0.933355  0.995968  0.674374  1
  Bi  Bi26  1  0.432343  0.996142  0.825797  1
  Bi  Bi27  1  0.933355  0.504032  0.674374  1
  Bi  Bi28  1  0.567119  0.004325  0.174071  1
  Bi  Bi29  1  0.066975  0.495693  0.325807  1
  Bi  Bi30  1  0.567119  0.495675  0.174071  1
  Bi  Bi31  1  0.432343  0.503858  0.825797  1
