# generated using pymatgen
data_Tm5SiBi2
_symmetry_space_group_name_H-M   'P 1'
_cell_length_a   7.96593300
_cell_length_b   9.10005100
_cell_length_c   11.85059500
_cell_angle_alpha   90.00000000
_cell_angle_beta   90.00000000
_cell_angle_gamma   90.00000000
_symmetry_Int_Tables_number   1
_chemical_formula_structural   Tm5SiBi2
_chemical_formula_sum   'Tm20 Si4 Bi8'
_cell_volume   859.05433105
_cell_formula_units_Z   4
loop_
 _symmetry_equiv_pos_site_id
 _symmetry_equiv_pos_as_xyz
  1  'x, y, z'
loop_
 _atom_site_type_symbol
 _atom_site_label
 _atom_site_symmetry_multiplicity
 _atom_site_fract_x
 _atom_site_fract_y
 _atom_site_fract_z
 _atom_site_occupancy
  Tm  Tm0  1  0.678863  0.944691  0.438029  1
  Tm  Tm1  1  0.821137  0.555309  0.938029  1
  Tm  Tm2  1  0.321137  0.444691  0.561971  1
  Tm  Tm3  1  0.178863  0.055309  0.061971  1
  Tm  Tm4  1  0.321137  0.055309  0.561971  1
  Tm  Tm5  1  0.178863  0.444691  0.061971  1
  Tm  Tm6  1  0.678863  0.555309  0.438029  1
  Tm  Tm7  1  0.821137  0.944691  0.938029  1
  Tm  Tm8  1  0.330494  0.750000  0.286789  1
  Tm  Tm9  1  0.169506  0.750000  0.786789  1
  Tm  Tm10  1  0.669506  0.250000  0.713211  1
  Tm  Tm11  1  0.830494  0.250000  0.213211  1
  Tm  Tm12  1  0.037567  0.750000  0.497431  1
  Tm  Tm13  1  0.462433  0.750000  0.997431  1
  Tm  Tm14  1  0.962433  0.250000  0.502569  1
  Tm  Tm15  1  0.537567  0.250000  0.002569  1
  Tm  Tm16  1  0.863087  0.750000  0.205027  1
  Tm  Tm17  1  0.636913  0.750000  0.705027  1
  Tm  Tm18  1  0.136913  0.250000  0.794973  1
  Tm  Tm19  1  0.363087  0.250000  0.294973  1
  Si  Si20  1  0.091051  0.750000  0.021079  1
  Si  Si21  1  0.408949  0.750000  0.521079  1
  Si  Si22  1  0.908949  0.250000  0.978921  1
  Si  Si23  1  0.591051  0.250000  0.478921  1
  Bi  Bi24  1  0.566432  0.988127  0.174954  1
  Bi  Bi25  1  0.933568  0.511873  0.674955  1
  Bi  Bi26  1  0.433568  0.488127  0.825045  1
  Bi  Bi27  1  0.066432  0.011873  0.325046  1
  Bi  Bi28  1  0.433568  0.011873  0.825045  1
  Bi  Bi29  1  0.066432  0.488127  0.325046  1
  Bi  Bi30  1  0.566432  0.511873  0.174954  1
  Bi  Bi31  1  0.933568  0.988127  0.674955  1
