# generated using pymatgen
data_Ho3Er13(In3Au)2
_symmetry_space_group_name_H-M   'P 1'
_cell_length_a   10.54885800
_cell_length_b   10.54885663
_cell_length_c   6.84645600
_cell_angle_alpha   90.00000000
_cell_angle_beta   90.00000000
_cell_angle_gamma   119.99999804
_symmetry_Int_Tables_number   1
_chemical_formula_structural   Ho3Er13(In3Au)2
_chemical_formula_sum   'Ho3 Er13 In6 Au2'
_cell_volume   659.79238325
_cell_formula_units_Z   1
loop_
 _symmetry_equiv_pos_site_id
 _symmetry_equiv_pos_as_xyz
  1  'x, y, z'
loop_
 _atom_site_type_symbol
 _atom_site_label
 _atom_site_symmetry_multiplicity
 _atom_site_fract_x
 _atom_site_fract_y
 _atom_site_fract_z
 _atom_site_occupancy
  Ho  Ho0  1  0.523491  0.046983  0.796347  1
  Ho  Ho1  1  0.953017  0.476509  0.796347  1
  Ho  Ho2  1  0.523491  0.476509  0.796347  1
  Er  Er3  1  0.476502  0.953002  0.296377  1
  Er  Er4  1  0.046998  0.523498  0.296377  1
  Er  Er5  1  0.476502  0.523498  0.296377  1
  Er  Er6  1  0.827281  0.654562  0.511951  1
  Er  Er7  1  0.345438  0.172719  0.511951  1
  Er  Er8  1  0.827281  0.172719  0.511951  1
  Er  Er9  1  0.172781  0.345562  0.012307  1
  Er  Er10  1  0.654438  0.827219  0.012307  1
  Er  Er11  1  0.172781  0.827219  0.012307  1
  Er  Er12  1  0.666667  0.333333  0.153200  1
  Er  Er13  1  0.333333  0.666667  0.652706  1
  Er  Er14  1  0.000000  0.000000  0.777210  1
  Er  Er15  1  0.000000  0.000000  0.277265  1
  In  In16  1  0.836119  0.672239  0.032155  1
  In  In17  1  0.327761  0.163881  0.032155  1
  In  In18  1  0.836119  0.163881  0.032155  1
  In  In19  1  0.163936  0.327870  0.532045  1
  In  In20  1  0.672130  0.836064  0.532045  1
  In  In21  1  0.163936  0.836064  0.532045  1
  Au  Au22  1  0.666667  0.333333  0.565741  1
  Au  Au23  1  0.333333  0.666667  0.066245  1
