# generated using pymatgen
data_Ho2ErSi6(Pd7Pt3)2
_symmetry_space_group_name_H-M   'P 1'
_cell_length_a   8.71025169
_cell_length_b   8.72693505
_cell_length_c   8.72704700
_cell_angle_alpha   60.00025937
_cell_angle_beta   59.93695445
_cell_angle_gamma   59.93709476
_symmetry_Int_Tables_number   1
_chemical_formula_structural   Ho2ErSi6(Pd7Pt3)2
_chemical_formula_sum   'Ho2 Er1 Si6 Pd14 Pt6'
_cell_volume   468.63159546
_cell_formula_units_Z   1
loop_
 _symmetry_equiv_pos_site_id
 _symmetry_equiv_pos_as_xyz
  1  'x, y, z'
loop_
 _atom_site_type_symbol
 _atom_site_label
 _atom_site_symmetry_multiplicity
 _atom_site_fract_x
 _atom_site_fract_y
 _atom_site_fract_z
 _atom_site_occupancy
  Ho  Ho0  1  0.250998  0.249661  0.249671  1
  Ho  Ho1  1  0.749002  0.750339  0.750329  1
  Er  Er2  1  0.000000  0.000000  0.000000  1
  Si  Si3  1  0.730355  0.268654  0.268663  1
  Si  Si4  1  0.269645  0.731346  0.731337  1
  Si  Si5  1  0.269639  0.731339  0.267680  1
  Si  Si6  1  0.730361  0.268661  0.732320  1
  Si  Si7  1  0.269645  0.267675  0.731335  1
  Si  Si8  1  0.730355  0.732325  0.268665  1
  Pd  Pd9  1  0.853182  0.382269  0.382276  1
  Pd  Pd10  1  0.146818  0.617731  0.617724  1
  Pd  Pd11  1  0.344069  0.000077  0.000089  1
  Pd  Pd12  1  0.655931  0.999923  0.999911  1
  Pd  Pd13  1  0.999993  0.344560  0.655451  1
  Pd  Pd14  1  0.000007  0.655440  0.344549  1
  Pd  Pd15  1  0.000005  0.344547  0.000004  1
  Pd  Pd16  1  0.655923  0.999927  0.344227  1
  Pd  Pd17  1  0.999995  0.655453  0.999996  1
  Pd  Pd18  1  0.344077  0.000073  0.655773  1
  Pd  Pd19  1  0.000010  0.000011  0.344545  1
  Pd  Pd20  1  0.999990  0.999989  0.655455  1
  Pd  Pd21  1  0.655927  0.344228  0.999920  1
  Pd  Pd22  1  0.344073  0.655772  0.000080  1
  Pt  Pt23  1  0.381358  0.384390  0.384396  1
  Pt  Pt24  1  0.618642  0.615610  0.615604  1
  Pt  Pt25  1  0.381357  0.384385  0.849867  1
  Pt  Pt26  1  0.381349  0.849865  0.384388  1
  Pt  Pt27  1  0.618643  0.615615  0.150133  1
  Pt  Pt28  1  0.618651  0.150135  0.615612  1
