# generated using pymatgen
data_CeTmBeRu2
_symmetry_space_group_name_H-M   'P 1'
_cell_length_a   5.53348269
_cell_length_b   5.53348306
_cell_length_c   6.63650707
_cell_angle_alpha   87.66796190
_cell_angle_beta   92.33203801
_cell_angle_gamma   115.22957785
_symmetry_Int_Tables_number   1
_chemical_formula_structural   CeTmBeRu2
_chemical_formula_sum   'Ce2 Tm2 Be2 Ru4'
_cell_volume   183.60814960
_cell_formula_units_Z   2
loop_
 _symmetry_equiv_pos_site_id
 _symmetry_equiv_pos_as_xyz
  1  'x, y, z'
loop_
 _atom_site_type_symbol
 _atom_site_label
 _atom_site_symmetry_multiplicity
 _atom_site_fract_x
 _atom_site_fract_y
 _atom_site_fract_z
 _atom_site_occupancy
  Ce  Ce0  1  0.171573  0.828427  0.602628  1
  Ce  Ce1  1  0.828427  0.171573  0.397372  1
  Tm  Tm2  1  0.339529  0.660471  0.095066  1
  Tm  Tm3  1  0.660471  0.339529  0.904934  1
  Be  Be4  1  0.000000  0.000000  0.000000  1
  Be  Be5  1  0.500000  0.500000  0.500000  1
  Ru  Ru6  1  0.844958  0.659553  0.264268  1
  Ru  Ru7  1  0.659553  0.844958  0.735732  1
  Ru  Ru8  1  0.155042  0.340447  0.735732  1
  Ru  Ru9  1  0.340447  0.155042  0.264268  1
