# generated using pymatgen
data_Sc2MnReC3
_symmetry_space_group_name_H-M   'P 1'
_cell_length_a   5.71086028
_cell_length_b   5.71086008
_cell_length_c   5.37613164
_cell_angle_alpha   68.60344441
_cell_angle_beta   68.60344327
_cell_angle_gamma   31.77411401
_symmetry_Int_Tables_number   1
_chemical_formula_structural   Sc2MnReC3
_chemical_formula_sum   'Sc2 Mn1 Re1 C3'
_cell_volume   85.42775258
_cell_formula_units_Z   1
loop_
 _symmetry_equiv_pos_site_id
 _symmetry_equiv_pos_as_xyz
  1  'x, y, z'
loop_
 _atom_site_type_symbol
 _atom_site_label
 _atom_site_symmetry_multiplicity
 _atom_site_fract_x
 _atom_site_fract_y
 _atom_site_fract_z
 _atom_site_occupancy
  Sc  Sc0  1  0.612407  0.612407  0.173151  1
  Sc  Sc1  1  0.388240  0.388240  0.834158  1
  Mn  Mn2  1  0.840874  0.840874  0.319814  1
  Re  Re3  1  0.153113  0.153113  0.673915  1
  C  C4  1  0.764149  0.764149  0.724274  1
  C  C5  1  0.246721  0.246721  0.259061  1
  C  C6  1  0.994496  0.994496  0.015627  1
