# generated using pymatgen
data_Rb2Mg(SiO3)2
_symmetry_space_group_name_H-M   'P 1'
_cell_length_a   5.93317654
_cell_length_b   5.93317629
_cell_length_c   10.65308800
_cell_angle_alpha   90.00000000
_cell_angle_beta   90.00000000
_cell_angle_gamma   110.70731904
_symmetry_Int_Tables_number   1
_chemical_formula_structural   Rb2Mg(SiO3)2
_chemical_formula_sum   'Rb4 Mg2 Si4 O12'
_cell_volume   350.78973686
_cell_formula_units_Z   2
loop_
 _symmetry_equiv_pos_site_id
 _symmetry_equiv_pos_as_xyz
  1  'x, y, z'
loop_
 _atom_site_type_symbol
 _atom_site_label
 _atom_site_symmetry_multiplicity
 _atom_site_fract_x
 _atom_site_fract_y
 _atom_site_fract_z
 _atom_site_occupancy
  Rb  Rb0  1  0.271701  0.920316  0.582047  1
  Rb  Rb1  1  0.079684  0.728299  0.917953  1
  Rb  Rb2  1  0.728299  0.079684  0.082047  1
  Rb  Rb3  1  0.920316  0.271701  0.417953  1
  Mg  Mg4  1  0.186459  0.813541  0.250000  1
  Mg  Mg5  1  0.813541  0.186459  0.750000  1
  Si  Si6  1  0.375104  0.330121  0.861568  1
  Si  Si7  1  0.330121  0.375104  0.138432  1
  Si  Si8  1  0.669879  0.624896  0.638432  1
  Si  Si9  1  0.624896  0.669879  0.361568  1
  O  O10  1  0.542187  0.457813  0.250000  1
  O  O11  1  0.493186  0.864020  0.338701  1
  O  O12  1  0.527912  0.527912  0.500000  1
  O  O13  1  0.864020  0.493186  0.661299  1
  O  O14  1  0.506814  0.135980  0.838701  1
  O  O15  1  0.082856  0.219519  0.862953  1
  O  O16  1  0.917144  0.780482  0.362953  1
  O  O17  1  0.457813  0.542187  0.750000  1
  O  O18  1  0.135980  0.506814  0.161299  1
  O  O19  1  0.219518  0.082856  0.137047  1
  O  O20  1  0.780481  0.917144  0.637047  1
  O  O21  1  0.472088  0.472088  0.000000  1
