# generated using pymatgen
data_RbNdGeSe4
_symmetry_space_group_name_H-M   'P 1'
_cell_length_a   7.17023400
_cell_length_b   6.94243688
_cell_length_c   19.06005035
_cell_angle_alpha   72.07585813
_cell_angle_beta   90.00000000
_cell_angle_gamma   90.00000000
_symmetry_Int_Tables_number   1
_chemical_formula_structural   RbNdGeSe4
_chemical_formula_sum   'Rb4 Nd4 Ge4 Se16'
_cell_volume   902.73866531
_cell_formula_units_Z   4
loop_
 _symmetry_equiv_pos_site_id
 _symmetry_equiv_pos_as_xyz
  1  'x, y, z'
loop_
 _atom_site_type_symbol
 _atom_site_label
 _atom_site_symmetry_multiplicity
 _atom_site_fract_x
 _atom_site_fract_y
 _atom_site_fract_z
 _atom_site_occupancy
  Rb  Rb0  1  0.755679  0.269849  0.466092  1
  Rb  Rb1  1  0.255679  0.730151  0.033908  1
  Rb  Rb2  1  0.244321  0.730151  0.533908  1
  Rb  Rb3  1  0.744321  0.269849  0.966092  1
  Nd  Nd4  1  0.772042  0.227964  0.225678  1
  Nd  Nd5  1  0.727958  0.227964  0.725678  1
  Nd  Nd6  1  0.272042  0.772036  0.274322  1
  Nd  Nd7  1  0.227958  0.772036  0.774322  1
  Ge  Ge8  1  0.240066  0.217746  0.336761  1
  Ge  Ge9  1  0.740066  0.782254  0.163239  1
  Ge  Ge10  1  0.759934  0.782254  0.663239  1
  Ge  Ge11  1  0.259934  0.217746  0.836761  1
  Se  Se12  1  0.500414  0.966591  0.859525  1
  Se  Se13  1  0.745152  0.578837  0.084594  1
  Se  Se14  1  0.987083  0.011767  0.851408  1
  Se  Se15  1  0.512917  0.011767  0.351408  1
  Se  Se16  1  0.012917  0.988233  0.148592  1
  Se  Se17  1  0.330385  0.427551  0.715192  1
  Se  Se18  1  0.254848  0.421163  0.915406  1
  Se  Se19  1  0.999586  0.966591  0.359525  1
  Se  Se20  1  0.245152  0.421163  0.415406  1
  Se  Se21  1  0.000414  0.033409  0.640475  1
  Se  Se22  1  0.754848  0.578837  0.584594  1
  Se  Se23  1  0.669615  0.572449  0.284808  1
  Se  Se24  1  0.487083  0.988233  0.648592  1
  Se  Se25  1  0.830385  0.572449  0.784808  1
  Se  Se26  1  0.169615  0.427551  0.215192  1
  Se  Se27  1  0.499586  0.033409  0.140475  1
