# generated using pymatgen
data_Hf4SnRh8Au3
_symmetry_space_group_name_H-M   'P 1'
_cell_length_a   5.94512900
_cell_length_b   5.95225200
_cell_length_c   7.43328300
_cell_angle_alpha   89.99994779
_cell_angle_beta   89.99841582
_cell_angle_gamma   90.00052932
_symmetry_Int_Tables_number   1
_chemical_formula_structural   Hf4SnRh8Au3
_chemical_formula_sum   'Hf4 Sn1 Rh8 Au3'
_cell_volume   263.04088661
_cell_formula_units_Z   1
loop_
 _symmetry_equiv_pos_site_id
 _symmetry_equiv_pos_as_xyz
  1  'x, y, z'
loop_
 _atom_site_type_symbol
 _atom_site_label
 _atom_site_symmetry_multiplicity
 _atom_site_fract_x
 _atom_site_fract_y
 _atom_site_fract_z
 _atom_site_occupancy
  Hf  Hf0  1  0.750162  0.249996  0.999987  1
  Hf  Hf1  1  0.249851  0.750005  0.999985  1
  Hf  Hf2  1  0.250042  0.750007  0.499996  1
  Hf  Hf3  1  0.749793  0.249998  0.499989  1
  Sn  Sn4  1  0.749838  0.750010  0.500073  1
  Rh  Rh5  1  0.500989  0.501377  0.253970  1
  Rh  Rh6  1  0.500987  0.998621  0.253966  1
  Rh  Rh7  1  0.999013  0.501244  0.254436  1
  Rh  Rh8  1  0.999005  0.998750  0.254433  1
  Rh  Rh9  1  0.999011  0.501164  0.745580  1
  Rh  Rh10  1  0.998999  0.998794  0.745553  1
  Rh  Rh11  1  0.500950  0.501316  0.746024  1
  Rh  Rh12  1  0.500958  0.998712  0.746041  1
  Au  Au13  1  0.249635  0.250013  0.000002  1
  Au  Au14  1  0.750382  0.749986  0.999968  1
  Au  Au15  1  0.250385  0.250008  0.500002  1
