# generated using pymatgen
data_Y5Lu15(Cd3Co)2
_symmetry_space_group_name_H-M   'P 1'
_cell_length_a   9.47530791
_cell_length_b   9.47727389
_cell_length_c   9.51963400
_cell_angle_alpha   90.00000000
_cell_angle_beta   90.00000000
_cell_angle_gamma   119.97855496
_symmetry_Int_Tables_number   1
_chemical_formula_structural   Y5Lu15(Cd3Co)2
_chemical_formula_sum   'Y5 Lu15 Cd6 Co2'
_cell_volume   740.49384842
_cell_formula_units_Z   1
loop_
 _symmetry_equiv_pos_site_id
 _symmetry_equiv_pos_as_xyz
  1  'x, y, z'
loop_
 _atom_site_type_symbol
 _atom_site_label
 _atom_site_symmetry_multiplicity
 _atom_site_fract_x
 _atom_site_fract_y
 _atom_site_fract_z
 _atom_site_occupancy
  Y  Y0  1  0.541217  0.084101  0.250000  1
  Y  Y1  1  0.915569  0.458930  0.250000  1
  Y  Y2  1  0.457771  0.541818  0.750000  1
  Y  Y3  1  0.458060  0.917976  0.750000  1
  Y  Y4  1  0.081575  0.541665  0.750000  1
  Lu  Lu5  1  0.000380  0.999579  0.499841  1
  Lu  Lu6  1  0.000380  0.999579  0.000159  1
  Lu  Lu7  1  0.212262  0.787775  0.435164  1
  Lu  Lu8  1  0.212728  0.422980  0.435155  1
  Lu  Lu9  1  0.577056  0.787204  0.435165  1
  Lu  Lu10  1  0.788296  0.211554  0.563707  1
  Lu  Lu11  1  0.786929  0.575957  0.563052  1
  Lu  Lu12  1  0.424277  0.213084  0.563131  1
  Lu  Lu13  1  0.788296  0.211554  0.936293  1
  Lu  Lu14  1  0.786929  0.575957  0.936948  1
  Lu  Lu15  1  0.424277  0.213084  0.936869  1
  Lu  Lu16  1  0.212262  0.787775  0.064836  1
  Lu  Lu17  1  0.212728  0.422980  0.064845  1
  Lu  Lu18  1  0.577056  0.787204  0.064835  1
  Lu  Lu19  1  0.540227  0.459273  0.250000  1
  Cd  Cd20  1  0.886717  0.114628  0.250000  1
  Cd  Cd21  1  0.883280  0.770746  0.250000  1
  Cd  Cd22  1  0.229088  0.116151  0.250000  1
  Cd  Cd23  1  0.113197  0.887159  0.750000  1
  Cd  Cd24  1  0.113531  0.226603  0.750000  1
  Cd  Cd25  1  0.773232  0.886400  0.750000  1
  Co  Co26  1  0.334317  0.665022  0.250000  1
  Co  Co27  1  0.668366  0.333260  0.750000  1
