# generated using pymatgen
data_LuHf5(InRh2)6
_symmetry_space_group_name_H-M   'P 1'
_cell_length_a   4.69433844
_cell_length_b   6.26520800
_cell_length_c   14.09714523
_cell_angle_alpha   90.00000000
_cell_angle_beta   96.22191200
_cell_angle_gamma   90.00000000
_symmetry_Int_Tables_number   1
_chemical_formula_structural   LuHf5(InRh2)6
_chemical_formula_sum   'Lu1 Hf5 In6 Rh12'
_cell_volume   412.16900243
_cell_formula_units_Z   1
loop_
 _symmetry_equiv_pos_site_id
 _symmetry_equiv_pos_as_xyz
  1  'x, y, z'
loop_
 _atom_site_type_symbol
 _atom_site_label
 _atom_site_symmetry_multiplicity
 _atom_site_fract_x
 _atom_site_fract_y
 _atom_site_fract_z
 _atom_site_occupancy
  Lu  Lu0  1  0.000000  0.000000  0.000000  1
  Hf  Hf1  1  0.500702  0.500001  0.166476  1
  Hf  Hf2  1  0.001252  0.000000  0.333040  1
  Hf  Hf3  1  0.499999  0.500001  0.500001  1
  Hf  Hf4  1  0.998748  0.000000  0.666960  1
  Hf  Hf5  1  0.499298  0.500001  0.833524  1
  In  In6  1  0.000000  0.500001  0.000000  1
  In  In7  1  0.502086  0.000000  0.166081  1
  In  In8  1  0.000368  0.500001  0.334590  1
  In  In9  1  0.499999  0.000000  0.500001  1
  In  In10  1  0.999634  0.500001  0.665410  1
  In  In11  1  0.497916  0.000000  0.833919  1
  Rh  Rh12  1  0.500001  0.256924  0.000000  1
  Rh  Rh13  1  0.500001  0.743076  0.000000  1
  Rh  Rh14  1  0.001547  0.254987  0.170615  1
  Rh  Rh15  1  0.001547  0.745014  0.170615  1
  Rh  Rh16  1  0.501399  0.247841  0.333726  1
  Rh  Rh17  1  0.501399  0.752160  0.333726  1
  Rh  Rh18  1  0.000000  0.251238  0.500001  1
  Rh  Rh19  1  0.000000  0.748761  0.500001  1
  Rh  Rh20  1  0.498601  0.247841  0.666273  1
  Rh  Rh21  1  0.498601  0.752160  0.666273  1
  Rh  Rh22  1  0.998453  0.254987  0.829385  1
  Rh  Rh23  1  0.998453  0.745014  0.829385  1
