# generated using pymatgen
data_Tm3Mn2(Al6Pt)2
_symmetry_space_group_name_H-M   'P 1'
_cell_length_a   8.80384487
_cell_length_b   8.74193061
_cell_length_c   9.41319600
_cell_angle_alpha   90.00000000
_cell_angle_beta   90.00000000
_cell_angle_gamma   119.76763430
_symmetry_Int_Tables_number   1
_chemical_formula_structural   Tm3Mn2(Al6Pt)2
_chemical_formula_sum   'Tm6 Mn4 Al24 Pt4'
_cell_volume   628.86815443
_cell_formula_units_Z   2
loop_
 _symmetry_equiv_pos_site_id
 _symmetry_equiv_pos_as_xyz
  1  'x, y, z'
loop_
 _atom_site_type_symbol
 _atom_site_label
 _atom_site_symmetry_multiplicity
 _atom_site_fract_x
 _atom_site_fract_y
 _atom_site_fract_z
 _atom_site_occupancy
  Tm  Tm0  1  0.187517  0.387350  0.250000  1
  Tm  Tm1  1  0.812483  0.612650  0.750000  1
  Tm  Tm2  1  0.615715  0.807858  0.250000  1
  Tm  Tm3  1  0.384285  0.192142  0.750000  1
  Tm  Tm4  1  0.187517  0.800166  0.250000  1
  Tm  Tm5  1  0.812483  0.199834  0.750000  1
  Mn  Mn6  1  0.000000  0.500000  0.000000  1
  Mn  Mn7  1  0.000000  0.500000  0.500000  1
  Mn  Mn8  1  0.000000  0.000000  0.000000  1
  Mn  Mn9  1  0.000000  0.000000  0.500000  1
  Al  Al10  1  0.323407  0.661704  0.024269  1
  Al  Al11  1  0.676593  0.338296  0.975731  1
  Al  Al12  1  0.676593  0.338296  0.524269  1
  Al  Al13  1  0.323407  0.661704  0.475731  1
  Al  Al14  1  0.154479  0.321176  0.576576  1
  Al  Al15  1  0.845521  0.678824  0.423424  1
  Al  Al16  1  0.683873  0.841936  0.579333  1
  Al  Al17  1  0.845521  0.678824  0.076576  1
  Al  Al18  1  0.316127  0.158064  0.420667  1
  Al  Al19  1  0.154479  0.321176  0.923424  1
  Al  Al20  1  0.154479  0.833303  0.576576  1
  Al  Al21  1  0.316127  0.158064  0.079333  1
  Al  Al22  1  0.845521  0.166697  0.423424  1
  Al  Al23  1  0.683873  0.841936  0.920667  1
  Al  Al24  1  0.845521  0.166697  0.076576  1
  Al  Al25  1  0.154479  0.833303  0.923424  1
  Al  Al26  1  0.563761  0.127695  0.250000  1
  Al  Al27  1  0.436239  0.872305  0.750000  1
  Al  Al28  1  0.878885  0.439442  0.250000  1
  Al  Al29  1  0.121115  0.560558  0.750000  1
  Al  Al30  1  0.563761  0.436067  0.250000  1
  Al  Al31  1  0.436239  0.563933  0.750000  1
  Al  Al32  1  0.998957  0.999479  0.250000  1
  Al  Al33  1  0.001043  0.000521  0.750000  1
  Pt  Pt34  1  0.500000  0.000000  0.000000  1
  Pt  Pt35  1  0.500000  0.000000  0.500000  1
  Pt  Pt36  1  0.500000  0.500000  0.000000  1
  Pt  Pt37  1  0.500000  0.500000  0.500000  1
