# generated using pymatgen
data_GdAl6(ZnCu2)2
_symmetry_space_group_name_H-M   'P 1'
_cell_length_a   5.20615317
_cell_length_b   6.75055728
_cell_length_c   6.75055800
_cell_angle_alpha   98.90998869
_cell_angle_beta   112.68155867
_cell_angle_gamma   67.31844562
_symmetry_Int_Tables_number   1
_chemical_formula_structural   GdAl6(ZnCu2)2
_chemical_formula_sum   'Gd1 Al6 Zn2 Cu4'
_cell_volume   201.96228909
_cell_formula_units_Z   1
loop_
 _symmetry_equiv_pos_site_id
 _symmetry_equiv_pos_as_xyz
  1  'x, y, z'
loop_
 _atom_site_type_symbol
 _atom_site_label
 _atom_site_symmetry_multiplicity
 _atom_site_fract_x
 _atom_site_fract_y
 _atom_site_fract_z
 _atom_site_occupancy
  Gd  Gd0  1  0.000000  0.000000  0.000000  1
  Al  Al1  1  0.653367  0.346633  0.653367  1
  Al  Al2  1  0.346633  0.653367  0.346633  1
  Al  Al3  1  0.000000  0.347188  0.347188  1
  Al  Al4  1  0.000000  0.652812  0.652812  1
  Al  Al5  1  0.713324  0.786676  0.213324  1
  Al  Al6  1  0.286676  0.213324  0.786676  1
  Zn  Zn7  1  0.500000  0.778678  0.778678  1
  Zn  Zn8  1  0.500000  0.221322  0.221322  1
  Cu  Cu9  1  0.500000  0.000000  0.500000  1
  Cu  Cu10  1  0.000000  0.000000  0.500000  1
  Cu  Cu11  1  0.500000  0.500000  0.000000  1
  Cu  Cu12  1  0.000000  0.500000  0.000000  1
