# generated using pymatgen
data_Lu10Tl5Te
_symmetry_space_group_name_H-M   'P 1'
_cell_length_a   8.81920100
_cell_length_b   8.78560090
_cell_length_c   6.55044800
_cell_angle_alpha   90.00000000
_cell_angle_beta   90.00000000
_cell_angle_gamma   120.12659644
_symmetry_Int_Tables_number   1
_chemical_formula_structural   Lu10Tl5Te
_chemical_formula_sum   'Lu10 Tl5 Te1'
_cell_volume   438.98220506
_cell_formula_units_Z   1
loop_
 _symmetry_equiv_pos_site_id
 _symmetry_equiv_pos_as_xyz
  1  'x, y, z'
loop_
 _atom_site_type_symbol
 _atom_site_label
 _atom_site_symmetry_multiplicity
 _atom_site_fract_x
 _atom_site_fract_y
 _atom_site_fract_z
 _atom_site_occupancy
  Lu  Lu0  1  0.672643  0.339444  0.004818  1
  Lu  Lu1  1  0.333200  0.660556  0.495182  1
  Lu  Lu2  1  0.333200  0.660556  0.004818  1
  Lu  Lu3  1  0.672643  0.339444  0.495182  1
  Lu  Lu4  1  0.771368  0.000000  0.750000  1
  Lu  Lu5  1  0.762714  0.762746  0.250000  1
  Lu  Lu6  1  0.999968  0.237254  0.250000  1
  Lu  Lu7  1  0.991227  0.756183  0.750000  1
  Lu  Lu8  1  0.235045  0.243817  0.750000  1
  Lu  Lu9  1  0.235612  0.000000  0.250000  1
  Tl  Tl10  1  0.397729  0.393878  0.250000  1
  Tl  Tl11  1  0.003852  0.606122  0.250000  1
  Tl  Tl12  1  0.997866  0.398526  0.750000  1
  Tl  Tl13  1  0.599340  0.601474  0.750000  1
  Tl  Tl14  1  0.602462  0.000000  0.250000  1
  Te  Te15  1  0.391131  0.000000  0.750000  1
