# generated using pymatgen
data_Tb5Yb2Y3(In2Pt)4
_symmetry_space_group_name_H-M   'P 1'
_cell_length_a   3.62443000
_cell_length_b   8.21891222
_cell_length_c   18.44220549
_cell_angle_alpha   89.97360902
_cell_angle_beta   90.00000000
_cell_angle_gamma   90.00000000
_symmetry_Int_Tables_number   1
_chemical_formula_structural   Tb5Yb2Y3(In2Pt)4
_chemical_formula_sum   'Tb5 Yb2 Y3 In8 Pt4'
_cell_volume   549.37244062
_cell_formula_units_Z   1
loop_
 _symmetry_equiv_pos_site_id
 _symmetry_equiv_pos_as_xyz
  1  'x, y, z'
loop_
 _atom_site_type_symbol
 _atom_site_label
 _atom_site_symmetry_multiplicity
 _atom_site_fract_x
 _atom_site_fract_y
 _atom_site_fract_z
 _atom_site_occupancy
  Tb  Tb0  1  0.000000  0.618722  0.085625  1
  Tb  Tb1  1  0.000000  0.243520  0.220280  1
  Tb  Tb2  1  0.000000  0.756369  0.779733  1
  Tb  Tb3  1  0.000000  0.256331  0.720250  1
  Tb  Tb4  1  0.000000  0.743804  0.279775  1
  Yb  Yb5  1  0.000000  0.999888  0.000023  1
  Yb  Yb6  1  0.000000  0.500012  0.500006  1
  Y  Y7  1  0.000000  0.118803  0.414569  1
  Y  Y8  1  0.000000  0.881153  0.585431  1
  Y  Y9  1  0.000000  0.381211  0.914611  1
  In  In10  1  0.500000  0.424772  0.351159  1
  In  In11  1  0.500000  0.575192  0.648867  1
  In  In12  1  0.500000  0.075181  0.851116  1
  In  In13  1  0.500000  0.925044  0.148904  1
  In  In14  1  0.500000  0.291913  0.067113  1
  In  In15  1  0.500000  0.707943  0.932779  1
  In  In16  1  0.500000  0.207864  0.567137  1
  In  In17  1  0.500000  0.792168  0.432850  1
  Pt  Pt18  1  0.500000  0.023532  0.302744  1
  Pt  Pt19  1  0.500000  0.976498  0.697255  1
  Pt  Pt20  1  0.500000  0.476484  0.802720  1
  Pt  Pt21  1  0.500000  0.523596  0.197053  1
