# generated using pymatgen
data_ErScBeB3Ru5
_symmetry_space_group_name_H-M   'P 1'
_cell_length_a   3.06384300
_cell_length_b   8.63884253
_cell_length_c   10.22466019
_cell_angle_alpha   90.60669501
_cell_angle_beta   90.00000000
_cell_angle_gamma   90.00000000
_symmetry_Int_Tables_number   1
_chemical_formula_structural   ErScBeB3Ru5
_chemical_formula_sum   'Er2 Sc2 Be2 B6 Ru10'
_cell_volume   270.61171933
_cell_formula_units_Z   2
loop_
 _symmetry_equiv_pos_site_id
 _symmetry_equiv_pos_as_xyz
  1  'x, y, z'
loop_
 _atom_site_type_symbol
 _atom_site_label
 _atom_site_symmetry_multiplicity
 _atom_site_fract_x
 _atom_site_fract_y
 _atom_site_fract_z
 _atom_site_occupancy
  Er  Er0  1  0.500000  0.841018  0.184279  1
  Er  Er1  1  0.500000  0.158982  0.815721  1
  Sc  Sc2  1  0.500000  0.656049  0.678309  1
  Sc  Sc3  1  0.500000  0.343951  0.321691  1
  Be  Be4  1  0.500000  0.960643  0.593009  1
  Be  Be5  1  0.500000  0.039357  0.406991  1
  B  B6  1  0.500000  0.850056  0.897574  1
  B  B7  1  0.500000  0.149944  0.102426  1
  B  B8  1  0.500000  0.651247  0.404341  1
  B  B9  1  0.500000  0.348753  0.595659  1
  B  B10  1  0.500000  0.467022  0.910073  1
  B  B11  1  0.500000  0.532978  0.089927  1
  Ru  Ru12  1  0.000000  0.656582  0.957282  1
  Ru  Ru13  1  0.000000  0.343418  0.042718  1
  Ru  Ru14  1  0.000000  0.830983  0.450276  1
  Ru  Ru15  1  0.000000  0.169017  0.549724  1
  Ru  Ru16  1  0.000000  0.000000  0.000000  1
  Ru  Ru17  1  0.000000  0.413473  0.759826  1
  Ru  Ru18  1  0.000000  0.586527  0.240174  1
  Ru  Ru19  1  0.000000  0.500000  0.500000  1
  Ru  Ru20  1  0.000000  0.890335  0.747191  1
  Ru  Ru21  1  0.000000  0.109665  0.252809  1
