# generated using pymatgen
data_Ho12Cd2Fe2Os
_symmetry_space_group_name_H-M   'P 1'
_cell_length_a   8.28085357
_cell_length_b   8.28094437
_cell_length_c   8.28085300
_cell_angle_alpha   108.47834525
_cell_angle_beta   108.47759953
_cell_angle_gamma   111.47606747
_symmetry_Int_Tables_number   1
_chemical_formula_structural   Ho12Cd2Fe2Os
_chemical_formula_sum   'Ho12 Cd2 Fe2 Os1'
_cell_volume   436.72690125
_cell_formula_units_Z   1
loop_
 _symmetry_equiv_pos_site_id
 _symmetry_equiv_pos_as_xyz
  1  'x, y, z'
loop_
 _atom_site_type_symbol
 _atom_site_label
 _atom_site_symmetry_multiplicity
 _atom_site_fract_x
 _atom_site_fract_y
 _atom_site_fract_z
 _atom_site_occupancy
  Ho  Ho0  1  0.308204  0.308180  0.616402  1
  Ho  Ho1  1  0.691796  0.691820  0.383598  1
  Ho  Ho2  1  0.308222  0.691820  0.000024  1
  Ho  Ho3  1  0.691778  0.308180  0.999976  1
  Ho  Ho4  1  0.430497  0.191887  0.238639  1
  Ho  Ho5  1  0.569503  0.808113  0.761361  1
  Ho  Ho6  1  0.953246  0.191887  0.761390  1
  Ho  Ho7  1  0.191883  0.953263  0.761381  1
  Ho  Ho8  1  0.046754  0.808113  0.238610  1
  Ho  Ho9  1  0.808117  0.046737  0.238619  1
  Ho  Ho10  1  0.191879  0.430513  0.238634  1
  Ho  Ho11  1  0.808121  0.569487  0.761366  1
  Cd  Cd12  1  0.500000  0.000000  0.500000  1
  Cd  Cd13  1  0.000000  0.500000  0.500000  1
  Fe  Fe14  1  0.384156  0.384155  0.000000  1
  Fe  Fe15  1  0.615844  0.615845  0.000000  1
  Os  Os16  1  0.000000  0.000000  0.000000  1
