# generated using pymatgen
data_K3Pb4Au
_symmetry_space_group_name_H-M   'P 1'
_cell_length_a   6.98559700
_cell_length_b   6.95779700
_cell_length_c   12.98724300
_cell_angle_alpha   90.00000000
_cell_angle_beta   90.00000000
_cell_angle_gamma   90.00000000
_symmetry_Int_Tables_number   1
_chemical_formula_structural   K3Pb4Au
_chemical_formula_sum   'K6 Pb8 Au2'
_cell_volume   631.23671015
_cell_formula_units_Z   2
loop_
 _symmetry_equiv_pos_site_id
 _symmetry_equiv_pos_as_xyz
  1  'x, y, z'
loop_
 _atom_site_type_symbol
 _atom_site_label
 _atom_site_symmetry_multiplicity
 _atom_site_fract_x
 _atom_site_fract_y
 _atom_site_fract_z
 _atom_site_occupancy
  K  K0  1  0.557576  0.000000  0.000000  1
  K  K1  1  0.442424  0.500000  0.500000  1
  K  K2  1  0.827686  0.500000  0.749426  1
  K  K3  1  0.827686  0.500000  0.250574  1
  K  K4  1  0.172314  0.000000  0.750574  1
  K  K5  1  0.172314  0.000000  0.249426  1
  Pb  Pb6  1  0.333322  0.500000  0.873373  1
  Pb  Pb7  1  0.333322  0.500000  0.126627  1
  Pb  Pb8  1  0.038299  0.257982  0.000000  1
  Pb  Pb9  1  0.038299  0.742018  0.000000  1
  Pb  Pb10  1  0.961701  0.757982  0.500000  1
  Pb  Pb11  1  0.961701  0.242018  0.500000  1
  Pb  Pb12  1  0.666678  0.000000  0.373373  1
  Pb  Pb13  1  0.666678  0.000000  0.626627  1
  Au  Au14  1  0.686443  0.500000  0.000000  1
  Au  Au15  1  0.313557  0.000000  0.500000  1
