# generated using pymatgen
data_YbTh7(Pt2Pb)4
_symmetry_space_group_name_H-M   'P 1'
_cell_length_a   8.05815843
_cell_length_b   8.05815890
_cell_length_c   7.57006900
_cell_angle_alpha   90.00000000
_cell_angle_beta   90.00000000
_cell_angle_gamma   90.22260180
_symmetry_Int_Tables_number   1
_chemical_formula_structural   YbTh7(Pt2Pb)4
_chemical_formula_sum   'Yb1 Th7 Pt8 Pb4'
_cell_volume   491.55055328
_cell_formula_units_Z   1
loop_
 _symmetry_equiv_pos_site_id
 _symmetry_equiv_pos_as_xyz
  1  'x, y, z'
loop_
 _atom_site_type_symbol
 _atom_site_label
 _atom_site_symmetry_multiplicity
 _atom_site_fract_x
 _atom_site_fract_y
 _atom_site_fract_z
 _atom_site_occupancy
  Yb  Yb0  1  0.166016  0.833984  0.000000  1
  Th  Th1  1  0.675044  0.677028  0.000000  1
  Th  Th2  1  0.332802  0.333186  0.500000  1
  Th  Th3  1  0.826359  0.173641  0.500000  1
  Th  Th4  1  0.666814  0.667198  0.500000  1
  Th  Th5  1  0.322972  0.324956  0.000000  1
  Th  Th6  1  0.176154  0.823846  0.500000  1
  Th  Th7  1  0.836473  0.163527  0.000000  1
  Pt  Pt8  1  0.869949  0.873271  0.738573  1
  Pt  Pt9  1  0.126729  0.130051  0.738573  1
  Pt  Pt10  1  0.629599  0.370401  0.760170  1
  Pt  Pt11  1  0.629599  0.370401  0.239830  1
  Pt  Pt12  1  0.374849  0.625151  0.241182  1
  Pt  Pt13  1  0.126729  0.130051  0.261427  1
  Pt  Pt14  1  0.869949  0.873271  0.261427  1
  Pt  Pt15  1  0.374849  0.625151  0.758818  1
  Pb  Pb16  1  0.495036  0.997480  0.753632  1
  Pb  Pb17  1  0.495036  0.997480  0.246368  1
  Pb  Pb18  1  0.002520  0.504964  0.753632  1
  Pb  Pb19  1  0.002520  0.504964  0.246368  1
