# generated using pymatgen
data_Er4Lu8TlZnCo4
_symmetry_space_group_name_H-M   'P 1'
_cell_length_a   8.17058084
_cell_length_b   8.17057974
_cell_length_c   8.17058044
_cell_angle_alpha   110.17742882
_cell_angle_beta   111.77513444
_cell_angle_gamma   106.50545409
_symmetry_Int_Tables_number   1
_chemical_formula_structural   Er4Lu8TlZnCo4
_chemical_formula_sum   'Er4 Lu8 Tl1 Zn1 Co4'
_cell_volume   418.96689556
_cell_formula_units_Z   1
loop_
 _symmetry_equiv_pos_site_id
 _symmetry_equiv_pos_as_xyz
  1  'x, y, z'
loop_
 _atom_site_type_symbol
 _atom_site_label
 _atom_site_symmetry_multiplicity
 _atom_site_fract_x
 _atom_site_fract_y
 _atom_site_fract_z
 _atom_site_occupancy
  Er  Er0  1  0.226070  0.430178  0.204108  1
  Er  Er1  1  0.773930  0.569822  0.795892  1
  Er  Er2  1  0.226070  0.021961  0.795892  1
  Er  Er3  1  0.773930  0.978039  0.204108  1
  Lu  Lu4  1  0.286606  0.183089  0.469696  1
  Lu  Lu5  1  0.713394  0.816911  0.530304  1
  Lu  Lu6  1  0.286606  0.816911  0.103516  1
  Lu  Lu7  1  0.713394  0.183089  0.896484  1
  Lu  Lu8  1  0.620589  0.316223  0.304365  1
  Lu  Lu9  1  0.379411  0.683777  0.695635  1
  Lu  Lu10  1  0.011859  0.316223  0.695635  1
  Lu  Lu11  1  0.988141  0.683777  0.304365  1
  Tl  Tl12  1  0.500000  0.500000  0.000000  1
  Zn  Zn13  1  0.000000  0.000000  0.000000  1
  Co  Co14  1  0.000000  0.374982  0.374982  1
  Co  Co15  1  0.000000  0.625018  0.625018  1
  Co  Co16  1  0.385775  0.885775  0.500000  1
  Co  Co17  1  0.614225  0.114225  0.500000  1
