# generated using pymatgen
data_Th5Mg6ScAu6
_symmetry_space_group_name_H-M   'P 1'
_cell_length_a   7.61079414
_cell_length_b   7.61127704
_cell_length_c   8.55769300
_cell_angle_alpha   90.00000000
_cell_angle_beta   90.00000000
_cell_angle_gamma   120.17496182
_symmetry_Int_Tables_number   1
_chemical_formula_structural   Th5Mg6ScAu6
_chemical_formula_sum   'Th5 Mg6 Sc1 Au6'
_cell_volume   428.55489642
_cell_formula_units_Z   1
loop_
 _symmetry_equiv_pos_site_id
 _symmetry_equiv_pos_as_xyz
  1  'x, y, z'
loop_
 _atom_site_type_symbol
 _atom_site_label
 _atom_site_symmetry_multiplicity
 _atom_site_fract_x
 _atom_site_fract_y
 _atom_site_fract_z
 _atom_site_occupancy
  Th  Th0  1  0.586174  0.002490  0.750000  1
  Th  Th1  1  0.002289  0.586064  0.750000  1
  Th  Th2  1  0.425405  0.425240  0.750000  1
  Th  Th3  1  0.997406  0.578350  0.250000  1
  Th  Th4  1  0.578315  0.997263  0.250000  1
  Mg  Mg5  1  0.753972  0.754001  0.009771  1
  Mg  Mg6  1  0.243029  0.006830  0.002483  1
  Mg  Mg7  1  0.006937  0.243051  0.002422  1
  Mg  Mg8  1  0.753972  0.754001  0.490229  1
  Mg  Mg9  1  0.243029  0.006830  0.497517  1
  Mg  Mg10  1  0.006937  0.243051  0.497578  1
  Sc  Sc11  1  0.406542  0.406685  0.250000  1
  Au  Au12  1  0.996530  0.996434  0.750000  1
  Au  Au13  1  0.004526  0.004512  0.250000  1
  Au  Au14  1  0.663740  0.333747  0.005067  1
  Au  Au15  1  0.663740  0.333747  0.494933  1
  Au  Au16  1  0.333730  0.663851  0.495352  1
  Au  Au17  1  0.333730  0.663851  0.004648  1
