# generated using pymatgen
data_HfU8S16Br
_symmetry_space_group_name_H-M   'P 1'
_cell_length_a   7.93616325
_cell_length_b   7.93616127
_cell_length_c   10.57158878
_cell_angle_alpha   79.93770234
_cell_angle_beta   79.93770651
_cell_angle_gamma   64.60847582
_symmetry_Int_Tables_number   1
_chemical_formula_structural   HfU8S16Br
_chemical_formula_sum   'Hf1 U8 S16 Br1'
_cell_volume   588.51554621
_cell_formula_units_Z   1
loop_
 _symmetry_equiv_pos_site_id
 _symmetry_equiv_pos_as_xyz
  1  'x, y, z'
loop_
 _atom_site_type_symbol
 _atom_site_label
 _atom_site_symmetry_multiplicity
 _atom_site_fract_x
 _atom_site_fract_y
 _atom_site_fract_z
 _atom_site_occupancy
  Hf  Hf0  1  0.999410  0.999410  0.000055  1
  U  U1  1  0.795883  0.795883  0.460470  1
  U  U2  1  0.208344  0.208344  0.538748  1
  U  U3  1  0.698753  0.186945  0.698418  1
  U  U4  1  0.186945  0.698753  0.698418  1
  U  U5  1  0.830806  0.294287  0.310045  1
  U  U6  1  0.692760  0.692760  0.978683  1
  U  U7  1  0.304682  0.304682  0.004693  1
  U  U8  1  0.294287  0.830806  0.310045  1
  S  S9  1  0.691649  0.691649  0.247723  1
  S  S10  1  0.573512  0.177997  0.467437  1
  S  S11  1  0.063169  0.668764  0.968238  1
  S  S12  1  0.212433  0.212433  0.274326  1
  S  S13  1  0.432690  0.827263  0.535944  1
  S  S14  1  0.517924  0.517924  0.827508  1
  S  S15  1  0.668764  0.063169  0.968238  1
  S  S16  1  0.937214  0.937214  0.235878  1
  S  S17  1  0.062359  0.062359  0.764977  1
  S  S18  1  0.301581  0.301581  0.749198  1
  S  S19  1  0.328243  0.930366  0.033931  1
  S  S20  1  0.827263  0.432690  0.535944  1
  S  S21  1  0.930366  0.328243  0.033931  1
  S  S22  1  0.177997  0.573512  0.467437  1
  S  S23  1  0.002914  0.002914  0.500763  1
  S  S24  1  0.791546  0.791546  0.721735  1
  Br  Br25  1  0.468508  0.468508  0.167218  1
