# generated using pymatgen
data_Ho5Mo3(P3Ir4)4
_symmetry_space_group_name_H-M   'P 1'
_cell_length_a   12.66793800
_cell_length_b   12.66793703
_cell_length_c   3.98648600
_cell_angle_alpha   90.00000000
_cell_angle_beta   90.00000000
_cell_angle_gamma   120.00000254
_symmetry_Int_Tables_number   1
_chemical_formula_structural   Ho5Mo3(P3Ir4)4
_chemical_formula_sum   'Ho5 Mo3 P12 Ir16'
_cell_volume   554.02924354
_cell_formula_units_Z   1
loop_
 _symmetry_equiv_pos_site_id
 _symmetry_equiv_pos_as_xyz
  1  'x, y, z'
loop_
 _atom_site_type_symbol
 _atom_site_label
 _atom_site_symmetry_multiplicity
 _atom_site_fract_x
 _atom_site_fract_y
 _atom_site_fract_z
 _atom_site_occupancy
  Ho  Ho0  1  0.333333  0.666667  0.500000  1
  Ho  Ho1  1  0.666667  0.333333  0.500000  1
  Ho  Ho2  1  0.000000  0.812973  0.000000  1
  Ho  Ho3  1  0.187027  0.187027  0.000000  1
  Ho  Ho4  1  0.812973  0.000000  0.000000  1
  Mo  Mo5  1  0.000000  0.453447  0.500000  1
  Mo  Mo6  1  0.546553  0.546553  0.500000  1
  Mo  Mo7  1  0.453447  0.000000  0.500000  1
  P  P8  1  0.000000  0.638864  0.500000  1
  P  P9  1  0.361136  0.361136  0.500000  1
  P  P10  1  0.638864  0.000000  0.500000  1
  P  P11  1  0.516114  0.684314  0.000000  1
  P  P12  1  0.315686  0.831800  0.000000  1
  P  P13  1  0.168200  0.483886  0.000000  1
  P  P14  1  0.483886  0.168200  0.000000  1
  P  P15  1  0.684314  0.516114  0.000000  1
  P  P16  1  0.831800  0.315686  0.000000  1
  P  P17  1  0.000000  0.176829  0.500000  1
  P  P18  1  0.823171  0.823171  0.500000  1
  P  P19  1  0.176829  0.000000  0.500000  1
  Ir  Ir20  1  0.509035  0.866512  0.000000  1
  Ir  Ir21  1  0.133488  0.642524  0.000000  1
  Ir  Ir22  1  0.357476  0.490965  0.000000  1
  Ir  Ir23  1  0.490965  0.357476  0.000000  1
  Ir  Ir24  1  0.866512  0.509035  0.000000  1
  Ir  Ir25  1  0.642524  0.133488  0.000000  1
  Ir  Ir26  1  0.000000  0.286461  0.000000  1
  Ir  Ir27  1  0.713539  0.713539  0.000000  1
  Ir  Ir28  1  0.286461  0.000000  0.000000  1
  Ir  Ir29  1  0.625865  0.804616  0.500000  1
  Ir  Ir30  1  0.195384  0.821249  0.500000  1
  Ir  Ir31  1  0.178751  0.374135  0.500000  1
  Ir  Ir32  1  0.374135  0.178751  0.500000  1
  Ir  Ir33  1  0.804616  0.625865  0.500000  1
  Ir  Ir34  1  0.821249  0.195384  0.500000  1
  Ir  Ir35  1  0.000000  0.000000  0.500000  1
