# generated using pymatgen
data_TbCeY2(Hf3Si4)2
_symmetry_space_group_name_H-M   'P 1'
_cell_length_a   7.30120343
_cell_length_b   7.30048865
_cell_length_c   13.39775000
_cell_angle_alpha   90.00000000
_cell_angle_beta   90.00000000
_cell_angle_gamma   90.04382249
_symmetry_Int_Tables_number   1
_chemical_formula_structural   TbCeY2(Hf3Si4)2
_chemical_formula_sum   'Tb2 Ce2 Y4 Hf12 Si16'
_cell_volume   714.13138786
_cell_formula_units_Z   2
loop_
 _symmetry_equiv_pos_site_id
 _symmetry_equiv_pos_as_xyz
  1  'x, y, z'
loop_
 _atom_site_type_symbol
 _atom_site_label
 _atom_site_symmetry_multiplicity
 _atom_site_fract_x
 _atom_site_fract_y
 _atom_site_fract_z
 _atom_site_occupancy
  Tb  Tb0  1  0.344048  0.994422  0.785108  1
  Tb  Tb1  1  0.655952  0.005578  0.285108  1
  Ce  Ce2  1  0.994487  0.343975  0.213710  1
  Ce  Ce3  1  0.005513  0.656025  0.713710  1
  Y  Y4  1  0.155546  0.496135  0.465931  1
  Y  Y5  1  0.503283  0.844744  0.034787  1
  Y  Y6  1  0.844454  0.503865  0.965931  1
  Y  Y7  1  0.496717  0.155256  0.534787  1
  Hf  Hf8  1  0.174334  0.174878  0.000796  1
  Hf  Hf9  1  0.825666  0.825122  0.500796  1
  Hf  Hf10  1  0.323700  0.673890  0.250150  1
  Hf  Hf11  1  0.676300  0.326110  0.750150  1
  Hf  Hf12  1  0.150485  0.998425  0.374465  1
  Hf  Hf13  1  0.849515  0.001575  0.874465  1
  Hf  Hf14  1  0.504267  0.648543  0.624208  1
  Hf  Hf15  1  0.350265  0.495834  0.875044  1
  Hf  Hf16  1  0.495733  0.351457  0.124208  1
  Hf  Hf17  1  0.649735  0.504166  0.375044  1
  Hf  Hf18  1  0.996152  0.149076  0.625557  1
  Hf  Hf19  1  0.003848  0.850924  0.125557  1
  Si  Si20  1  0.362524  0.296479  0.317098  1
  Si  Si21  1  0.637476  0.703521  0.817098  1
  Si  Si22  1  0.205648  0.863453  0.565646  1
  Si  Si23  1  0.137759  0.795707  0.933958  1
  Si  Si24  1  0.794352  0.136547  0.065646  1
  Si  Si25  1  0.862241  0.204293  0.433958  1
  Si  Si26  1  0.296495  0.360922  0.683119  1
  Si  Si27  1  0.703505  0.639078  0.183119  1
  Si  Si28  1  0.295754  0.048184  0.186306  1
  Si  Si29  1  0.704246  0.951816  0.686306  1
  Si  Si30  1  0.452001  0.795681  0.435275  1
  Si  Si31  1  0.205788  0.549796  0.063500  1
  Si  Si32  1  0.547999  0.204319  0.935275  1
  Si  Si33  1  0.794212  0.450204  0.563500  1
  Si  Si34  1  0.048107  0.294351  0.815341  1
  Si  Si35  1  0.951893  0.705649  0.315341  1
