# generated using pymatgen
data_MnCd3P6N13
_symmetry_space_group_name_H-M   'P 1'
_cell_length_a   7.12361873
_cell_length_b   7.23550652
_cell_length_c   7.23550793
_cell_angle_alpha   109.78235264
_cell_angle_beta   109.15827586
_cell_angle_gamma   109.15827459
_symmetry_Int_Tables_number   1
_chemical_formula_structural   MnCd3P6N13
_chemical_formula_sum   'Mn1 Cd3 P6 N13'
_cell_volume   288.19036586
_cell_formula_units_Z   1
loop_
 _symmetry_equiv_pos_site_id
 _symmetry_equiv_pos_as_xyz
  1  'x, y, z'
loop_
 _atom_site_type_symbol
 _atom_site_label
 _atom_site_symmetry_multiplicity
 _atom_site_fract_x
 _atom_site_fract_y
 _atom_site_fract_z
 _atom_site_occupancy
  Mn  Mn0  1  0.681896  0.000000  0.000000  1
  Cd  Cd1  1  0.992172  0.000000  0.712415  1
  Cd  Cd2  1  0.992172  0.712415  0.000000  1
  Cd  Cd3  1  0.279757  0.287585  0.287585  1
  P  P4  1  0.256232  0.750084  0.501066  1
  P  P5  1  0.755166  0.249018  0.498934  1
  P  P6  1  0.755166  0.498934  0.249018  1
  P  P7  1  0.256232  0.501066  0.750084  1
  P  P8  1  0.506149  0.750982  0.249916  1
  P  P9  1  0.506149  0.249916  0.750982  1
  N  N10  1  0.946820  0.000000  0.000000  1
  N  N11  1  0.721668  0.269475  0.269475  1
  N  N12  1  0.280386  0.720424  0.276707  1
  N  N13  1  0.296186  0.565290  0.565290  1
  N  N14  1  0.559963  0.556283  0.279576  1
  N  N15  1  0.452193  0.730525  0.000000  1
  N  N16  1  0.003679  0.723293  0.443717  1
  N  N17  1  0.559963  0.279576  0.556283  1
  N  N18  1  0.730896  0.000000  0.434710  1
  N  N19  1  0.452193  0.000000  0.730525  1
  N  N20  1  0.730896  0.434710  0.000000  1
  N  N21  1  0.280386  0.276707  0.720424  1
  N  N22  1  0.003679  0.443717  0.723293  1
