# generated using pymatgen
data_Gd4Si10IrOs5
_symmetry_space_group_name_H-M   'P 1'
_cell_length_a   8.13018215
_cell_length_b   8.11858283
_cell_length_c   5.81611700
_cell_angle_alpha   70.75354185
_cell_angle_beta   70.73139703
_cell_angle_gamma   94.11451395
_symmetry_Int_Tables_number   1
_chemical_formula_structural   Gd4Si10IrOs5
_chemical_formula_sum   'Gd4 Si10 Ir1 Os5'
_cell_volume   335.04398872
_cell_formula_units_Z   1
loop_
 _symmetry_equiv_pos_site_id
 _symmetry_equiv_pos_as_xyz
  1  'x, y, z'
loop_
 _atom_site_type_symbol
 _atom_site_label
 _atom_site_symmetry_multiplicity
 _atom_site_fract_x
 _atom_site_fract_y
 _atom_site_fract_z
 _atom_site_occupancy
  Gd  Gd0  1  0.866977  0.601064  0.754020  1
  Gd  Gd1  1  0.398885  0.131560  0.746431  1
  Gd  Gd2  1  0.131286  0.397718  0.248795  1
  Gd  Gd3  1  0.601507  0.868910  0.253684  1
  Si  Si4  1  0.063910  0.259141  0.836851  1
  Si  Si5  1  0.738535  0.933058  0.665352  1
  Si  Si6  1  0.933001  0.738127  0.165748  1
  Si  Si7  1  0.262387  0.065682  0.333688  1
  Si  Si8  1  0.209428  0.795469  0.745746  1
  Si  Si9  1  0.794126  0.207441  0.248445  1
  Si  Si10  1  0.514925  0.487130  0.750461  1
  Si  Si11  1  0.487974  0.513512  0.247982  1
  Si  Si12  1  0.773490  0.226949  0.750992  1
  Si  Si13  1  0.226278  0.776356  0.248773  1
  Ir  Ir14  1  0.255804  0.542415  0.631571  1
  Os  Os15  1  0.455372  0.743026  0.870626  1
  Os  Os16  1  0.742302  0.456473  0.369255  1
  Os  Os17  1  0.542987  0.257494  0.132486  1
  Os  Os18  1  0.003734  0.995351  0.749433  1
  Os  Os19  1  0.997095  0.003122  0.249663  1
