# generated using pymatgen
data_Ho2Er2ScIr3
_symmetry_space_group_name_H-M   'P 1'
_cell_length_a   10.71980800
_cell_length_b   10.71980800
_cell_length_c   6.24578900
_cell_angle_alpha   90.00000000
_cell_angle_beta   90.00000000
_cell_angle_gamma   90.00000000
_symmetry_Int_Tables_number   1
_chemical_formula_structural   Ho2Er2ScIr3
_chemical_formula_sum   'Ho8 Er8 Sc4 Ir12'
_cell_volume   717.73036818
_cell_formula_units_Z   4
loop_
 _symmetry_equiv_pos_site_id
 _symmetry_equiv_pos_as_xyz
  1  'x, y, z'
loop_
 _atom_site_type_symbol
 _atom_site_label
 _atom_site_symmetry_multiplicity
 _atom_site_fract_x
 _atom_site_fract_y
 _atom_site_fract_z
 _atom_site_occupancy
  Ho  Ho0  1  0.288141  0.086406  0.376899  1
  Ho  Ho1  1  0.288141  0.913594  0.876899  1
  Ho  Ho2  1  0.711859  0.086406  0.876899  1
  Ho  Ho3  1  0.711859  0.913594  0.376899  1
  Ho  Ho4  1  0.586406  0.788141  0.876899  1
  Ho  Ho5  1  0.586406  0.211859  0.376899  1
  Ho  Ho6  1  0.413594  0.788141  0.376899  1
  Ho  Ho7  1  0.413594  0.211859  0.876899  1
  Er  Er8  1  0.211471  0.413863  0.622888  1
  Er  Er9  1  0.211471  0.586137  0.122888  1
  Er  Er10  1  0.788529  0.413863  0.122888  1
  Er  Er11  1  0.788529  0.586137  0.622888  1
  Er  Er12  1  0.913863  0.711471  0.122888  1
  Er  Er13  1  0.913863  0.288529  0.622888  1
  Er  Er14  1  0.086137  0.711471  0.622888  1
  Er  Er15  1  0.086137  0.288529  0.122888  1
  Sc  Sc16  1  0.000000  0.000000  0.500141  1
  Sc  Sc17  1  0.000000  0.000000  0.000141  1
  Sc  Sc18  1  0.500000  0.500000  0.000141  1
  Sc  Sc19  1  0.500000  0.500000  0.500141  1
  Ir  Ir20  1  0.852039  0.148504  0.250146  1
  Ir  Ir21  1  0.852039  0.851496  0.750146  1
  Ir  Ir22  1  0.147961  0.148504  0.750146  1
  Ir  Ir23  1  0.147961  0.851496  0.250146  1
  Ir  Ir24  1  0.648504  0.352039  0.750146  1
  Ir  Ir25  1  0.648504  0.647961  0.250146  1
  Ir  Ir26  1  0.351496  0.352039  0.250146  1
  Ir  Ir27  1  0.351496  0.647961  0.750146  1
  Ir  Ir28  1  0.500000  0.000000  0.122225  1
  Ir  Ir29  1  0.500000  0.000000  0.622225  1
  Ir  Ir30  1  0.000000  0.500000  0.877763  1
  Ir  Ir31  1  0.000000  0.500000  0.377763  1
