# generated using pymatgen
data_LaY15Cd4TcNi3
_symmetry_space_group_name_H-M   'P 1'
_cell_length_a   9.71427799
_cell_length_b   9.71427856
_cell_length_c   9.71427810
_cell_angle_alpha   59.22911994
_cell_angle_beta   59.22911708
_cell_angle_gamma   59.22911265
_symmetry_Int_Tables_number   1
_chemical_formula_structural   LaY15Cd4TcNi3
_chemical_formula_sum   'La1 Y15 Cd4 Tc1 Ni3'
_cell_volume   636.82841142
_cell_formula_units_Z   1
loop_
 _symmetry_equiv_pos_site_id
 _symmetry_equiv_pos_as_xyz
  1  'x, y, z'
loop_
 _atom_site_type_symbol
 _atom_site_label
 _atom_site_symmetry_multiplicity
 _atom_site_fract_x
 _atom_site_fract_y
 _atom_site_fract_z
 _atom_site_occupancy
  La  La0  1  0.596070  0.596070  0.596070  1
  Y  Y1  1  0.602029  0.602029  0.199816  1
  Y  Y2  1  0.602029  0.199816  0.602029  1
  Y  Y3  1  0.199816  0.602029  0.602029  1
  Y  Y4  1  0.063634  0.436852  0.436852  1
  Y  Y5  1  0.438296  0.061348  0.061348  1
  Y  Y6  1  0.436852  0.063634  0.436852  1
  Y  Y7  1  0.061348  0.438296  0.061348  1
  Y  Y8  1  0.436852  0.436852  0.063634  1
  Y  Y9  1  0.061348  0.061348  0.438296  1
  Y  Y10  1  0.185479  0.816059  0.816059  1
  Y  Y11  1  0.806325  0.189178  0.189178  1
  Y  Y12  1  0.816059  0.185479  0.816059  1
  Y  Y13  1  0.189178  0.806325  0.189178  1
  Y  Y14  1  0.816059  0.816059  0.185479  1
  Y  Y15  1  0.189178  0.189178  0.806325  1
  Cd  Cd16  1  0.829643  0.829643  0.829643  1
  Cd  Cd17  1  0.831222  0.831222  0.505157  1
  Cd  Cd18  1  0.831222  0.505157  0.831222  1
  Cd  Cd19  1  0.505157  0.831222  0.831222  1
  Tc  Tc20  1  0.394204  0.394204  0.394204  1
  Ni  Ni21  1  0.391214  0.391214  0.825567  1
  Ni  Ni22  1  0.391214  0.825567  0.391214  1
  Ni  Ni23  1  0.825567  0.391214  0.391214  1
