# generated using pymatgen
data_Na3RuO5
_symmetry_space_group_name_H-M   'P 1'
_cell_length_a   5.59492700
_cell_length_b   5.59494901
_cell_length_c   13.70488300
_cell_angle_alpha   90.00285400
_cell_angle_beta   89.99923647
_cell_angle_gamma   120.00005072
_symmetry_Int_Tables_number   1
_chemical_formula_structural   Na3RuO5
_chemical_formula_sum   'Na9 Ru3 O15'
_cell_volume   371.53206305
_cell_formula_units_Z   3
loop_
 _symmetry_equiv_pos_site_id
 _symmetry_equiv_pos_as_xyz
  1  'x, y, z'
loop_
 _atom_site_type_symbol
 _atom_site_label
 _atom_site_symmetry_multiplicity
 _atom_site_fract_x
 _atom_site_fract_y
 _atom_site_fract_z
 _atom_site_occupancy
  Na  Na0  1  0.618838  0.918957  0.581653  1
  Na  Na1  1  0.300148  0.381170  0.248324  1
  Na  Na2  1  0.081019  0.699855  0.914995  1
  Na  Na3  1  0.699870  0.081018  0.085008  1
  Na  Na4  1  0.381168  0.300142  0.751674  1
  Na  Na5  1  0.918952  0.618826  0.418350  1
  Na  Na6  1  0.000008  0.721980  0.166661  1
  Na  Na7  1  0.721986  0.999999  0.833336  1
  Na  Na8  1  0.278016  0.278014  0.500001  1
  Ru  Ru9  1  0.000079  0.619843  0.666663  1
  Ru  Ru10  1  0.619810  0.000070  0.333329  1
  Ru  Ru11  1  0.380221  0.380167  0.000001  1
  O  O12  1  0.164097  0.503826  0.063427  1
  O  O13  1  0.339685  0.835868  0.730077  1
  O  O14  1  0.496179  0.660285  0.396758  1
  O  O15  1  0.000006  0.301873  0.666665  1
  O  O16  1  0.301837  0.000002  0.333332  1
  O  O17  1  0.698127  0.698122  0.000002  1
  O  O18  1  0.660264  0.496174  0.603236  1
  O  O19  1  0.835856  0.339668  0.269922  1
  O  O20  1  0.503825  0.164121  0.936585  1
  O  O21  1  0.317839  0.156681  0.106275  1
  O  O22  1  0.838874  0.682164  0.772938  1
  O  O23  1  0.843289  0.161155  0.439614  1
  O  O24  1  0.161162  0.843317  0.560386  1
  O  O25  1  0.156697  0.317830  0.893732  1
  O  O26  1  0.682145  0.838870  0.227055  1
