# generated using pymatgen
data_DyEr5Al24CuRu7
_symmetry_space_group_name_H-M   'P 1'
_cell_length_a   8.85268742
_cell_length_b   8.78841826
_cell_length_c   9.54326633
_cell_angle_alpha   89.79829611
_cell_angle_beta   89.96547637
_cell_angle_gamma   120.24995682
_symmetry_Int_Tables_number   1
_chemical_formula_structural   DyEr5Al24CuRu7
_chemical_formula_sum   'Dy1 Er5 Al24 Cu1 Ru7'
_cell_volume   641.37170860
_cell_formula_units_Z   1
loop_
 _symmetry_equiv_pos_site_id
 _symmetry_equiv_pos_as_xyz
  1  'x, y, z'
loop_
 _atom_site_type_symbol
 _atom_site_label
 _atom_site_symmetry_multiplicity
 _atom_site_fract_x
 _atom_site_fract_y
 _atom_site_fract_z
 _atom_site_occupancy
  Dy  Dy0  1  0.385033  0.194351  0.748588  1
  Er  Er1  1  0.191329  0.804505  0.251148  1
  Er  Er2  1  0.195489  0.390415  0.248967  1
  Er  Er3  1  0.613830  0.804803  0.251202  1
  Er  Er4  1  0.808776  0.195513  0.748825  1
  Er  Er5  1  0.804749  0.609747  0.751050  1
  Al  Al6  1  0.561101  0.439116  0.251038  1
  Al  Al7  1  0.561407  0.122873  0.249879  1
  Al  Al8  1  0.877909  0.439034  0.251119  1
  Al  Al9  1  0.439105  0.561442  0.748901  1
  Al  Al10  1  0.438730  0.876650  0.750249  1
  Al  Al11  1  0.122035  0.560933  0.748908  1
  Al  Al12  1  0.324327  0.166747  0.420486  1
  Al  Al13  1  0.842740  0.166507  0.420864  1
  Al  Al14  1  0.836346  0.673088  0.422374  1
  Al  Al15  1  0.675749  0.833339  0.579016  1
  Al  Al16  1  0.157099  0.833170  0.578854  1
  Al  Al17  1  0.163567  0.327156  0.577340  1
  Al  Al18  1  0.674805  0.838285  0.922843  1
  Al  Al19  1  0.163380  0.838096  0.923177  1
  Al  Al20  1  0.163125  0.326379  0.922377  1
  Al  Al21  1  0.325291  0.161715  0.077636  1
  Al  Al22  1  0.836481  0.161532  0.077140  1
  Al  Al23  1  0.836768  0.673841  0.077886  1
  Al  Al24  1  0.668475  0.336902  0.520790  1
  Al  Al25  1  0.331922  0.663452  0.478776  1
  Al  Al26  1  0.333249  0.666646  0.018477  1
  Al  Al27  1  0.667072  0.333461  0.981856  1
  Al  Al28  1  0.999196  0.998468  0.249719  1
  Al  Al29  1  0.999956  0.001148  0.750284  1
  Cu  Cu30  1  0.500060  0.000021  0.499962  1
  Ru  Ru31  1  0.000073  0.000032  0.500008  1
  Ru  Ru32  1  0.000076  0.000052  0.000011  1
  Ru  Ru33  1  0.500157  0.500370  0.499720  1
  Ru  Ru34  1  0.000140  0.500041  0.499929  1
  Ru  Ru35  1  0.500129  0.500246  0.000205  1
  Ru  Ru36  1  0.500158  0.999836  0.000269  1
  Ru  Ru37  1  0.000166  0.500087  0.000124  1
