# generated using pymatgen
data_Li28Mg2Si7P
_symmetry_space_group_name_H-M   'P 1'
_cell_length_a   9.16101302
_cell_length_b   9.15957276
_cell_length_c   9.16278954
_cell_angle_alpha   109.56612877
_cell_angle_beta   109.56786637
_cell_angle_gamma   109.40125067
_symmetry_Int_Tables_number   1
_chemical_formula_structural   Li28Mg2Si7P
_chemical_formula_sum   'Li28 Mg2 Si7 P1'
_cell_volume   590.97655494
_cell_formula_units_Z   1
loop_
 _symmetry_equiv_pos_site_id
 _symmetry_equiv_pos_as_xyz
  1  'x, y, z'
loop_
 _atom_site_type_symbol
 _atom_site_label
 _atom_site_symmetry_multiplicity
 _atom_site_fract_x
 _atom_site_fract_y
 _atom_site_fract_z
 _atom_site_occupancy
  Li  Li0  1  0.070407  0.540503  0.278408  1
  Li  Li1  1  0.261147  0.788939  0.722239  1
  Li  Li2  1  0.183254  0.961740  0.973508  1
  Li  Li3  1  0.987410  0.206265  0.024795  1
  Li  Li4  1  0.038154  0.012138  0.220107  1
  Li  Li5  1  0.792776  0.818150  0.781383  1
  Li  Li6  1  0.457785  0.738087  0.526176  1
  Li  Li7  1  0.208440  0.936215  0.476209  1
  Li  Li8  1  0.719477  0.344912  0.060760  1
  Li  Li9  1  0.962630  0.403317  0.873651  1
  Li  Li10  1  0.285518  0.658544  0.943774  1
  Li  Li11  1  0.532035  0.092582  0.126446  1
  Li  Li12  1  0.693375  0.860019  0.088023  1
  Li  Li13  1  0.481015  0.889602  0.331219  1
  Li  Li14  1  0.560014  0.152459  0.669152  1
  Li  Li15  1  0.769207  0.599392  0.909792  1
  Li  Li16  1  0.852212  0.517611  0.410988  1
  Li  Li17  1  0.398741  0.313840  0.166618  1
  Li  Li18  1  0.139901  0.231606  0.827726  1
  Li  Li19  1  0.108024  0.441327  0.590505  1
  Li  Li20  1  0.910706  0.037126  0.440404  1
  Li  Li21  1  0.337416  0.279512  0.624672  1
  Li  Li22  1  0.597960  0.465201  0.565068  1
  Li  Li23  1  0.654034  0.713476  0.373522  1
  Li  Li24  1  0.000048  0.874583  0.626559  1
  Li  Li25  1  0.247311  0.371927  0.376183  1
  Li  Li26  1  0.120884  0.752312  0.123622  1
  Li  Li27  1  0.624620  0.000443  0.874397  1
  Mg  Mg28  1  0.503329  0.496959  0.994181  1
  Mg  Mg29  1  0.751130  0.249185  0.499273  1
  Si  Si30  1  0.371575  0.128296  0.834784  1
  Si  Si31  1  0.958070  0.622472  0.748331  1
  Si  Si32  1  0.879641  0.212267  0.253457  1
  Si  Si33  1  0.376257  0.122323  0.331842  1
  Si  Si34  1  0.787413  0.041513  0.664963  1
  Si  Si35  1  0.459838  0.627034  0.754016  1
  Si  Si36  1  0.872437  0.706115  0.245930  1
  P  P37  1  0.295807  0.542006  0.167318  1
