# generated using pymatgen
data_Sr2Cd(SeO3)3
_symmetry_space_group_name_H-M   'P 1'
_cell_length_a   7.93810279
_cell_length_b   7.89520884
_cell_length_c   8.86815906
_cell_angle_alpha   104.57400591
_cell_angle_beta   105.59482568
_cell_angle_gamma   94.60843710
_symmetry_Int_Tables_number   1
_chemical_formula_structural   Sr2Cd(SeO3)3
_chemical_formula_sum   'Sr4 Cd2 Se6 O18'
_cell_volume   511.53744199
_cell_formula_units_Z   2
loop_
 _symmetry_equiv_pos_site_id
 _symmetry_equiv_pos_as_xyz
  1  'x, y, z'
loop_
 _atom_site_type_symbol
 _atom_site_label
 _atom_site_symmetry_multiplicity
 _atom_site_fract_x
 _atom_site_fract_y
 _atom_site_fract_z
 _atom_site_occupancy
  Sr  Sr0  1  0.625993  0.481090  0.812654  1
  Sr  Sr1  1  0.374007  0.518910  0.187346  1
  Sr  Sr2  1  0.727402  0.893021  0.613340  1
  Sr  Sr3  1  0.272598  0.106979  0.386660  1
  Cd  Cd4  1  0.076890  0.331236  0.746088  1
  Cd  Cd5  1  0.923110  0.668765  0.253912  1
  Se  Se6  1  0.255603  0.637259  0.592423  1
  Se  Se7  1  0.915782  0.206734  0.048585  1
  Se  Se8  1  0.372729  0.090442  0.792624  1
  Se  Se9  1  0.627270  0.909558  0.207376  1
  Se  Se10  1  0.084218  0.793266  0.951415  1
  Se  Se11  1  0.744396  0.362741  0.407577  1
  O  O12  1  0.204657  0.645227  0.392515  1
  O  O13  1  0.795343  0.354772  0.607485  1
  O  O14  1  0.238280  0.412162  0.579822  1
  O  O15  1  0.761720  0.587838  0.420178  1
  O  O16  1  0.482188  0.696408  0.658209  1
  O  O17  1  0.517812  0.303592  0.341791  1
  O  O18  1  0.067915  0.854634  0.148104  1
  O  O19  1  0.932085  0.145366  0.851896  1
  O  O20  1  0.163297  0.593200  0.947021  1
  O  O21  1  0.836703  0.406800  0.052979  1
  O  O22  1  0.868928  0.733062  0.831032  1
  O  O23  1  0.131072  0.266938  0.168969  1
  O  O24  1  0.482458  0.874254  0.316345  1
  O  O25  1  0.517543  0.125747  0.683656  1
  O  O26  1  0.827773  0.943161  0.358783  1
  O  O27  1  0.378293  0.306345  0.905943  1
  O  O28  1  0.621707  0.693655  0.094057  1
  O  O29  1  0.172228  0.056839  0.641217  1
