# generated using pymatgen
data_Ca2ErSi5AsPd20
_symmetry_space_group_name_H-M   'P 1'
_cell_length_a   8.73212332
_cell_length_b   8.76493472
_cell_length_c   8.76493618
_cell_angle_alpha   59.75249575
_cell_angle_beta   60.12375911
_cell_angle_gamma   60.12376486
_symmetry_Int_Tables_number   1
_chemical_formula_structural   Ca2ErSi5AsPd20
_chemical_formula_sum   'Ca2 Er1 Si5 As1 Pd20'
_cell_volume   474.34054130
_cell_formula_units_Z   1
loop_
 _symmetry_equiv_pos_site_id
 _symmetry_equiv_pos_as_xyz
  1  'x, y, z'
loop_
 _atom_site_type_symbol
 _atom_site_label
 _atom_site_symmetry_multiplicity
 _atom_site_fract_x
 _atom_site_fract_y
 _atom_site_fract_z
 _atom_site_occupancy
  Ca  Ca0  1  0.250294  0.249706  0.249706  1
  Ca  Ca1  1  0.750294  0.749706  0.749706  1
  Er  Er2  1  0.001114  0.998886  0.998886  1
  Si  Si3  1  0.268571  0.731429  0.731429  1
  Si  Si4  1  0.268276  0.731724  0.268131  1
  Si  Si5  1  0.731869  0.268131  0.731724  1
  Si  Si6  1  0.268276  0.268131  0.731724  1
  Si  Si7  1  0.731869  0.731724  0.268131  1
  As  As8  1  0.732942  0.267058  0.267058  1
  Pd  Pd9  1  0.344291  0.999672  0.999672  1
  Pd  Pd10  1  0.656364  0.999672  0.999672  1
  Pd  Pd11  1  0.000328  0.343636  0.655709  1
  Pd  Pd12  1  0.000328  0.655709  0.343636  1
  Pd  Pd13  1  0.005939  0.345637  0.994061  1
  Pd  Pd14  1  0.654363  0.994061  0.345637  1
  Pd  Pd15  1  0.999770  0.656945  0.000230  1
  Pd  Pd16  1  0.343055  0.000230  0.656945  1
  Pd  Pd17  1  0.005939  0.994061  0.345637  1
  Pd  Pd18  1  0.999770  0.000230  0.656945  1
  Pd  Pd19  1  0.654363  0.345637  0.994061  1
  Pd  Pd20  1  0.343055  0.656945  0.000230  1
  Pd  Pd21  1  0.378468  0.386938  0.386938  1
  Pd  Pd22  1  0.614617  0.615830  0.615830  1
  Pd  Pd23  1  0.384170  0.385383  0.846278  1
  Pd  Pd24  1  0.384170  0.846278  0.385383  1
  Pd  Pd25  1  0.613062  0.621532  0.152342  1
  Pd  Pd26  1  0.613062  0.152342  0.621532  1
  Pd  Pd27  1  0.847658  0.386938  0.386938  1
  Pd  Pd28  1  0.153722  0.615830  0.615830  1
