# generated using pymatgen
data_Gd2Dy2ReTcB12
_symmetry_space_group_name_H-M   'P 1'
_cell_length_a   3.69823900
_cell_length_b   9.18934693
_cell_length_c   11.58313002
_cell_angle_alpha   90.06265415
_cell_angle_beta   90.00000000
_cell_angle_gamma   90.00000000
_symmetry_Int_Tables_number   1
_chemical_formula_structural   Gd2Dy2ReTcB12
_chemical_formula_sum   'Gd4 Dy4 Re2 Tc2 B24'
_cell_volume   393.64550235
_cell_formula_units_Z   2
loop_
 _symmetry_equiv_pos_site_id
 _symmetry_equiv_pos_as_xyz
  1  'x, y, z'
loop_
 _atom_site_type_symbol
 _atom_site_label
 _atom_site_symmetry_multiplicity
 _atom_site_fract_x
 _atom_site_fract_y
 _atom_site_fract_z
 _atom_site_occupancy
  Gd  Gd0  1  0.000000  0.323565  0.414092  1
  Gd  Gd1  1  0.000000  0.676435  0.585908  1
  Gd  Gd2  1  0.000000  0.823204  0.085847  1
  Gd  Gd3  1  0.000000  0.176796  0.914153  1
  Dy  Dy4  1  0.000000  0.941852  0.369431  1
  Dy  Dy5  1  0.000000  0.058148  0.630569  1
  Dy  Dy6  1  0.000000  0.443441  0.130952  1
  Dy  Dy7  1  0.000000  0.556559  0.869048  1
  Re  Re8  1  0.000000  0.138883  0.179704  1
  Re  Re9  1  0.000000  0.861117  0.820296  1
  Tc  Tc10  1  0.000000  0.639053  0.320226  1
  Tc  Tc11  1  0.000000  0.360947  0.679774  1
  B  B12  1  0.500000  0.553714  0.432309  1
  B  B13  1  0.500000  0.446286  0.567691  1
  B  B14  1  0.500000  0.053632  0.067641  1
  B  B15  1  0.500000  0.946368  0.932359  1
  B  B16  1  0.500000  0.748508  0.418027  1
  B  B17  1  0.500000  0.251492  0.581973  1
  B  B18  1  0.500000  0.249036  0.081990  1
  B  B19  1  0.500000  0.750964  0.918010  1
  B  B20  1  0.500000  0.791344  0.265671  1
  B  B21  1  0.500000  0.208656  0.734329  1
  B  B22  1  0.500000  0.291705  0.234595  1
  B  B23  1  0.500000  0.708295  0.765405  1
  B  B24  1  0.500000  0.630768  0.186090  1
  B  B25  1  0.500000  0.369232  0.813910  1
  B  B26  1  0.500000  0.130495  0.314258  1
  B  B27  1  0.500000  0.869505  0.685742  1
  B  B28  1  0.500000  0.982840  0.211974  1
  B  B29  1  0.500000  0.017160  0.788026  1
  B  B30  1  0.500000  0.483206  0.288215  1
  B  B31  1  0.500000  0.516794  0.711785  1
  B  B32  1  0.500000  0.599451  0.027675  1
  B  B33  1  0.500000  0.400549  0.972325  1
  B  B34  1  0.500000  0.099329  0.472126  1
  B  B35  1  0.500000  0.900671  0.527874  1
