# generated using pymatgen
data_HoLu3B12RhW
_symmetry_space_group_name_H-M   'P 1'
_cell_length_a   3.59498400
_cell_length_b   9.11646817
_cell_length_c   11.52445271
_cell_angle_alpha   90.42726996
_cell_angle_beta   90.00000000
_cell_angle_gamma   90.00000000
_symmetry_Int_Tables_number   1
_chemical_formula_structural   HoLu3B12RhW
_chemical_formula_sum   'Ho2 Lu6 B24 Rh2 W2'
_cell_volume   377.68680841
_cell_formula_units_Z   2
loop_
 _symmetry_equiv_pos_site_id
 _symmetry_equiv_pos_as_xyz
  1  'x, y, z'
loop_
 _atom_site_type_symbol
 _atom_site_label
 _atom_site_symmetry_multiplicity
 _atom_site_fract_x
 _atom_site_fract_y
 _atom_site_fract_z
 _atom_site_occupancy
  Ho  Ho0  1  0.500000  0.319093  0.412232  1
  Ho  Ho1  1  0.500000  0.680907  0.587768  1
  Lu  Lu2  1  0.500000  0.176113  0.916729  1
  Lu  Lu3  1  0.500000  0.823887  0.083271  1
  Lu  Lu4  1  0.500000  0.444391  0.126397  1
  Lu  Lu5  1  0.500000  0.555609  0.873603  1
  Lu  Lu6  1  0.500000  0.055491  0.627627  1
  Lu  Lu7  1  0.500000  0.944509  0.372373  1
  B  B8  1  0.000000  0.104845  0.472616  1
  B  B9  1  0.000000  0.895155  0.527384  1
  B  B10  1  0.000000  0.396206  0.970367  1
  B  B11  1  0.000000  0.603794  0.029633  1
  B  B12  1  0.000000  0.131677  0.318276  1
  B  B13  1  0.000000  0.868323  0.681724  1
  B  B14  1  0.000000  0.367859  0.816614  1
  B  B15  1  0.000000  0.632141  0.183386  1
  B  B16  1  0.000000  0.051074  0.065013  1
  B  B17  1  0.000000  0.948926  0.934987  1
  B  B18  1  0.000000  0.446120  0.565707  1
  B  B19  1  0.000000  0.553880  0.434293  1
  B  B20  1  0.000000  0.483438  0.288214  1
  B  B21  1  0.000000  0.516562  0.711786  1
  B  B22  1  0.000000  0.022491  0.785980  1
  B  B23  1  0.000000  0.977509  0.214020  1
  B  B24  1  0.000000  0.251851  0.078151  1
  B  B25  1  0.000000  0.748149  0.921849  1
  B  B26  1  0.000000  0.250013  0.579410  1
  B  B27  1  0.000000  0.749987  0.420590  1
  B  B28  1  0.000000  0.297132  0.236713  1
  B  B29  1  0.000000  0.702868  0.763287  1
  B  B30  1  0.000000  0.208566  0.734985  1
  B  B31  1  0.000000  0.791434  0.265015  1
  Rh  Rh32  1  0.500000  0.360851  0.679393  1
  Rh  Rh33  1  0.500000  0.639149  0.320607  1
  W  W34  1  0.500000  0.138863  0.180573  1
  W  W35  1  0.500000  0.861137  0.819427  1
