# generated using pymatgen
data_AlV(SiRu2)2
_symmetry_space_group_name_H-M   'P 1'
_cell_length_a   7.25429539
_cell_length_b   7.25429548
_cell_length_c   7.25429500
_cell_angle_alpha   33.46711794
_cell_angle_beta   33.46713119
_cell_angle_gamma   33.46712794
_symmetry_Int_Tables_number   1
_chemical_formula_structural   AlV(SiRu2)2
_chemical_formula_sum   'Al1 V1 Si2 Ru4'
_cell_volume   103.39269769
_cell_formula_units_Z   1
loop_
 _symmetry_equiv_pos_site_id
 _symmetry_equiv_pos_as_xyz
  1  'x, y, z'
loop_
 _atom_site_type_symbol
 _atom_site_label
 _atom_site_symmetry_multiplicity
 _atom_site_fract_x
 _atom_site_fract_y
 _atom_site_fract_z
 _atom_site_occupancy
  Al  Al0  1  0.500000  0.500000  0.500000  1
  V  V1  1  0.000000  0.000000  0.000000  1
  Si  Si2  1  0.249243  0.249243  0.249243  1
  Si  Si3  1  0.750757  0.750757  0.750757  1
  Ru  Ru4  1  0.626338  0.626338  0.626338  1
  Ru  Ru5  1  0.124118  0.124118  0.124118  1
  Ru  Ru6  1  0.875882  0.875882  0.875882  1
  Ru  Ru7  1  0.373662  0.373662  0.373662  1
