# generated using pymatgen
data_Ho2Be2Si2IrRh3
_symmetry_space_group_name_H-M   'P 1'
_cell_length_a   4.05523200
_cell_length_b   4.05523200
_cell_length_c   9.49312700
_cell_angle_alpha   90.00000000
_cell_angle_beta   90.00000000
_cell_angle_gamma   90.00000000
_symmetry_Int_Tables_number   1
_chemical_formula_structural   Ho2Be2Si2IrRh3
_chemical_formula_sum   'Ho2 Be2 Si2 Ir1 Rh3'
_cell_volume   156.11358661
_cell_formula_units_Z   1
loop_
 _symmetry_equiv_pos_site_id
 _symmetry_equiv_pos_as_xyz
  1  'x, y, z'
loop_
 _atom_site_type_symbol
 _atom_site_label
 _atom_site_symmetry_multiplicity
 _atom_site_fract_x
 _atom_site_fract_y
 _atom_site_fract_z
 _atom_site_occupancy
  Ho  Ho0  1  0.000000  0.500000  0.260140  1
  Ho  Ho1  1  0.500000  0.000000  0.739749  1
  Be  Be2  1  0.000000  0.000000  0.498893  1
  Be  Be3  1  0.500000  0.500000  0.498893  1
  Si  Si4  1  0.000000  0.500000  0.861652  1
  Si  Si5  1  0.500000  0.000000  0.138589  1
  Ir  Ir6  1  0.500000  0.000000  0.393915  1
  Rh  Rh7  1  0.000000  0.000000  0.000140  1
  Rh  Rh8  1  0.500000  0.500000  0.000140  1
  Rh  Rh9  1  0.000000  0.500000  0.607890  1
