# generated using pymatgen
data_TbBi3(MoO6)2
_symmetry_space_group_name_H-M   'P 1'
_cell_length_a   10.44365718
_cell_length_b   10.44365722
_cell_length_c   5.59176556
_cell_angle_alpha   76.50108598
_cell_angle_beta   76.50108377
_cell_angle_gamma   68.53622416
_symmetry_Int_Tables_number   1
_chemical_formula_structural   TbBi3(MoO6)2
_chemical_formula_sum   'Tb2 Bi6 Mo4 O24'
_cell_volume   544.48424420
_cell_formula_units_Z   2
loop_
 _symmetry_equiv_pos_site_id
 _symmetry_equiv_pos_as_xyz
  1  'x, y, z'
loop_
 _atom_site_type_symbol
 _atom_site_label
 _atom_site_symmetry_multiplicity
 _atom_site_fract_x
 _atom_site_fract_y
 _atom_site_fract_z
 _atom_site_occupancy
  Tb  Tb0  1  0.102786  0.897214  0.750000  1
  Tb  Tb1  1  0.897214  0.102786  0.250000  1
  Bi  Bi2  1  0.725763  0.955739  0.935694  1
  Bi  Bi3  1  0.274237  0.044261  0.064306  1
  Bi  Bi4  1  0.044261  0.274237  0.564306  1
  Bi  Bi5  1  0.955739  0.725763  0.435694  1
  Bi  Bi6  1  0.658343  0.341657  0.750000  1
  Bi  Bi7  1  0.341657  0.658343  0.250000  1
  Mo  Mo8  1  0.537118  0.798016  0.575873  1
  Mo  Mo9  1  0.462882  0.201984  0.424127  1
  Mo  Mo10  1  0.201984  0.462882  0.924127  1
  Mo  Mo11  1  0.798016  0.537118  0.075873  1
  O  O12  1  0.553602  0.637026  0.779273  1
  O  O13  1  0.446398  0.362974  0.220727  1
  O  O14  1  0.362974  0.446398  0.720727  1
  O  O15  1  0.637026  0.553602  0.279273  1
  O  O16  1  0.891728  0.931014  0.591049  1
  O  O17  1  0.108272  0.068986  0.408951  1
  O  O18  1  0.068986  0.108272  0.908951  1
  O  O19  1  0.931014  0.891728  0.091049  1
  O  O20  1  0.608393  0.169743  0.593376  1
  O  O21  1  0.391607  0.830257  0.406624  1
  O  O22  1  0.830257  0.391607  0.906624  1
  O  O23  1  0.169743  0.608393  0.093376  1
  O  O24  1  0.301191  0.207448  0.636884  1
  O  O25  1  0.698809  0.792552  0.363116  1
  O  O26  1  0.792552  0.698809  0.863116  1
  O  O27  1  0.207448  0.301191  0.136884  1
  O  O28  1  0.733244  0.155167  0.012244  1
  O  O29  1  0.266756  0.844833  0.987756  1
  O  O30  1  0.844833  0.266756  0.487756  1
  O  O31  1  0.155167  0.733244  0.512244  1
  O  O32  1  0.506474  0.929544  0.759698  1
  O  O33  1  0.493526  0.070456  0.240302  1
  O  O34  1  0.070456  0.493526  0.740302  1
  O  O35  1  0.929544  0.506474  0.259698  1
