# generated using pymatgen
data_Ho8CoCuB28
_symmetry_space_group_name_H-M   'P 1'
_cell_length_a   7.20243700
_cell_length_b   7.20243700
_cell_length_c   7.47386000
_cell_angle_alpha   90.00000000
_cell_angle_beta   90.00000000
_cell_angle_gamma   90.00000000
_symmetry_Int_Tables_number   1
_chemical_formula_structural   Ho8CoCuB28
_chemical_formula_sum   'Ho8 Co1 Cu1 B28'
_cell_volume   387.70722546
_cell_formula_units_Z   1
loop_
 _symmetry_equiv_pos_site_id
 _symmetry_equiv_pos_as_xyz
  1  'x, y, z'
loop_
 _atom_site_type_symbol
 _atom_site_label
 _atom_site_symmetry_multiplicity
 _atom_site_fract_x
 _atom_site_fract_y
 _atom_site_fract_z
 _atom_site_occupancy
  Ho  Ho0  1  0.667780  0.193323  0.000000  1
  Ho  Ho1  1  0.193323  0.332219  0.000000  1
  Ho  Ho2  1  0.806676  0.667780  0.000000  1
  Ho  Ho3  1  0.332219  0.806676  0.000000  1
  Ho  Ho4  1  0.694588  0.169725  0.500001  1
  Ho  Ho5  1  0.169725  0.305413  0.500001  1
  Ho  Ho6  1  0.830274  0.694588  0.500001  1
  Ho  Ho7  1  0.305413  0.830274  0.500001  1
  Co  Co8  1  0.500000  0.500000  0.500001  1
  Cu  Cu9  1  0.000000  0.000000  0.000000  1
  B  B10  1  0.500000  0.500000  0.111791  1
  B  B11  1  0.176343  0.039903  0.235429  1
  B  B12  1  0.960098  0.176343  0.235429  1
  B  B13  1  0.039903  0.823658  0.235429  1
  B  B14  1  0.823658  0.960098  0.235429  1
  B  B15  1  0.411171  0.088829  0.249903  1
  B  B16  1  0.911172  0.411171  0.249903  1
  B  B17  1  0.088829  0.588828  0.249903  1
  B  B18  1  0.588828  0.911172  0.249903  1
  B  B19  1  0.461418  0.326055  0.269358  1
  B  B20  1  0.673945  0.461418  0.269358  1
  B  B21  1  0.326055  0.538582  0.269358  1
  B  B22  1  0.538582  0.673945  0.269358  1
  B  B23  1  0.000000  0.000000  0.389212  1
  B  B24  1  0.000000  0.000000  0.610788  1
  B  B25  1  0.461418  0.326055  0.730641  1
  B  B26  1  0.673945  0.461418  0.730641  1
  B  B27  1  0.326055  0.538582  0.730641  1
  B  B28  1  0.538582  0.673945  0.730641  1
  B  B29  1  0.411171  0.088829  0.750097  1
  B  B30  1  0.911172  0.411171  0.750097  1
  B  B31  1  0.088829  0.588828  0.750097  1
  B  B32  1  0.588828  0.911172  0.750097  1
  B  B33  1  0.176343  0.039903  0.764571  1
  B  B34  1  0.960098  0.176343  0.764571  1
  B  B35  1  0.039903  0.823658  0.764571  1
  B  B36  1  0.823658  0.960098  0.764571  1
  B  B37  1  0.500000  0.500000  0.888209  1
