# generated using pymatgen
data_Tb13DyTh2(CdNi)4
_symmetry_space_group_name_H-M   'P 1'
_cell_length_a   9.63964117
_cell_length_b   9.63964117
_cell_length_c   9.64993800
_cell_angle_alpha   59.96465187
_cell_angle_beta   59.96465188
_cell_angle_gamma   59.91998884
_symmetry_Int_Tables_number   1
_chemical_formula_structural   Tb13DyTh2(CdNi)4
_chemical_formula_sum   'Tb13 Dy1 Th2 Cd4 Ni4'
_cell_volume   633.33865822
_cell_formula_units_Z   1
loop_
 _symmetry_equiv_pos_site_id
 _symmetry_equiv_pos_as_xyz
  1  'x, y, z'
loop_
 _atom_site_type_symbol
 _atom_site_label
 _atom_site_symmetry_multiplicity
 _atom_site_fract_x
 _atom_site_fract_y
 _atom_site_fract_z
 _atom_site_occupancy
  Tb  Tb0  1  0.597940  0.201536  0.600263  1
  Tb  Tb1  1  0.201536  0.597940  0.600263  1
  Tb  Tb2  1  0.061724  0.439485  0.438358  1
  Tb  Tb3  1  0.439485  0.061724  0.060433  1
  Tb  Tb4  1  0.439485  0.061724  0.438358  1
  Tb  Tb5  1  0.061724  0.439485  0.060433  1
  Tb  Tb6  1  0.439470  0.439470  0.060530  1
  Tb  Tb7  1  0.061543  0.061543  0.438457  1
  Tb  Tb8  1  0.187239  0.814440  0.815747  1
  Tb  Tb9  1  0.814440  0.187239  0.182574  1
  Tb  Tb10  1  0.814440  0.187239  0.815747  1
  Tb  Tb11  1  0.187239  0.814440  0.182574  1
  Tb  Tb12  1  0.814152  0.814152  0.185848  1
  Dy  Dy13  1  0.185596  0.185596  0.814404  1
  Th  Th14  1  0.593539  0.593539  0.600039  1
  Th  Th15  1  0.593539  0.593539  0.212883  1
  Cd  Cd16  1  0.832257  0.832257  0.829823  1
  Cd  Cd17  1  0.832257  0.832257  0.505663  1
  Cd  Cd18  1  0.833380  0.505703  0.830458  1
  Cd  Cd19  1  0.505703  0.833380  0.830458  1
  Ni  Ni20  1  0.393648  0.393648  0.391187  1
  Ni  Ni21  1  0.393648  0.393648  0.821518  1
  Ni  Ni22  1  0.396957  0.819066  0.391989  1
  Ni  Ni23  1  0.819066  0.396957  0.391989  1
