# generated using pymatgen
data_Dy4TmRh2
_symmetry_space_group_name_H-M   'P 1'
_cell_length_a   6.39739207
_cell_length_b   7.13722282
_cell_length_c   8.63434277
_cell_angle_alpha   96.84264871
_cell_angle_beta   111.74412088
_cell_angle_gamma   89.99999827
_symmetry_Int_Tables_number   1
_chemical_formula_structural   Dy4TmRh2
_chemical_formula_sum   'Dy8 Tm2 Rh4'
_cell_volume   363.16458354
_cell_formula_units_Z   2
loop_
 _symmetry_equiv_pos_site_id
 _symmetry_equiv_pos_as_xyz
  1  'x, y, z'
loop_
 _atom_site_type_symbol
 _atom_site_label
 _atom_site_symmetry_multiplicity
 _atom_site_fract_x
 _atom_site_fract_y
 _atom_site_fract_z
 _atom_site_occupancy
  Dy  Dy0  1  0.791391  0.081743  0.813309  1
  Dy  Dy1  1  0.978082  0.418257  0.186691  1
  Dy  Dy2  1  0.208609  0.918257  0.186691  1
  Dy  Dy3  1  0.021918  0.581743  0.813309  1
  Dy  Dy4  1  0.210036  0.187437  0.562594  1
  Dy  Dy5  1  0.647442  0.312563  0.437406  1
  Dy  Dy6  1  0.789964  0.812563  0.437406  1
  Dy  Dy7  1  0.352558  0.687437  0.562594  1
  Tm  Tm8  1  0.424282  0.250000  0.000000  1
  Tm  Tm9  1  0.575718  0.750000  0.000000  1
  Rh  Rh10  1  0.596093  0.426676  0.780857  1
  Rh  Rh11  1  0.815236  0.073324  0.219143  1
  Rh  Rh12  1  0.403907  0.573324  0.219143  1
  Rh  Rh13  1  0.184764  0.926676  0.780857  1
