# generated using pymatgen
data_Lu10InPb5
_symmetry_space_group_name_H-M   'P 1'
_cell_length_a   6.49787906
_cell_length_b   8.83402327
_cell_length_c   8.87735806
_cell_angle_alpha   119.84013969
_cell_angle_beta   90.00652582
_cell_angle_gamma   89.98497716
_symmetry_Int_Tables_number   1
_chemical_formula_structural   Lu10InPb5
_chemical_formula_sum   'Lu10 In1 Pb5'
_cell_volume   442.01993061
_cell_formula_units_Z   1
loop_
 _symmetry_equiv_pos_site_id
 _symmetry_equiv_pos_as_xyz
  1  'x, y, z'
loop_
 _atom_site_type_symbol
 _atom_site_label
 _atom_site_symmetry_multiplicity
 _atom_site_fract_x
 _atom_site_fract_y
 _atom_site_fract_z
 _atom_site_occupancy
  Lu  Lu0  1  0.750136  0.236159  0.000069  1
  Lu  Lu1  1  0.749971  0.761205  0.767901  1
  Lu  Lu2  1  0.749972  0.993168  0.232064  1
  Lu  Lu3  1  0.250115  0.765570  0.999949  1
  Lu  Lu4  1  0.250022  0.237030  0.235168  1
  Lu  Lu5  1  0.250067  0.001760  0.764822  1
  Lu  Lu6  1  0.501913  0.337411  0.671336  1
  Lu  Lu7  1  0.501888  0.666129  0.328806  1
  Lu  Lu8  1  0.998035  0.665750  0.328438  1
  Lu  Lu9  1  0.998039  0.337385  0.671668  1
  In  In10  1  0.749659  0.601851  0.999848  1
  Pb  Pb11  1  0.750305  0.391881  0.393730  1
  Pb  Pb12  1  0.750011  0.998730  0.606853  1
  Pb  Pb13  1  0.250809  0.396939  0.999498  1
  Pb  Pb14  1  0.249474  0.606543  0.604106  1
  Pb  Pb15  1  0.249584  0.002490  0.395743  1
