# generated using pymatgen
data_Sr3LaSc2(PtO6)2
_symmetry_space_group_name_H-M   'P 1'
_cell_length_a   5.72463145
_cell_length_b   5.71140213
_cell_length_c   9.89543652
_cell_angle_alpha   54.56467741
_cell_angle_beta   89.96798465
_cell_angle_gamma   90.04314695
_symmetry_Int_Tables_number   1
_chemical_formula_structural   Sr3LaSc2(PtO6)2
_chemical_formula_sum   'Sr3 La1 Sc2 Pt2 O12'
_cell_volume   263.60891055
_cell_formula_units_Z   1
loop_
 _symmetry_equiv_pos_site_id
 _symmetry_equiv_pos_as_xyz
  1  'x, y, z'
loop_
 _atom_site_type_symbol
 _atom_site_label
 _atom_site_symmetry_multiplicity
 _atom_site_fract_x
 _atom_site_fract_y
 _atom_site_fract_z
 _atom_site_occupancy
  Sr  Sr0  1  0.526247  0.245373  0.748621  1
  Sr  Sr1  1  0.971584  0.245467  0.249452  1
  Sr  Sr2  1  0.027968  0.758064  0.751553  1
  La  La3  1  0.463881  0.755311  0.249986  1
  Sc  Sc4  1  0.997539  0.004141  0.995495  1
  Sc  Sc5  1  0.501193  0.996007  0.504535  1
  Pt  Pt6  1  0.999794  0.501194  0.498158  1
  Pt  Pt7  1  0.500014  0.498620  0.002047  1
  O  O8  1  0.709692  0.174919  0.043964  1
  O  O9  1  0.287337  0.810055  0.969731  1
  O  O10  1  0.222984  0.811052  0.458089  1
  O  O11  1  0.784523  0.191788  0.531740  1
  O  O12  1  0.022472  0.681630  0.252707  1
  O  O13  1  0.985763  0.322529  0.744186  1
  O  O14  1  0.509351  0.331208  0.247097  1
  O  O15  1  0.488901  0.679368  0.755947  1
  O  O16  1  0.228543  0.238559  0.040762  1
  O  O17  1  0.776068  0.745843  0.969246  1
  O  O18  1  0.716236  0.749806  0.456891  1
  O  O19  1  0.279912  0.259066  0.529794  1
