# generated using pymatgen
data_Tb3In2GaPd2Pt
_symmetry_space_group_name_H-M   'P 1'
_cell_length_a   7.73453370
_cell_length_b   7.71055609
_cell_length_c   3.74465400
_cell_angle_alpha   90.00000000
_cell_angle_beta   90.00000000
_cell_angle_gamma   119.92633295
_symmetry_Int_Tables_number   1
_chemical_formula_structural   Tb3In2GaPd2Pt
_chemical_formula_sum   'Tb3 In2 Ga1 Pd2 Pt1'
_cell_volume   193.54594233
_cell_formula_units_Z   1
loop_
 _symmetry_equiv_pos_site_id
 _symmetry_equiv_pos_as_xyz
  1  'x, y, z'
loop_
 _atom_site_type_symbol
 _atom_site_label
 _atom_site_symmetry_multiplicity
 _atom_site_fract_x
 _atom_site_fract_y
 _atom_site_fract_z
 _atom_site_occupancy
  Tb  Tb0  1  0.404170  0.000283  0.000000  1
  Tb  Tb1  1  0.011840  0.409723  0.000000  1
  Tb  Tb2  1  0.573645  0.577958  0.000000  1
  In  In3  1  0.989438  0.736395  0.500000  1
  In  In4  1  0.741131  0.998395  0.500000  1
  Ga  Ga5  1  0.265640  0.261902  0.500000  1
  Pd  Pd6  1  0.024135  0.023745  0.000000  1
  Pd  Pd7  1  0.658525  0.330646  0.500000  1
  Pt  Pt8  1  0.331477  0.660952  0.500000  1
