# generated using pymatgen
data_SmS23
_symmetry_space_group_name_H-M   'P 1'
_cell_length_a   5.59544714
_cell_length_b   9.59366147
_cell_length_c   16.29899500
_cell_angle_alpha   82.42591977
_cell_angle_beta   85.98404499
_cell_angle_gamma   91.36398319
_symmetry_Int_Tables_number   1
_chemical_formula_structural   SmS23
_chemical_formula_sum   'Sm1 S23'
_cell_volume   864.69732289
_cell_formula_units_Z   1
loop_
 _symmetry_equiv_pos_site_id
 _symmetry_equiv_pos_as_xyz
  1  'x, y, z'
loop_
 _atom_site_type_symbol
 _atom_site_label
 _atom_site_symmetry_multiplicity
 _atom_site_fract_x
 _atom_site_fract_y
 _atom_site_fract_z
 _atom_site_occupancy
  Sm  Sm0  1  0.624390  0.172408  0.430427  1
  S  S1  1  0.741246  0.913765  0.397738  1
  S  S2  1  0.018563  0.302532  0.099825  1
  S  S3  1  0.784193  0.225484  0.574242  1
  S  S4  1  0.468716  0.885276  0.489720  1
  S  S5  1  0.172195  0.279933  0.983639  1
  S  S6  1  0.815913  0.742085  0.026346  1
  S  S7  1  0.139031  0.198798  0.378557  1
  S  S8  1  0.594436  0.415140  0.307055  1
  S  S9  1  0.854523  0.112827  0.151978  1
  S  S10  1  0.267159  0.875129  0.118925  1
  S  S11  1  0.701391  0.647396  0.629808  1
  S  S12  1  0.306532  0.437098  0.564582  1
  S  S13  1  0.148862  0.901756  0.860746  1
  S  S14  1  0.733510  0.140159  0.886897  1
  S  S15  1  0.062846  0.694746  0.113436  1
  S  S16  1  0.609033  0.852820  0.607528  1
  S  S17  1  0.418662  0.228133  0.590784  1
  S  S18  1  0.968305  0.716059  0.910456  1
  S  S19  1  0.924723  0.323653  0.896317  1
  S  S20  1  0.240167  0.385434  0.307769  1
  S  S21  1  0.107998  0.985921  0.207214  1
  S  S22  1  0.385626  0.529796  0.665817  1
  S  S23  1  0.911977  0.033650  0.800198  1
