# generated using pymatgen
data_Yb4FeRu7
_symmetry_space_group_name_H-M   'P 1'
_cell_length_a   5.27317678
_cell_length_b   5.27317794
_cell_length_c   8.62359706
_cell_angle_alpha   89.98863209
_cell_angle_beta   90.01137023
_cell_angle_gamma   120.15928269
_symmetry_Int_Tables_number   1
_chemical_formula_structural   Yb4FeRu7
_chemical_formula_sum   'Yb4 Fe1 Ru7'
_cell_volume   207.33113940
_cell_formula_units_Z   1
loop_
 _symmetry_equiv_pos_site_id
 _symmetry_equiv_pos_as_xyz
  1  'x, y, z'
loop_
 _atom_site_type_symbol
 _atom_site_label
 _atom_site_symmetry_multiplicity
 _atom_site_fract_x
 _atom_site_fract_y
 _atom_site_fract_z
 _atom_site_occupancy
  Yb  Yb0  1  0.666645  0.333355  0.566061  1
  Yb  Yb1  1  0.333355  0.666645  0.433939  1
  Yb  Yb2  1  0.333375  0.666625  0.066724  1
  Yb  Yb3  1  0.666625  0.333375  0.933276  1
  Fe  Fe4  1  0.000000  0.000000  0.000000  1
  Ru  Ru5  1  0.000000  0.000000  0.500000  1
  Ru  Ru6  1  0.170632  0.341117  0.755404  1
  Ru  Ru7  1  0.170028  0.829972  0.755401  1
  Ru  Ru8  1  0.658883  0.829368  0.755404  1
  Ru  Ru9  1  0.829368  0.658883  0.244596  1
  Ru  Ru10  1  0.829972  0.170028  0.244599  1
  Ru  Ru11  1  0.341117  0.170632  0.244596  1
