# generated using pymatgen
data_Er2ZrScPt2
_symmetry_space_group_name_H-M   'P 1'
_cell_length_a   4.67417400
_cell_length_b   7.00093700
_cell_length_c   8.29388900
_cell_angle_alpha   90.00000000
_cell_angle_beta   90.00000000
_cell_angle_gamma   90.00000000
_symmetry_Int_Tables_number   1
_chemical_formula_structural   Er2ZrScPt2
_chemical_formula_sum   'Er4 Zr2 Sc2 Pt4'
_cell_volume   271.40588701
_cell_formula_units_Z   2
loop_
 _symmetry_equiv_pos_site_id
 _symmetry_equiv_pos_as_xyz
  1  'x, y, z'
loop_
 _atom_site_type_symbol
 _atom_site_label
 _atom_site_symmetry_multiplicity
 _atom_site_fract_x
 _atom_site_fract_y
 _atom_site_fract_z
 _atom_site_occupancy
  Er  Er0  1  0.250000  0.016524  0.323410  1
  Er  Er1  1  0.250000  0.516524  0.176590  1
  Er  Er2  1  0.750000  0.980746  0.675214  1
  Er  Er3  1  0.750000  0.480746  0.824786  1
  Zr  Zr4  1  0.750000  0.358185  0.426911  1
  Zr  Zr5  1  0.750000  0.858185  0.073089  1
  Sc  Sc6  1  0.250000  0.645012  0.577988  1
  Sc  Sc7  1  0.250000  0.145012  0.922012  1
  Pt  Pt8  1  0.250000  0.259563  0.595570  1
  Pt  Pt9  1  0.250000  0.759563  0.904430  1
  Pt  Pt10  1  0.750000  0.739969  0.399752  1
  Pt  Pt11  1  0.750000  0.239969  0.100248  1
