# generated using pymatgen
data_La7Pr(SiI6)2
_symmetry_space_group_name_H-M   'P 1'
_cell_length_a   4.44748300
_cell_length_b   14.71075150
_cell_length_c   15.51102377
_cell_angle_alpha   90.21555567
_cell_angle_beta   90.00000000
_cell_angle_gamma   90.00000000
_symmetry_Int_Tables_number   1
_chemical_formula_structural   La7Pr(SiI6)2
_chemical_formula_sum   'La7 Pr1 Si2 I12'
_cell_volume   1014.81422448
_cell_formula_units_Z   1
loop_
 _symmetry_equiv_pos_site_id
 _symmetry_equiv_pos_as_xyz
  1  'x, y, z'
loop_
 _atom_site_type_symbol
 _atom_site_label
 _atom_site_symmetry_multiplicity
 _atom_site_fract_x
 _atom_site_fract_y
 _atom_site_fract_z
 _atom_site_occupancy
  La  La0  1  0.500000  0.116064  0.345321  1
  La  La1  1  0.500000  0.884928  0.655441  1
  La  La2  1  0.500000  0.615692  0.155372  1
  La  La3  1  0.000000  0.115951  0.577804  1
  La  La4  1  0.000000  0.886364  0.424223  1
  La  La5  1  0.000000  0.613200  0.922204  1
  La  La6  1  0.000000  0.384286  0.074431  1
  Pr  Pr7  1  0.500000  0.385900  0.846625  1
  Si  Si8  1  0.500000  0.001199  0.500838  1
  Si  Si9  1  0.500000  0.500308  0.000386  1
  I  I10  1  0.500000  0.242900  0.160944  1
  I  I11  1  0.500000  0.755743  0.837592  1
  I  I12  1  0.500000  0.743690  0.338269  1
  I  I13  1  0.500000  0.256435  0.664301  1
  I  I14  1  0.000000  0.258952  0.414523  1
  I  I15  1  0.000000  0.741997  0.586032  1
  I  I16  1  0.000000  0.757662  0.085790  1
  I  I17  1  0.000000  0.243246  0.909821  1
  I  I18  1  0.000000  0.998332  0.241104  1
  I  I19  1  0.000000  0.001773  0.760065  1
  I  I20  1  0.000000  0.497903  0.258187  1
  I  I21  1  0.000000  0.497479  0.740730  1
