# generated using pymatgen
data_Nd16Er4Ir5Pt7
_symmetry_space_group_name_H-M   'P 1'
_cell_length_a   11.34625254
_cell_length_b   11.34625254
_cell_length_c   6.46963751
_cell_angle_alpha   90.03236243
_cell_angle_beta   90.03236243
_cell_angle_gamma   90.01355901
_symmetry_Int_Tables_number   1
_chemical_formula_structural   Nd16Er4Ir5Pt7
_chemical_formula_sum   'Nd16 Er4 Ir5 Pt7'
_cell_volume   832.88432463
_cell_formula_units_Z   1
loop_
 _symmetry_equiv_pos_site_id
 _symmetry_equiv_pos_as_xyz
  1  'x, y, z'
loop_
 _atom_site_type_symbol
 _atom_site_label
 _atom_site_symmetry_multiplicity
 _atom_site_fract_x
 _atom_site_fract_y
 _atom_site_fract_z
 _atom_site_occupancy
  Nd  Nd0  1  0.292156  0.087019  0.376320  1
  Nd  Nd1  1  0.292513  0.909324  0.876695  1
  Nd  Nd2  1  0.707960  0.087294  0.876656  1
  Nd  Nd3  1  0.707771  0.912449  0.376471  1
  Nd  Nd4  1  0.584551  0.790488  0.875930  1
  Nd  Nd5  1  0.587422  0.208652  0.377055  1
  Nd  Nd6  1  0.410922  0.789562  0.381513  1
  Nd  Nd7  1  0.412461  0.207626  0.876903  1
  Nd  Nd8  1  0.209512  0.415449  0.624070  1
  Nd  Nd9  1  0.210438  0.589078  0.118487  1
  Nd  Nd10  1  0.791348  0.412578  0.122945  1
  Nd  Nd11  1  0.792374  0.587539  0.623097  1
  Nd  Nd12  1  0.912981  0.707844  0.123680  1
  Nd  Nd13  1  0.912706  0.292040  0.623344  1
  Nd  Nd14  1  0.090676  0.707487  0.623305  1
  Nd  Nd15  1  0.087551  0.292229  0.123529  1
  Er  Er16  1  0.999926  0.999769  0.500517  1
  Er  Er17  1  0.000231  0.000074  0.999483  1
  Er  Er18  1  0.498282  0.501278  0.999295  1
  Er  Er19  1  0.498722  0.501718  0.500705  1
  Ir  Ir20  1  0.353098  0.646902  0.750000  1
  Ir  Ir21  1  0.500284  0.000300  0.118678  1
  Ir  Ir22  1  0.500145  0.000835  0.617778  1
  Ir  Ir23  1  0.999165  0.499855  0.882222  1
  Ir  Ir24  1  0.999700  0.499716  0.381322  1
  Pt  Pt25  1  0.852758  0.147242  0.250000  1
  Pt  Pt26  1  0.852563  0.852698  0.750113  1
  Pt  Pt27  1  0.147302  0.147437  0.749887  1
  Pt  Pt28  1  0.146816  0.853184  0.250000  1
  Pt  Pt29  1  0.647287  0.352713  0.750000  1
  Pt  Pt30  1  0.648144  0.647764  0.250037  1
  Pt  Pt31  1  0.352236  0.351856  0.249963  1
