# generated using pymatgen
data_Sr2Tl2CdHgPd2
_symmetry_space_group_name_H-M   'P 1'
_cell_length_a   5.90754418
_cell_length_b   5.90754515
_cell_length_c   8.58549268
_cell_angle_alpha   89.85097172
_cell_angle_beta   90.14902769
_cell_angle_gamma   136.35551324
_symmetry_Int_Tables_number   1
_chemical_formula_structural   Sr2Tl2CdHgPd2
_chemical_formula_sum   'Sr2 Tl2 Cd1 Hg1 Pd2'
_cell_volume   206.79542659
_cell_formula_units_Z   1
loop_
 _symmetry_equiv_pos_site_id
 _symmetry_equiv_pos_as_xyz
  1  'x, y, z'
loop_
 _atom_site_type_symbol
 _atom_site_label
 _atom_site_symmetry_multiplicity
 _atom_site_fract_x
 _atom_site_fract_y
 _atom_site_fract_z
 _atom_site_occupancy
  Sr  Sr0  1  0.937058  0.062942  0.746678  1
  Sr  Sr1  1  0.064630  0.935370  0.253413  1
  Tl  Tl2  1  0.353135  0.646865  0.048701  1
  Tl  Tl3  1  0.352232  0.647768  0.449463  1
  Cd  Cd4  1  0.650509  0.349491  0.944151  1
  Hg  Hg5  1  0.643789  0.356211  0.556484  1
  Pd  Pd6  1  0.221340  0.778660  0.752529  1
  Pd  Pd7  1  0.777306  0.222694  0.248580  1
