# generated using pymatgen
data_LiHf2MnRh4
_symmetry_space_group_name_H-M   'P 1'
_cell_length_a   4.46114800
_cell_length_b   6.30852900
_cell_length_c   13.28669500
_cell_angle_alpha   90.00000000
_cell_angle_beta   89.99870283
_cell_angle_gamma   90.00000000
_symmetry_Int_Tables_number   1
_chemical_formula_structural   LiHf2MnRh4
_chemical_formula_sum   'Li3 Hf6 Mn3 Rh12'
_cell_volume   373.93119801
_cell_formula_units_Z   3
loop_
 _symmetry_equiv_pos_site_id
 _symmetry_equiv_pos_as_xyz
  1  'x, y, z'
loop_
 _atom_site_type_symbol
 _atom_site_label
 _atom_site_symmetry_multiplicity
 _atom_site_fract_x
 _atom_site_fract_y
 _atom_site_fract_z
 _atom_site_occupancy
  Li  Li0  1  0.499993  0.000000  0.501057  1
  Li  Li1  1  0.000121  0.499999  0.666700  1
  Li  Li2  1  0.500081  0.999999  0.832212  1
  Hf  Hf3  1  0.999987  0.000000  0.996200  1
  Hf  Hf4  1  0.499904  0.500000  0.166670  1
  Hf  Hf5  1  0.999908  0.999999  0.337141  1
  Hf  Hf6  1  0.499990  0.500000  0.504459  1
  Hf  Hf7  1  0.000114  0.000000  0.666681  1
  Hf  Hf8  1  0.500088  0.500000  0.828880  1
  Mn  Mn9  1  0.999986  0.500000  0.996475  1
  Mn  Mn10  1  0.499899  0.000000  0.166647  1
  Mn  Mn11  1  0.999908  0.500000  0.336887  1
  Rh  Rh12  1  0.499977  0.251063  0.999089  1
  Rh  Rh13  1  0.500000  0.748939  0.999088  1
  Rh  Rh14  1  0.999914  0.249226  0.166664  1
  Rh  Rh15  1  0.999899  0.750774  0.166664  1
  Rh  Rh16  1  0.499898  0.251092  0.334224  1
  Rh  Rh17  1  0.499920  0.748907  0.334223  1
  Rh  Rh18  1  0.999998  0.250578  0.501744  1
  Rh  Rh19  1  0.999997  0.749420  0.501743  1
  Rh  Rh20  1  0.500119  0.247418  0.666675  1
  Rh  Rh21  1  0.500105  0.752580  0.666674  1
  Rh  Rh22  1  0.000094  0.250587  0.831602  1
  Rh  Rh23  1  0.000095  0.749413  0.831604  1
