# generated using pymatgen
data_Tm2ThPaPt4
_symmetry_space_group_name_H-M   'P 1'
_cell_length_a   4.48640500
_cell_length_b   5.66138248
_cell_length_c   7.09554742
_cell_angle_alpha   90.32719275
_cell_angle_beta   90.00000000
_cell_angle_gamma   90.00000000
_symmetry_Int_Tables_number   1
_chemical_formula_structural   Tm2ThPaPt4
_chemical_formula_sum   'Tm2 Th1 Pa1 Pt4'
_cell_volume   180.21867742
_cell_formula_units_Z   1
loop_
 _symmetry_equiv_pos_site_id
 _symmetry_equiv_pos_as_xyz
  1  'x, y, z'
loop_
 _atom_site_type_symbol
 _atom_site_label
 _atom_site_symmetry_multiplicity
 _atom_site_fract_x
 _atom_site_fract_y
 _atom_site_fract_z
 _atom_site_occupancy
  Tm  Tm0  1  0.750000  0.143092  0.320452  1
  Tm  Tm1  1  0.250000  0.856237  0.679417  1
  Th  Th2  1  0.250000  0.650623  0.186998  1
  Pa  Pa3  1  0.750000  0.350524  0.812086  1
  Pt  Pt4  1  0.250000  0.170182  0.038770  1
  Pt  Pt5  1  0.750000  0.836163  0.942913  1
  Pt  Pt6  1  0.750000  0.655915  0.466587  1
  Pt  Pt7  1  0.250000  0.337263  0.552778  1
