# generated using pymatgen
data_Ce4YInPt4
_symmetry_space_group_name_H-M   'P 1'
_cell_length_a   7.90883200
_cell_length_b   7.90883200
_cell_length_c   3.84328100
_cell_angle_alpha   90.00000000
_cell_angle_beta   90.00000000
_cell_angle_gamma   90.00000000
_symmetry_Int_Tables_number   1
_chemical_formula_structural   Ce4YInPt4
_chemical_formula_sum   'Ce4 Y1 In1 Pt4'
_cell_volume   240.39577996
_cell_formula_units_Z   1
loop_
 _symmetry_equiv_pos_site_id
 _symmetry_equiv_pos_as_xyz
  1  'x, y, z'
loop_
 _atom_site_type_symbol
 _atom_site_label
 _atom_site_symmetry_multiplicity
 _atom_site_fract_x
 _atom_site_fract_y
 _atom_site_fract_z
 _atom_site_occupancy
  Ce  Ce0  1  0.655364  0.180130  0.499999  1
  Ce  Ce1  1  0.344636  0.819871  0.499999  1
  Ce  Ce2  1  0.180130  0.344636  0.499999  1
  Ce  Ce3  1  0.819871  0.655364  0.499999  1
  Y  Y4  1  0.000000  0.000000  0.000000  1
  In  In5  1  0.500000  0.500000  0.000000  1
  Pt  Pt6  1  0.359827  0.128087  0.000000  1
  Pt  Pt7  1  0.640172  0.871914  0.000000  1
  Pt  Pt8  1  0.871914  0.359827  0.000000  1
  Pt  Pt9  1  0.128087  0.640172  0.000000  1
