# generated using pymatgen
data_Eu2AlPdPt
_symmetry_space_group_name_H-M   'P 1'
_cell_length_a   5.86004965
_cell_length_b   5.86005073
_cell_length_c   7.93461407
_cell_angle_alpha   79.22610488
_cell_angle_beta   79.22611104
_cell_angle_gamma   60.85532471
_symmetry_Int_Tables_number   1
_chemical_formula_structural   Eu2AlPdPt
_chemical_formula_sum   'Eu4 Al2 Pd2 Pt2'
_cell_volume   232.31899479
_cell_formula_units_Z   2
loop_
 _symmetry_equiv_pos_site_id
 _symmetry_equiv_pos_as_xyz
  1  'x, y, z'
loop_
 _atom_site_type_symbol
 _atom_site_label
 _atom_site_symmetry_multiplicity
 _atom_site_fract_x
 _atom_site_fract_y
 _atom_site_fract_z
 _atom_site_occupancy
  Eu  Eu0  1  0.781335  0.519618  0.353066  1
  Eu  Eu1  1  0.480382  0.218665  0.146934  1
  Eu  Eu2  1  0.221253  0.482200  0.649233  1
  Eu  Eu3  1  0.517800  0.778747  0.850767  1
  Al  Al4  1  0.121695  0.878305  0.250000  1
  Al  Al5  1  0.885612  0.114388  0.750000  1
  Pd  Pd6  1  0.996624  0.261488  0.997857  1
  Pd  Pd7  1  0.738512  0.003376  0.502143  1
  Pt  Pt8  1  0.001311  0.744522  0.005091  1
  Pt  Pt9  1  0.255478  0.998689  0.494909  1
