# generated using pymatgen
data_Ta4SiAsRu10
_symmetry_space_group_name_H-M   'P 1'
_cell_length_a   4.13108800
_cell_length_b   5.43904009
_cell_length_c   10.54280717
_cell_angle_alpha   90.02089316
_cell_angle_beta   90.00000000
_cell_angle_gamma   90.00000000
_symmetry_Int_Tables_number   1
_chemical_formula_structural   Ta4SiAsRu10
_chemical_formula_sum   'Ta4 Si1 As1 Ru10'
_cell_volume   236.88793435
_cell_formula_units_Z   1
loop_
 _symmetry_equiv_pos_site_id
 _symmetry_equiv_pos_as_xyz
  1  'x, y, z'
loop_
 _atom_site_type_symbol
 _atom_site_label
 _atom_site_symmetry_multiplicity
 _atom_site_fract_x
 _atom_site_fract_y
 _atom_site_fract_z
 _atom_site_occupancy
  Ta  Ta0  1  0.500000  0.845218  0.355654  1
  Ta  Ta1  1  0.500000  0.154782  0.644346  1
  Ta  Ta2  1  0.500000  0.338412  0.139363  1
  Ta  Ta3  1  0.500000  0.661588  0.860637  1
  Si  Si4  1  0.000000  0.000000  0.000000  1
  As  As5  1  0.000000  0.500000  0.500000  1
  Ru  Ru6  1  0.000000  0.500000  0.000000  1
  Ru  Ru7  1  0.000000  0.000000  0.500000  1
  Ru  Ru8  1  0.000000  0.596096  0.256298  1
  Ru  Ru9  1  0.000000  0.403904  0.743702  1
  Ru  Ru10  1  0.000000  0.094774  0.241097  1
  Ru  Ru11  1  0.000000  0.905226  0.758903  1
  Ru  Ru12  1  0.500000  0.825018  0.105416  1
  Ru  Ru13  1  0.500000  0.174982  0.894584  1
  Ru  Ru14  1  0.500000  0.324833  0.393323  1
  Ru  Ru15  1  0.500000  0.675167  0.606677  1
