# generated using pymatgen
data_Ho19ThSn16
_symmetry_space_group_name_H-M   'P 1'
_cell_length_a   8.03928505
_cell_length_b   8.16075600
_cell_length_c   15.40940217
_cell_angle_alpha   90.06222424
_cell_angle_beta   89.74896987
_cell_angle_gamma   89.86352066
_symmetry_Int_Tables_number   1
_chemical_formula_structural   Ho19ThSn16
_chemical_formula_sum   'Ho19 Th1 Sn16'
_cell_volume   1010.94598001
_cell_formula_units_Z   1
loop_
 _symmetry_equiv_pos_site_id
 _symmetry_equiv_pos_as_xyz
  1  'x, y, z'
loop_
 _atom_site_type_symbol
 _atom_site_label
 _atom_site_symmetry_multiplicity
 _atom_site_fract_x
 _atom_site_fract_y
 _atom_site_fract_z
 _atom_site_occupancy
  Ho  Ho0  1  0.366486  0.835955  0.877178  1
  Ho  Ho1  1  0.868470  0.663878  0.621366  1
  Ho  Ho2  1  0.631231  0.162380  0.377401  1
  Ho  Ho3  1  0.133728  0.337466  0.123167  1
  Ho  Ho4  1  0.633567  0.162787  0.123264  1
  Ho  Ho5  1  0.131939  0.338114  0.377989  1
  Ho  Ho6  1  0.369083  0.837602  0.622032  1
  Ho  Ho7  1  0.866895  0.661807  0.877627  1
  Ho  Ho8  1  0.522522  0.321912  0.902554  1
  Ho  Ho9  1  0.024026  0.178992  0.598738  1
  Ho  Ho10  1  0.478145  0.678492  0.401930  1
  Ho  Ho11  1  0.979691  0.821154  0.098077  1
  Ho  Ho12  1  0.479796  0.678368  0.097753  1
  Ho  Ho13  1  0.978263  0.821377  0.402100  1
  Ho  Ho14  1  0.521399  0.323108  0.596448  1
  Ho  Ho15  1  0.197847  0.501019  0.749111  1
  Ho  Ho16  1  0.697939  0.996762  0.748686  1
  Ho  Ho17  1  0.801732  0.497665  0.250761  1
  Ho  Ho18  1  0.302132  0.002302  0.250128  1
  Th  Th19  1  0.016541  0.179794  0.903774  1
  Sn  Sn20  1  0.294588  0.034493  0.042640  1
  Sn  Sn21  1  0.791399  0.463143  0.458050  1
  Sn  Sn22  1  0.709589  0.965994  0.541289  1
  Sn  Sn23  1  0.209259  0.536736  0.958629  1
  Sn  Sn24  1  0.702105  0.958720  0.959507  1
  Sn  Sn25  1  0.207844  0.537975  0.541358  1
  Sn  Sn26  1  0.292274  0.036359  0.458269  1
  Sn  Sn27  1  0.793409  0.462298  0.041701  1
  Sn  Sn28  1  0.564141  0.620863  0.749413  1
  Sn  Sn29  1  0.064893  0.877879  0.750767  1
  Sn  Sn30  1  0.435006  0.380779  0.250482  1
  Sn  Sn31  1  0.935890  0.120013  0.250762  1
  Sn  Sn32  1  0.332444  0.148025  0.749632  1
  Sn  Sn33  1  0.826490  0.355111  0.747543  1
  Sn  Sn34  1  0.670155  0.851789  0.249601  1
  Sn  Sn35  1  0.169083  0.648889  0.250276  1
