# generated using pymatgen
data_Co5Si7(Mo6H)2
_symmetry_space_group_name_H-M   'P 1'
_cell_length_a   7.68907601
_cell_length_b   7.68907601
_cell_length_c   7.68907564
_cell_angle_alpha   60.59905998
_cell_angle_beta   60.59906406
_cell_angle_gamma   60.59905659
_symmetry_Int_Tables_number   1
_chemical_formula_structural   Co5Si7(Mo6H)2
_chemical_formula_sum   'Co5 Si7 Mo12 H2'
_cell_volume   325.79469796
_cell_formula_units_Z   1
loop_
 _symmetry_equiv_pos_site_id
 _symmetry_equiv_pos_as_xyz
  1  'x, y, z'
loop_
 _atom_site_type_symbol
 _atom_site_label
 _atom_site_symmetry_multiplicity
 _atom_site_fract_x
 _atom_site_fract_y
 _atom_site_fract_z
 _atom_site_occupancy
  Co  Co0  1  0.830722  0.830722  0.830722  1
  Co  Co1  1  0.617309  0.617309  0.140914  1
  Co  Co2  1  0.617309  0.140914  0.617309  1
  Co  Co3  1  0.140914  0.617309  0.617309  1
  Co  Co4  1  0.626433  0.626433  0.626433  1
  Si  Si5  1  0.414698  0.414698  0.757506  1
  Si  Si6  1  0.414698  0.757506  0.414698  1
  Si  Si7  1  0.757506  0.414698  0.414698  1
  Si  Si8  1  0.412297  0.412297  0.412297  1
  Si  Si9  1  0.836745  0.836745  0.501807  1
  Si  Si10  1  0.836745  0.501807  0.836745  1
  Si  Si11  1  0.501807  0.836745  0.836745  1
  Mo  Mo12  1  0.053335  0.053335  0.450334  1
  Mo  Mo13  1  0.440316  0.057499  0.440316  1
  Mo  Mo14  1  0.057499  0.440316  0.440316  1
  Mo  Mo15  1  0.440316  0.440316  0.057499  1
  Mo  Mo16  1  0.053335  0.450334  0.053335  1
  Mo  Mo17  1  0.450334  0.053335  0.053335  1
  Mo  Mo18  1  0.189193  0.189193  0.813106  1
  Mo  Mo19  1  0.811790  0.184482  0.811790  1
  Mo  Mo20  1  0.184482  0.811790  0.811790  1
  Mo  Mo21  1  0.811790  0.811790  0.184482  1
  Mo  Mo22  1  0.189193  0.813106  0.189193  1
  Mo  Mo23  1  0.813106  0.189193  0.189193  1
  H  H24  1  0.248378  0.248378  0.248378  1
  H  H25  1  0.999748  0.999748  0.999748  1
