# generated using pymatgen
data_LiTb2Dy2Co19P12
_symmetry_space_group_name_H-M   'P 1'
_cell_length_a   3.66593000
_cell_length_b   10.28174843
_cell_length_c   11.79621501
_cell_angle_alpha   89.89654630
_cell_angle_beta   90.00000000
_cell_angle_gamma   90.00000000
_symmetry_Int_Tables_number   1
_chemical_formula_structural   LiTb2Dy2Co19P12
_chemical_formula_sum   'Li1 Tb2 Dy2 Co19 P12'
_cell_volume   444.62421673
_cell_formula_units_Z   1
loop_
 _symmetry_equiv_pos_site_id
 _symmetry_equiv_pos_as_xyz
  1  'x, y, z'
loop_
 _atom_site_type_symbol
 _atom_site_label
 _atom_site_symmetry_multiplicity
 _atom_site_fract_x
 _atom_site_fract_y
 _atom_site_fract_z
 _atom_site_occupancy
  Li  Li0  1  0.250000  0.703243  0.990535  1
  Tb  Tb1  1  0.750000  0.417708  0.297966  1
  Tb  Tb2  1  0.750000  0.081329  0.796916  1
  Dy  Dy3  1  0.250000  0.581855  0.701247  1
  Dy  Dy4  1  0.250000  0.918914  0.203261  1
  Co  Co5  1  0.250000  0.784426  0.491854  1
  Co  Co6  1  0.750000  0.288952  0.010434  1
  Co  Co7  1  0.750000  0.215934  0.507717  1
  Co  Co8  1  0.250000  0.406128  0.488382  1
  Co  Co9  1  0.250000  0.095959  0.987749  1
  Co  Co10  1  0.750000  0.593172  0.513313  1
  Co  Co11  1  0.750000  0.908687  0.012958  1
  Co  Co12  1  0.250000  0.222770  0.175885  1
  Co  Co13  1  0.250000  0.278581  0.675531  1
  Co  Co14  1  0.750000  0.779984  0.821378  1
  Co  Co15  1  0.750000  0.720461  0.327755  1
  Co  Co16  1  0.250000  0.883648  0.696850  1
  Co  Co17  1  0.250000  0.619089  0.200121  1
  Co  Co18  1  0.750000  0.117940  0.300662  1
  Co  Co19  1  0.750000  0.380498  0.801085  1
  Co  Co20  1  0.250000  0.465149  0.932017  1
  Co  Co21  1  0.250000  0.032870  0.431368  1
  Co  Co22  1  0.750000  0.533454  0.066962  1
  Co  Co23  1  0.750000  0.968422  0.566679  1
  P  P24  1  0.250000  0.421339  0.112395  1
  P  P25  1  0.250000  0.081281  0.611149  1
  P  P26  1  0.750000  0.578666  0.884123  1
  P  P27  1  0.750000  0.919094  0.387793  1
  P  P28  1  0.250000  0.269693  0.868241  1
  P  P29  1  0.250000  0.229392  0.369325  1
  P  P30  1  0.750000  0.729564  0.137433  1
  P  P31  1  0.750000  0.771667  0.630354  1
  P  P32  1  0.250000  0.601633  0.393497  1
  P  P33  1  0.250000  0.898063  0.891160  1
  P  P34  1  0.750000  0.397290  0.608373  1
  P  P35  1  0.750000  0.103146  0.107530  1
