# generated using pymatgen
data_LuSc9(In2Pt)4
_symmetry_space_group_name_H-M   'P 1'
_cell_length_a   3.44897900
_cell_length_b   7.78658510
_cell_length_c   17.62928021
_cell_angle_alpha   90.02155268
_cell_angle_beta   90.00000000
_cell_angle_gamma   90.00000000
_symmetry_Int_Tables_number   1
_chemical_formula_structural   LuSc9(In2Pt)4
_chemical_formula_sum   'Lu1 Sc9 In8 Pt4'
_cell_volume   473.44783483
_cell_formula_units_Z   1
loop_
 _symmetry_equiv_pos_site_id
 _symmetry_equiv_pos_as_xyz
  1  'x, y, z'
loop_
 _atom_site_type_symbol
 _atom_site_label
 _atom_site_symmetry_multiplicity
 _atom_site_fract_x
 _atom_site_fract_y
 _atom_site_fract_z
 _atom_site_occupancy
  Lu  Lu0  1  0.000000  0.747870  0.279465  1
  Sc  Sc1  1  0.000000  0.121823  0.417798  1
  Sc  Sc2  1  0.000000  0.880902  0.585406  1
  Sc  Sc3  1  0.000000  0.379060  0.915417  1
  Sc  Sc4  1  0.000000  0.619081  0.082253  1
  Sc  Sc5  1  0.000000  0.248856  0.221287  1
  Sc  Sc6  1  0.000000  0.749444  0.777872  1
  Sc  Sc7  1  0.000000  0.251503  0.722039  1
  Sc  Sc8  1  0.000000  0.999374  0.998339  1
  Sc  Sc9  1  0.000000  0.500911  0.500557  1
  In  In10  1  0.500000  0.421453  0.353884  1
  In  In11  1  0.500000  0.575084  0.647372  1
  In  In12  1  0.500000  0.074494  0.852237  1
  In  In13  1  0.500000  0.927630  0.144653  1
  In  In14  1  0.500000  0.291971  0.063901  1
  In  In15  1  0.500000  0.705408  0.933844  1
  In  In16  1  0.500000  0.207167  0.566279  1
  In  In17  1  0.500000  0.797465  0.438476  1
  Pt  Pt18  1  0.500000  0.039466  0.305916  1
  Pt  Pt19  1  0.500000  0.967257  0.695581  1
  Pt  Pt20  1  0.500000  0.466579  0.805082  1
  Pt  Pt21  1  0.500000  0.527201  0.192342  1
