# generated using pymatgen
data_Cu12Si3Ni4P
_symmetry_space_group_name_H-M   'P 1'
_cell_length_a   6.14822300
_cell_length_b   6.14822300
_cell_length_c   6.14822300
_cell_angle_alpha   89.85377441
_cell_angle_beta   89.85377441
_cell_angle_gamma   89.85377441
_symmetry_Int_Tables_number   1
_chemical_formula_structural   Cu12Si3Ni4P
_chemical_formula_sum   'Cu12 Si3 Ni4 P1'
_cell_volume   232.40453460
_cell_formula_units_Z   1
loop_
 _symmetry_equiv_pos_site_id
 _symmetry_equiv_pos_as_xyz
  1  'x, y, z'
loop_
 _atom_site_type_symbol
 _atom_site_label
 _atom_site_symmetry_multiplicity
 _atom_site_fract_x
 _atom_site_fract_y
 _atom_site_fract_z
 _atom_site_occupancy
  Cu  Cu0  1  0.121615  0.208685  0.457649  1
  Cu  Cu1  1  0.385876  0.789717  0.953368  1
  Cu  Cu2  1  0.879023  0.706437  0.046086  1
  Cu  Cu3  1  0.457649  0.121615  0.208685  1
  Cu  Cu4  1  0.618167  0.293051  0.547198  1
  Cu  Cu5  1  0.953368  0.385876  0.789717  1
  Cu  Cu6  1  0.046086  0.879023  0.706437  1
  Cu  Cu7  1  0.547198  0.618167  0.293051  1
  Cu  Cu8  1  0.208685  0.457649  0.121615  1
  Cu  Cu9  1  0.706437  0.046086  0.879023  1
  Cu  Cu10  1  0.293051  0.547198  0.618167  1
  Cu  Cu11  1  0.789717  0.953368  0.385876  1
  Si  Si12  1  0.432871  0.935440  0.564429  1
  Si  Si13  1  0.935440  0.564429  0.432871  1
  Si  Si14  1  0.564429  0.432871  0.935440  1
  Ni  Ni15  1  0.682999  0.682999  0.682999  1
  Ni  Ni16  1  0.824904  0.310767  0.179475  1
  Ni  Ni17  1  0.310767  0.179475  0.824904  1
  Ni  Ni18  1  0.179475  0.824904  0.310767  1
  P  P19  1  0.062245  0.062245  0.062245  1
