# generated using pymatgen
data_Ho9TmSi16Pt
_symmetry_space_group_name_H-M   'P 1'
_cell_length_a   11.07745195
_cell_length_b   11.09323584
_cell_length_c   11.07686515
_cell_angle_alpha   144.73642727
_cell_angle_beta   136.52663900
_cell_angle_gamma   57.13586841
_symmetry_Int_Tables_number   1
_chemical_formula_structural   Ho9TmSi16Pt
_chemical_formula_sum   'Ho9 Tm1 Si16 Pt1'
_cell_volume   536.40516904
_cell_formula_units_Z   1
loop_
 _symmetry_equiv_pos_site_id
 _symmetry_equiv_pos_as_xyz
  1  'x, y, z'
loop_
 _atom_site_type_symbol
 _atom_site_label
 _atom_site_symmetry_multiplicity
 _atom_site_fract_x
 _atom_site_fract_y
 _atom_site_fract_z
 _atom_site_occupancy
  Ho  Ho0  1  0.352271  0.372029  0.522463  1
  Ho  Ho1  1  0.151462  0.165822  0.520250  1
  Ho  Ho2  1  0.451602  0.963281  0.014475  1
  Ho  Ho3  1  0.645632  0.165872  0.014459  1
  Ho  Ho4  1  0.948822  0.963241  0.511588  1
  Ho  Ho5  1  0.849517  0.372076  0.019738  1
  Ho  Ho6  1  0.548460  0.563953  0.512186  1
  Ho  Ho7  1  0.248763  0.762658  0.010378  1
  Ho  Ho8  1  0.752329  0.762496  0.513891  1
  Tm  Tm9  1  0.051535  0.563788  0.014932  1
  Si  Si10  1  0.117874  0.077151  0.959255  1
  Si  Si11  1  0.798048  0.185456  0.387798  1
  Si  Si12  1  0.299630  0.899026  0.598398  1
  Si  Si13  1  0.399432  0.500845  0.100642  1
  Si  Si14  1  0.886610  0.847262  0.961735  1
  Si  Si15  1  0.104085  0.708954  0.604675  1
  Si  Si16  1  0.200073  0.585853  0.384671  1
  Si  Si17  1  0.697774  0.293323  0.596210  1
  Si  Si18  1  0.000178  0.432890  0.432761  1
  Si  Si19  1  0.713954  0.665360  0.952558  1
  Si  Si20  1  0.600505  0.703105  0.102716  1
  Si  Si21  1  0.001248  0.087504  0.086383  1
  Si  Si22  1  0.500906  0.392773  0.891818  1
  Si  Si23  1  0.285345  0.241800  0.954928  1
  Si  Si24  1  0.582724  0.041279  0.458677  1
  Si  Si25  1  0.414190  0.869221  0.454756  1
  Pt  Pt26  1  0.897028  0.501904  0.606574  1
