# generated using pymatgen
data_Yb3Ce(CdPt)4
_symmetry_space_group_name_H-M   'P 1'
_cell_length_a   4.21669200
_cell_length_b   7.23224355
_cell_length_c   8.78713456
_cell_angle_alpha   90.15754244
_cell_angle_beta   90.00000000
_cell_angle_gamma   90.00000000
_symmetry_Int_Tables_number   1
_chemical_formula_structural   Yb3Ce(CdPt)4
_chemical_formula_sum   'Yb3 Ce1 Cd4 Pt4'
_cell_volume   267.97270350
_cell_formula_units_Z   1
loop_
 _symmetry_equiv_pos_site_id
 _symmetry_equiv_pos_as_xyz
  1  'x, y, z'
loop_
 _atom_site_type_symbol
 _atom_site_label
 _atom_site_symmetry_multiplicity
 _atom_site_fract_x
 _atom_site_fract_y
 _atom_site_fract_z
 _atom_site_occupancy
  Yb  Yb0  1  0.250000  0.042454  0.320348  1
  Yb  Yb1  1  0.250000  0.543290  0.184073  1
  Yb  Yb2  1  0.750000  0.959754  0.674079  1
  Ce  Ce3  1  0.750000  0.458474  0.821042  1
  Cd  Cd4  1  0.250000  0.128370  0.940891  1
  Cd  Cd5  1  0.250000  0.648832  0.556805  1
  Cd  Cd6  1  0.750000  0.858599  0.065479  1
  Cd  Cd7  1  0.750000  0.357538  0.435897  1
  Pt  Pt8  1  0.250000  0.255477  0.639670  1
  Pt  Pt9  1  0.250000  0.734438  0.868625  1
  Pt  Pt10  1  0.750000  0.755245  0.368050  1
  Pt  Pt11  1  0.750000  0.257530  0.125043  1
