# generated using pymatgen
data_SmY(CoB)8
_symmetry_space_group_name_H-M   'P 1'
_cell_length_a   6.98934900
_cell_length_b   6.98934900
_cell_length_c   3.80435600
_cell_angle_alpha   90.00000000
_cell_angle_beta   90.00000000
_cell_angle_gamma   90.00000000
_symmetry_Int_Tables_number   1
_chemical_formula_structural   SmY(CoB)8
_chemical_formula_sum   'Sm1 Y1 Co8 B8'
_cell_volume   185.84659284
_cell_formula_units_Z   1
loop_
 _symmetry_equiv_pos_site_id
 _symmetry_equiv_pos_as_xyz
  1  'x, y, z'
loop_
 _atom_site_type_symbol
 _atom_site_label
 _atom_site_symmetry_multiplicity
 _atom_site_fract_x
 _atom_site_fract_y
 _atom_site_fract_z
 _atom_site_occupancy
  Sm  Sm0  1  0.500000  0.500000  0.500000  1
  Y  Y1  1  0.000000  0.000000  0.000000  1
  Co  Co2  1  0.382046  0.140880  0.891520  1
  Co  Co3  1  0.617954  0.859120  0.891520  1
  Co  Co4  1  0.356646  0.883391  0.391967  1
  Co  Co5  1  0.643354  0.116609  0.391967  1
  Co  Co6  1  0.116609  0.356646  0.608033  1
  Co  Co7  1  0.883391  0.643354  0.608033  1
  Co  Co8  1  0.140880  0.617954  0.108480  1
  Co  Co9  1  0.859120  0.382046  0.108480  1
  B  B10  1  0.799725  0.663390  0.104195  1
  B  B11  1  0.200275  0.336610  0.104195  1
  B  B12  1  0.838341  0.296151  0.605825  1
  B  B13  1  0.161659  0.703849  0.605825  1
  B  B14  1  0.703849  0.838341  0.394175  1
  B  B15  1  0.296151  0.161659  0.394175  1
  B  B16  1  0.663390  0.200275  0.895805  1
  B  B17  1  0.336610  0.799725  0.895805  1
