# generated using pymatgen
data_Nd2HoTm3Ta2O14
_symmetry_space_group_name_H-M   'P 1'
_cell_length_a   6.46289174
_cell_length_b   6.46029812
_cell_length_c   7.56028703
_cell_angle_alpha   90.00940954
_cell_angle_beta   89.99715465
_cell_angle_gamma   109.17745543
_symmetry_Int_Tables_number   1
_chemical_formula_structural   Nd2HoTm3Ta2O14
_chemical_formula_sum   'Nd2 Ho1 Tm3 Ta2 O14'
_cell_volume   298.14140986
_cell_formula_units_Z   1
loop_
 _symmetry_equiv_pos_site_id
 _symmetry_equiv_pos_as_xyz
  1  'x, y, z'
loop_
 _atom_site_type_symbol
 _atom_site_label
 _atom_site_symmetry_multiplicity
 _atom_site_fract_x
 _atom_site_fract_y
 _atom_site_fract_z
 _atom_site_occupancy
  Nd  Nd0  1  0.508830  0.508591  0.500513  1
  Nd  Nd1  1  0.493885  0.494495  0.999593  1
  Ho  Ho2  1  0.466599  0.998886  0.252153  1
  Tm  Tm3  1  0.001796  0.532393  0.247820  1
  Tm  Tm4  1  0.998531  0.467209  0.747842  1
  Tm  Tm5  1  0.533078  0.001561  0.752212  1
  Ta  Ta6  1  0.001131  0.001076  0.500680  1
  Ta  Ta7  1  0.999391  0.999148  0.999503  1
  O  O8  1  0.933798  0.068327  0.750067  1
  O  O9  1  0.065326  0.933026  0.250011  1
  O  O10  1  0.354555  0.642740  0.250243  1
  O  O11  1  0.645783  0.354812  0.750089  1
  O  O12  1  0.360955  0.638426  0.749884  1
  O  O13  1  0.640312  0.364626  0.249733  1
  O  O14  1  0.322856  0.071598  0.967154  1
  O  O15  1  0.675627  0.926802  0.471387  1
  O  O16  1  0.318842  0.066116  0.537913  1
  O  O17  1  0.679293  0.931539  0.033520  1
  O  O18  1  0.063841  0.318680  0.462888  1
  O  O19  1  0.935785  0.680587  0.963258  1
  O  O20  1  0.929713  0.676414  0.531553  1
  O  O21  1  0.070072  0.322946  0.031985  1
