# generated using pymatgen
data_LiNd2Si4Ag
_symmetry_space_group_name_H-M   'P 1'
_cell_length_a   4.19210270
_cell_length_b   4.16218700
_cell_length_c   9.11822302
_cell_angle_alpha   90.00000000
_cell_angle_beta   103.28971560
_cell_angle_gamma   90.00000000
_symmetry_Int_Tables_number   1
_chemical_formula_structural   LiNd2Si4Ag
_chemical_formula_sum   'Li1 Nd2 Si4 Ag1'
_cell_volume   154.83702026
_cell_formula_units_Z   1
loop_
 _symmetry_equiv_pos_site_id
 _symmetry_equiv_pos_as_xyz
  1  'x, y, z'
loop_
 _atom_site_type_symbol
 _atom_site_label
 _atom_site_symmetry_multiplicity
 _atom_site_fract_x
 _atom_site_fract_y
 _atom_site_fract_z
 _atom_site_occupancy
  Li  Li0  1  0.250320  0.250000  0.500641  1
  Nd  Nd1  1  0.596667  0.250000  0.193335  1
  Nd  Nd2  1  0.402948  0.750000  0.805895  1
  Si  Si3  1  0.966971  0.250000  0.933942  1
  Si  Si4  1  0.033792  0.750000  0.067583  1
  Si  Si5  1  0.835718  0.250000  0.671436  1
  Si  Si6  1  0.164425  0.750000  0.328849  1
  Ag  Ag7  1  0.749160  0.750000  0.498320  1
