# generated using pymatgen
data_Gd2GaGe4Ir3
_symmetry_space_group_name_H-M   'P 1'
_cell_length_a   8.38194022
_cell_length_b   8.38194016
_cell_length_c   5.88162400
_cell_angle_alpha   71.65989261
_cell_angle_beta   71.65988553
_cell_angle_gamma   94.24640756
_symmetry_Int_Tables_number   1
_chemical_formula_structural   Gd2GaGe4Ir3
_chemical_formula_sum   'Gd4 Ga2 Ge8 Ir6'
_cell_volume   365.37967447
_cell_formula_units_Z   2
loop_
 _symmetry_equiv_pos_site_id
 _symmetry_equiv_pos_as_xyz
  1  'x, y, z'
loop_
 _atom_site_type_symbol
 _atom_site_label
 _atom_site_symmetry_multiplicity
 _atom_site_fract_x
 _atom_site_fract_y
 _atom_site_fract_z
 _atom_site_occupancy
  Gd  Gd0  1  0.867726  0.594582  0.761046  1
  Gd  Gd1  1  0.132274  0.405418  0.238954  1
  Gd  Gd2  1  0.405418  0.132274  0.738954  1
  Gd  Gd3  1  0.594582  0.867726  0.261046  1
  Ga  Ga4  1  0.773150  0.226850  0.750000  1
  Ga  Ga5  1  0.226850  0.773150  0.250000  1
  Ge  Ge6  1  0.516069  0.483931  0.750000  1
  Ge  Ge7  1  0.483931  0.516069  0.250000  1
  Ge  Ge8  1  0.209759  0.790241  0.750000  1
  Ge  Ge9  1  0.790241  0.209759  0.250000  1
  Ge  Ge10  1  0.264753  0.068304  0.328213  1
  Ge  Ge11  1  0.735247  0.931696  0.671787  1
  Ge  Ge12  1  0.931696  0.735247  0.171787  1
  Ge  Ge13  1  0.068304  0.264753  0.828213  1
  Ir  Ir14  1  0.539943  0.259096  0.133649  1
  Ir  Ir15  1  0.740904  0.460057  0.366351  1
  Ir  Ir16  1  0.460057  0.740904  0.866351  1
  Ir  Ir17  1  0.259096  0.539943  0.633649  1
  Ir  Ir18  1  0.993977  0.006023  0.250000  1
  Ir  Ir19  1  0.006023  0.993977  0.750000  1
