# generated using pymatgen
data_TmUB6Mo
_symmetry_space_group_name_H-M   'P 1'
_cell_length_a   3.63517500
_cell_length_b   9.34973300
_cell_length_c   11.44212600
_cell_angle_alpha   90.00000000
_cell_angle_beta   90.00000000
_cell_angle_gamma   90.00000000
_symmetry_Int_Tables_number   1
_chemical_formula_structural   TmUB6Mo
_chemical_formula_sum   'Tm4 U4 B24 Mo4'
_cell_volume   388.89401344
_cell_formula_units_Z   4
loop_
 _symmetry_equiv_pos_site_id
 _symmetry_equiv_pos_as_xyz
  1  'x, y, z'
loop_
 _atom_site_type_symbol
 _atom_site_label
 _atom_site_symmetry_multiplicity
 _atom_site_fract_x
 _atom_site_fract_y
 _atom_site_fract_z
 _atom_site_occupancy
  Tm  Tm0  1  0.000000  0.337564  0.408674  1
  Tm  Tm1  1  0.000000  0.662436  0.591326  1
  Tm  Tm2  1  0.000000  0.837564  0.091326  1
  Tm  Tm3  1  0.000000  0.162436  0.908674  1
  U  U4  1  0.000000  0.955867  0.395356  1
  U  U5  1  0.000000  0.044133  0.604644  1
  U  U6  1  0.000000  0.455867  0.104644  1
  U  U7  1  0.000000  0.544133  0.895356  1
  B  B8  1  0.500000  0.550623  0.432543  1
  B  B9  1  0.500000  0.449377  0.567457  1
  B  B10  1  0.500000  0.050623  0.067457  1
  B  B11  1  0.500000  0.949377  0.932543  1
  B  B12  1  0.500000  0.744113  0.424470  1
  B  B13  1  0.500000  0.255887  0.575530  1
  B  B14  1  0.500000  0.244113  0.075530  1
  B  B15  1  0.500000  0.755887  0.924470  1
  B  B16  1  0.500000  0.803574  0.274692  1
  B  B17  1  0.500000  0.196426  0.725308  1
  B  B18  1  0.500000  0.303574  0.225308  1
  B  B19  1  0.500000  0.696426  0.774692  1
  B  B20  1  0.500000  0.643539  0.187547  1
  B  B21  1  0.500000  0.356461  0.812453  1
  B  B22  1  0.500000  0.143539  0.312453  1
  B  B23  1  0.500000  0.856461  0.687547  1
  B  B24  1  0.500000  0.986629  0.219732  1
  B  B25  1  0.500000  0.013371  0.780268  1
  B  B26  1  0.500000  0.486629  0.280268  1
  B  B27  1  0.500000  0.513371  0.719732  1
  B  B28  1  0.500000  0.640015  0.039169  1
  B  B29  1  0.500000  0.359985  0.960831  1
  B  B30  1  0.500000  0.140015  0.460831  1
  B  B31  1  0.500000  0.859985  0.539169  1
  Mo  Mo32  1  0.000000  0.646155  0.318380  1
  Mo  Mo33  1  0.000000  0.353845  0.681620  1
  Mo  Mo34  1  0.000000  0.146155  0.181620  1
  Mo  Mo35  1  0.000000  0.853845  0.818380  1
