# generated using pymatgen
data_Eu2MnTe2F2
_symmetry_space_group_name_H-M   'P 1'
_cell_length_a   4.24095600
_cell_length_b   4.24105600
_cell_length_c   9.81776400
_cell_angle_alpha   90.00000000
_cell_angle_beta   90.00000000
_cell_angle_gamma   90.00000000
_symmetry_Int_Tables_number   1
_chemical_formula_structural   Eu2MnTe2F2
_chemical_formula_sum   'Eu2 Mn1 Te2 F2'
_cell_volume   176.58359816
_cell_formula_units_Z   1
loop_
 _symmetry_equiv_pos_site_id
 _symmetry_equiv_pos_as_xyz
  1  'x, y, z'
loop_
 _atom_site_type_symbol
 _atom_site_label
 _atom_site_symmetry_multiplicity
 _atom_site_fract_x
 _atom_site_fract_y
 _atom_site_fract_z
 _atom_site_occupancy
  Eu  Eu0  1  0.000000  0.499999  0.142496  1
  Eu  Eu1  1  0.499999  0.000000  0.857503  1
  Mn  Mn2  1  0.499999  0.499999  0.500001  1
  Te  Te3  1  0.499999  0.000000  0.313611  1
  Te  Te4  1  0.000000  0.499999  0.686390  1
  F  F5  1  0.000000  0.000000  0.000001  1
  F  F6  1  0.499999  0.499999  0.999998  1
