# generated using pymatgen
data_Ho10RuPb6Au
_symmetry_space_group_name_H-M   'P 1'
_cell_length_a   9.16659300
_cell_length_b   9.16659240
_cell_length_c   6.84376400
_cell_angle_alpha   90.00000000
_cell_angle_beta   90.00000000
_cell_angle_gamma   119.99999856
_symmetry_Int_Tables_number   1
_chemical_formula_structural   Ho10RuPb6Au
_chemical_formula_sum   'Ho10 Ru1 Pb6 Au1'
_cell_volume   498.01397793
_cell_formula_units_Z   1
loop_
 _symmetry_equiv_pos_site_id
 _symmetry_equiv_pos_as_xyz
  1  'x, y, z'
loop_
 _atom_site_type_symbol
 _atom_site_label
 _atom_site_symmetry_multiplicity
 _atom_site_fract_x
 _atom_site_fract_y
 _atom_site_fract_z
 _atom_site_occupancy
  Ho  Ho0  1  0.244737  0.000000  0.727993  1
  Ho  Ho1  1  0.755263  0.000000  0.272007  1
  Ho  Ho2  1  0.000000  0.244737  0.727993  1
  Ho  Ho3  1  0.000000  0.755263  0.272007  1
  Ho  Ho4  1  0.755263  0.755263  0.727993  1
  Ho  Ho5  1  0.244737  0.244737  0.272007  1
  Ho  Ho6  1  0.333333  0.666667  0.500000  1
  Ho  Ho7  1  0.666667  0.333333  0.500000  1
  Ho  Ho8  1  0.666667  0.333333  0.000000  1
  Ho  Ho9  1  0.333333  0.666667  0.000000  1
  Ru  Ru10  1  0.000000  0.000000  0.500000  1
  Pb  Pb11  1  0.600766  0.000000  0.752901  1
  Pb  Pb12  1  0.399234  0.000000  0.247099  1
  Pb  Pb13  1  0.000000  0.600766  0.752901  1
  Pb  Pb14  1  0.000000  0.399234  0.247099  1
  Pb  Pb15  1  0.399234  0.399234  0.752901  1
  Pb  Pb16  1  0.600766  0.600766  0.247099  1
  Au  Au17  1  0.000000  0.000000  0.000000  1
