# generated using pymatgen
data_LiTm(WO4)2
_symmetry_space_group_name_H-M   'P 1'
_cell_length_a   5.94609800
_cell_length_b   5.07693105
_cell_length_c   10.96515556
_cell_angle_alpha   64.71880527
_cell_angle_beta   90.00000000
_cell_angle_gamma   90.00000000
_symmetry_Int_Tables_number   1
_chemical_formula_structural   LiTm(WO4)2
_chemical_formula_sum   'Li2 Tm2 W4 O16'
_cell_volume   299.31160968
_cell_formula_units_Z   2
loop_
 _symmetry_equiv_pos_site_id
 _symmetry_equiv_pos_as_xyz
  1  'x, y, z'
loop_
 _atom_site_type_symbol
 _atom_site_label
 _atom_site_symmetry_multiplicity
 _atom_site_fract_x
 _atom_site_fract_y
 _atom_site_fract_z
 _atom_site_occupancy
  Li  Li0  1  0.728698  0.000000  0.750000  1
  Li  Li1  1  0.271302  0.000000  0.250000  1
  Tm  Tm2  1  0.334328  0.500000  0.750000  1
  Tm  Tm3  1  0.665672  0.500000  0.250000  1
  W  W4  1  0.828882  0.737076  0.510152  1
  W  W5  1  0.171118  0.262924  0.489848  1
  W  W6  1  0.828882  0.262924  0.989848  1
  W  W7  1  0.171118  0.737076  0.010152  1
  O  O8  1  0.888849  0.838176  0.099537  1
  O  O9  1  0.111151  0.161824  0.900463  1
  O  O10  1  0.888849  0.161824  0.400463  1
  O  O11  1  0.111151  0.838176  0.599537  1
  O  O12  1  0.366545  0.720865  0.884534  1
  O  O13  1  0.633455  0.279135  0.115466  1
  O  O14  1  0.366545  0.279135  0.615466  1
  O  O15  1  0.633455  0.720865  0.384534  1
  O  O16  1  0.906512  0.663120  0.890454  1
  O  O17  1  0.093488  0.336880  0.109546  1
  O  O18  1  0.906512  0.336880  0.609546  1
  O  O19  1  0.093488  0.663120  0.390454  1
  O  O20  1  0.634823  0.765898  0.633519  1
  O  O21  1  0.365177  0.234102  0.366481  1
  O  O22  1  0.634823  0.234102  0.866481  1
  O  O23  1  0.365177  0.765898  0.133519  1
