# generated using pymatgen
data_BaCu2Pd4O11
_symmetry_space_group_name_H-M   'P 1'
_cell_length_a   6.01367169
_cell_length_b   6.01367105
_cell_length_c   13.78944366
_cell_angle_alpha   89.95739338
_cell_angle_beta   89.95739259
_cell_angle_gamma   120.18735659
_symmetry_Int_Tables_number   1
_chemical_formula_structural   BaCu2Pd4O11
_chemical_formula_sum   'Ba2 Cu4 Pd8 O22'
_cell_volume   431.05556802
_cell_formula_units_Z   2
loop_
 _symmetry_equiv_pos_site_id
 _symmetry_equiv_pos_as_xyz
  1  'x, y, z'
loop_
 _atom_site_type_symbol
 _atom_site_label
 _atom_site_symmetry_multiplicity
 _atom_site_fract_x
 _atom_site_fract_y
 _atom_site_fract_z
 _atom_site_occupancy
  Ba  Ba0  1  0.667535  0.332465  0.250000  1
  Ba  Ba1  1  0.332465  0.667535  0.750000  1
  Cu  Cu2  1  0.332277  0.667723  0.250000  1
  Cu  Cu3  1  0.667723  0.332277  0.750000  1
  Cu  Cu4  1  0.500000  0.000000  0.000000  1
  Cu  Cu5  1  0.000000  0.500000  0.500000  1
  Pd  Pd6  1  0.002469  0.005304  0.148142  1
  Pd  Pd7  1  0.997531  0.994696  0.851858  1
  Pd  Pd8  1  0.005304  0.002469  0.648142  1
  Pd  Pd9  1  0.994696  0.997531  0.351858  1
  Pd  Pd10  1  0.000000  0.500000  0.000000  1
  Pd  Pd11  1  0.500000  0.500000  0.000000  1
  Pd  Pd12  1  0.500000  0.000000  0.500000  1
  Pd  Pd13  1  0.500000  0.500000  0.500000  1
  O  O14  1  0.823052  0.646186  0.082617  1
  O  O15  1  0.354073  0.174287  0.081309  1
  O  O16  1  0.820001  0.173926  0.081300  1
  O  O17  1  0.176948  0.353814  0.917383  1
  O  O18  1  0.645927  0.825713  0.918691  1
  O  O19  1  0.179999  0.826074  0.918700  1
  O  O20  1  0.174287  0.354073  0.581309  1
  O  O21  1  0.646186  0.823052  0.582617  1
  O  O22  1  0.173926  0.820001  0.581300  1
  O  O23  1  0.825713  0.645927  0.418691  1
  O  O24  1  0.353814  0.176948  0.417383  1
  O  O25  1  0.826074  0.179999  0.418700  1
  O  O26  1  0.147204  0.852796  0.250000  1
  O  O27  1  0.147185  0.296954  0.249898  1
  O  O28  1  0.703046  0.852815  0.250102  1
  O  O29  1  0.852796  0.147204  0.750000  1
  O  O30  1  0.852815  0.703046  0.750102  1
  O  O31  1  0.296954  0.147185  0.749898  1
  O  O32  1  0.334141  0.668150  0.077130  1
  O  O33  1  0.665859  0.331850  0.922870  1
  O  O34  1  0.668150  0.334141  0.577130  1
  O  O35  1  0.331850  0.665859  0.422870  1
