# generated using pymatgen
data_Tb6Er4Si5P
_symmetry_space_group_name_H-M   'P 1'
_cell_length_a   8.41327900
_cell_length_b   8.41947339
_cell_length_c   6.28417300
_cell_angle_alpha   90.00000000
_cell_angle_beta   90.00000000
_cell_angle_gamma   119.97565371
_symmetry_Int_Tables_number   1
_chemical_formula_structural   Tb6Er4Si5P
_chemical_formula_sum   'Tb6 Er4 Si5 P1'
_cell_volume   385.59862540
_cell_formula_units_Z   1
loop_
 _symmetry_equiv_pos_site_id
 _symmetry_equiv_pos_as_xyz
  1  'x, y, z'
loop_
 _atom_site_type_symbol
 _atom_site_label
 _atom_site_symmetry_multiplicity
 _atom_site_fract_x
 _atom_site_fract_y
 _atom_site_fract_z
 _atom_site_occupancy
  Tb  Tb0  1  0.000958  0.756499  0.750000  1
  Tb  Tb1  1  0.000789  0.244606  0.250000  1
  Tb  Tb2  1  0.756183  0.755394  0.250000  1
  Tb  Tb3  1  0.754793  0.000000  0.750000  1
  Tb  Tb4  1  0.244459  0.243501  0.750000  1
  Tb  Tb5  1  0.244070  0.000000  0.250000  1
  Er  Er6  1  0.333649  0.667326  0.500037  1
  Er  Er7  1  0.666325  0.332674  0.999963  1
  Er  Er8  1  0.666325  0.332674  0.500037  1
  Er  Er9  1  0.333649  0.667326  0.999963  1
  Si  Si10  1  0.395137  0.394631  0.250000  1
  Si  Si11  1  0.000505  0.605369  0.250000  1
  Si  Si12  1  0.000106  0.394586  0.750000  1
  Si  Si13  1  0.605521  0.605414  0.750000  1
  Si  Si14  1  0.606034  0.000000  0.250000  1
  P  P15  1  0.391499  0.000000  0.750000  1
