# generated using pymatgen
data_Pr2HfSn7Ir4
_symmetry_space_group_name_H-M   'P 1'
_cell_length_a   4.55543900
_cell_length_b   7.29938100
_cell_length_c   18.52204400
_cell_angle_alpha   90.00000000
_cell_angle_beta   90.00000000
_cell_angle_gamma   90.00000000
_symmetry_Int_Tables_number   1
_chemical_formula_structural   Pr2HfSn7Ir4
_chemical_formula_sum   'Pr4 Hf2 Sn14 Ir8'
_cell_volume   615.89287489
_cell_formula_units_Z   2
loop_
 _symmetry_equiv_pos_site_id
 _symmetry_equiv_pos_as_xyz
  1  'x, y, z'
loop_
 _atom_site_type_symbol
 _atom_site_label
 _atom_site_symmetry_multiplicity
 _atom_site_fract_x
 _atom_site_fract_y
 _atom_site_fract_z
 _atom_site_occupancy
  Pr  Pr0  1  0.250000  0.987187  0.859824  1
  Pr  Pr1  1  0.250000  0.512813  0.359824  1
  Pr  Pr2  1  0.750000  0.001594  0.140231  1
  Pr  Pr3  1  0.750000  0.498406  0.640231  1
  Hf  Hf4  1  0.250000  0.323650  0.183738  1
  Hf  Hf5  1  0.250000  0.176350  0.683738  1
  Sn  Sn6  1  0.750000  0.685613  0.818737  1
  Sn  Sn7  1  0.750000  0.814387  0.318737  1
  Sn  Sn8  1  0.250000  0.730046  0.194082  1
  Sn  Sn9  1  0.250000  0.769954  0.694082  1
  Sn  Sn10  1  0.750000  0.270621  0.798869  1
  Sn  Sn11  1  0.750000  0.229379  0.298869  1
  Sn  Sn12  1  0.250000  0.855793  0.032959  1
  Sn  Sn13  1  0.250000  0.644207  0.532959  1
  Sn  Sn14  1  0.750000  0.130613  0.966223  1
  Sn  Sn15  1  0.750000  0.369387  0.466223  1
  Sn  Sn16  1  0.250000  0.507800  0.931642  1
  Sn  Sn17  1  0.250000  0.992200  0.431642  1
  Sn  Sn18  1  0.750000  0.466526  0.071093  1
  Sn  Sn19  1  0.750000  0.033474  0.571093  1
  Ir  Ir20  1  0.250000  0.240142  0.039192  1
  Ir  Ir21  1  0.250000  0.259858  0.539192  1
  Ir  Ir22  1  0.750000  0.739709  0.967013  1
  Ir  Ir23  1  0.750000  0.760291  0.467013  1
  Ir  Ir24  1  0.250000  0.030142  0.280431  1
  Ir  Ir25  1  0.250000  0.469858  0.780431  1
  Ir  Ir26  1  0.750000  0.970738  0.715966  1
  Ir  Ir27  1  0.750000  0.529262  0.215966  1
