# generated using pymatgen
data_TbY10ThCo4
_symmetry_space_group_name_H-M   'P 1'
_cell_length_a   6.31420721
_cell_length_b   6.95602954
_cell_length_c   9.55336400
_cell_angle_alpha   90.00000000
_cell_angle_beta   90.00000000
_cell_angle_gamma   91.36518750
_symmetry_Int_Tables_number   1
_chemical_formula_structural   TbY10ThCo4
_chemical_formula_sum   'Tb1 Y10 Th1 Co4'
_cell_volume   419.48195281
_cell_formula_units_Z   1
loop_
 _symmetry_equiv_pos_site_id
 _symmetry_equiv_pos_as_xyz
  1  'x, y, z'
loop_
 _atom_site_type_symbol
 _atom_site_label
 _atom_site_symmetry_multiplicity
 _atom_site_fract_x
 _atom_site_fract_y
 _atom_site_fract_z
 _atom_site_occupancy
  Tb  Tb0  1  0.142144  0.453157  0.750000  1
  Y  Y1  1  0.325428  0.672505  0.066650  1
  Y  Y2  1  0.174586  0.174206  0.430681  1
  Y  Y3  1  0.677578  0.326269  0.568262  1
  Y  Y4  1  0.822415  0.828476  0.929716  1
  Y  Y5  1  0.677578  0.326269  0.931738  1
  Y  Y6  1  0.822415  0.828476  0.570284  1
  Y  Y7  1  0.325428  0.672505  0.433350  1
  Y  Y8  1  0.174586  0.174206  0.069319  1
  Y  Y9  1  0.640979  0.043454  0.250000  1
  Y  Y10  1  0.358432  0.956566  0.750000  1
  Th  Th11  1  0.846572  0.557682  0.250000  1
  Co  Co12  1  0.040510  0.869840  0.250000  1
  Co  Co13  1  0.474670  0.390722  0.250000  1
  Co  Co14  1  0.954907  0.114887  0.750000  1
  Co  Co15  1  0.541772  0.610780  0.750000  1
