# generated using pymatgen
data_Dy5Co17Si2(P5Ru)2
_symmetry_space_group_name_H-M   'P 1'
_cell_length_a   12.08168513
_cell_length_b   12.05439860
_cell_length_c   3.70824700
_cell_angle_alpha   90.00000000
_cell_angle_beta   90.00000000
_cell_angle_gamma   119.92530964
_symmetry_Int_Tables_number   1
_chemical_formula_structural   Dy5Co17Si2(P5Ru)2
_chemical_formula_sum   'Dy5 Co17 Si2 P10 Ru2'
_cell_volume   468.05697146
_cell_formula_units_Z   1
loop_
 _symmetry_equiv_pos_site_id
 _symmetry_equiv_pos_as_xyz
  1  'x, y, z'
loop_
 _atom_site_type_symbol
 _atom_site_label
 _atom_site_symmetry_multiplicity
 _atom_site_fract_x
 _atom_site_fract_y
 _atom_site_fract_z
 _atom_site_occupancy
  Dy  Dy0  1  0.665249  0.332064  0.000000  1
  Dy  Dy1  1  0.334751  0.666815  0.000000  1
  Dy  Dy2  1  0.182143  0.182547  0.500000  1
  Dy  Dy3  1  0.817857  0.000404  0.500000  1
  Dy  Dy4  1  0.000000  0.812310  0.500000  1
  Co  Co5  1  0.000000  0.448140  0.000000  1
  Co  Co6  1  0.825687  0.204052  0.000000  1
  Co  Co7  1  0.804096  0.624104  0.000000  1
  Co  Co8  1  0.374861  0.175485  0.000000  1
  Co  Co9  1  0.195904  0.820007  0.000000  1
  Co  Co10  1  0.625139  0.800623  0.000000  1
  Co  Co11  1  0.174313  0.378365  0.000000  1
  Co  Co12  1  0.642801  0.126837  0.500000  1
  Co  Co13  1  0.874418  0.516242  0.500000  1
  Co  Co14  1  0.484735  0.356532  0.500000  1
  Co  Co15  1  0.125582  0.641824  0.500000  1
  Co  Co16  1  0.515265  0.871798  0.500000  1
  Co  Co17  1  0.357199  0.484036  0.500000  1
  Co  Co18  1  0.718696  0.718129  0.500000  1
  Co  Co19  1  0.281304  0.999435  0.500000  1
  Co  Co20  1  0.000000  0.285676  0.500000  1
  Co  Co21  1  0.000000  0.000887  0.000000  1
  Si  Si22  1  0.363571  0.364701  0.000000  1
  Si  Si23  1  0.636429  0.001130  0.000000  1
  P  P24  1  0.000000  0.631103  0.000000  1
  P  P25  1  0.833928  0.314003  0.500000  1
  P  P26  1  0.686921  0.521234  0.500000  1
  P  P27  1  0.477993  0.164449  0.500000  1
  P  P28  1  0.313079  0.834314  0.500000  1
  P  P29  1  0.522007  0.686456  0.500000  1
  P  P30  1  0.166072  0.480075  0.500000  1
  P  P31  1  0.820675  0.819750  0.000000  1
  P  P32  1  0.179325  0.999074  0.000000  1
  P  P33  1  0.000000  0.182381  0.000000  1
  Ru  Ru34  1  0.557344  0.556180  0.000000  1
  Ru  Ru35  1  0.442656  0.998836  0.000000  1
