# generated using pymatgen
data_Zr16Fe4Rh3Au
_symmetry_space_group_name_H-M   'P 1'
_cell_length_a   8.74656082
_cell_length_b   8.73981462
_cell_length_c   8.73981500
_cell_angle_alpha   60.00000234
_cell_angle_beta   60.02551337
_cell_angle_gamma   60.02551655
_symmetry_Int_Tables_number   1
_chemical_formula_structural   Zr16Fe4Rh3Au
_chemical_formula_sum   'Zr16 Fe4 Rh3 Au1'
_cell_volume   472.60049534
_cell_formula_units_Z   1
loop_
 _symmetry_equiv_pos_site_id
 _symmetry_equiv_pos_as_xyz
  1  'x, y, z'
loop_
 _atom_site_type_symbol
 _atom_site_label
 _atom_site_symmetry_multiplicity
 _atom_site_fract_x
 _atom_site_fract_y
 _atom_site_fract_z
 _atom_site_occupancy
  Zr  Zr0  1  0.057940  0.647353  0.647353  1
  Zr  Zr1  1  0.646270  0.057585  0.648072  1
  Zr  Zr2  1  0.646270  0.648072  0.057585  1
  Zr  Zr3  1  0.646270  0.648072  0.648072  1
  Zr  Zr4  1  0.806495  0.808997  0.192254  1
  Zr  Zr5  1  0.193260  0.193497  0.806622  1
  Zr  Zr6  1  0.806495  0.192254  0.808997  1
  Zr  Zr7  1  0.193260  0.806622  0.193497  1
  Zr  Zr8  1  0.193260  0.806622  0.806622  1
  Zr  Zr9  1  0.806495  0.192254  0.192254  1
  Zr  Zr10  1  0.440212  0.438281  0.060754  1
  Zr  Zr11  1  0.069031  0.054478  0.438245  1
  Zr  Zr12  1  0.440212  0.060754  0.438281  1
  Zr  Zr13  1  0.069031  0.438245  0.054478  1
  Zr  Zr14  1  0.069031  0.438245  0.438245  1
  Zr  Zr15  1  0.440212  0.060754  0.060754  1
  Fe  Fe16  1  0.423824  0.858725  0.858725  1
  Fe  Fe17  1  0.858085  0.423866  0.859024  1
  Fe  Fe18  1  0.858085  0.859024  0.423866  1
  Fe  Fe19  1  0.858085  0.859024  0.859024  1
  Rh  Rh20  1  0.411013  0.758180  0.415404  1
  Rh  Rh21  1  0.411013  0.415404  0.758180  1
  Rh  Rh22  1  0.411013  0.415404  0.415404  1
  Au  Au23  1  0.745139  0.418287  0.418287  1
