# generated using pymatgen
data_Pr8B8Ir19Rh
_symmetry_space_group_name_H-M   'P 1'
_cell_length_a   5.56086557
_cell_length_b   5.56564270
_cell_length_c   21.35192300
_cell_angle_alpha   90.00000000
_cell_angle_beta   90.00000000
_cell_angle_gamma   120.02819758
_symmetry_Int_Tables_number   1
_chemical_formula_structural   Pr8B8Ir19Rh
_chemical_formula_sum   'Pr8 B8 Ir19 Rh1'
_cell_volume   572.13942498
_cell_formula_units_Z   1
loop_
 _symmetry_equiv_pos_site_id
 _symmetry_equiv_pos_as_xyz
  1  'x, y, z'
loop_
 _atom_site_type_symbol
 _atom_site_label
 _atom_site_symmetry_multiplicity
 _atom_site_fract_x
 _atom_site_fract_y
 _atom_site_fract_z
 _atom_site_occupancy
  Pr  Pr0  1  0.666614  0.333310  0.522286  1
  Pr  Pr1  1  0.333196  0.666585  0.477845  1
  Pr  Pr2  1  0.333196  0.666585  0.022155  1
  Pr  Pr3  1  0.666614  0.333310  0.977714  1
  Pr  Pr4  1  0.666733  0.333252  0.675020  1
  Pr  Pr5  1  0.332937  0.666599  0.325060  1
  Pr  Pr6  1  0.332937  0.666599  0.174940  1
  Pr  Pr7  1  0.666733  0.333252  0.824980  1
  B  B8  1  0.000573  0.000172  0.678153  1
  B  B9  1  0.997634  0.998932  0.322050  1
  B  B10  1  0.997634  0.998932  0.177950  1
  B  B11  1  0.000573  0.000172  0.821847  1
  B  B12  1  0.669380  0.334793  0.325674  1
  B  B13  1  0.333256  0.666528  0.674454  1
  B  B14  1  0.333256  0.666528  0.825546  1
  B  B15  1  0.669380  0.334793  0.174326  1
  Ir  Ir16  1  0.999102  0.999548  0.499878  1
  Ir  Ir17  1  0.999102  0.999548  0.000122  1
  Ir  Ir18  1  0.167867  0.335411  0.750000  1
  Ir  Ir19  1  0.167858  0.832236  0.750000  1
  Ir  Ir20  1  0.664671  0.832221  0.750000  1
  Ir  Ir21  1  0.831976  0.664497  0.250000  1
  Ir  Ir22  1  0.831992  0.167699  0.250000  1
  Ir  Ir23  1  0.162528  0.324978  0.608067  1
  Ir  Ir24  1  0.162527  0.837337  0.608059  1
  Ir  Ir25  1  0.675383  0.837586  0.608226  1
  Ir  Ir26  1  0.837440  0.675237  0.391829  1
  Ir  Ir27  1  0.837440  0.162418  0.391838  1
  Ir  Ir28  1  0.325758  0.162985  0.391255  1
  Ir  Ir29  1  0.837440  0.675237  0.108171  1
  Ir  Ir30  1  0.837440  0.162418  0.108162  1
  Ir  Ir31  1  0.325758  0.162985  0.108745  1
  Ir  Ir32  1  0.162528  0.324978  0.891933  1
  Ir  Ir33  1  0.162527  0.837337  0.891941  1
  Ir  Ir34  1  0.675383  0.837586  0.891774  1
  Rh  Rh35  1  0.334633  0.167414  0.250000  1
