# generated using pymatgen
data_YEr2Mg(Co4P3)2
_symmetry_space_group_name_H-M   'P 1'
_cell_length_a   3.72610600
_cell_length_b   10.61148500
_cell_length_c   12.25239700
_cell_angle_alpha   90.00000000
_cell_angle_beta   90.00000000
_cell_angle_gamma   90.00000000
_symmetry_Int_Tables_number   1
_chemical_formula_structural   YEr2Mg(Co4P3)2
_chemical_formula_sum   'Y2 Er4 Mg2 Co16 P12'
_cell_volume   484.45387084
_cell_formula_units_Z   2
loop_
 _symmetry_equiv_pos_site_id
 _symmetry_equiv_pos_as_xyz
  1  'x, y, z'
loop_
 _atom_site_type_symbol
 _atom_site_label
 _atom_site_symmetry_multiplicity
 _atom_site_fract_x
 _atom_site_fract_y
 _atom_site_fract_z
 _atom_site_occupancy
  Y  Y0  1  0.750000  0.250000  0.473915  1
  Y  Y1  1  0.250000  0.750000  0.526085  1
  Er  Er2  1  0.250000  0.927631  0.793856  1
  Er  Er3  1  0.250000  0.572369  0.793856  1
  Er  Er4  1  0.750000  0.072369  0.206144  1
  Er  Er5  1  0.750000  0.427631  0.206144  1
  Mg  Mg6  1  0.250000  0.250000  0.842991  1
  Mg  Mg7  1  0.750000  0.750000  0.157009  1
  Co  Co8  1  0.250000  0.250000  0.293709  1
  Co  Co9  1  0.750000  0.750000  0.706291  1
  Co  Co10  1  0.750000  0.250000  0.011296  1
  Co  Co11  1  0.250000  0.750000  0.988704  1
  Co  Co12  1  0.250000  0.417514  0.003263  1
  Co  Co13  1  0.250000  0.082486  0.003263  1
  Co  Co14  1  0.750000  0.582486  0.996737  1
  Co  Co15  1  0.750000  0.917514  0.996737  1
  Co  Co16  1  0.250000  0.453957  0.568194  1
  Co  Co17  1  0.250000  0.046043  0.568194  1
  Co  Co18  1  0.750000  0.546043  0.431806  1
  Co  Co19  1  0.750000  0.953957  0.431806  1
  Co  Co20  1  0.250000  0.872579  0.293954  1
  Co  Co21  1  0.250000  0.627421  0.293954  1
  Co  Co22  1  0.750000  0.127421  0.706046  1
  Co  Co23  1  0.750000  0.372579  0.706046  1
  P  P24  1  0.250000  0.250000  0.114826  1
  P  P25  1  0.750000  0.750000  0.885174  1
  P  P26  1  0.250000  0.250000  0.644700  1
  P  P27  1  0.750000  0.750000  0.355300  1
  P  P28  1  0.250000  0.440339  0.383786  1
  P  P29  1  0.250000  0.059661  0.383786  1
  P  P30  1  0.750000  0.559661  0.616214  1
  P  P31  1  0.750000  0.940339  0.616214  1
  P  P32  1  0.250000  0.911632  0.107576  1
  P  P33  1  0.250000  0.588368  0.107576  1
  P  P34  1  0.750000  0.088368  0.892424  1
  P  P35  1  0.750000  0.411632  0.892424  1
