# generated using pymatgen
data_TbHoPa2(ZnRh)4
_symmetry_space_group_name_H-M   'P 1'
_cell_length_a   3.83165900
_cell_length_b   7.15469348
_cell_length_c   8.38887720
_cell_angle_alpha   91.37598339
_cell_angle_beta   90.00000000
_cell_angle_gamma   90.00000000
_symmetry_Int_Tables_number   1
_chemical_formula_structural   TbHoPa2(ZnRh)4
_chemical_formula_sum   'Tb1 Ho1 Pa2 Zn4 Rh4'
_cell_volume   229.90926444
_cell_formula_units_Z   1
loop_
 _symmetry_equiv_pos_site_id
 _symmetry_equiv_pos_as_xyz
  1  'x, y, z'
loop_
 _atom_site_type_symbol
 _atom_site_label
 _atom_site_symmetry_multiplicity
 _atom_site_fract_x
 _atom_site_fract_y
 _atom_site_fract_z
 _atom_site_occupancy
  Tb  Tb0  1  0.250000  0.056076  0.314447  1
  Ho  Ho1  1  0.750000  0.943321  0.686504  1
  Pa  Pa2  1  0.250000  0.552297  0.189645  1
  Pa  Pa3  1  0.750000  0.447774  0.810377  1
  Zn  Zn4  1  0.250000  0.116459  0.938508  1
  Zn  Zn5  1  0.750000  0.882729  0.060310  1
  Zn  Zn6  1  0.250000  0.632513  0.558719  1
  Zn  Zn7  1  0.750000  0.368643  0.442131  1
  Rh  Rh8  1  0.750000  0.745521  0.356679  1
  Rh  Rh9  1  0.250000  0.253182  0.643714  1
  Rh  Rh10  1  0.750000  0.284338  0.120343  1
  Rh  Rh11  1  0.250000  0.717148  0.878624  1
