# generated using pymatgen
data_Rb8Ga11I
_symmetry_space_group_name_H-M   'P 1'
_cell_length_a   9.99050703
_cell_length_b   9.99050841
_cell_length_c   17.60805281
_cell_angle_alpha   90.00000062
_cell_angle_beta   106.48064710
_cell_angle_gamma   59.99999794
_symmetry_Int_Tables_number   1
_chemical_formula_structural   Rb8Ga11I
_chemical_formula_sum   'Rb16 Ga22 I2'
_cell_volume   1438.02999585
_cell_formula_units_Z   2
loop_
 _symmetry_equiv_pos_site_id
 _symmetry_equiv_pos_as_xyz
  1  'x, y, z'
loop_
 _atom_site_type_symbol
 _atom_site_label
 _atom_site_symmetry_multiplicity
 _atom_site_fract_x
 _atom_site_fract_y
 _atom_site_fract_z
 _atom_site_occupancy
  Rb  Rb0  1  0.969039  0.677902  0.069691  1
  Rb  Rb1  1  0.747595  0.353057  0.069691  1
  Rb  Rb2  1  0.422748  0.899348  0.069691  1
  Rb  Rb3  1  0.150792  0.924604  0.226187  1
  Rb  Rb4  1  0.849209  0.575396  0.273813  1
  Rb  Rb5  1  0.577252  0.822097  0.430309  1
  Rb  Rb6  1  0.252406  0.600651  0.430309  1
  Rb  Rb7  1  0.030961  0.146943  0.430309  1
  Rb  Rb8  1  0.969039  0.853057  0.569691  1
  Rb  Rb9  1  0.747595  0.399348  0.569691  1
  Rb  Rb10  1  0.422748  0.177902  0.569691  1
  Rb  Rb11  1  0.150791  0.424604  0.726187  1
  Rb  Rb12  1  0.849209  0.075395  0.773813  1
  Rb  Rb13  1  0.577252  0.100652  0.930309  1
  Rb  Rb14  1  0.252406  0.646943  0.930309  1
  Rb  Rb15  1  0.030961  0.322097  0.930309  1
  Ga  Ga16  1  0.409329  0.295335  0.113993  1
  Ga  Ga17  1  0.700808  0.024174  0.166674  1
  Ga  Ga18  1  0.441692  0.534134  0.166674  1
  Ga  Ga19  1  0.190846  0.275018  0.166674  1
  Ga  Ga20  1  0.693718  0.250001  0.250000  1
  Ga  Ga21  1  0.500000  0.056281  0.250000  1
  Ga  Ga22  1  0.306282  0.443719  0.250000  1
  Ga  Ga23  1  0.809153  0.965865  0.333326  1
  Ga  Ga24  1  0.558308  0.475827  0.333326  1
  Ga  Ga25  1  0.299192  0.224982  0.333326  1
  Ga  Ga26  1  0.590671  0.204664  0.386006  1
  Ga  Ga27  1  0.409329  0.795335  0.613994  1
  Ga  Ga28  1  0.700808  0.775018  0.666674  1
  Ga  Ga29  1  0.441692  0.524173  0.666674  1
  Ga  Ga30  1  0.190847  0.034134  0.666674  1
  Ga  Ga31  1  0.693718  0.556282  0.750000  1
  Ga  Ga32  1  0.500000  0.943718  0.750000  1
  Ga  Ga33  1  0.306282  0.750000  0.750000  1
  Ga  Ga34  1  0.809154  0.724982  0.833326  1
  Ga  Ga35  1  0.558308  0.465865  0.833326  1
  Ga  Ga36  1  0.299192  0.975826  0.833326  1
  Ga  Ga37  1  0.590671  0.704665  0.886006  1
  I  I38  1  0.000000  0.000000  0.000000  1
  I  I39  1  0.000000  0.500000  0.500000  1
