# generated using pymatgen
data_Yb6Y2Si12PdAu3
_symmetry_space_group_name_H-M   'P 1'
_cell_length_a   8.27415800
_cell_length_b   8.27415725
_cell_length_c   8.23328200
_cell_angle_alpha   89.99987530
_cell_angle_beta   90.00015272
_cell_angle_gamma   120.00003285
_symmetry_Int_Tables_number   1
_chemical_formula_structural   Yb6Y2Si12PdAu3
_chemical_formula_sum   'Yb6 Y2 Si12 Pd1 Au3'
_cell_volume   488.14748799
_cell_formula_units_Z   1
loop_
 _symmetry_equiv_pos_site_id
 _symmetry_equiv_pos_as_xyz
  1  'x, y, z'
loop_
 _atom_site_type_symbol
 _atom_site_label
 _atom_site_symmetry_multiplicity
 _atom_site_fract_x
 _atom_site_fract_y
 _atom_site_fract_z
 _atom_site_occupancy
  Yb  Yb0  1  0.498630  0.997260  0.252860  1
  Yb  Yb1  1  0.499182  0.998364  0.747213  1
  Yb  Yb2  1  0.002740  0.501370  0.252860  1
  Yb  Yb3  1  0.001636  0.500818  0.747213  1
  Yb  Yb4  1  0.498630  0.501370  0.252860  1
  Yb  Yb5  1  0.499182  0.500818  0.747213  1
  Y  Y6  1  0.000000  0.000000  0.251859  1
  Y  Y7  1  0.000000  0.000000  0.748012  1
  Si  Si8  1  0.161942  0.323884  0.999442  1
  Si  Si9  1  0.838258  0.676515  0.000457  1
  Si  Si10  1  0.676116  0.838058  0.999442  1
  Si  Si11  1  0.839625  0.679246  0.499583  1
  Si  Si12  1  0.323485  0.161742  0.000457  1
  Si  Si13  1  0.165369  0.330738  0.500430  1
  Si  Si14  1  0.161942  0.838058  0.999442  1
  Si  Si15  1  0.320753  0.160377  0.499584  1
  Si  Si16  1  0.838258  0.161742  0.000457  1
  Si  Si17  1  0.669262  0.834631  0.500430  1
  Si  Si18  1  0.839624  0.160376  0.499582  1
  Si  Si19  1  0.165369  0.834631  0.500430  1
  Pd  Pd20  1  0.333333  0.666667  0.500872  1
  Au  Au21  1  0.333333  0.666667  0.999436  1
  Au  Au22  1  0.666667  0.333333  0.000562  1
  Au  Au23  1  0.666667  0.333333  0.499307  1
