# generated using pymatgen
data_Tm7Fe3Co3Sn23
_symmetry_space_group_name_H-M   'P 1'
_cell_length_a   9.65163442
_cell_length_b   9.64388212
_cell_length_c   9.96633103
_cell_angle_alpha   90.09318330
_cell_angle_beta   89.78201602
_cell_angle_gamma   119.91179734
_symmetry_Int_Tables_number   1
_chemical_formula_structural   Tm7Fe3Co3Sn23
_chemical_formula_sum   'Tm7 Fe3 Co3 Sn23'
_cell_volume   804.08293015
_cell_formula_units_Z   1
loop_
 _symmetry_equiv_pos_site_id
 _symmetry_equiv_pos_as_xyz
  1  'x, y, z'
loop_
 _atom_site_type_symbol
 _atom_site_label
 _atom_site_symmetry_multiplicity
 _atom_site_fract_x
 _atom_site_fract_y
 _atom_site_fract_z
 _atom_site_occupancy
  Tm  Tm0  1  0.482655  0.519825  0.305548  1
  Tm  Tm1  1  0.519030  0.480748  0.693849  1
  Tm  Tm2  1  0.482449  0.962419  0.305266  1
  Tm  Tm3  1  0.517402  0.037557  0.694620  1
  Tm  Tm4  1  0.036982  0.518596  0.304457  1
  Tm  Tm5  1  0.961924  0.482220  0.694756  1
  Tm  Tm6  1  0.998573  0.997088  0.001899  1
  Fe  Fe7  1  0.831957  0.167286  0.198506  1
  Fe  Fe8  1  0.167674  0.831942  0.801784  1
  Fe  Fe9  1  0.831606  0.663321  0.197671  1
  Co  Co10  1  0.168840  0.337750  0.802600  1
  Co  Co11  1  0.337577  0.168295  0.197398  1
  Co  Co12  1  0.661941  0.830650  0.803018  1
  Sn  Sn13  1  0.117528  0.881981  0.270156  1
  Sn  Sn14  1  0.881786  0.117989  0.729066  1
  Sn  Sn15  1  0.118598  0.236508  0.270002  1
  Sn  Sn16  1  0.881777  0.764333  0.730087  1
  Sn  Sn17  1  0.765288  0.882118  0.270170  1
  Sn  Sn18  1  0.235711  0.118240  0.728966  1
  Sn  Sn19  1  0.782972  0.217146  0.453624  1
  Sn  Sn20  1  0.217473  0.782929  0.545900  1
  Sn  Sn21  1  0.782854  0.566153  0.453362  1
  Sn  Sn22  1  0.217316  0.434430  0.546725  1
  Sn  Sn23  1  0.434516  0.217405  0.453036  1
  Sn  Sn24  1  0.565252  0.782617  0.546587  1
  Sn  Sn25  1  0.345764  0.998956  0.999387  1
  Sn  Sn26  1  0.654196  0.000897  0.000725  1
  Sn  Sn27  1  0.999078  0.345555  0.000432  1
  Sn  Sn28  1  0.000211  0.654458  0.999904  1
  Sn  Sn29  1  0.653710  0.652867  0.000514  1
  Sn  Sn30  1  0.346660  0.346725  0.999776  1
  Sn  Sn31  1  0.333358  0.666376  0.122386  1
  Sn  Sn32  1  0.666338  0.332924  0.876884  1
  Sn  Sn33  1  0.332066  0.667404  0.818756  1
  Sn  Sn34  1  0.668782  0.333939  0.181809  1
  Sn  Sn35  1  0.000155  0.000356  0.500374  1
