# generated using pymatgen
data_DyAl4(CuO4)3
_symmetry_space_group_name_H-M   'P 1'
_cell_length_a   6.21637636
_cell_length_b   6.21637668
_cell_length_c   6.21637600
_cell_angle_alpha   109.47121515
_cell_angle_beta   109.47121620
_cell_angle_gamma   109.47123324
_symmetry_Int_Tables_number   1
_chemical_formula_structural   DyAl4(CuO4)3
_chemical_formula_sum   'Dy1 Al4 Cu3 O12'
_cell_volume   184.92260087
_cell_formula_units_Z   1
loop_
 _symmetry_equiv_pos_site_id
 _symmetry_equiv_pos_as_xyz
  1  'x, y, z'
loop_
 _atom_site_type_symbol
 _atom_site_label
 _atom_site_symmetry_multiplicity
 _atom_site_fract_x
 _atom_site_fract_y
 _atom_site_fract_z
 _atom_site_occupancy
  Dy  Dy0  1  0.000000  0.000000  0.000000  1
  Al  Al1  1  0.000000  0.000000  0.500000  1
  Al  Al2  1  0.000000  0.500000  0.000000  1
  Al  Al3  1  0.500000  0.000000  0.000000  1
  Al  Al4  1  0.500000  0.500000  0.500000  1
  Cu  Cu5  1  0.000000  0.500000  0.500000  1
  Cu  Cu6  1  0.500000  0.000000  0.500000  1
  Cu  Cu7  1  0.500000  0.500000  0.000000  1
  O  O8  1  0.303203  0.129347  0.826144  1
  O  O9  1  0.696797  0.870653  0.173856  1
  O  O10  1  0.696797  0.522941  0.826144  1
  O  O11  1  0.477059  0.173856  0.303203  1
  O  O12  1  0.173856  0.303203  0.477059  1
  O  O13  1  0.826144  0.303203  0.129347  1
  O  O14  1  0.870653  0.173856  0.696797  1
  O  O15  1  0.826144  0.696797  0.522941  1
  O  O16  1  0.303203  0.477059  0.173856  1
  O  O17  1  0.522941  0.826144  0.696797  1
  O  O18  1  0.173856  0.696797  0.870653  1
  O  O19  1  0.129347  0.826144  0.303203  1
