# generated using pymatgen
data_Er2Si2P4Pd20Pb
_symmetry_space_group_name_H-M   'P 1'
_cell_length_a   8.70507759
_cell_length_b   8.68863063
_cell_length_c   8.69036122
_cell_angle_alpha   60.00658160
_cell_angle_beta   59.94270052
_cell_angle_gamma   60.06247617
_symmetry_Int_Tables_number   1
_chemical_formula_structural   Er2Si2P4Pd20Pb
_chemical_formula_sum   'Er2 Si2 P4 Pd20 Pb1'
_cell_volume   464.81962090
_cell_formula_units_Z   1
loop_
 _symmetry_equiv_pos_site_id
 _symmetry_equiv_pos_as_xyz
  1  'x, y, z'
loop_
 _atom_site_type_symbol
 _atom_site_label
 _atom_site_symmetry_multiplicity
 _atom_site_fract_x
 _atom_site_fract_y
 _atom_site_fract_z
 _atom_site_occupancy
  Er  Er0  1  0.998964  0.999987  0.001062  1
  Er  Er1  1  0.250900  0.249977  0.249146  1
  Si  Si2  1  0.734347  0.267331  0.265470  1
  Si  Si3  1  0.734347  0.732852  0.265470  1
  P  P4  1  0.738242  0.263650  0.734458  1
  P  P5  1  0.265616  0.736345  0.261694  1
  P  P6  1  0.264667  0.737129  0.735541  1
  P  P7  1  0.264667  0.262663  0.735541  1
  Pd  Pd8  1  0.341079  0.004196  0.003377  1
  Pd  Pd9  1  0.002884  0.653270  0.342204  1
  Pd  Pd10  1  0.342942  0.002826  0.651406  1
  Pd  Pd11  1  0.004027  0.651769  0.001688  1
  Pd  Pd12  1  0.651466  0.341043  0.002958  1
  Pd  Pd13  1  0.614586  0.616816  0.151781  1
  Pd  Pd14  1  0.382902  0.847530  0.384811  1
  Pd  Pd15  1  0.155000  0.615154  0.614689  1
  Pd  Pd16  1  0.652004  0.002974  0.342048  1
  Pd  Pd17  1  0.002549  0.342445  0.653429  1
  Pd  Pd18  1  0.651466  0.004533  0.002958  1
  Pd  Pd19  1  0.002884  0.001642  0.342204  1
  Pd  Pd20  1  0.615246  0.153466  0.616532  1
  Pd  Pd21  1  0.341079  0.651348  0.003377  1
  Pd  Pd22  1  0.382902  0.384758  0.384811  1
  Pd  Pd23  1  0.615246  0.614755  0.616532  1
  Pd  Pd24  1  0.384519  0.384403  0.846675  1
  Pd  Pd25  1  0.002549  0.001577  0.653429  1
  Pd  Pd26  1  0.848708  0.382994  0.385304  1
  Pd  Pd27  1  0.004027  0.342515  0.001688  1
  Pb  Pb28  1  0.750184  0.750052  0.749713  1
