# generated using pymatgen
data_LaEu3Pd4
_symmetry_space_group_name_H-M   'P 1'
_cell_length_a   4.44605400
_cell_length_b   5.97632101
_cell_length_c   7.65363800
_cell_angle_alpha   88.52471290
_cell_angle_beta   90.00000000
_cell_angle_gamma   90.00000000
_symmetry_Int_Tables_number   1
_chemical_formula_structural   LaEu3Pd4
_chemical_formula_sum   'La1 Eu3 Pd4'
_cell_volume   203.29775607
_cell_formula_units_Z   1
loop_
 _symmetry_equiv_pos_site_id
 _symmetry_equiv_pos_as_xyz
  1  'x, y, z'
loop_
 _atom_site_type_symbol
 _atom_site_label
 _atom_site_symmetry_multiplicity
 _atom_site_fract_x
 _atom_site_fract_y
 _atom_site_fract_z
 _atom_site_occupancy
  La  La0  1  0.750000  0.863358  0.818058  1
  Eu  Eu1  1  0.250000  0.362348  0.679854  1
  Eu  Eu2  1  0.250000  0.140474  0.184637  1
  Eu  Eu3  1  0.750000  0.637762  0.317553  1
  Pd  Pd4  1  0.250000  0.856692  0.547886  1
  Pd  Pd5  1  0.250000  0.648627  0.030866  1
  Pd  Pd6  1  0.750000  0.138015  0.463819  1
  Pd  Pd7  1  0.750000  0.352724  0.957327  1
