# generated using pymatgen
data_Eu3Tm2Ni14B4Pb
_symmetry_space_group_name_H-M   'P 1'
_cell_length_a   5.06482700
_cell_length_b   5.06482788
_cell_length_c   14.55905100
_cell_angle_alpha   90.00000000
_cell_angle_beta   90.00000000
_cell_angle_gamma   120.00001383
_symmetry_Int_Tables_number   1
_chemical_formula_structural   Eu3Tm2Ni14B4Pb
_chemical_formula_sum   'Eu3 Tm2 Ni14 B4 Pb1'
_cell_volume   323.43941700
_cell_formula_units_Z   1
loop_
 _symmetry_equiv_pos_site_id
 _symmetry_equiv_pos_as_xyz
  1  'x, y, z'
loop_
 _atom_site_type_symbol
 _atom_site_label
 _atom_site_symmetry_multiplicity
 _atom_site_fract_x
 _atom_site_fract_y
 _atom_site_fract_z
 _atom_site_occupancy
  Eu  Eu0  1  0.666667  0.333333  0.031940  1
  Eu  Eu1  1  0.666667  0.333333  0.468932  1
  Eu  Eu2  1  0.333333  0.666667  0.966965  1
  Tm  Tm3  1  0.333333  0.666667  0.747085  1
  Tm  Tm4  1  0.666667  0.333333  0.249206  1
  Ni  Ni5  1  0.000000  0.000000  0.999489  1
  Ni  Ni6  1  0.000000  0.000000  0.500186  1
  Ni  Ni7  1  0.164279  0.328558  0.152268  1
  Ni  Ni8  1  0.834733  0.669466  0.652935  1
  Ni  Ni9  1  0.671442  0.835721  0.152268  1
  Ni  Ni10  1  0.164279  0.835721  0.152268  1
  Ni  Ni11  1  0.834733  0.165267  0.652935  1
  Ni  Ni12  1  0.330534  0.165267  0.652935  1
  Ni  Ni13  1  0.835504  0.671007  0.846478  1
  Ni  Ni14  1  0.835504  0.164496  0.846478  1
  Ni  Ni15  1  0.328993  0.164496  0.846478  1
  Ni  Ni16  1  0.669000  0.834500  0.348023  1
  Ni  Ni17  1  0.165500  0.834500  0.348023  1
  Ni  Ni18  1  0.165500  0.331000  0.348023  1
  B  B19  1  0.333333  0.666667  0.248625  1
  B  B20  1  0.666667  0.333333  0.750722  1
  B  B21  1  0.000000  0.000000  0.252083  1
  B  B22  1  0.000000  0.000000  0.749709  1
  Pb  Pb23  1  0.333333  0.666667  0.535947  1
