# generated using pymatgen
data_Dy3Ho2Bi2Ir
_symmetry_space_group_name_H-M   'P 1'
_cell_length_a   7.98432400
_cell_length_b   9.00732500
_cell_length_c   12.52115400
_cell_angle_alpha   90.00000000
_cell_angle_beta   90.00000000
_cell_angle_gamma   90.00000000
_symmetry_Int_Tables_number   1
_chemical_formula_structural   Dy3Ho2Bi2Ir
_chemical_formula_sum   'Dy12 Ho8 Bi8 Ir4'
_cell_volume   900.48885537
_cell_formula_units_Z   4
loop_
 _symmetry_equiv_pos_site_id
 _symmetry_equiv_pos_as_xyz
  1  'x, y, z'
loop_
 _atom_site_type_symbol
 _atom_site_label
 _atom_site_symmetry_multiplicity
 _atom_site_fract_x
 _atom_site_fract_y
 _atom_site_fract_z
 _atom_site_occupancy
  Dy  Dy0  1  0.839319  0.750000  0.794202  1
  Dy  Dy1  1  0.160681  0.250000  0.205798  1
  Dy  Dy2  1  0.339319  0.250000  0.705798  1
  Dy  Dy3  1  0.660681  0.750000  0.294202  1
  Dy  Dy4  1  0.375378  0.750000  0.690882  1
  Dy  Dy5  1  0.624622  0.250000  0.309118  1
  Dy  Dy6  1  0.875378  0.250000  0.809118  1
  Dy  Dy7  1  0.124622  0.750000  0.190882  1
  Dy  Dy8  1  0.948240  0.750000  0.501772  1
  Dy  Dy9  1  0.051760  0.250000  0.498228  1
  Dy  Dy10  1  0.448240  0.250000  0.998228  1
  Dy  Dy11  1  0.551760  0.750000  0.001772  1
  Ho  Ho12  1  0.675994  0.041749  0.566103  1
  Ho  Ho13  1  0.324006  0.958251  0.433897  1
  Ho  Ho14  1  0.175994  0.958251  0.933897  1
  Ho  Ho15  1  0.324006  0.541749  0.433897  1
  Ho  Ho16  1  0.824006  0.041749  0.066103  1
  Ho  Ho17  1  0.675994  0.458251  0.566103  1
  Ho  Ho18  1  0.824006  0.458251  0.066103  1
  Ho  Ho19  1  0.175994  0.541749  0.933897  1
  Bi  Bi20  1  0.566408  0.491745  0.826389  1
  Bi  Bi21  1  0.433592  0.508255  0.173611  1
  Bi  Bi22  1  0.066408  0.508255  0.673611  1
  Bi  Bi23  1  0.433592  0.991745  0.173611  1
  Bi  Bi24  1  0.933592  0.491745  0.326389  1
  Bi  Bi25  1  0.566408  0.008255  0.826389  1
  Bi  Bi26  1  0.933592  0.008255  0.326389  1
  Bi  Bi27  1  0.066408  0.991745  0.673611  1
  Ir  Ir28  1  0.571459  0.750000  0.508630  1
  Ir  Ir29  1  0.428541  0.250000  0.491370  1
  Ir  Ir30  1  0.071459  0.250000  0.991370  1
  Ir  Ir31  1  0.928541  0.750000  0.008630  1
