# generated using pymatgen
data_Y2ErTh(Al8Pt3)3
_symmetry_space_group_name_H-M   'P 1'
_cell_length_a   7.56234554
_cell_length_b   7.55400697
_cell_length_c   13.17600411
_cell_angle_alpha   84.54703591
_cell_angle_beta   100.97846268
_cell_angle_gamma   119.88783141
_symmetry_Int_Tables_number   1
_chemical_formula_structural   Y2ErTh(Al8Pt3)3
_chemical_formula_sum   'Y2 Er1 Th1 Al24 Pt9'
_cell_volume   640.64330493
_cell_formula_units_Z   1
loop_
 _symmetry_equiv_pos_site_id
 _symmetry_equiv_pos_as_xyz
  1  'x, y, z'
loop_
 _atom_site_type_symbol
 _atom_site_label
 _atom_site_symmetry_multiplicity
 _atom_site_fract_x
 _atom_site_fract_y
 _atom_site_fract_z
 _atom_site_occupancy
  Y  Y0  1  0.266956  0.000626  0.806791  1
  Y  Y1  1  0.062150  0.668264  0.192026  1
  Er  Er2  1  0.937547  0.332244  0.806310  1
  Th  Th3  1  0.732324  0.998639  0.192724  1
  Al  Al4  1  0.807764  0.869023  0.815165  1
  Al  Al5  1  0.196606  0.132212  0.184578  1
  Al  Al6  1  0.982262  0.665991  0.943180  1
  Al  Al7  1  0.020612  0.336906  0.052680  1
  Al  Al8  1  0.397290  0.662838  0.816163  1
  Al  Al9  1  0.600899  0.339486  0.183219  1
  Al  Al10  1  0.882520  0.665010  0.670865  1
  Al  Al11  1  0.122119  0.338040  0.332676  1
  Al  Al12  1  0.603605  0.458109  0.815953  1
  Al  Al13  1  0.393723  0.537171  0.183899  1
  Al  Al14  1  0.230070  0.339980  0.669791  1
  Al  Al15  1  0.770795  0.656035  0.334214  1
  Al  Al16  1  0.853122  0.334054  0.559284  1
  Al  Al17  1  0.186249  0.999104  0.559281  1
  Al  Al18  1  0.814878  0.000425  0.443544  1
  Al  Al19  1  0.348385  0.000116  0.053010  1
  Al  Al20  1  0.647471  0.001578  0.941196  1
  Al  Al21  1  0.556279  0.993546  0.671253  1
  Al  Al22  1  0.441397  0.006791  0.332526  1
  Al  Al23  1  0.520401  0.666830  0.562464  1
  Al  Al24  1  0.479611  0.332697  0.439725  1
  Al  Al25  1  0.681415  0.664689  0.043395  1
  Al  Al26  1  0.315360  0.332010  0.950968  1
  Al  Al27  1  0.147725  0.666836  0.441927  1
  Pt  Pt28  1  0.329768  0.672521  0.000107  1
  Pt  Pt29  1  0.545915  0.324764  0.637560  1
  Pt  Pt30  1  0.455493  0.675879  0.362870  1
  Pt  Pt31  1  0.887616  0.008923  0.639153  1
  Pt  Pt32  1  0.111591  0.992168  0.361445  1
  Pt  Pt33  1  0.671604  0.328195  0.999913  1
  Pt  Pt34  1  0.203875  0.666066  0.638903  1
  Pt  Pt35  1  0.795431  0.331857  0.361320  1
  Pt  Pt36  1  0.999166  0.000377  0.999925  1
