# generated using pymatgen
data_Tm20Cd6FeNi
_symmetry_space_group_name_H-M   'P 1'
_cell_length_a   9.47533500
_cell_length_b   9.47533627
_cell_length_c   9.65505700
_cell_angle_alpha   90.00000000
_cell_angle_beta   90.00000000
_cell_angle_gamma   119.99999905
_symmetry_Int_Tables_number   1
_chemical_formula_structural   Tm20Cd6FeNi
_chemical_formula_sum   'Tm20 Cd6 Fe1 Ni1'
_cell_volume   750.71429024
_cell_formula_units_Z   1
loop_
 _symmetry_equiv_pos_site_id
 _symmetry_equiv_pos_as_xyz
  1  'x, y, z'
loop_
 _atom_site_type_symbol
 _atom_site_label
 _atom_site_symmetry_multiplicity
 _atom_site_fract_x
 _atom_site_fract_y
 _atom_site_fract_z
 _atom_site_occupancy
  Tm  Tm0  1  0.000000  0.000000  0.499641  1
  Tm  Tm1  1  0.000000  0.000000  0.000359  1
  Tm  Tm2  1  0.541461  0.458539  0.250000  1
  Tm  Tm3  1  0.541461  0.082921  0.250000  1
  Tm  Tm4  1  0.917079  0.458539  0.250000  1
  Tm  Tm5  1  0.456673  0.543327  0.750000  1
  Tm  Tm6  1  0.456673  0.913345  0.750000  1
  Tm  Tm7  1  0.086655  0.543327  0.750000  1
  Tm  Tm8  1  0.211986  0.788014  0.436263  1
  Tm  Tm9  1  0.211986  0.423974  0.436263  1
  Tm  Tm10  1  0.576026  0.788014  0.436263  1
  Tm  Tm11  1  0.789097  0.210903  0.562210  1
  Tm  Tm12  1  0.789097  0.578193  0.562210  1
  Tm  Tm13  1  0.421807  0.210903  0.562210  1
  Tm  Tm14  1  0.789097  0.210903  0.937790  1
  Tm  Tm15  1  0.789097  0.578193  0.937790  1
  Tm  Tm16  1  0.421807  0.210903  0.937790  1
  Tm  Tm17  1  0.211986  0.788014  0.063737  1
  Tm  Tm18  1  0.211986  0.423974  0.063737  1
  Tm  Tm19  1  0.576026  0.788014  0.063737  1
  Cd  Cd20  1  0.885188  0.114812  0.250000  1
  Cd  Cd21  1  0.885188  0.770377  0.250000  1
  Cd  Cd22  1  0.229623  0.114812  0.250000  1
  Cd  Cd23  1  0.114964  0.885036  0.750000  1
  Cd  Cd24  1  0.114964  0.229928  0.750000  1
  Cd  Cd25  1  0.770072  0.885036  0.750000  1
  Fe  Fe26  1  0.333333  0.666667  0.250000  1
  Ni  Ni27  1  0.666667  0.333333  0.750000  1
