# generated using pymatgen
data_Dy2Ho4ReSb2
_symmetry_space_group_name_H-M   'P 1'
_cell_length_a   8.12587401
_cell_length_b   8.12509143
_cell_length_c   4.30345000
_cell_angle_alpha   90.00000000
_cell_angle_beta   90.00000000
_cell_angle_gamma   119.99680711
_symmetry_Int_Tables_number   1
_chemical_formula_structural   Dy2Ho4ReSb2
_chemical_formula_sum   'Dy2 Ho4 Re1 Sb2'
_cell_volume   246.07058762
_cell_formula_units_Z   1
loop_
 _symmetry_equiv_pos_site_id
 _symmetry_equiv_pos_as_xyz
  1  'x, y, z'
loop_
 _atom_site_type_symbol
 _atom_site_label
 _atom_site_symmetry_multiplicity
 _atom_site_fract_x
 _atom_site_fract_y
 _atom_site_fract_z
 _atom_site_occupancy
  Dy  Dy0  1  0.605155  0.000064  0.500000  1
  Dy  Dy1  1  0.394845  0.394908  0.500000  1
  Ho  Ho2  1  0.235471  0.999807  0.000000  1
  Ho  Ho3  1  0.764529  0.764335  0.000000  1
  Ho  Ho4  1  0.000000  0.235649  0.000000  1
  Ho  Ho5  1  0.000000  0.605419  0.500000  1
  Re  Re6  1  0.000000  0.999580  0.500000  1
  Sb  Sb7  1  0.333116  0.666678  0.000000  1
  Sb  Sb8  1  0.666884  0.333561  0.000000  1
