# generated using pymatgen
data_HoEr3Mn2(Co2Si5)2
_symmetry_space_group_name_H-M   'P 1'
_cell_length_a   5.42752199
_cell_length_b   7.97332787
_cell_length_c   7.97379837
_cell_angle_alpha   72.91771593
_cell_angle_beta   70.10272527
_cell_angle_gamma   70.10150226
_symmetry_Int_Tables_number   1
_chemical_formula_structural   HoEr3Mn2(Co2Si5)2
_chemical_formula_sum   'Ho1 Er3 Mn2 Co4 Si10'
_cell_volume   298.85807928
_cell_formula_units_Z   1
loop_
 _symmetry_equiv_pos_site_id
 _symmetry_equiv_pos_as_xyz
  1  'x, y, z'
loop_
 _atom_site_type_symbol
 _atom_site_label
 _atom_site_symmetry_multiplicity
 _atom_site_fract_x
 _atom_site_fract_y
 _atom_site_fract_z
 _atom_site_occupancy
  Ho  Ho0  1  0.364278  0.868402  0.403043  1
  Er  Er1  1  0.635726  0.131557  0.596992  1
  Er  Er2  1  0.864247  0.403050  0.868456  1
  Er  Er3  1  0.135674  0.597028  0.131624  1
  Mn  Mn4  1  0.750091  0.000033  0.999881  1
  Mn  Mn5  1  0.249995  0.000033  0.999881  1
  Co  Co6  1  0.141148  0.260926  0.456776  1
  Co  Co7  1  0.858747  0.739123  0.543385  1
  Co  Co8  1  0.641262  0.456775  0.260699  1
  Co  Co9  1  0.358745  0.543112  0.739399  1
  Si  Si10  1  0.750098  0.499843  0.500025  1
  Si  Si11  1  0.250034  0.499843  0.500025  1
  Si  Si12  1  0.532156  0.218081  0.217898  1
  Si  Si13  1  0.967887  0.782022  0.782180  1
  Si  Si14  1  0.467912  0.782022  0.782180  1
  Si  Si15  1  0.031865  0.218081  0.217898  1
  Si  Si16  1  0.098873  0.069844  0.732410  1
  Si  Si17  1  0.901102  0.930327  0.267469  1
  Si  Si18  1  0.599078  0.732274  0.069569  1
  Si  Si19  1  0.401081  0.267626  0.930212  1
