# generated using pymatgen
data_Ho12Os2PdRu
_symmetry_space_group_name_H-M   'P 1'
_cell_length_a   6.38213075
_cell_length_b   7.33026422
_cell_length_c   9.08444600
_cell_angle_alpha   90.00000000
_cell_angle_beta   90.00000000
_cell_angle_gamma   90.38476995
_symmetry_Int_Tables_number   1
_chemical_formula_structural   Ho12Os2PdRu
_chemical_formula_sum   'Ho12 Os2 Pd1 Ru1'
_cell_volume   424.98537128
_cell_formula_units_Z   1
loop_
 _symmetry_equiv_pos_site_id
 _symmetry_equiv_pos_as_xyz
  1  'x, y, z'
loop_
 _atom_site_type_symbol
 _atom_site_label
 _atom_site_symmetry_multiplicity
 _atom_site_fract_x
 _atom_site_fract_y
 _atom_site_fract_z
 _atom_site_occupancy
  Ho  Ho0  1  0.338442  0.670571  0.058138  1
  Ho  Ho1  1  0.171711  0.184287  0.440565  1
  Ho  Ho2  1  0.670014  0.323053  0.562261  1
  Ho  Ho3  1  0.824138  0.823012  0.932275  1
  Ho  Ho4  1  0.670014  0.323053  0.937739  1
  Ho  Ho5  1  0.824138  0.823012  0.567725  1
  Ho  Ho6  1  0.338442  0.670571  0.441862  1
  Ho  Ho7  1  0.171711  0.184287  0.059435  1
  Ho  Ho8  1  0.870766  0.531576  0.250000  1
  Ho  Ho9  1  0.622278  0.040259  0.250000  1
  Ho  Ho10  1  0.125038  0.462354  0.750000  1
  Ho  Ho11  1  0.368074  0.962615  0.750000  1
  Os  Os12  1  0.460547  0.384053  0.250000  1
  Os  Os13  1  0.534780  0.615236  0.750000  1
  Pd  Pd14  1  0.046172  0.887396  0.250000  1
  Ru  Ru15  1  0.963737  0.114666  0.750000  1
