# generated using pymatgen
data_Hf18ReNi2W7
_symmetry_space_group_name_H-M   'P 1'
_cell_length_a   8.70147421
_cell_length_b   8.70147918
_cell_length_c   8.50672400
_cell_angle_alpha   90.00000000
_cell_angle_beta   90.00000000
_cell_angle_gamma   119.91984610
_symmetry_Int_Tables_number   1
_chemical_formula_structural   Hf18ReNi2W7
_chemical_formula_sum   'Hf18 Re1 Ni2 W7'
_cell_volume   558.25047707
_cell_formula_units_Z   1
loop_
 _symmetry_equiv_pos_site_id
 _symmetry_equiv_pos_as_xyz
  1  'x, y, z'
loop_
 _atom_site_type_symbol
 _atom_site_label
 _atom_site_symmetry_multiplicity
 _atom_site_fract_x
 _atom_site_fract_y
 _atom_site_fract_z
 _atom_site_occupancy
  Hf  Hf0  1  0.199659  0.800341  0.441677  1
  Hf  Hf1  1  0.199447  0.398885  0.441198  1
  Hf  Hf2  1  0.601115  0.800553  0.441198  1
  Hf  Hf3  1  0.800827  0.199173  0.557891  1
  Hf  Hf4  1  0.800607  0.600862  0.558198  1
  Hf  Hf5  1  0.399138  0.199393  0.558198  1
  Hf  Hf6  1  0.800827  0.199173  0.942109  1
  Hf  Hf7  1  0.800607  0.600862  0.941802  1
  Hf  Hf8  1  0.399138  0.199393  0.941802  1
  Hf  Hf9  1  0.199659  0.800341  0.058323  1
  Hf  Hf10  1  0.199447  0.398885  0.058802  1
  Hf  Hf11  1  0.601115  0.800553  0.058802  1
  Hf  Hf12  1  0.542374  0.457626  0.250000  1
  Hf  Hf13  1  0.543368  0.085254  0.250000  1
  Hf  Hf14  1  0.914746  0.456632  0.250000  1
  Hf  Hf15  1  0.457601  0.542399  0.750000  1
  Hf  Hf16  1  0.457786  0.915373  0.750000  1
  Hf  Hf17  1  0.084627  0.542214  0.750000  1
  Re  Re18  1  0.887685  0.112315  0.250000  1
  Ni  Ni19  1  0.333465  0.666535  0.250000  1
  Ni  Ni20  1  0.666901  0.333099  0.750000  1
  W  W21  1  0.887538  0.776278  0.250000  1
  W  W22  1  0.223722  0.112462  0.250000  1
  W  W23  1  0.111911  0.888089  0.750000  1
  W  W24  1  0.111225  0.223739  0.750000  1
  W  W25  1  0.776261  0.888775  0.750000  1
  W  W26  1  0.999601  0.000399  0.499199  1
  W  W27  1  0.999601  0.000399  0.000801  1
