# generated using pymatgen
data_Sc5Al16SnIr7
_symmetry_space_group_name_H-M   'P 1'
_cell_length_a   8.72961711
_cell_length_b   8.80410019
_cell_length_c   8.80410096
_cell_angle_alpha   59.44107998
_cell_angle_beta   60.27946416
_cell_angle_gamma   60.27946727
_symmetry_Int_Tables_number   1
_chemical_formula_structural   Sc5Al16SnIr7
_chemical_formula_sum   'Sc5 Al16 Sn1 Ir7'
_cell_volume   478.39714113
_cell_formula_units_Z   1
loop_
 _symmetry_equiv_pos_site_id
 _symmetry_equiv_pos_as_xyz
  1  'x, y, z'
loop_
 _atom_site_type_symbol
 _atom_site_label
 _atom_site_symmetry_multiplicity
 _atom_site_fract_x
 _atom_site_fract_y
 _atom_site_fract_z
 _atom_site_occupancy
  Sc  Sc0  1  0.788922  0.211078  0.211078  1
  Sc  Sc1  1  0.772270  0.227730  0.765841  1
  Sc  Sc2  1  0.772270  0.765841  0.227730  1
  Sc  Sc3  1  0.234159  0.765841  0.227730  1
  Sc  Sc4  1  0.234159  0.227730  0.765841  1
  Al  Al5  1  0.877109  0.837743  0.837743  1
  Al  Al6  1  0.851382  0.824818  0.472419  1
  Al  Al7  1  0.447406  0.837743  0.837743  1
  Al  Al8  1  0.851382  0.472419  0.824818  1
  Al  Al9  1  0.175182  0.148618  0.148618  1
  Al  Al10  1  0.162257  0.122891  0.552594  1
  Al  Al11  1  0.162257  0.552594  0.122891  1
  Al  Al12  1  0.527581  0.148618  0.148618  1
  Al  Al13  1  0.606388  0.623744  0.623744  1
  Al  Al14  1  0.633534  0.617885  0.115046  1
  Al  Al15  1  0.146124  0.623744  0.623744  1
  Al  Al16  1  0.633534  0.115046  0.617885  1
  Al  Al17  1  0.382115  0.366466  0.366466  1
  Al  Al18  1  0.376256  0.393612  0.853876  1
  Al  Al19  1  0.376256  0.853876  0.393612  1
  Al  Al20  1  0.884954  0.366466  0.366466  1
  Sn  Sn21  1  0.027924  0.972076  0.972076  1
  Ir  Ir22  1  0.512880  0.487120  0.487120  1
  Ir  Ir23  1  0.011048  0.488952  0.488952  1
  Ir  Ir24  1  0.511048  0.988952  0.988952  1
  Ir  Ir25  1  0.515356  0.994556  0.484644  1
  Ir  Ir26  1  0.515356  0.484644  0.994556  1
  Ir  Ir27  1  0.005444  0.484644  0.994556  1
  Ir  Ir28  1  0.005444  0.994556  0.484644  1
