# generated using pymatgen
data_Pu4ReTc3B16
_symmetry_space_group_name_H-M   'P 1'
_cell_length_a   3.57784600
_cell_length_b   5.98040320
_cell_length_c   11.58626739
_cell_angle_alpha   89.97026953
_cell_angle_beta   90.00000000
_cell_angle_gamma   90.00000000
_symmetry_Int_Tables_number   1
_chemical_formula_structural   Pu4ReTc3B16
_chemical_formula_sum   'Pu4 Re1 Tc3 B16'
_cell_volume   247.91088589
_cell_formula_units_Z   1
loop_
 _symmetry_equiv_pos_site_id
 _symmetry_equiv_pos_as_xyz
  1  'x, y, z'
loop_
 _atom_site_type_symbol
 _atom_site_label
 _atom_site_symmetry_multiplicity
 _atom_site_fract_x
 _atom_site_fract_y
 _atom_site_fract_z
 _atom_site_occupancy
  Pu  Pu0  1  0.000000  0.626320  0.349877  1
  Pu  Pu1  1  0.000000  0.373607  0.650217  1
  Pu  Pu2  1  0.000000  0.126354  0.150805  1
  Pu  Pu3  1  0.000000  0.873330  0.849019  1
  Re  Re4  1  0.000000  0.635617  0.090439  1
  Tc  Tc5  1  0.000000  0.364865  0.909918  1
  Tc  Tc6  1  0.000000  0.135210  0.409732  1
  Tc  Tc7  1  0.000000  0.864588  0.590187  1
  B  B8  1  0.500000  0.787792  0.186818  1
  B  B9  1  0.500000  0.212379  0.813570  1
  B  B10  1  0.500000  0.287704  0.313884  1
  B  B11  1  0.500000  0.712379  0.686065  1
  B  B12  1  0.500000  0.865287  0.031460  1
  B  B13  1  0.500000  0.134725  0.968381  1
  B  B14  1  0.500000  0.365024  0.468286  1
  B  B15  1  0.500000  0.634860  0.531476  1
  B  B16  1  0.500000  0.885983  0.452971  1
  B  B17  1  0.500000  0.113967  0.546864  1
  B  B18  1  0.500000  0.385804  0.047097  1
  B  B19  1  0.500000  0.614188  0.952818  1
  B  B20  1  0.500000  0.975109  0.307950  1
  B  B21  1  0.500000  0.025147  0.692052  1
  B  B22  1  0.500000  0.474563  0.192347  1
  B  B23  1  0.500000  0.525200  0.807769  1
