# generated using pymatgen
data_Ho20Si12Br
_symmetry_space_group_name_H-M   'P 1'
_cell_length_a   6.34792403
_cell_length_b   8.43759812
_cell_length_c   14.71094700
_cell_angle_alpha   90.00000679
_cell_angle_beta   90.00000000
_cell_angle_gamma   89.99582938
_symmetry_Int_Tables_number   1
_chemical_formula_structural   Ho20Si12Br
_chemical_formula_sum   'Ho20 Si12 Br1'
_cell_volume   787.93644093
_cell_formula_units_Z   1
loop_
 _symmetry_equiv_pos_site_id
 _symmetry_equiv_pos_as_xyz
  1  'x, y, z'
loop_
 _atom_site_type_symbol
 _atom_site_label
 _atom_site_symmetry_multiplicity
 _atom_site_fract_x
 _atom_site_fract_y
 _atom_site_fract_z
 _atom_site_occupancy
  Ho  Ho0  1  0.499978  0.000018  0.332760  1
  Ho  Ho1  1  0.499981  0.500015  0.832091  1
  Ho  Ho2  1  0.499981  0.500015  0.167909  1
  Ho  Ho3  1  0.499978  0.000018  0.667240  1
  Ho  Ho4  1  0.999987  0.500001  0.171392  1
  Ho  Ho5  1  0.999987  0.000018  0.661427  1
  Ho  Ho6  1  0.999987  0.000018  0.338573  1
  Ho  Ho7  1  0.999987  0.500001  0.828608  1
  Ho  Ho8  1  0.772006  0.261326  0.000000  1
  Ho  Ho9  1  0.746350  0.742752  0.500000  1
  Ho  Ho10  1  0.749931  0.376939  0.380386  1
  Ho  Ho11  1  0.771440  0.869612  0.869526  1
  Ho  Ho12  1  0.771440  0.869612  0.130474  1
  Ho  Ho13  1  0.749931  0.376939  0.619614  1
  Ho  Ho14  1  0.227939  0.738636  0.000000  1
  Ho  Ho15  1  0.253611  0.257284  0.500000  1
  Ho  Ho16  1  0.228690  0.130350  0.130422  1
  Ho  Ho17  1  0.250027  0.623090  0.619611  1
  Ho  Ho18  1  0.250027  0.623090  0.380389  1
  Ho  Ho19  1  0.228690  0.130350  0.869578  1
  Si  Si20  1  0.755841  0.609363  0.000000  1
  Si  Si21  1  0.743822  0.105643  0.500000  1
  Si  Si22  1  0.755594  0.196795  0.198409  1
  Si  Si23  1  0.750508  0.695541  0.694947  1
  Si  Si24  1  0.750508  0.695541  0.305053  1
  Si  Si25  1  0.755594  0.196795  0.801591  1
  Si  Si26  1  0.244157  0.390608  0.000000  1
  Si  Si27  1  0.256151  0.894390  0.500000  1
  Si  Si28  1  0.249453  0.304483  0.305052  1
  Si  Si29  1  0.244386  0.803222  0.801583  1
  Si  Si30  1  0.244386  0.803222  0.198417  1
  Si  Si31  1  0.249453  0.304483  0.694948  1
  Br  Br32  1  0.500201  0.999831  0.000000  1
