# generated using pymatgen
data_Dy3YZnPt3
_symmetry_space_group_name_H-M   'P 1'
_cell_length_a   4.55660200
_cell_length_b   5.58276508
_cell_length_c   7.10368553
_cell_angle_alpha   89.80127053
_cell_angle_beta   90.00000000
_cell_angle_gamma   90.00000000
_symmetry_Int_Tables_number   1
_chemical_formula_structural   Dy3YZnPt3
_chemical_formula_sum   'Dy3 Y1 Zn1 Pt3'
_cell_volume   180.70558077
_cell_formula_units_Z   1
loop_
 _symmetry_equiv_pos_site_id
 _symmetry_equiv_pos_as_xyz
  1  'x, y, z'
loop_
 _atom_site_type_symbol
 _atom_site_label
 _atom_site_symmetry_multiplicity
 _atom_site_fract_x
 _atom_site_fract_y
 _atom_site_fract_z
 _atom_site_occupancy
  Dy  Dy0  1  0.250000  0.148803  0.178029  1
  Dy  Dy1  1  0.750000  0.630331  0.306905  1
  Dy  Dy2  1  0.750000  0.861477  0.828601  1
  Y  Y3  1  0.250000  0.359827  0.686980  1
  Zn  Zn4  1  0.250000  0.864275  0.532969  1
  Pt  Pt5  1  0.250000  0.664008  0.043546  1
  Pt  Pt6  1  0.750000  0.126330  0.468185  1
  Pt  Pt7  1  0.750000  0.344950  0.954785  1
