# generated using pymatgen
data_Y20Hg6PdPt
_symmetry_space_group_name_H-M   'P 1'
_cell_length_a   9.77136700
_cell_length_b   9.77136671
_cell_length_c   9.61445900
_cell_angle_alpha   90.00000000
_cell_angle_beta   90.00000000
_cell_angle_gamma   119.99999761
_symmetry_Int_Tables_number   1
_chemical_formula_structural   Y20Hg6PdPt
_chemical_formula_sum   'Y20 Hg6 Pd1 Pt1'
_cell_volume   794.99817387
_cell_formula_units_Z   1
loop_
 _symmetry_equiv_pos_site_id
 _symmetry_equiv_pos_as_xyz
  1  'x, y, z'
loop_
 _atom_site_type_symbol
 _atom_site_label
 _atom_site_symmetry_multiplicity
 _atom_site_fract_x
 _atom_site_fract_y
 _atom_site_fract_z
 _atom_site_occupancy
  Y  Y0  1  0.206837  0.793163  0.939899  1
  Y  Y1  1  0.206837  0.413673  0.939899  1
  Y  Y2  1  0.586327  0.793163  0.939899  1
  Y  Y3  1  0.793275  0.206725  0.059700  1
  Y  Y4  1  0.793275  0.586552  0.059700  1
  Y  Y5  1  0.413448  0.206725  0.059700  1
  Y  Y6  1  0.793275  0.206725  0.440300  1
  Y  Y7  1  0.793275  0.586552  0.440300  1
  Y  Y8  1  0.413448  0.206725  0.440300  1
  Y  Y9  1  0.206837  0.793163  0.560101  1
  Y  Y10  1  0.206837  0.413673  0.560101  1
  Y  Y11  1  0.586327  0.793163  0.560101  1
  Y  Y12  1  0.542541  0.457459  0.750000  1
  Y  Y13  1  0.542541  0.085082  0.750000  1
  Y  Y14  1  0.914918  0.457459  0.750000  1
  Y  Y15  1  0.457315  0.542685  0.250000  1
  Y  Y16  1  0.457315  0.914630  0.250000  1
  Y  Y17  1  0.085370  0.542685  0.250000  1
  Y  Y18  1  0.000000  0.000000  0.000191  1
  Y  Y19  1  0.000000  0.000000  0.499809  1
  Hg  Hg20  1  0.879605  0.120395  0.750000  1
  Hg  Hg21  1  0.879605  0.759211  0.750000  1
  Hg  Hg22  1  0.240789  0.120395  0.750000  1
  Hg  Hg23  1  0.120308  0.879692  0.250000  1
  Hg  Hg24  1  0.120308  0.240615  0.250000  1
  Hg  Hg25  1  0.759385  0.879692  0.250000  1
  Pd  Pd26  1  0.666667  0.333333  0.250000  1
  Pt  Pt27  1  0.333333  0.666667  0.750000  1
