# generated using pymatgen
data_Ho3Al3ZnGePt
_symmetry_space_group_name_H-M   'P 1'
_cell_length_a   6.97562300
_cell_length_b   6.97562212
_cell_length_c   4.22250300
_cell_angle_alpha   90.00000000
_cell_angle_beta   90.00000000
_cell_angle_gamma   119.99999942
_symmetry_Int_Tables_number   1
_chemical_formula_structural   Ho3Al3ZnGePt
_chemical_formula_sum   'Ho3 Al3 Zn1 Ge1 Pt1'
_cell_volume   177.93711642
_cell_formula_units_Z   1
loop_
 _symmetry_equiv_pos_site_id
 _symmetry_equiv_pos_as_xyz
  1  'x, y, z'
loop_
 _atom_site_type_symbol
 _atom_site_label
 _atom_site_symmetry_multiplicity
 _atom_site_fract_x
 _atom_site_fract_y
 _atom_site_fract_z
 _atom_site_occupancy
  Ho  Ho0  1  0.417617  0.000907  0.000000  1
  Ho  Ho1  1  0.999093  0.416710  0.000000  1
  Ho  Ho2  1  0.583290  0.582382  0.000000  1
  Al  Al3  1  0.768678  0.007671  0.500001  1
  Al  Al4  1  0.238992  0.231322  0.500001  1
  Al  Al5  1  0.992329  0.761007  0.500001  1
  Zn  Zn6  1  0.666666  0.333333  0.500001  1
  Ge  Ge7  1  0.333333  0.666666  0.500001  1
  Pt  Pt8  1  0.000000  0.000000  0.000000  1
