# generated using pymatgen
data_Tb4CeCo4
_symmetry_space_group_name_H-M   'P 1'
_cell_length_a   5.79956120
_cell_length_b   5.79955981
_cell_length_c   9.22550013
_cell_angle_alpha   71.82532033
_cell_angle_beta   71.82532564
_cell_angle_gamma   39.92816458
_symmetry_Int_Tables_number   1
_chemical_formula_structural   Tb4CeCo4
_chemical_formula_sum   'Tb4 Ce1 Co4'
_cell_volume   187.87166755
_cell_formula_units_Z   1
loop_
 _symmetry_equiv_pos_site_id
 _symmetry_equiv_pos_as_xyz
  1  'x, y, z'
loop_
 _atom_site_type_symbol
 _atom_site_label
 _atom_site_symmetry_multiplicity
 _atom_site_fract_x
 _atom_site_fract_y
 _atom_site_fract_z
 _atom_site_occupancy
  Tb  Tb0  1  0.729169  0.729169  0.679708  1
  Tb  Tb1  1  0.270831  0.270831  0.320292  1
  Tb  Tb2  1  0.390096  0.390096  0.898482  1
  Tb  Tb3  1  0.609904  0.609904  0.101518  1
  Ce  Ce4  1  0.500000  0.500000  0.500000  1
  Co  Co5  1  0.030391  0.030391  0.643562  1
  Co  Co6  1  0.969609  0.969609  0.356438  1
  Co  Co7  1  0.088534  0.088534  0.879964  1
  Co  Co8  1  0.911466  0.911466  0.120036  1
