# generated using pymatgen
data_Hf18Re6SiPW2
_symmetry_space_group_name_H-M   'P 1'
_cell_length_a   8.61741300
_cell_length_b   8.61741312
_cell_length_c   8.60999800
_cell_angle_alpha   90.00000000
_cell_angle_beta   90.00000000
_cell_angle_gamma   119.99999570
_symmetry_Int_Tables_number   1
_chemical_formula_structural   Hf18Re6SiPW2
_chemical_formula_sum   'Hf18 Re6 Si1 P1 W2'
_cell_volume   553.71657281
_cell_formula_units_Z   1
loop_
 _symmetry_equiv_pos_site_id
 _symmetry_equiv_pos_as_xyz
  1  'x, y, z'
loop_
 _atom_site_type_symbol
 _atom_site_label
 _atom_site_symmetry_multiplicity
 _atom_site_fract_x
 _atom_site_fract_y
 _atom_site_fract_z
 _atom_site_occupancy
  Hf  Hf0  1  0.195415  0.804585  0.452677  1
  Hf  Hf1  1  0.195415  0.390827  0.452677  1
  Hf  Hf2  1  0.609173  0.804585  0.452677  1
  Hf  Hf3  1  0.803235  0.196765  0.548832  1
  Hf  Hf4  1  0.803235  0.606472  0.548832  1
  Hf  Hf5  1  0.393528  0.196765  0.548832  1
  Hf  Hf6  1  0.803235  0.196765  0.951168  1
  Hf  Hf7  1  0.803235  0.606472  0.951168  1
  Hf  Hf8  1  0.393528  0.196765  0.951168  1
  Hf  Hf9  1  0.195415  0.804585  0.047323  1
  Hf  Hf10  1  0.195415  0.390827  0.047323  1
  Hf  Hf11  1  0.609173  0.804585  0.047323  1
  Hf  Hf12  1  0.538574  0.461426  0.250000  1
  Hf  Hf13  1  0.538574  0.077147  0.250000  1
  Hf  Hf14  1  0.922853  0.461426  0.250000  1
  Hf  Hf15  1  0.460460  0.539540  0.750000  1
  Hf  Hf16  1  0.460460  0.920920  0.750000  1
  Hf  Hf17  1  0.079080  0.539540  0.750000  1
  Re  Re18  1  0.889570  0.110430  0.250000  1
  Re  Re19  1  0.889570  0.779139  0.250000  1
  Re  Re20  1  0.220861  0.110430  0.250000  1
  Re  Re21  1  0.110285  0.889715  0.750000  1
  Re  Re22  1  0.110285  0.220570  0.750000  1
  Re  Re23  1  0.779430  0.889715  0.750000  1
  Si  Si24  1  0.333333  0.666667  0.250000  1
  P  P25  1  0.666667  0.333333  0.750000  1
  W  W26  1  0.000000  0.000000  0.500090  1
  W  W27  1  0.000000  0.000000  0.999910  1
