# generated using pymatgen
data_Tm8In2RuRh
_symmetry_space_group_name_H-M   'P 1'
_cell_length_a   9.53177239
_cell_length_b   9.53177238
_cell_length_c   9.55891000
_cell_angle_alpha   59.90576799
_cell_angle_beta   59.90576801
_cell_angle_gamma   59.78712774
_symmetry_Int_Tables_number   1
_chemical_formula_structural   Tm8In2RuRh
_chemical_formula_sum   'Tm16 In4 Ru2 Rh2'
_cell_volume   612.23631742
_cell_formula_units_Z   2
loop_
 _symmetry_equiv_pos_site_id
 _symmetry_equiv_pos_as_xyz
  1  'x, y, z'
loop_
 _atom_site_type_symbol
 _atom_site_label
 _atom_site_symmetry_multiplicity
 _atom_site_fract_x
 _atom_site_fract_y
 _atom_site_fract_z
 _atom_site_occupancy
  Tm  Tm0  1  0.057129  0.057129  0.442871  1
  Tm  Tm1  1  0.443029  0.060328  0.437844  1
  Tm  Tm2  1  0.060328  0.443029  0.058800  1
  Tm  Tm3  1  0.044172  0.651983  0.651923  1
  Tm  Tm4  1  0.438607  0.438607  0.061393  1
  Tm  Tm5  1  0.651983  0.044172  0.651923  1
  Tm  Tm6  1  0.190783  0.808900  0.193337  1
  Tm  Tm7  1  0.192732  0.192732  0.807268  1
  Tm  Tm8  1  0.808299  0.808299  0.191701  1
  Tm  Tm9  1  0.443029  0.060328  0.058800  1
  Tm  Tm10  1  0.808900  0.190783  0.193337  1
  Tm  Tm11  1  0.060328  0.443029  0.437844  1
  Tm  Tm12  1  0.808900  0.190783  0.806980  1
  Tm  Tm13  1  0.190783  0.808900  0.806980  1
  Tm  Tm14  1  0.651533  0.651533  0.046546  1
  Tm  Tm15  1  0.651533  0.651533  0.650389  1
  In  In16  1  0.416921  0.416921  0.417253  1
  In  In17  1  0.750518  0.416467  0.416507  1
  In  In18  1  0.416467  0.750518  0.416507  1
  In  In19  1  0.416921  0.416921  0.748904  1
  Ru  Ru20  1  0.858902  0.858902  0.419933  1
  Ru  Ru21  1  0.858902  0.858902  0.862262  1
  Rh  Rh22  1  0.421301  0.858003  0.860348  1
  Rh  Rh23  1  0.858003  0.421301  0.860348  1
