# generated using pymatgen
data_Y2Ho6Re(TcB8)3
_symmetry_space_group_name_H-M   'P 1'
_cell_length_a   3.67882100
_cell_length_b   9.15471075
_cell_length_c   11.53735907
_cell_angle_alpha   90.01680950
_cell_angle_beta   90.00000000
_cell_angle_gamma   90.00000000
_symmetry_Int_Tables_number   1
_chemical_formula_structural   Y2Ho6Re(TcB8)3
_chemical_formula_sum   'Y2 Ho6 Re1 Tc3 B24'
_cell_volume   388.56141726
_cell_formula_units_Z   1
loop_
 _symmetry_equiv_pos_site_id
 _symmetry_equiv_pos_as_xyz
  1  'x, y, z'
loop_
 _atom_site_type_symbol
 _atom_site_label
 _atom_site_symmetry_multiplicity
 _atom_site_fract_x
 _atom_site_fract_y
 _atom_site_fract_z
 _atom_site_occupancy
  Y  Y0  1  0.000000  0.323500  0.414209  1
  Y  Y1  1  0.000000  0.676774  0.585772  1
  Ho  Ho2  1  0.000000  0.823635  0.085831  1
  Ho  Ho3  1  0.000000  0.176545  0.914388  1
  Ho  Ho4  1  0.000000  0.942361  0.368860  1
  Ho  Ho5  1  0.000000  0.058289  0.630063  1
  Ho  Ho6  1  0.000000  0.442285  0.130773  1
  Ho  Ho7  1  0.000000  0.556596  0.869864  1
  Re  Re8  1  0.000000  0.861974  0.820975  1
  Tc  Tc9  1  0.000000  0.638746  0.320007  1
  Tc  Tc10  1  0.000000  0.361335  0.680019  1
  Tc  Tc11  1  0.000000  0.138272  0.179210  1
  B  B12  1  0.500000  0.553441  0.432634  1
  B  B13  1  0.500000  0.446831  0.567497  1
  B  B14  1  0.500000  0.053139  0.066956  1
  B  B15  1  0.500000  0.947022  0.933271  1
  B  B16  1  0.500000  0.749064  0.417923  1
  B  B17  1  0.500000  0.251288  0.581997  1
  B  B18  1  0.500000  0.248679  0.081301  1
  B  B19  1  0.500000  0.750883  0.918850  1
  B  B20  1  0.500000  0.791640  0.264611  1
  B  B21  1  0.500000  0.208318  0.735213  1
  B  B22  1  0.500000  0.291314  0.234600  1
  B  B23  1  0.500000  0.708321  0.765590  1
  B  B24  1  0.500000  0.630406  0.185155  1
  B  B25  1  0.500000  0.369315  0.814909  1
  B  B26  1  0.500000  0.130053  0.314208  1
  B  B27  1  0.500000  0.870164  0.685590  1
  B  B28  1  0.500000  0.981608  0.211294  1
  B  B29  1  0.500000  0.018675  0.788389  1
  B  B30  1  0.500000  0.481990  0.288022  1
  B  B31  1  0.500000  0.517911  0.712224  1
  B  B32  1  0.500000  0.599672  0.028008  1
  B  B33  1  0.500000  0.399695  0.972282  1
  B  B34  1  0.500000  0.099384  0.471912  1
  B  B35  1  0.500000  0.900876  0.527591  1
