# generated using pymatgen
data_LaHoU2(Al8Pt3)3
_symmetry_space_group_name_H-M   'P 1'
_cell_length_a   7.57745447
_cell_length_b   7.59202432
_cell_length_c   13.20909154
_cell_angle_alpha   84.39573328
_cell_angle_beta   78.97139190
_cell_angle_gamma   59.90857427
_symmetry_Int_Tables_number   1
_chemical_formula_structural   LaHoU2(Al8Pt3)3
_chemical_formula_sum   'La1 Ho1 U2 Al24 Pt9'
_cell_volume   645.33782985
_cell_formula_units_Z   1
loop_
 _symmetry_equiv_pos_site_id
 _symmetry_equiv_pos_as_xyz
  1  'x, y, z'
loop_
 _atom_site_type_symbol
 _atom_site_label
 _atom_site_symmetry_multiplicity
 _atom_site_fract_x
 _atom_site_fract_y
 _atom_site_fract_z
 _atom_site_occupancy
  La  La0  1  0.393558  0.167101  0.809606  1
  Ho  Ho1  1  0.266934  0.501853  0.192010  1
  U  U2  1  0.604500  0.832469  0.197454  1
  U  U3  1  0.736012  0.498267  0.802794  1
  Al  Al4  1  0.685248  0.829619  0.950126  1
  Al  Al5  1  0.317182  0.164446  0.058953  1
  Al  Al6  1  0.146283  0.832368  0.559901  1
  Al  Al7  1  0.854021  0.166135  0.438348  1
  Al  Al8  1  0.480507  0.167862  0.557234  1
  Al  Al9  1  0.518837  0.833716  0.441649  1
  Al  Al10  1  0.215120  0.168068  0.329583  1
  Al  Al11  1  0.785409  0.835025  0.666523  1
  Al  Al12  1  0.436255  0.507727  0.667874  1
  Al  Al13  1  0.562285  0.491692  0.329264  1
  Al  Al14  1  0.111279  0.156947  0.666062  1
  Al  Al15  1  0.892370  0.840099  0.330532  1
  Al  Al16  1  0.354605  0.501961  0.945759  1
  Al  Al17  1  0.647793  0.502543  0.053693  1
  Al  Al18  1  0.011044  0.169305  0.955411  1
  Al  Al19  1  0.982881  0.831580  0.049005  1
  Al  Al20  1  0.186844  0.499895  0.440876  1
  Al  Al21  1  0.814761  0.499559  0.557111  1
  Al  Al22  1  0.734662  0.164583  0.182724  1
  Al  Al23  1  0.264795  0.830891  0.817187  1
  Al  Al24  1  0.054651  0.636342  0.816634  1
  Al  Al25  1  0.937453  0.369462  0.184067  1
  Al  Al26  1  0.859531  0.041830  0.817517  1
  Al  Al27  1  0.143678  0.959212  0.183282  1
  Pt  Pt28  1  0.118991  0.493508  0.638136  1
  Pt  Pt29  1  0.879327  0.508660  0.360575  1
  Pt  Pt30  1  0.657002  0.171708  0.001036  1
  Pt  Pt31  1  0.339231  0.829872  0.001039  1
  Pt  Pt32  1  0.537728  0.166989  0.360796  1
  Pt  Pt33  1  0.462793  0.831116  0.637724  1
  Pt  Pt34  1  0.780951  0.174110  0.636427  1
  Pt  Pt35  1  0.221212  0.825216  0.361681  1
  Pt  Pt36  1  0.004269  0.498262  0.001407  1
