# generated using pymatgen
data_Y9TmSi16Pd
_symmetry_space_group_name_H-M   'P 1'
_cell_length_a   11.13660722
_cell_length_b   11.13997094
_cell_length_c   11.13596000
_cell_angle_alpha   144.75507818
_cell_angle_beta   136.46882365
_cell_angle_gamma   57.18850635
_symmetry_Int_Tables_number   1
_chemical_formula_structural   Y9TmSi16Pd
_chemical_formula_sum   'Y9 Tm1 Si16 Pd1'
_cell_volume   544.70437546
_cell_formula_units_Z   1
loop_
 _symmetry_equiv_pos_site_id
 _symmetry_equiv_pos_as_xyz
  1  'x, y, z'
loop_
 _atom_site_type_symbol
 _atom_site_label
 _atom_site_symmetry_multiplicity
 _atom_site_fract_x
 _atom_site_fract_y
 _atom_site_fract_z
 _atom_site_occupancy
  Y  Y0  1  0.051923  0.564220  0.016458  1
  Y  Y1  1  0.352157  0.370685  0.521479  1
  Y  Y2  1  0.151906  0.165763  0.519619  1
  Y  Y3  1  0.451405  0.963143  0.014941  1
  Y  Y4  1  0.646008  0.165451  0.013587  1
  Y  Y5  1  0.948358  0.963339  0.511930  1
  Y  Y6  1  0.849405  0.370703  0.018633  1
  Y  Y7  1  0.547558  0.564238  0.512493  1
  Y  Y8  1  0.249582  0.763861  0.011753  1
  Tm  Tm9  1  0.751930  0.763205  0.513999  1
  Si  Si10  1  0.116253  0.073487  0.956875  1
  Si  Si11  1  0.798161  0.188666  0.390443  1
  Si  Si12  1  0.300465  0.899632  0.599086  1
  Si  Si13  1  0.400673  0.501031  0.101738  1
  Si  Si14  1  0.886286  0.846713  0.960111  1
  Si  Si15  1  0.102830  0.707671  0.603102  1
  Si  Si16  1  0.200372  0.588725  0.388224  1
  Si  Si17  1  0.698158  0.293847  0.596014  1
  Si  Si18  1  0.999024  0.433413  0.432791  1
  Si  Si19  1  0.712893  0.664729  0.952082  1
  Si  Si20  1  0.601214  0.702381  0.102803  1
  Si  Si21  1  0.999207  0.086181  0.084207  1
  Si  Si22  1  0.501497  0.396024  0.895680  1
  Si  Si23  1  0.286794  0.240756  0.954303  1
  Si  Si24  1  0.585033  0.039005  0.456692  1
  Si  Si25  1  0.415386  0.868455  0.455163  1
  Pd  Pd26  1  0.895527  0.503594  0.604711  1
