# generated using pymatgen
data_Sc3Nb(AsRh5)2
_symmetry_space_group_name_H-M   'P 1'
_cell_length_a   4.03632800
_cell_length_b   5.55406658
_cell_length_c   10.86555703
_cell_angle_alpha   89.91396914
_cell_angle_beta   90.00000000
_cell_angle_gamma   90.00000000
_symmetry_Int_Tables_number   1
_chemical_formula_structural   Sc3Nb(AsRh5)2
_chemical_formula_sum   'Sc3 Nb1 As2 Rh10'
_cell_volume   243.58415731
_cell_formula_units_Z   1
loop_
 _symmetry_equiv_pos_site_id
 _symmetry_equiv_pos_as_xyz
  1  'x, y, z'
loop_
 _atom_site_type_symbol
 _atom_site_label
 _atom_site_symmetry_multiplicity
 _atom_site_fract_x
 _atom_site_fract_y
 _atom_site_fract_z
 _atom_site_occupancy
  Sc  Sc0  1  0.500000  0.678856  0.643437  1
  Sc  Sc1  1  0.500000  0.178485  0.858359  1
  Sc  Sc2  1  0.500000  0.825000  0.137497  1
  Nb  Nb3  1  0.500000  0.327339  0.356699  1
  As  As4  1  0.000000  0.991344  0.502309  1
  As  As5  1  0.000000  0.499580  0.999047  1
  Rh  Rh6  1  0.500000  0.315467  0.110744  1
  Rh  Rh7  1  0.500000  0.685489  0.893889  1
  Rh  Rh8  1  0.500000  0.808595  0.393835  1
  Rh  Rh9  1  0.500000  0.187581  0.600884  1
  Rh  Rh10  1  0.000000  0.936166  0.744084  1
  Rh  Rh11  1  0.000000  0.072679  0.260639  1
  Rh  Rh12  1  0.000000  0.434882  0.754196  1
  Rh  Rh13  1  0.000000  0.563526  0.246635  1
  Rh  Rh14  1  0.000000  0.493362  0.496550  1
  Rh  Rh15  1  0.000000  0.001651  0.001197  1
