# generated using pymatgen
data_PrNd2Cd3Pb2Au
_symmetry_space_group_name_H-M   'P 1'
_cell_length_a   7.80555000
_cell_length_b   7.81123997
_cell_length_c   4.61062600
_cell_angle_alpha   90.00000000
_cell_angle_beta   90.00000000
_cell_angle_gamma   119.97590655
_symmetry_Int_Tables_number   1
_chemical_formula_structural   PrNd2Cd3Pb2Au
_chemical_formula_sum   'Pr1 Nd2 Cd3 Pb2 Au1'
_cell_volume   243.51145971
_cell_formula_units_Z   1
loop_
 _symmetry_equiv_pos_site_id
 _symmetry_equiv_pos_as_xyz
  1  'x, y, z'
loop_
 _atom_site_type_symbol
 _atom_site_label
 _atom_site_symmetry_multiplicity
 _atom_site_fract_x
 _atom_site_fract_y
 _atom_site_fract_z
 _atom_site_occupancy
  Pr  Pr0  1  0.600307  0.000000  0.000000  1
  Nd  Nd1  1  0.999895  0.600778  0.000000  1
  Nd  Nd2  1  0.399117  0.399222  0.000000  1
  Cd  Cd3  1  0.236304  0.000000  0.500000  1
  Cd  Cd4  1  0.000256  0.236537  0.500000  1
  Cd  Cd5  1  0.763719  0.763463  0.500000  1
  Pb  Pb6  1  0.332783  0.665882  0.500000  1
  Pb  Pb7  1  0.666903  0.334118  0.500000  1
  Au  Au8  1  0.000715  0.000000  0.000000  1
