# generated using pymatgen
data_Ca11CeSn3AsN4
_symmetry_space_group_name_H-M   'P 1'
_cell_length_a   6.94603997
_cell_length_b   6.93289059
_cell_length_c   9.61312600
_cell_angle_alpha   90.00000000
_cell_angle_beta   90.00000000
_cell_angle_gamma   90.07283325
_symmetry_Int_Tables_number   1
_chemical_formula_structural   Ca11CeSn3AsN4
_chemical_formula_sum   'Ca11 Ce1 Sn3 As1 N4'
_cell_volume   462.93062118
_cell_formula_units_Z   1
loop_
 _symmetry_equiv_pos_site_id
 _symmetry_equiv_pos_as_xyz
  1  'x, y, z'
loop_
 _atom_site_type_symbol
 _atom_site_label
 _atom_site_symmetry_multiplicity
 _atom_site_fract_x
 _atom_site_fract_y
 _atom_site_fract_z
 _atom_site_occupancy
  Ca  Ca0  1  0.004585  0.498193  0.250000  1
  Ca  Ca1  1  0.491345  0.000769  0.250000  1
  Ca  Ca2  1  0.995704  0.500715  0.750000  1
  Ca  Ca3  1  0.755410  0.255329  0.005769  1
  Ca  Ca4  1  0.761201  0.750396  0.492382  1
  Ca  Ca5  1  0.239459  0.250517  0.001696  1
  Ca  Ca6  1  0.244871  0.744062  0.498252  1
  Ca  Ca7  1  0.244871  0.744062  0.001748  1
  Ca  Ca8  1  0.239459  0.250517  0.498304  1
  Ca  Ca9  1  0.761201  0.750396  0.007618  1
  Ca  Ca10  1  0.755410  0.255329  0.494231  1
  Ce  Ce11  1  0.503563  0.999267  0.750000  1
  Sn  Sn12  1  0.999440  0.999655  0.750000  1
  Sn  Sn13  1  0.499882  0.499652  0.750000  1
  Sn  Sn14  1  0.500008  0.500343  0.250000  1
  As  As15  1  0.002963  0.000797  0.250000  1
  N  N16  1  0.500329  0.999962  0.518205  1
  N  N17  1  0.999986  0.500039  0.002537  1
  N  N18  1  0.999986  0.500039  0.497463  1
  N  N19  1  0.500329  0.999962  0.981795  1
