# generated using pymatgen
data_Ce3Pa(Ni2Sn)2
_symmetry_space_group_name_H-M   'P 1'
_cell_length_a   7.49187583
_cell_length_b   7.49187624
_cell_length_c   3.60676600
_cell_angle_alpha   90.00000000
_cell_angle_beta   90.00000000
_cell_angle_gamma   90.76494140
_symmetry_Int_Tables_number   1
_chemical_formula_structural   Ce3Pa(Ni2Sn)2
_chemical_formula_sum   'Ce3 Pa1 Ni4 Sn2'
_cell_volume   202.42326537
_cell_formula_units_Z   1
loop_
 _symmetry_equiv_pos_site_id
 _symmetry_equiv_pos_as_xyz
  1  'x, y, z'
loop_
 _atom_site_type_symbol
 _atom_site_label
 _atom_site_symmetry_multiplicity
 _atom_site_fract_x
 _atom_site_fract_y
 _atom_site_fract_z
 _atom_site_occupancy
  Ce  Ce0  1  0.324187  0.824187  0.500000  1
  Ce  Ce1  1  0.173974  0.323624  0.500000  1
  Ce  Ce2  1  0.823624  0.673974  0.500000  1
  Pa  Pa3  1  0.674128  0.174128  0.500000  1
  Ni  Ni4  1  0.863496  0.363496  0.000000  1
  Ni  Ni5  1  0.118725  0.618725  0.000000  1
  Ni  Ni6  1  0.391148  0.132649  0.000000  1
  Ni  Ni7  1  0.632649  0.891148  0.000000  1
  Sn  Sn8  1  0.497405  0.500664  0.000000  1
  Sn  Sn9  1  0.000664  0.997405  0.000000  1
