# generated using pymatgen
data_PrSm5RuBr10
_symmetry_space_group_name_H-M   'P 1'
_cell_length_a   7.59099961
_cell_length_b   9.30756788
_cell_length_c   9.59817647
_cell_angle_alpha   108.93272939
_cell_angle_beta   96.93238792
_cell_angle_gamma   105.89286276
_symmetry_Int_Tables_number   1
_chemical_formula_structural   PrSm5RuBr10
_chemical_formula_sum   'Pr1 Sm5 Ru1 Br10'
_cell_volume   600.35104497
_cell_formula_units_Z   1
loop_
 _symmetry_equiv_pos_site_id
 _symmetry_equiv_pos_as_xyz
  1  'x, y, z'
loop_
 _atom_site_type_symbol
 _atom_site_label
 _atom_site_symmetry_multiplicity
 _atom_site_fract_x
 _atom_site_fract_y
 _atom_site_fract_z
 _atom_site_occupancy
  Pr  Pr0  1  0.972890  0.290961  0.090209  1
  Sm  Sm1  1  0.128813  0.049500  0.750712  1
  Sm  Sm2  1  0.628567  0.852676  0.811725  1
  Sm  Sm3  1  0.869954  0.950258  0.248884  1
  Sm  Sm4  1  0.027400  0.713883  0.911008  1
  Sm  Sm5  1  0.371231  0.144904  0.187830  1
  Ru  Ru6  1  0.999144  0.001113  0.000261  1
  Br  Br7  1  0.200629  0.741156  0.652278  1
  Br  Br8  1  0.645141  0.537580  0.726625  1
  Br  Br9  1  0.249462  0.082112  0.452969  1
  Br  Br10  1  0.794302  0.255067  0.352926  1
  Br  Br11  1  0.547547  0.172178  0.917348  1
  Br  Br12  1  0.749767  0.917203  0.547114  1
  Br  Br13  1  0.909674  0.632854  0.168417  1
  Br  Br14  1  0.366512  0.463438  0.277367  1
  Br  Br15  1  0.092763  0.370488  0.825375  1
  Br  Br16  1  0.446203  0.824629  0.078950  1
