# generated using pymatgen
data_ErScVB6
_symmetry_space_group_name_H-M   'P 1'
_cell_length_a   3.45257300
_cell_length_b   9.07353500
_cell_length_c   11.40039500
_cell_angle_alpha   90.00000000
_cell_angle_beta   90.00000000
_cell_angle_gamma   90.00000000
_symmetry_Int_Tables_number   1
_chemical_formula_structural   ErScVB6
_chemical_formula_sum   'Er4 Sc4 V4 B24'
_cell_volume   357.14065247
_cell_formula_units_Z   4
loop_
 _symmetry_equiv_pos_site_id
 _symmetry_equiv_pos_as_xyz
  1  'x, y, z'
loop_
 _atom_site_type_symbol
 _atom_site_label
 _atom_site_symmetry_multiplicity
 _atom_site_fract_x
 _atom_site_fract_y
 _atom_site_fract_z
 _atom_site_occupancy
  Er  Er0  1  0.000000  0.822636  0.085288  1
  Er  Er1  1  0.000000  0.177364  0.914712  1
  Er  Er2  1  0.000000  0.322636  0.414712  1
  Er  Er3  1  0.000000  0.677364  0.585288  1
  Sc  Sc4  1  0.000000  0.443459  0.130653  1
  Sc  Sc5  1  0.000000  0.556541  0.869347  1
  Sc  Sc6  1  0.000000  0.943459  0.369347  1
  Sc  Sc7  1  0.000000  0.056541  0.630653  1
  V  V8  1  0.000000  0.142275  0.181880  1
  V  V9  1  0.000000  0.857725  0.818120  1
  V  V10  1  0.000000  0.642275  0.318120  1
  V  V11  1  0.000000  0.357725  0.681880  1
  B  B12  1  0.500000  0.053864  0.066196  1
  B  B13  1  0.500000  0.946136  0.933804  1
  B  B14  1  0.500000  0.553864  0.433804  1
  B  B15  1  0.500000  0.446136  0.566196  1
  B  B16  1  0.500000  0.254571  0.081050  1
  B  B17  1  0.500000  0.745429  0.918950  1
  B  B18  1  0.500000  0.754571  0.418950  1
  B  B19  1  0.500000  0.245429  0.581050  1
  B  B20  1  0.500000  0.295995  0.236804  1
  B  B21  1  0.500000  0.704005  0.763196  1
  B  B22  1  0.500000  0.795995  0.263196  1
  B  B23  1  0.500000  0.204005  0.736804  1
  B  B24  1  0.500000  0.129917  0.318467  1
  B  B25  1  0.500000  0.870083  0.681533  1
  B  B26  1  0.500000  0.629917  0.181533  1
  B  B27  1  0.500000  0.370083  0.818467  1
  B  B28  1  0.500000  0.481104  0.286453  1
  B  B29  1  0.500000  0.518896  0.713547  1
  B  B30  1  0.500000  0.981104  0.213547  1
  B  B31  1  0.500000  0.018896  0.786453  1
  B  B32  1  0.500000  0.095443  0.474082  1
  B  B33  1  0.500000  0.904557  0.525918  1
  B  B34  1  0.500000  0.595443  0.025918  1
  B  B35  1  0.500000  0.404557  0.974082  1
