# generated using pymatgen
data_Zr6Zn15Cu8As
_symmetry_space_group_name_H-M   'P 1'
_cell_length_a   8.66235383
_cell_length_b   8.66235338
_cell_length_c   8.66235400
_cell_angle_alpha   60.00000528
_cell_angle_beta   60.00000698
_cell_angle_gamma   59.99999854
_symmetry_Int_Tables_number   1
_chemical_formula_structural   Zr6Zn15Cu8As
_chemical_formula_sum   'Zr6 Zn15 Cu8 As1'
_cell_volume   459.61350543
_cell_formula_units_Z   1
loop_
 _symmetry_equiv_pos_site_id
 _symmetry_equiv_pos_as_xyz
  1  'x, y, z'
loop_
 _atom_site_type_symbol
 _atom_site_label
 _atom_site_symmetry_multiplicity
 _atom_site_fract_x
 _atom_site_fract_y
 _atom_site_fract_z
 _atom_site_occupancy
  Zr  Zr0  1  0.718932  0.281068  0.281068  1
  Zr  Zr1  1  0.281068  0.718932  0.718932  1
  Zr  Zr2  1  0.281068  0.718932  0.281068  1
  Zr  Zr3  1  0.718932  0.281068  0.718932  1
  Zr  Zr4  1  0.281068  0.281068  0.718932  1
  Zr  Zr5  1  0.718932  0.718932  0.281068  1
  Zn  Zn6  1  0.500000  0.000000  0.000000  1
  Zn  Zn7  1  0.000000  0.500000  0.500000  1
  Zn  Zn8  1  0.000000  0.500000  0.000000  1
  Zn  Zn9  1  0.500000  0.000000  0.500000  1
  Zn  Zn10  1  0.000000  0.000000  0.500000  1
  Zn  Zn11  1  0.500000  0.500000  0.000000  1
  Zn  Zn12  1  0.331663  0.331663  0.331663  1
  Zn  Zn13  1  0.668337  0.668337  0.668337  1
  Zn  Zn14  1  0.331663  0.331663  0.005013  1
  Zn  Zn15  1  0.331663  0.005013  0.331663  1
  Zn  Zn16  1  0.668337  0.668337  0.994987  1
  Zn  Zn17  1  0.668337  0.994987  0.668337  1
  Zn  Zn18  1  0.005013  0.331663  0.331663  1
  Zn  Zn19  1  0.994987  0.668337  0.668337  1
  Zn  Zn20  1  0.000000  0.000000  0.000000  1
  Cu  Cu21  1  0.120368  0.120368  0.120368  1
  Cu  Cu22  1  0.879632  0.879632  0.879632  1
  Cu  Cu23  1  0.120368  0.120368  0.638897  1
  Cu  Cu24  1  0.120368  0.638897  0.120368  1
  Cu  Cu25  1  0.879632  0.879632  0.361103  1
  Cu  Cu26  1  0.879632  0.361103  0.879632  1
  Cu  Cu27  1  0.638897  0.120368  0.120368  1
  Cu  Cu28  1  0.361103  0.879632  0.879632  1
  As  As29  1  0.500000  0.500000  0.500000  1
