# generated using pymatgen
data_Tb3DyAl4Rh3Au
_symmetry_space_group_name_H-M   'P 1'
_cell_length_a   4.36289300
_cell_length_b   6.89462058
_cell_length_c   7.92900116
_cell_angle_alpha   90.03265867
_cell_angle_beta   90.00000000
_cell_angle_gamma   90.00000000
_symmetry_Int_Tables_number   1
_chemical_formula_structural   Tb3DyAl4Rh3Au
_chemical_formula_sum   'Tb3 Dy1 Al4 Rh3 Au1'
_cell_volume   238.50821610
_cell_formula_units_Z   1
loop_
 _symmetry_equiv_pos_site_id
 _symmetry_equiv_pos_as_xyz
  1  'x, y, z'
loop_
 _atom_site_type_symbol
 _atom_site_label
 _atom_site_symmetry_multiplicity
 _atom_site_fract_x
 _atom_site_fract_y
 _atom_site_fract_z
 _atom_site_occupancy
  Tb  Tb0  1  0.250000  0.027357  0.325680  1
  Tb  Tb1  1  0.250000  0.541813  0.180762  1
  Tb  Tb2  1  0.750000  0.967160  0.679105  1
  Dy  Dy3  1  0.750000  0.473276  0.813947  1
  Al  Al4  1  0.250000  0.135098  0.932075  1
  Al  Al5  1  0.250000  0.638871  0.562828  1
  Al  Al6  1  0.750000  0.849788  0.059931  1
  Al  Al7  1  0.750000  0.366377  0.443581  1
  Rh  Rh8  1  0.250000  0.268770  0.618040  1
  Rh  Rh9  1  0.250000  0.766092  0.881515  1
  Rh  Rh10  1  0.750000  0.735418  0.380738  1
  Au  Au11  1  0.750000  0.229980  0.121800  1
