# generated using pymatgen
data_Yb3Ni5Sb5Pd
_symmetry_space_group_name_H-M   'P 1'
_cell_length_a   4.28449400
_cell_length_b   9.61444900
_cell_length_c   13.09066900
_cell_angle_alpha   90.00000000
_cell_angle_beta   90.00000000
_cell_angle_gamma   90.00000000
_symmetry_Int_Tables_number   1
_chemical_formula_structural   Yb3Ni5Sb5Pd
_chemical_formula_sum   'Yb6 Ni10 Sb10 Pd2'
_cell_volume   539.24457026
_cell_formula_units_Z   2
loop_
 _symmetry_equiv_pos_site_id
 _symmetry_equiv_pos_as_xyz
  1  'x, y, z'
loop_
 _atom_site_type_symbol
 _atom_site_label
 _atom_site_symmetry_multiplicity
 _atom_site_fract_x
 _atom_site_fract_y
 _atom_site_fract_z
 _atom_site_occupancy
  Yb  Yb0  1  0.000000  0.234069  0.000000  1
  Yb  Yb1  1  0.500000  0.765931  0.500000  1
  Yb  Yb2  1  0.000000  0.245498  0.322514  1
  Yb  Yb3  1  0.500000  0.754502  0.177486  1
  Yb  Yb4  1  0.000000  0.245498  0.677486  1
  Yb  Yb5  1  0.500000  0.754502  0.822514  1
  Ni  Ni6  1  0.000000  0.991029  0.149238  1
  Ni  Ni7  1  0.500000  0.008971  0.350762  1
  Ni  Ni8  1  0.000000  0.991029  0.850762  1
  Ni  Ni9  1  0.500000  0.008971  0.649238  1
  Ni  Ni10  1  0.500000  0.985477  0.000000  1
  Ni  Ni11  1  0.000000  0.014523  0.500000  1
  Ni  Ni12  1  0.000000  0.616569  0.316792  1
  Ni  Ni13  1  0.500000  0.383431  0.183208  1
  Ni  Ni14  1  0.000000  0.616569  0.683208  1
  Ni  Ni15  1  0.500000  0.383431  0.816792  1
  Sb  Sb16  1  0.000000  0.510668  0.137149  1
  Sb  Sb17  1  0.500000  0.489332  0.362851  1
  Sb  Sb18  1  0.000000  0.510668  0.862851  1
  Sb  Sb19  1  0.500000  0.489332  0.637149  1
  Sb  Sb20  1  0.000000  0.877099  0.330220  1
  Sb  Sb21  1  0.500000  0.122901  0.169780  1
  Sb  Sb22  1  0.000000  0.877099  0.669780  1
  Sb  Sb23  1  0.500000  0.122901  0.830220  1
  Sb  Sb24  1  0.000000  0.829397  0.000000  1
  Sb  Sb25  1  0.500000  0.170603  0.500000  1
  Pd  Pd26  1  0.500000  0.501659  0.000000  1
  Pd  Pd27  1  0.000000  0.498341  0.500000  1
