# generated using pymatgen
data_TbPr2Al12Ir3Ru
_symmetry_space_group_name_H-M   'P 1'
_cell_length_a   8.85638500
_cell_length_b   8.90519567
_cell_length_c   9.64472800
_cell_angle_alpha   90.00000000
_cell_angle_beta   90.00000000
_cell_angle_gamma   119.81884649
_symmetry_Int_Tables_number   1
_chemical_formula_structural   TbPr2Al12Ir3Ru
_chemical_formula_sum   'Tb2 Pr4 Al24 Ir6 Ru2'
_cell_volume   659.94911470
_cell_formula_units_Z   2
loop_
 _symmetry_equiv_pos_site_id
 _symmetry_equiv_pos_as_xyz
  1  'x, y, z'
loop_
 _atom_site_type_symbol
 _atom_site_label
 _atom_site_symmetry_multiplicity
 _atom_site_fract_x
 _atom_site_fract_y
 _atom_site_fract_z
 _atom_site_occupancy
  Tb  Tb0  1  0.193434  0.386869  0.250000  1
  Tb  Tb1  1  0.806566  0.613131  0.750000  1
  Pr  Pr2  1  0.621233  0.811005  0.250000  1
  Pr  Pr3  1  0.378767  0.188995  0.750000  1
  Pr  Pr4  1  0.189772  0.811005  0.250000  1
  Pr  Pr5  1  0.810228  0.188995  0.750000  1
  Al  Al6  1  0.333464  0.666929  0.024600  1
  Al  Al7  1  0.666536  0.333071  0.975400  1
  Al  Al8  1  0.666536  0.333071  0.524600  1
  Al  Al9  1  0.333464  0.666929  0.475400  1
  Al  Al10  1  0.163732  0.327461  0.573198  1
  Al  Al11  1  0.836268  0.672539  0.426802  1
  Al  Al12  1  0.673252  0.834562  0.577149  1
  Al  Al13  1  0.836268  0.672539  0.073198  1
  Al  Al14  1  0.326748  0.165438  0.422851  1
  Al  Al15  1  0.163732  0.327461  0.926802  1
  Al  Al16  1  0.161312  0.834562  0.577149  1
  Al  Al17  1  0.326748  0.165438  0.077149  1
  Al  Al18  1  0.838688  0.165438  0.422851  1
  Al  Al19  1  0.673252  0.834562  0.922851  1
  Al  Al20  1  0.838688  0.165438  0.077149  1
  Al  Al21  1  0.161312  0.834562  0.922851  1
  Al  Al22  1  0.564124  0.128247  0.250000  1
  Al  Al23  1  0.435876  0.871753  0.750000  1
  Al  Al24  1  0.874386  0.437468  0.250000  1
  Al  Al25  1  0.125614  0.562532  0.750000  1
  Al  Al26  1  0.563082  0.437468  0.250000  1
  Al  Al27  1  0.436918  0.562532  0.750000  1
  Al  Al28  1  0.003884  0.007768  0.250000  1
  Al  Al29  1  0.996116  0.992232  0.750000  1
  Ir  Ir30  1  0.500000  0.000000  0.000000  1
  Ir  Ir31  1  0.000000  0.500000  0.000000  1
  Ir  Ir32  1  0.500000  0.000000  0.500000  1
  Ir  Ir33  1  0.500000  0.500000  0.000000  1
  Ir  Ir34  1  0.000000  0.500000  0.500000  1
  Ir  Ir35  1  0.500000  0.500000  0.500000  1
  Ru  Ru36  1  0.000000  0.000000  0.000000  1
  Ru  Ru37  1  0.000000  0.000000  0.500000  1
