# generated using pymatgen
data_Ac2CeRu2
_symmetry_space_group_name_H-M   'P 1'
_cell_length_a   6.37835303
_cell_length_b   6.37835232
_cell_length_c   6.37835236
_cell_angle_alpha   141.24869712
_cell_angle_beta   121.44638932
_cell_angle_gamma   72.44803600
_symmetry_Int_Tables_number   1
_chemical_formula_structural   Ac2CeRu2
_chemical_formula_sum   'Ac2 Ce1 Ru2'
_cell_volume   135.85128557
_cell_formula_units_Z   1
loop_
 _symmetry_equiv_pos_site_id
 _symmetry_equiv_pos_as_xyz
  1  'x, y, z'
loop_
 _atom_site_type_symbol
 _atom_site_label
 _atom_site_symmetry_multiplicity
 _atom_site_fract_x
 _atom_site_fract_y
 _atom_site_fract_z
 _atom_site_occupancy
  Ac  Ac0  1  0.689039  0.189039  0.500000  1
  Ac  Ac1  1  0.310961  0.810960  0.500000  1
  Ce  Ce2  1  0.000000  0.000000  0.000000  1
  Ru  Ru3  1  0.759865  0.500000  0.259865  1
  Ru  Ru4  1  0.240135  0.500000  0.740134  1
