# generated using pymatgen
data_LiNd2(HoSi2)2
_symmetry_space_group_name_H-M   'P 1'
_cell_length_a   7.23544500
_cell_length_b   7.75013700
_cell_length_c   14.80530600
_cell_angle_alpha   90.00000000
_cell_angle_beta   90.00000000
_cell_angle_gamma   90.00000000
_symmetry_Int_Tables_number   1
_chemical_formula_structural   LiNd2(HoSi2)2
_chemical_formula_sum   'Li4 Nd8 Ho8 Si16'
_cell_volume   830.21774970
_cell_formula_units_Z   4
loop_
 _symmetry_equiv_pos_site_id
 _symmetry_equiv_pos_as_xyz
  1  'x, y, z'
loop_
 _atom_site_type_symbol
 _atom_site_label
 _atom_site_symmetry_multiplicity
 _atom_site_fract_x
 _atom_site_fract_y
 _atom_site_fract_z
 _atom_site_occupancy
  Li  Li0  1  0.650203  0.987752  0.250000  1
  Li  Li1  1  0.150203  0.512248  0.250000  1
  Li  Li2  1  0.849797  0.487752  0.750000  1
  Li  Li3  1  0.349797  0.012248  0.750000  1
  Nd  Nd4  1  0.972745  0.813236  0.103248  1
  Nd  Nd5  1  0.472745  0.686764  0.396752  1
  Nd  Nd6  1  0.527255  0.313236  0.896752  1
  Nd  Nd7  1  0.027255  0.186764  0.603248  1
  Nd  Nd8  1  0.027255  0.186764  0.896752  1
  Nd  Nd9  1  0.527255  0.313236  0.603248  1
  Nd  Nd10  1  0.472745  0.686764  0.103248  1
  Nd  Nd11  1  0.972745  0.813236  0.396752  1
  Ho  Ho12  1  0.676240  0.819029  0.873721  1
  Ho  Ho13  1  0.176240  0.680971  0.626279  1
  Ho  Ho14  1  0.823760  0.319029  0.126279  1
  Ho  Ho15  1  0.323760  0.180971  0.373721  1
  Ho  Ho16  1  0.323760  0.180971  0.126279  1
  Ho  Ho17  1  0.823760  0.319029  0.373721  1
  Ho  Ho18  1  0.176240  0.680971  0.873721  1
  Ho  Ho19  1  0.676240  0.819029  0.626279  1
  Si  Si20  1  0.767160  0.616419  0.250000  1
  Si  Si21  1  0.267160  0.883581  0.250000  1
  Si  Si22  1  0.732840  0.116419  0.750000  1
  Si  Si23  1  0.232840  0.383581  0.750000  1
  Si  Si24  1  0.022504  0.095013  0.250000  1
  Si  Si25  1  0.522504  0.404987  0.250000  1
  Si  Si26  1  0.477496  0.595013  0.750000  1
  Si  Si27  1  0.977496  0.904987  0.750000  1
  Si  Si28  1  0.850742  0.534031  0.964702  1
  Si  Si29  1  0.350742  0.965969  0.535298  1
  Si  Si30  1  0.649258  0.034031  0.035298  1
  Si  Si31  1  0.149258  0.465969  0.464702  1
  Si  Si32  1  0.149258  0.465969  0.035298  1
  Si  Si33  1  0.649258  0.034031  0.464702  1
  Si  Si34  1  0.350742  0.965969  0.964702  1
  Si  Si35  1  0.850742  0.534031  0.535298  1
