# generated using pymatgen
data_Lu4Al24Pt8Au
_symmetry_space_group_name_H-M   'P 1'
_cell_length_a   7.51812879
_cell_length_b   7.54116792
_cell_length_c   13.09897424
_cell_angle_alpha   84.55006543
_cell_angle_beta   79.02148777
_cell_angle_gamma   59.88641897
_symmetry_Int_Tables_number   1
_chemical_formula_structural   Lu4Al24Pt8Au
_chemical_formula_sum   'Lu4 Al24 Pt8 Au1'
_cell_volume   630.66132947
_cell_formula_units_Z   1
loop_
 _symmetry_equiv_pos_site_id
 _symmetry_equiv_pos_as_xyz
  1  'x, y, z'
loop_
 _atom_site_type_symbol
 _atom_site_label
 _atom_site_symmetry_multiplicity
 _atom_site_fract_x
 _atom_site_fract_y
 _atom_site_fract_z
 _atom_site_occupancy
  Lu  Lu0  1  0.393341  0.169212  0.808168  1
  Lu  Lu1  1  0.605911  0.831411  0.193077  1
  Lu  Lu2  1  0.734146  0.499166  0.807944  1
  Lu  Lu3  1  0.266185  0.501005  0.192534  1
  Al  Al4  1  0.682363  0.834084  0.944641  1
  Al  Al5  1  0.316422  0.166110  0.056623  1
  Al  Al6  1  0.146814  0.838940  0.560235  1
  Al  Al7  1  0.854477  0.167283  0.435931  1
  Al  Al8  1  0.488150  0.159694  0.557459  1
  Al  Al9  1  0.520318  0.833502  0.439490  1
  Al  Al10  1  0.218772  0.165312  0.327079  1
  Al  Al11  1  0.776628  0.838623  0.675270  1
  Al  Al12  1  0.439659  0.506623  0.675368  1
  Al  Al13  1  0.563249  0.493831  0.326801  1
  Al  Al14  1  0.108116  0.155534  0.673997  1
  Al  Al15  1  0.890996  0.839656  0.328020  1
  Al  Al16  1  0.354589  0.497967  0.944565  1
  Al  Al17  1  0.645968  0.501527  0.056600  1
  Al  Al18  1  0.015896  0.168600  0.952018  1
  Al  Al19  1  0.983645  0.831497  0.049120  1
  Al  Al20  1  0.188190  0.499620  0.436143  1
  Al  Al21  1  0.806986  0.500131  0.557337  1
  Al  Al22  1  0.733505  0.163915  0.183036  1
  Al  Al23  1  0.267509  0.835404  0.817389  1
  Al  Al24  1  0.060565  0.632669  0.818164  1
  Al  Al25  1  0.938560  0.369087  0.184393  1
  Al  Al26  1  0.853330  0.042849  0.816682  1
  Al  Al27  1  0.145353  0.957573  0.183670  1
  Pt  Pt28  1  0.879896  0.509219  0.360330  1
  Pt  Pt29  1  0.657044  0.171466  0.999565  1
  Pt  Pt30  1  0.343075  0.828357  0.000069  1
  Pt  Pt31  1  0.537219  0.166772  0.360490  1
  Pt  Pt32  1  0.462739  0.833216  0.639020  1
  Pt  Pt33  1  0.778224  0.175688  0.637366  1
  Pt  Pt34  1  0.222114  0.824276  0.362104  1
  Pt  Pt35  1  0.999949  0.499878  0.000247  1
  Au  Au36  1  0.120096  0.490305  0.639056  1
