# generated using pymatgen
data_Cs2TbCe(SiSe4)2
_symmetry_space_group_name_H-M   'P 1'
_cell_length_a   6.77685236
_cell_length_b   7.17050500
_cell_length_c   18.78909794
_cell_angle_alpha   90.00000000
_cell_angle_beta   89.90668220
_cell_angle_gamma   90.00000000
_symmetry_Int_Tables_number   1
_chemical_formula_structural   Cs2TbCe(SiSe4)2
_chemical_formula_sum   'Cs4 Tb2 Ce2 Si4 Se16'
_cell_volume   913.02594966
_cell_formula_units_Z   2
loop_
 _symmetry_equiv_pos_site_id
 _symmetry_equiv_pos_as_xyz
  1  'x, y, z'
loop_
 _atom_site_type_symbol
 _atom_site_label
 _atom_site_symmetry_multiplicity
 _atom_site_fract_x
 _atom_site_fract_y
 _atom_site_fract_z
 _atom_site_occupancy
  Cs  Cs0  1  0.499907  0.494678  0.967972  1
  Cs  Cs1  1  0.999725  0.504277  0.465626  1
  Cs  Cs2  1  0.500093  0.994678  0.532028  1
  Cs  Cs3  1  0.000275  0.004277  0.034374  1
  Tb  Tb4  1  0.708570  0.974832  0.272016  1
  Tb  Tb5  1  0.291430  0.474832  0.227984  1
  Ce  Ce6  1  0.792927  0.023988  0.773142  1
  Ce  Ce7  1  0.207073  0.523988  0.726858  1
  Si  Si8  1  0.287017  0.984399  0.835529  1
  Si  Si9  1  0.789736  0.513390  0.168672  1
  Si  Si10  1  0.210264  0.013390  0.331328  1
  Si  Si11  1  0.712983  0.484399  0.664471  1
  Se  Se12  1  0.552653  0.988877  0.908874  1
  Se  Se13  1  0.065302  0.749374  0.858042  1
  Se  Se14  1  0.382943  0.933541  0.720065  1
  Se  Se15  1  0.102813  0.079106  0.218899  1
  Se  Se16  1  0.058409  0.508605  0.095920  1
  Se  Se17  1  0.941591  0.008605  0.404080  1
  Se  Se18  1  0.398260  0.746982  0.343242  1
  Se  Se19  1  0.617057  0.433541  0.779935  1
  Se  Se20  1  0.601740  0.246982  0.156758  1
  Se  Se21  1  0.105158  0.252807  0.849762  1
  Se  Se22  1  0.894842  0.752807  0.650238  1
  Se  Se23  1  0.447347  0.488877  0.591126  1
  Se  Se24  1  0.934698  0.249374  0.641958  1
  Se  Se25  1  0.562516  0.745143  0.147386  1
  Se  Se26  1  0.437484  0.245143  0.352614  1
  Se  Se27  1  0.897187  0.579106  0.281101  1
