# generated using pymatgen
data_Pr4Re15Si8Mo
_symmetry_space_group_name_H-M   'P 1'
_cell_length_a   4.18708100
_cell_length_b   7.36822885
_cell_length_c   15.57949226
_cell_angle_alpha   90.06991007
_cell_angle_beta   90.00000000
_cell_angle_gamma   90.00000000
_symmetry_Int_Tables_number   1
_chemical_formula_structural   Pr4Re15Si8Mo
_chemical_formula_sum   'Pr4 Re15 Si8 Mo1'
_cell_volume   480.64833828
_cell_formula_units_Z   1
loop_
 _symmetry_equiv_pos_site_id
 _symmetry_equiv_pos_as_xyz
  1  'x, y, z'
loop_
 _atom_site_type_symbol
 _atom_site_label
 _atom_site_symmetry_multiplicity
 _atom_site_fract_x
 _atom_site_fract_y
 _atom_site_fract_z
 _atom_site_occupancy
  Pr  Pr0  1  0.000000  0.582923  0.118106  1
  Pr  Pr1  1  0.000000  0.421762  0.881217  1
  Pr  Pr2  1  0.500000  0.079282  0.382105  1
  Pr  Pr3  1  0.500000  0.920380  0.618103  1
  Re  Re4  1  0.000000  0.861657  0.947204  1
  Re  Re5  1  0.500000  0.637390  0.448087  1
  Re  Re6  1  0.500000  0.361353  0.552140  1
  Re  Re7  1  0.000000  0.731392  0.321158  1
  Re  Re8  1  0.000000  0.268891  0.678920  1
  Re  Re9  1  0.500000  0.229933  0.179760  1
  Re  Re10  1  0.500000  0.768688  0.820566  1
  Re  Re11  1  0.000000  0.432258  0.418284  1
  Re  Re12  1  0.000000  0.567016  0.581873  1
  Re  Re13  1  0.500000  0.931363  0.082216  1
  Re  Re14  1  0.500000  0.066922  0.917715  1
  Re  Re15  1  0.000000  0.989537  0.207021  1
  Re  Re16  1  0.000000  0.010399  0.793867  1
  Re  Re17  1  0.500000  0.489335  0.294238  1
  Re  Re18  1  0.500000  0.510301  0.705558  1
  Si  Si19  1  0.000000  0.825075  0.475493  1
  Si  Si20  1  0.000000  0.174016  0.524439  1
  Si  Si21  1  0.500000  0.327033  0.024255  1
  Si  Si22  1  0.500000  0.674846  0.975261  1
  Si  Si23  1  0.000000  0.292720  0.272568  1
  Si  Si24  1  0.000000  0.708044  0.726893  1
  Si  Si25  1  0.500000  0.792234  0.227569  1
  Si  Si26  1  0.500000  0.208035  0.772850  1
  Mo  Mo27  1  0.000000  0.137215  0.052529  1
