# generated using pymatgen
data_LaPr4SmU4O20
_symmetry_space_group_name_H-M   'P 1'
_cell_length_a   6.81279518
_cell_length_b   7.74096162
_cell_length_c   8.67862559
_cell_angle_alpha   101.60493987
_cell_angle_beta   97.75110371
_cell_angle_gamma   107.11880925
_symmetry_Int_Tables_number   1
_chemical_formula_structural   LaPr4SmU4O20
_chemical_formula_sum   'La1 Pr4 Sm1 U4 O20'
_cell_volume   419.16170677
_cell_formula_units_Z   1
loop_
 _symmetry_equiv_pos_site_id
 _symmetry_equiv_pos_as_xyz
  1  'x, y, z'
loop_
 _atom_site_type_symbol
 _atom_site_label
 _atom_site_symmetry_multiplicity
 _atom_site_fract_x
 _atom_site_fract_y
 _atom_site_fract_z
 _atom_site_occupancy
  La  La0  1  0.000000  0.500000  0.500000  1
  Pr  Pr1  1  0.611902  0.703252  0.700493  1
  Pr  Pr2  1  0.388098  0.296748  0.299507  1
  Pr  Pr3  1  0.199561  0.897596  0.894244  1
  Pr  Pr4  1  0.800439  0.102404  0.105756  1
  Sm  Sm5  1  0.000000  0.000000  0.500000  1
  U  U6  1  0.402447  0.804496  0.302178  1
  U  U7  1  0.198754  0.401866  0.902165  1
  U  U8  1  0.801246  0.598134  0.097835  1
  U  U9  1  0.597553  0.195504  0.697822  1
  O  O10  1  0.437322  0.533586  0.132079  1
  O  O11  1  0.557525  0.994607  0.836773  1
  O  O12  1  0.275866  0.153018  0.744299  1
  O  O13  1  0.363010  0.601132  0.436605  1
  O  O14  1  0.056222  0.732226  0.324574  1
  O  O15  1  0.442475  0.005393  0.163227  1
  O  O16  1  0.149748  0.190232  0.027921  1
  O  O17  1  0.562678  0.466414  0.867921  1
  O  O18  1  0.855149  0.342668  0.949413  1
  O  O19  1  0.256554  0.600792  0.765923  1
  O  O20  1  0.954110  0.776383  0.649956  1
  O  O21  1  0.356487  0.058141  0.455510  1
  O  O22  1  0.643513  0.941859  0.544490  1
  O  O23  1  0.045890  0.223617  0.350044  1
  O  O24  1  0.743446  0.399208  0.234077  1
  O  O25  1  0.144851  0.657332  0.050587  1
  O  O26  1  0.850252  0.809768  0.972079  1
  O  O27  1  0.943778  0.267774  0.675426  1
  O  O28  1  0.636990  0.398868  0.563395  1
  O  O29  1  0.724134  0.846982  0.255701  1
