# generated using pymatgen
data_Tb2Ce(HoCo2)2
_symmetry_space_group_name_H-M   'P 1'
_cell_length_a   5.78400160
_cell_length_b   5.78400091
_cell_length_c   9.20862400
_cell_angle_alpha   71.87811065
_cell_angle_beta   71.87812332
_cell_angle_gamma   39.91306584
_symmetry_Int_Tables_number   1
_chemical_formula_structural   Tb2Ce(HoCo2)2
_chemical_formula_sum   'Tb2 Ce1 Ho2 Co4'
_cell_volume   186.53017357
_cell_formula_units_Z   1
loop_
 _symmetry_equiv_pos_site_id
 _symmetry_equiv_pos_as_xyz
  1  'x, y, z'
loop_
 _atom_site_type_symbol
 _atom_site_label
 _atom_site_symmetry_multiplicity
 _atom_site_fract_x
 _atom_site_fract_y
 _atom_site_fract_z
 _atom_site_occupancy
  Tb  Tb0  1  0.729568  0.729568  0.681340  1
  Tb  Tb1  1  0.270432  0.270432  0.318660  1
  Ce  Ce2  1  0.500000  0.500000  0.500000  1
  Ho  Ho3  1  0.390826  0.390826  0.898809  1
  Ho  Ho4  1  0.609174  0.609174  0.101191  1
  Co  Co5  1  0.032497  0.032497  0.644325  1
  Co  Co6  1  0.967503  0.967503  0.355675  1
  Co  Co7  1  0.089313  0.089313  0.881505  1
  Co  Co8  1  0.910687  0.910687  0.118495  1
