# generated using pymatgen
data_Yb2Lu2FeRu7
_symmetry_space_group_name_H-M   'P 1'
_cell_length_a   5.27512001
_cell_length_b   5.18453853
_cell_length_c   8.75044076
_cell_angle_alpha   90.17437482
_cell_angle_beta   90.02169575
_cell_angle_gamma   120.48161084
_symmetry_Int_Tables_number   1
_chemical_formula_structural   Yb2Lu2FeRu7
_chemical_formula_sum   'Yb2 Lu2 Fe1 Ru7'
_cell_volume   206.23945481
_cell_formula_units_Z   1
loop_
 _symmetry_equiv_pos_site_id
 _symmetry_equiv_pos_as_xyz
  1  'x, y, z'
loop_
 _atom_site_type_symbol
 _atom_site_label
 _atom_site_symmetry_multiplicity
 _atom_site_fract_x
 _atom_site_fract_y
 _atom_site_fract_z
 _atom_site_occupancy
  Yb  Yb0  1  0.330800  0.661799  0.059959  1
  Yb  Yb1  1  0.667221  0.334060  0.939518  1
  Lu  Lu2  1  0.668853  0.337304  0.571230  1
  Lu  Lu3  1  0.331808  0.664146  0.429834  1
  Fe  Fe4  1  0.168956  0.338044  0.746603  1
  Ru  Ru5  1  0.003513  0.006395  0.503571  1
  Ru  Ru6  1  0.998620  0.996713  0.994940  1
  Ru  Ru7  1  0.176431  0.828172  0.747608  1
  Ru  Ru8  1  0.651783  0.828193  0.747460  1
  Ru  Ru9  1  0.830945  0.662723  0.252829  1
  Ru  Ru10  1  0.825858  0.171061  0.253307  1
  Ru  Ru11  1  0.345211  0.171389  0.253140  1
