# generated using pymatgen
data_Nd4Al18NiPtRh4
_symmetry_space_group_name_H-M   'P 1'
_cell_length_a   7.62316461
_cell_length_b   7.62316469
_cell_length_c   9.57246203
_cell_angle_alpha   90.10726400
_cell_angle_beta   90.10726149
_cell_angle_gamma   119.58375888
_symmetry_Int_Tables_number   1
_chemical_formula_structural   Nd4Al18NiPtRh4
_chemical_formula_sum   'Nd4 Al18 Ni1 Pt1 Rh4'
_cell_volume   483.75805604
_cell_formula_units_Z   1
loop_
 _symmetry_equiv_pos_site_id
 _symmetry_equiv_pos_as_xyz
  1  'x, y, z'
loop_
 _atom_site_type_symbol
 _atom_site_label
 _atom_site_symmetry_multiplicity
 _atom_site_fract_x
 _atom_site_fract_y
 _atom_site_fract_z
 _atom_site_occupancy
  Nd  Nd0  1  0.994698  0.670700  0.749136  1
  Nd  Nd1  1  0.005302  0.329300  0.250864  1
  Nd  Nd2  1  0.670700  0.994698  0.749136  1
  Nd  Nd3  1  0.329300  0.005302  0.250864  1
  Al  Al4  1  0.130077  0.130077  0.745042  1
  Al  Al5  1  0.869923  0.869923  0.254958  1
  Al  Al6  1  0.001290  0.333468  0.573086  1
  Al  Al7  1  0.998710  0.666532  0.426914  1
  Al  Al8  1  0.997987  0.662159  0.074572  1
  Al  Al9  1  0.337841  0.002013  0.925428  1
  Al  Al10  1  0.002013  0.337841  0.925428  1
  Al  Al11  1  0.662159  0.997987  0.074572  1
  Al  Al12  1  0.666532  0.998710  0.426914  1
  Al  Al13  1  0.333468  0.001290  0.573086  1
  Al  Al14  1  0.337236  0.337236  0.047865  1
  Al  Al15  1  0.662764  0.662764  0.952135  1
  Al  Al16  1  0.667272  0.667272  0.545177  1
  Al  Al17  1  0.332728  0.332728  0.454823  1
  Al  Al18  1  0.339297  0.546811  0.749452  1
  Al  Al19  1  0.660703  0.453189  0.250548  1
  Al  Al20  1  0.546811  0.339297  0.749452  1
  Al  Al21  1  0.453189  0.660703  0.250548  1
  Ni  Ni22  1  0.000000  0.000000  0.500000  1
  Pt  Pt23  1  0.000000  0.000000  0.000000  1
  Rh  Rh24  1  0.671134  0.328866  0.500000  1
  Rh  Rh25  1  0.328866  0.671134  0.500000  1
  Rh  Rh26  1  0.328967  0.671033  0.000000  1
  Rh  Rh27  1  0.671033  0.328967  0.000000  1
