# generated using pymatgen
data_Tm12CdFe3Hg
_symmetry_space_group_name_H-M   'P 1'
_cell_length_a   8.22210116
_cell_length_b   8.22210081
_cell_length_c   8.22210154
_cell_angle_alpha   108.26109675
_cell_angle_beta   108.52514598
_cell_angle_gamma   111.64972834
_symmetry_Int_Tables_number   1
_chemical_formula_structural   Tm12CdFe3Hg
_chemical_formula_sum   'Tm12 Cd1 Fe3 Hg1'
_cell_volume   427.41643995
_cell_formula_units_Z   1
loop_
 _symmetry_equiv_pos_site_id
 _symmetry_equiv_pos_as_xyz
  1  'x, y, z'
loop_
 _atom_site_type_symbol
 _atom_site_label
 _atom_site_symmetry_multiplicity
 _atom_site_fract_x
 _atom_site_fract_y
 _atom_site_fract_z
 _atom_site_occupancy
  Tm  Tm0  1  0.188669  0.422660  0.233991  1
  Tm  Tm1  1  0.811331  0.577340  0.766009  1
  Tm  Tm2  1  0.188669  0.954678  0.766009  1
  Tm  Tm3  1  0.948697  0.189854  0.758842  1
  Tm  Tm4  1  0.811331  0.045322  0.233991  1
  Tm  Tm5  1  0.051303  0.810146  0.241158  1
  Tm  Tm6  1  0.431012  0.189854  0.241158  1
  Tm  Tm7  1  0.568988  0.810146  0.758842  1
  Tm  Tm8  1  0.308950  0.308117  0.617067  1
  Tm  Tm9  1  0.691050  0.691883  0.382933  1
  Tm  Tm10  1  0.691050  0.308117  0.999168  1
  Tm  Tm11  1  0.308950  0.691883  0.000832  1
  Cd  Cd12  1  0.000000  0.500000  0.500000  1
  Fe  Fe13  1  0.383271  0.383271  0.000000  1
  Fe  Fe14  1  0.616729  0.616729  0.000000  1
  Fe  Fe15  1  0.000000  0.000000  0.000000  1
  Hg  Hg16  1  0.500000  0.000000  0.500000  1
