# generated using pymatgen
data_Sr2La(HgPd)3
_symmetry_space_group_name_H-M   'P 1'
_cell_length_a   7.90050940
_cell_length_b   7.92837684
_cell_length_c   4.16686400
_cell_angle_alpha   90.00000000
_cell_angle_beta   90.00000000
_cell_angle_gamma   120.11674188
_symmetry_Int_Tables_number   1
_chemical_formula_structural   Sr2La(HgPd)3
_chemical_formula_sum   'Sr2 La1 Hg3 Pd3'
_cell_volume   225.77052501
_cell_formula_units_Z   1
loop_
 _symmetry_equiv_pos_site_id
 _symmetry_equiv_pos_as_xyz
  1  'x, y, z'
loop_
 _atom_site_type_symbol
 _atom_site_label
 _atom_site_symmetry_multiplicity
 _atom_site_fract_x
 _atom_site_fract_y
 _atom_site_fract_z
 _atom_site_occupancy
  Sr  Sr0  1  0.399006  0.398230  0.500000  1
  Sr  Sr1  1  0.600994  0.999224  0.500000  1
  La  La2  1  0.000000  0.602232  0.500000  1
  Hg  Hg3  1  0.734003  0.740670  0.000000  1
  Hg  Hg4  1  0.265997  0.006667  0.000000  1
  Hg  Hg5  1  0.000000  0.249757  0.000000  1
  Pd  Pd6  1  0.693188  0.355070  0.000000  1
  Pd  Pd7  1  0.306812  0.661883  0.000000  1
  Pd  Pd8  1  0.000000  0.986267  0.500000  1
