# generated using pymatgen
data_Dy3Er11Tm2(CdNi)4
_symmetry_space_group_name_H-M   'P 1'
_cell_length_a   9.44379978
_cell_length_b   9.44100167
_cell_length_c   9.44388600
_cell_angle_alpha   59.98989327
_cell_angle_beta   59.99969800
_cell_angle_gamma   60.03958418
_symmetry_Int_Tables_number   1
_chemical_formula_structural   Dy3Er11Tm2(CdNi)4
_chemical_formula_sum   'Dy3 Er11 Tm2 Cd4 Ni4'
_cell_volume   595.51971438
_cell_formula_units_Z   1
loop_
 _symmetry_equiv_pos_site_id
 _symmetry_equiv_pos_as_xyz
  1  'x, y, z'
loop_
 _atom_site_type_symbol
 _atom_site_label
 _atom_site_symmetry_multiplicity
 _atom_site_fract_x
 _atom_site_fract_y
 _atom_site_fract_z
 _atom_site_occupancy
  Dy  Dy0  1  0.349042  0.349433  0.347601  1
  Dy  Dy1  1  0.349042  0.349433  0.953924  1
  Dy  Dy2  1  0.351028  0.948946  0.350013  1
  Er  Er3  1  0.949101  0.351280  0.349810  1
  Er  Er4  1  0.812213  0.188214  0.188780  1
  Er  Er5  1  0.188108  0.812622  0.810949  1
  Er  Er6  1  0.188108  0.812622  0.188319  1
  Er  Er7  1  0.812213  0.188214  0.810792  1
  Er  Er8  1  0.189451  0.189101  0.810724  1
  Er  Er9  1  0.812353  0.812331  0.187658  1
  Er  Er10  1  0.936363  0.563751  0.564341  1
  Er  Er11  1  0.564149  0.935792  0.935608  1
  Er  Er12  1  0.564149  0.935792  0.564451  1
  Er  Er13  1  0.936363  0.563751  0.935546  1
  Tm  Tm14  1  0.565040  0.564662  0.935149  1
  Tm  Tm15  1  0.937311  0.937286  0.562702  1
  Cd  Cd16  1  0.581555  0.580455  0.582407  1
  Cd  Cd17  1  0.581555  0.580455  0.255584  1
  Cd  Cd18  1  0.581536  0.254949  0.581757  1
  Cd  Cd19  1  0.255218  0.580725  0.582030  1
  Ni  Ni20  1  0.141138  0.142866  0.144796  1
  Ni  Ni21  1  0.141138  0.142866  0.571201  1
  Ni  Ni22  1  0.140200  0.573221  0.143290  1
  Ni  Ni23  1  0.573627  0.141234  0.142570  1
