# generated using pymatgen
data_NaPr4Nd2CoBr12
_symmetry_space_group_name_H-M   'P 1'
_cell_length_a   9.68075494
_cell_length_b   9.50984594
_cell_length_c   9.50926656
_cell_angle_alpha   106.78306498
_cell_angle_beta   107.10289019
_cell_angle_gamma   107.26936463
_symmetry_Int_Tables_number   1
_chemical_formula_structural   NaPr4Nd2CoBr12
_chemical_formula_sum   'Na1 Pr4 Nd2 Co1 Br12'
_cell_volume   728.03780931
_cell_formula_units_Z   1
loop_
 _symmetry_equiv_pos_site_id
 _symmetry_equiv_pos_as_xyz
  1  'x, y, z'
loop_
 _atom_site_type_symbol
 _atom_site_label
 _atom_site_symmetry_multiplicity
 _atom_site_fract_x
 _atom_site_fract_y
 _atom_site_fract_z
 _atom_site_occupancy
  Na  Na0  1  0.500248  0.499889  0.499480  1
  Pr  Pr1  1  0.027290  0.107560  0.309882  1
  Pr  Pr2  1  0.972639  0.893867  0.690654  1
  Pr  Pr3  1  0.674247  0.970118  0.884903  1
  Pr  Pr4  1  0.893105  0.689702  0.971709  1
  Nd  Nd5  1  0.107438  0.308713  0.028668  1
  Nd  Nd6  1  0.323238  0.029132  0.114660  1
  Co  Co7  1  0.000054  0.000191  0.000422  1
  Br  Br8  1  0.217966  0.683209  0.072345  1
  Br  Br9  1  0.448120  0.368103  0.151095  1
  Br  Br10  1  0.683723  0.071948  0.219246  1
  Br  Br11  1  0.926220  0.780151  0.317413  1
  Br  Br12  1  0.157101  0.454363  0.370449  1
  Br  Br13  1  0.368608  0.155025  0.452490  1
  Br  Br14  1  0.631222  0.844341  0.545262  1
  Br  Br15  1  0.843217  0.546235  0.626919  1
  Br  Br16  1  0.075374  0.222554  0.685894  1
  Br  Br17  1  0.314635  0.928487  0.783104  1
  Br  Br18  1  0.549331  0.628274  0.846799  1
  Br  Br19  1  0.786226  0.318141  0.928608  1
