# generated using pymatgen
data_Th3InSn2Ir2Rh
_symmetry_space_group_name_H-M   'P 1'
_cell_length_a   7.60464800
_cell_length_b   7.60464904
_cell_length_c   4.11981300
_cell_angle_alpha   90.00000000
_cell_angle_beta   90.00000000
_cell_angle_gamma   120.03051794
_symmetry_Int_Tables_number   1
_chemical_formula_structural   Th3InSn2Ir2Rh
_chemical_formula_sum   'Th3 In1 Sn2 Ir2 Rh1'
_cell_volume   206.26844362
_cell_formula_units_Z   1
loop_
 _symmetry_equiv_pos_site_id
 _symmetry_equiv_pos_as_xyz
  1  'x, y, z'
loop_
 _atom_site_type_symbol
 _atom_site_label
 _atom_site_symmetry_multiplicity
 _atom_site_fract_x
 _atom_site_fract_y
 _atom_site_fract_z
 _atom_site_occupancy
  Th  Th0  1  0.414922  0.414922  0.500000  1
  Th  Th1  1  0.584518  0.997762  0.500000  1
  Th  Th2  1  0.997762  0.584518  0.500000  1
  In  In3  1  0.751843  0.751843  0.000000  1
  Sn  Sn4  1  0.247175  0.997806  0.000000  1
  Sn  Sn5  1  0.997806  0.247175  0.000000  1
  Ir  Ir6  1  0.666339  0.331230  0.000000  1
  Ir  Ir7  1  0.331230  0.666339  0.000000  1
  Rh  Rh8  1  0.008406  0.008406  0.500000  1
