# generated using pymatgen
data_Y4BBr5
_symmetry_space_group_name_H-M   'P 1'
_cell_length_a   9.20510916
_cell_length_b   9.20510876
_cell_length_c   8.19556326
_cell_angle_alpha   102.92425960
_cell_angle_beta   102.92425826
_cell_angle_gamma   24.79331645
_symmetry_Int_Tables_number   1
_chemical_formula_structural   Y4BBr5
_chemical_formula_sum   'Y4 B1 Br5'
_cell_volume   283.47338510
_cell_formula_units_Z   1
loop_
 _symmetry_equiv_pos_site_id
 _symmetry_equiv_pos_as_xyz
  1  'x, y, z'
loop_
 _atom_site_type_symbol
 _atom_site_label
 _atom_site_symmetry_multiplicity
 _atom_site_fract_x
 _atom_site_fract_y
 _atom_site_fract_z
 _atom_site_occupancy
  Y  Y0  1  0.642000  0.642000  0.077138  1
  Y  Y1  1  0.999547  0.999547  0.205932  1
  Y  Y2  1  0.000453  0.000453  0.794068  1
  Y  Y3  1  0.358000  0.358000  0.922863  1
  B  B4  1  0.500000  0.500000  0.000000  1
  Br  Br5  1  0.828352  0.828352  0.164009  1
  Br  Br6  1  0.165572  0.165572  0.340234  1
  Br  Br7  1  0.500000  0.500000  0.500000  1
  Br  Br8  1  0.834427  0.834427  0.659765  1
  Br  Br9  1  0.171648  0.171648  0.835990  1
