# generated using pymatgen
data_PrGaPdO5
_symmetry_space_group_name_H-M   'P 1'
_cell_length_a   6.00297000
_cell_length_b   7.61095800
_cell_length_c   8.86099300
_cell_angle_alpha   90.00000000
_cell_angle_beta   90.00000000
_cell_angle_gamma   90.00000000
_symmetry_Int_Tables_number   1
_chemical_formula_structural   PrGaPdO5
_chemical_formula_sum   'Pr4 Ga4 Pd4 O20'
_cell_volume   404.84417209
_cell_formula_units_Z   4
loop_
 _symmetry_equiv_pos_site_id
 _symmetry_equiv_pos_as_xyz
  1  'x, y, z'
loop_
 _atom_site_type_symbol
 _atom_site_label
 _atom_site_symmetry_multiplicity
 _atom_site_fract_x
 _atom_site_fract_y
 _atom_site_fract_z
 _atom_site_occupancy
  Pr  Pr0  1  0.500000  0.365733  0.330761  1
  Pr  Pr1  1  0.500000  0.634267  0.669239  1
  Pr  Pr2  1  0.500000  0.134267  0.830761  1
  Pr  Pr3  1  0.500000  0.865733  0.169239  1
  Ga  Ga4  1  0.000000  0.103212  0.143439  1
  Ga  Ga5  1  0.000000  0.896788  0.856561  1
  Ga  Ga6  1  0.000000  0.396788  0.643439  1
  Ga  Ga7  1  0.000000  0.603212  0.356561  1
  Pd  Pd8  1  0.246989  0.000000  0.500000  1
  Pd  Pd9  1  0.753011  0.000000  0.500000  1
  Pd  Pd10  1  0.753011  0.500000  0.000000  1
  Pd  Pd11  1  0.246989  0.500000  0.000000  1
  O  O12  1  0.500000  0.335172  0.056981  1
  O  O13  1  0.500000  0.664828  0.943019  1
  O  O14  1  0.500000  0.164828  0.556981  1
  O  O15  1  0.500000  0.835172  0.443019  1
  O  O16  1  0.218882  0.000000  0.000000  1
  O  O17  1  0.781118  0.000000  0.000000  1
  O  O18  1  0.781118  0.500000  0.500000  1
  O  O19  1  0.218882  0.500000  0.500000  1
  O  O20  1  0.253472  0.101976  0.285351  1
  O  O21  1  0.746528  0.898024  0.714649  1
  O  O22  1  0.253472  0.898024  0.714649  1
  O  O23  1  0.746528  0.398024  0.785351  1
  O  O24  1  0.746528  0.101976  0.285351  1
  O  O25  1  0.253472  0.601976  0.214649  1
  O  O26  1  0.746528  0.601976  0.214649  1
  O  O27  1  0.253472  0.398024  0.785351  1
  O  O28  1  0.000000  0.342424  0.070232  1
  O  O29  1  0.000000  0.657576  0.929768  1
  O  O30  1  0.000000  0.157576  0.570232  1
  O  O31  1  0.000000  0.842424  0.429768  1
