# generated using pymatgen
data_Dy5Tm2P12Ir10Rh7
_symmetry_space_group_name_H-M   'P 1'
_cell_length_a   12.71738611
_cell_length_b   12.97828619
_cell_length_c   3.96759400
_cell_angle_alpha   90.00000000
_cell_angle_beta   90.00000000
_cell_angle_gamma   119.35237770
_symmetry_Int_Tables_number   1
_chemical_formula_structural   Dy5Tm2P12Ir10Rh7
_chemical_formula_sum   'Dy5 Tm2 P12 Ir10 Rh7'
_cell_volume   570.78214513
_cell_formula_units_Z   1
loop_
 _symmetry_equiv_pos_site_id
 _symmetry_equiv_pos_as_xyz
  1  'x, y, z'
loop_
 _atom_site_type_symbol
 _atom_site_label
 _atom_site_symmetry_multiplicity
 _atom_site_fract_x
 _atom_site_fract_y
 _atom_site_fract_z
 _atom_site_occupancy
  Dy  Dy0  1  0.329955  0.662092  0.500000  1
  Dy  Dy1  1  0.667691  0.337649  0.500000  1
  Dy  Dy2  1  0.001761  0.815958  0.000000  1
  Dy  Dy3  1  0.186180  0.184096  0.000000  1
  Dy  Dy4  1  0.809964  0.999719  0.000000  1
  Tm  Tm5  1  0.996584  0.444003  0.500000  1
  Tm  Tm6  1  0.552866  0.556606  0.500000  1
  P  P7  1  0.008247  0.656907  0.500000  1
  P  P8  1  0.351844  0.343695  0.500000  1
  P  P9  1  0.640889  0.999219  0.500000  1
  P  P10  1  0.515523  0.689855  0.000000  1
  P  P11  1  0.310986  0.826145  0.000000  1
  P  P12  1  0.167818  0.479467  0.000000  1
  P  P13  1  0.484079  0.173572  0.000000  1
  P  P14  1  0.688449  0.520820  0.000000  1
  P  P15  1  0.825440  0.309998  0.000000  1
  P  P16  1  0.999663  0.174371  0.500000  1
  P  P17  1  0.825751  0.825285  0.500000  1
  P  P18  1  0.182536  0.999407  0.500000  1
  Ir  Ir19  1  0.638514  0.132340  0.000000  1
  Ir  Ir20  1  0.996125  0.271501  0.000000  1
  Ir  Ir21  1  0.724440  0.728878  0.000000  1
  Ir  Ir22  1  0.285330  0.000118  0.000000  1
  Ir  Ir23  1  0.207290  0.826837  0.500000  1
  Ir  Ir24  1  0.179388  0.366057  0.500000  1
  Ir  Ir25  1  0.380284  0.172923  0.500000  1
  Ir  Ir26  1  0.812976  0.633447  0.500000  1
  Ir  Ir27  1  0.813435  0.189624  0.500000  1
  Ir  Ir28  1  0.004244  0.000179  0.500000  1
  Rh  Rh29  1  0.507664  0.868667  0.000000  1
  Rh  Rh30  1  0.123083  0.646135  0.000000  1
  Rh  Rh31  1  0.356296  0.495755  0.000000  1
  Rh  Rh32  1  0.477280  0.353705  0.000000  1
  Rh  Rh33  1  0.860164  0.503015  0.000000  1
  Rh  Rh34  1  0.463234  0.001853  0.500000  1
  Rh  Rh35  1  0.624024  0.810102  0.500000  1
