# generated using pymatgen
data_Tb2Tm(ThSn2)2
_symmetry_space_group_name_H-M   'P 1'
_cell_length_a   8.13066100
_cell_length_b   8.24518500
_cell_length_c   15.55833300
_cell_angle_alpha   90.00000000
_cell_angle_beta   90.00000000
_cell_angle_gamma   90.00000000
_symmetry_Int_Tables_number   1
_chemical_formula_structural   Tb2Tm(ThSn2)2
_chemical_formula_sum   'Tb8 Tm4 Th8 Sn16'
_cell_volume   1043.01203838
_cell_formula_units_Z   4
loop_
 _symmetry_equiv_pos_site_id
 _symmetry_equiv_pos_as_xyz
  1  'x, y, z'
loop_
 _atom_site_type_symbol
 _atom_site_label
 _atom_site_symmetry_multiplicity
 _atom_site_fract_x
 _atom_site_fract_y
 _atom_site_fract_z
 _atom_site_occupancy
  Tb  Tb0  1  0.360609  0.837131  0.876320  1
  Tb  Tb1  1  0.860609  0.662869  0.623680  1
  Tb  Tb2  1  0.639391  0.162869  0.376320  1
  Tb  Tb3  1  0.139391  0.337131  0.123680  1
  Tb  Tb4  1  0.639391  0.162869  0.123680  1
  Tb  Tb5  1  0.139391  0.337131  0.376320  1
  Tb  Tb6  1  0.360609  0.837131  0.623680  1
  Tb  Tb7  1  0.860609  0.662869  0.876320  1
  Tm  Tm8  1  0.190298  0.497648  0.750000  1
  Tm  Tm9  1  0.690298  0.002352  0.750000  1
  Tm  Tm10  1  0.809702  0.502352  0.250000  1
  Tm  Tm11  1  0.309702  0.997648  0.250000  1
  Th  Th12  1  0.517987  0.321497  0.903964  1
  Th  Th13  1  0.017987  0.178503  0.596036  1
  Th  Th14  1  0.482013  0.678503  0.403964  1
  Th  Th15  1  0.982013  0.821497  0.096036  1
  Th  Th16  1  0.482013  0.678503  0.096036  1
  Th  Th17  1  0.982013  0.821497  0.403964  1
  Th  Th18  1  0.517987  0.321497  0.596036  1
  Th  Th19  1  0.017987  0.178503  0.903964  1
  Sn  Sn20  1  0.298810  0.038614  0.042871  1
  Sn  Sn21  1  0.798810  0.461386  0.457129  1
  Sn  Sn22  1  0.701190  0.961386  0.542871  1
  Sn  Sn23  1  0.201190  0.538614  0.957129  1
  Sn  Sn24  1  0.701190  0.961386  0.957129  1
  Sn  Sn25  1  0.201190  0.538614  0.542871  1
  Sn  Sn26  1  0.298810  0.038614  0.457129  1
  Sn  Sn27  1  0.798810  0.461386  0.042871  1
  Sn  Sn28  1  0.555531  0.620653  0.750000  1
  Sn  Sn29  1  0.055531  0.879347  0.750000  1
  Sn  Sn30  1  0.444469  0.379347  0.250000  1
  Sn  Sn31  1  0.944469  0.120653  0.250000  1
  Sn  Sn32  1  0.324941  0.144532  0.750000  1
  Sn  Sn33  1  0.824941  0.355468  0.750000  1
  Sn  Sn34  1  0.675059  0.855468  0.250000  1
  Sn  Sn35  1  0.175059  0.644532  0.250000  1
