# generated using pymatgen
data_Ba6Lu3In(WO9)2
_symmetry_space_group_name_H-M   'P 1'
_cell_length_a   10.40111560
_cell_length_b   10.40111525
_cell_length_c   10.40111518
_cell_angle_alpha   146.44874745
_cell_angle_beta   131.86474155
_cell_angle_gamma   59.94929622
_symmetry_Int_Tables_number   1
_chemical_formula_structural   Ba6Lu3In(WO9)2
_chemical_formula_sum   'Ba6 Lu3 In1 W2 O18'
_cell_volume   458.92035485
_cell_formula_units_Z   1
loop_
 _symmetry_equiv_pos_site_id
 _symmetry_equiv_pos_as_xyz
  1  'x, y, z'
loop_
 _atom_site_type_symbol
 _atom_site_label
 _atom_site_symmetry_multiplicity
 _atom_site_fract_x
 _atom_site_fract_y
 _atom_site_fract_z
 _atom_site_occupancy
  Ba  Ba0  1  0.580067  0.839903  0.740164  1
  Ba  Ba1  1  0.268252  0.500000  0.768252  1
  Ba  Ba2  1  0.900260  0.160097  0.740164  1
  Ba  Ba3  1  0.099740  0.839903  0.259836  1
  Ba  Ba4  1  0.731748  0.500000  0.231748  1
  Ba  Ba5  1  0.419933  0.160097  0.259836  1
  Lu  Lu6  1  0.330647  0.330647  0.000000  1
  Lu  Lu7  1  0.000000  0.000000  0.000000  1
  Lu  Lu8  1  0.669353  0.669353  0.000000  1
  In  In9  1  0.500000  0.000000  0.500000  1
  W  W10  1  0.166366  0.666366  0.500000  1
  W  W11  1  0.833634  0.333634  0.500000  1
  O  O12  1  0.597973  0.330293  0.267680  1
  O  O13  1  0.246902  0.000000  0.246902  1
  O  O14  1  0.937387  0.669707  0.267680  1
  O  O15  1  0.910845  0.642855  0.732009  1
  O  O16  1  0.587914  0.340257  0.752344  1
  O  O17  1  0.242465  0.975641  0.733176  1
  O  O18  1  0.757535  0.490712  0.733176  1
  O  O19  1  0.412086  0.164430  0.752344  1
  O  O20  1  0.089155  0.821164  0.732009  1
  O  O21  1  0.062613  0.330293  0.732320  1
  O  O22  1  0.753098  0.000000  0.753098  1
  O  O23  1  0.402027  0.669707  0.732320  1
  O  O24  1  0.757535  0.024359  0.266824  1
  O  O25  1  0.412086  0.659743  0.247656  1
  O  O26  1  0.089155  0.357145  0.267991  1
  O  O27  1  0.910845  0.178836  0.267991  1
  O  O28  1  0.587914  0.835570  0.247656  1
  O  O29  1  0.242465  0.509288  0.266824  1
