# generated using pymatgen
data_Ti10Nb2CdSn9
_symmetry_space_group_name_H-M   'P 1'
_cell_length_a   9.31814330
_cell_length_b   9.36386391
_cell_length_c   5.70818111
_cell_angle_alpha   90.00000214
_cell_angle_beta   89.62472894
_cell_angle_gamma   120.16244196
_symmetry_Int_Tables_number   1
_chemical_formula_structural   Ti10Nb2CdSn9
_chemical_formula_sum   'Ti10 Nb2 Cd1 Sn9'
_cell_volume   430.61304077
_cell_formula_units_Z   1
loop_
 _symmetry_equiv_pos_site_id
 _symmetry_equiv_pos_as_xyz
  1  'x, y, z'
loop_
 _atom_site_type_symbol
 _atom_site_label
 _atom_site_symmetry_multiplicity
 _atom_site_fract_x
 _atom_site_fract_y
 _atom_site_fract_z
 _atom_site_occupancy
  Ti  Ti0  1  0.840818  0.683677  0.764006  1
  Ti  Ti1  1  0.159182  0.842859  0.235994  1
  Ti  Ti2  1  0.684627  0.842314  0.230124  1
  Ti  Ti3  1  0.315373  0.157686  0.769876  1
  Ti  Ti4  1  0.840818  0.157141  0.764006  1
  Ti  Ti5  1  0.159182  0.316323  0.235994  1
  Ti  Ti6  1  0.500000  0.000000  0.500000  1
  Ti  Ti7  1  0.000000  0.500000  0.000000  1
  Ti  Ti8  1  0.000000  0.500000  0.500000  1
  Ti  Ti9  1  0.500000  0.500000  0.500000  1
  Nb  Nb10  1  0.500000  0.500000  0.000000  1
  Nb  Nb11  1  0.500000  0.000000  0.000000  1
  Cd  Cd12  1  0.000000  0.000000  0.500000  1
  Sn  Sn13  1  0.198099  0.400584  0.740169  1
  Sn  Sn14  1  0.801901  0.202485  0.259831  1
  Sn  Sn15  1  0.399562  0.199781  0.265507  1
  Sn  Sn16  1  0.600438  0.800219  0.734493  1
  Sn  Sn17  1  0.198099  0.797515  0.740169  1
  Sn  Sn18  1  0.801901  0.599416  0.259831  1
  Sn  Sn19  1  0.667811  0.333905  0.755241  1
  Sn  Sn20  1  0.332189  0.666095  0.244759  1
  Sn  Sn21  1  0.000000  0.000000  0.000000  1
