# generated using pymatgen
data_Dy2Pa2Ge6Ir6W
_symmetry_space_group_name_H-M   'P 1'
_cell_length_a   7.30125419
_cell_length_b   7.30125434
_cell_length_c   7.33007429
_cell_angle_alpha   109.47057784
_cell_angle_beta   109.47057729
_cell_angle_gamma   109.31267314
_symmetry_Int_Tables_number   1
_chemical_formula_structural   Dy2Pa2Ge6Ir6W
_chemical_formula_sum   'Dy2 Pa2 Ge6 Ir6 W1'
_cell_volume   301.39381181
_cell_formula_units_Z   1
loop_
 _symmetry_equiv_pos_site_id
 _symmetry_equiv_pos_as_xyz
  1  'x, y, z'
loop_
 _atom_site_type_symbol
 _atom_site_label
 _atom_site_symmetry_multiplicity
 _atom_site_fract_x
 _atom_site_fract_y
 _atom_site_fract_z
 _atom_site_occupancy
  Dy  Dy0  1  0.000000  0.500000  0.000000  1
  Dy  Dy1  1  0.500000  0.000000  0.000000  1
  Pa  Pa2  1  0.000000  0.000000  0.500000  1
  Pa  Pa3  1  0.500000  0.500000  0.500000  1
  Ge  Ge4  1  0.683740  0.683740  0.000000  1
  Ge  Ge5  1  0.316377  0.994587  0.310964  1
  Ge  Ge6  1  0.994587  0.316377  0.310964  1
  Ge  Ge7  1  0.316260  0.316260  0.000000  1
  Ge  Ge8  1  0.683623  0.005413  0.689036  1
  Ge  Ge9  1  0.005413  0.683623  0.689036  1
  Ir  Ir10  1  0.750000  0.250000  0.500000  1
  Ir  Ir11  1  0.749912  0.506474  0.256386  1
  Ir  Ir12  1  0.493526  0.250088  0.743614  1
  Ir  Ir13  1  0.250088  0.493526  0.743614  1
  Ir  Ir14  1  0.250000  0.750000  0.500000  1
  Ir  Ir15  1  0.506474  0.749912  0.256386  1
  W  W16  1  0.000000  0.000000  0.000000  1
