# generated using pymatgen
data_Ca5La3(Si3Pt)4
_symmetry_space_group_name_H-M   'P 1'
_cell_length_a   8.27034900
_cell_length_b   8.27034058
_cell_length_c   8.67174400
_cell_angle_alpha   90.00000000
_cell_angle_beta   90.00000000
_cell_angle_gamma   120.06832186
_symmetry_Int_Tables_number   1
_chemical_formula_structural   Ca5La3(Si3Pt)4
_chemical_formula_sum   'Ca5 La3 Si12 Pt4'
_cell_volume   513.31612451
_cell_formula_units_Z   1
loop_
 _symmetry_equiv_pos_site_id
 _symmetry_equiv_pos_as_xyz
  1  'x, y, z'
loop_
 _atom_site_type_symbol
 _atom_site_label
 _atom_site_symmetry_multiplicity
 _atom_site_fract_x
 _atom_site_fract_y
 _atom_site_fract_z
 _atom_site_occupancy
  Ca  Ca0  1  0.500093  0.000658  0.250000  1
  Ca  Ca1  1  0.999245  0.499782  0.250000  1
  Ca  Ca2  1  0.499712  0.500186  0.750000  1
  Ca  Ca3  1  0.500692  0.999873  0.750000  1
  Ca  Ca4  1  0.000228  0.499382  0.750000  1
  La  La5  1  0.999889  0.000023  0.250000  1
  La  La6  1  0.000266  0.999899  0.750000  1
  La  La7  1  0.499858  0.500265  0.250000  1
  Si  Si8  1  0.167042  0.832949  0.500178  1
  Si  Si9  1  0.164994  0.331934  0.500640  1
  Si  Si10  1  0.668061  0.835003  0.500659  1
  Si  Si11  1  0.832951  0.167042  0.500149  1
  Si  Si12  1  0.834989  0.668032  0.500666  1
  Si  Si13  1  0.331964  0.165008  0.500648  1
  Si  Si14  1  0.832951  0.167042  0.999851  1
  Si  Si15  1  0.834989  0.668032  0.999334  1
  Si  Si16  1  0.331964  0.165008  0.999352  1
  Si  Si17  1  0.167042  0.832949  0.999822  1
  Si  Si18  1  0.164994  0.331934  0.999360  1
  Si  Si19  1  0.668061  0.835003  0.999341  1
  Pt  Pt20  1  0.333392  0.666608  0.499559  1
  Pt  Pt21  1  0.666617  0.333390  0.500175  1
  Pt  Pt22  1  0.666617  0.333390  0.999825  1
  Pt  Pt23  1  0.333392  0.666608  0.000441  1
