# generated using pymatgen
data_Li2Y3Tm2P12Ru17
_symmetry_space_group_name_H-M   'P 1'
_cell_length_a   12.71439800
_cell_length_b   12.49874519
_cell_length_c   3.95697200
_cell_angle_alpha   90.00000000
_cell_angle_beta   90.00000000
_cell_angle_gamma   120.57241667
_symmetry_Int_Tables_number   1
_chemical_formula_structural   Li2Y3Tm2P12Ru17
_chemical_formula_sum   'Li2 Y3 Tm2 P12 Ru17'
_cell_volume   541.40440198
_cell_formula_units_Z   1
loop_
 _symmetry_equiv_pos_site_id
 _symmetry_equiv_pos_as_xyz
  1  'x, y, z'
loop_
 _atom_site_type_symbol
 _atom_site_label
 _atom_site_symmetry_multiplicity
 _atom_site_fract_x
 _atom_site_fract_y
 _atom_site_fract_z
 _atom_site_occupancy
  Li  Li0  1  0.000553  0.562244  0.000000  1
  Li  Li1  1  0.438309  0.437756  0.000000  1
  Y  Y2  1  0.001448  0.182618  0.500000  1
  Y  Y3  1  0.818830  0.817382  0.500000  1
  Y  Y4  1  0.182966  0.000000  0.500000  1
  Tm  Tm5  1  0.662779  0.324209  0.000000  1
  Tm  Tm6  1  0.338569  0.675791  0.000000  1
  P  P7  1  0.997909  0.807929  0.000000  1
  P  P8  1  0.189980  0.192071  0.000000  1
  P  P9  1  0.818641  0.000000  0.000000  1
  P  P10  1  0.691947  0.169710  0.500000  1
  P  P11  1  0.814944  0.513508  0.500000  1
  P  P12  1  0.477736  0.300900  0.500000  1
  P  P13  1  0.176836  0.699100  0.500000  1
  P  P14  1  0.522237  0.830290  0.500000  1
  P  P15  1  0.301434  0.486492  0.500000  1
  P  P16  1  0.002381  0.371464  0.000000  1
  P  P17  1  0.630917  0.628536  0.000000  1
  P  P18  1  0.376728  0.000000  0.000000  1
  Ru  Ru19  1  0.557134  0.000000  0.000000  1
  Ru  Ru20  1  0.997482  0.710363  0.500000  1
  Ru  Ru21  1  0.287117  0.289637  0.500000  1
  Ru  Ru22  1  0.718394  0.000000  0.500000  1
  Ru  Ru23  1  0.808797  0.186094  0.000000  1
  Ru  Ru24  1  0.810827  0.612691  0.000000  1
  Ru  Ru25  1  0.377998  0.192013  0.000000  1
  Ru  Ru26  1  0.185986  0.807987  0.000000  1
  Ru  Ru27  1  0.622704  0.813906  0.000000  1
  Ru  Ru28  1  0.198138  0.387309  0.000000  1
  Ru  Ru29  1  0.872655  0.366422  0.500000  1
  Ru  Ru30  1  0.628004  0.509019  0.500000  1
  Ru  Ru31  1  0.492485  0.124589  0.500000  1
  Ru  Ru32  1  0.367896  0.875411  0.500000  1
  Ru  Ru33  1  0.506233  0.633578  0.500000  1
  Ru  Ru34  1  0.118985  0.490981  0.500000  1
  Ru  Ru35  1  0.004021  0.000000  0.000000  1
