# generated using pymatgen
data_BaCaMg2Au3
_symmetry_space_group_name_H-M   'P 1'
_cell_length_a   4.56163500
_cell_length_b   8.35265300
_cell_length_c   9.38621600
_cell_angle_alpha   90.00000000
_cell_angle_beta   90.00000000
_cell_angle_gamma   90.00000000
_symmetry_Int_Tables_number   1
_chemical_formula_structural   BaCaMg2Au3
_chemical_formula_sum   'Ba2 Ca2 Mg4 Au6'
_cell_volume   357.63129554
_cell_formula_units_Z   2
loop_
 _symmetry_equiv_pos_site_id
 _symmetry_equiv_pos_as_xyz
  1  'x, y, z'
loop_
 _atom_site_type_symbol
 _atom_site_label
 _atom_site_symmetry_multiplicity
 _atom_site_fract_x
 _atom_site_fract_y
 _atom_site_fract_z
 _atom_site_occupancy
  Ba  Ba0  1  0.500000  0.000000  0.728071  1
  Ba  Ba1  1  0.000000  0.500000  0.271929  1
  Ca  Ca2  1  0.000000  0.000000  0.343802  1
  Ca  Ca3  1  0.500000  0.500000  0.656198  1
  Mg  Mg4  1  0.000000  0.313388  0.897832  1
  Mg  Mg5  1  0.500000  0.186612  0.102168  1
  Mg  Mg6  1  0.000000  0.686612  0.897832  1
  Mg  Mg7  1  0.500000  0.813388  0.102168  1
  Au  Au8  1  0.000000  0.736127  0.597636  1
  Au  Au9  1  0.500000  0.763873  0.402364  1
  Au  Au10  1  0.500000  0.500000  0.982421  1
  Au  Au11  1  0.000000  0.000000  0.017579  1
  Au  Au12  1  0.500000  0.236127  0.402364  1
  Au  Au13  1  0.000000  0.263873  0.597636  1
