# generated using pymatgen
data_LuZr7H30
_symmetry_space_group_name_H-M   'P 1'
_cell_length_a   7.05484338
_cell_length_b   7.05484301
_cell_length_c   7.05484264
_cell_angle_alpha   109.46553734
_cell_angle_beta   109.46553913
_cell_angle_gamma   109.46552716
_symmetry_Int_Tables_number   1
_chemical_formula_structural   LuZr7H30
_chemical_formula_sum   'Lu1 Zr7 H30'
_cell_volume   270.35323178
_cell_formula_units_Z   1
loop_
 _symmetry_equiv_pos_site_id
 _symmetry_equiv_pos_as_xyz
  1  'x, y, z'
loop_
 _atom_site_type_symbol
 _atom_site_label
 _atom_site_symmetry_multiplicity
 _atom_site_fract_x
 _atom_site_fract_y
 _atom_site_fract_z
 _atom_site_occupancy
  Lu  Lu0  1  0.907817  0.907817  0.907817  1
  Zr  Zr1  1  0.500745  0.001443  0.097204  1
  Zr  Zr2  1  0.001443  0.097204  0.500745  1
  Zr  Zr3  1  0.097204  0.500745  0.001443  1
  Zr  Zr4  1  0.998850  0.597114  0.498831  1
  Zr  Zr5  1  0.597114  0.498831  0.998850  1
  Zr  Zr6  1  0.498831  0.998850  0.597114  1
  Zr  Zr7  1  0.407681  0.407681  0.407681  1
  H  H8  1  0.655168  0.971820  0.384646  1
  H  H9  1  0.226456  0.312406  0.845244  1
  H  H10  1  0.186996  0.418273  0.531008  1
  H  H11  1  0.095345  0.282089  0.121701  1
  H  H12  1  0.282089  0.121701  0.095345  1
  H  H13  1  0.121701  0.095345  0.282089  1
  H  H14  1  0.465605  0.154139  0.884206  1
  H  H15  1  0.727582  0.343851  0.814267  1
  H  H16  1  0.627834  0.371938  0.249580  1
  H  H17  1  0.249580  0.627834  0.371938  1
  H  H18  1  0.746670  0.870733  0.128848  1
  H  H19  1  0.128848  0.746670  0.870733  1
  H  H20  1  0.371938  0.249580  0.627834  1
  H  H21  1  0.870733  0.128848  0.746670  1
  H  H22  1  0.767904  0.579181  0.605969  1
  H  H23  1  0.312406  0.845244  0.226456  1
  H  H24  1  0.384646  0.655168  0.971820  1
  H  H25  1  0.971820  0.384646  0.655168  1
  H  H26  1  0.531008  0.186996  0.418273  1
  H  H27  1  0.418273  0.531008  0.186996  1
  H  H28  1  0.845244  0.226456  0.312406  1
  H  H29  1  0.912122  0.677786  0.030949  1
  H  H30  1  0.814267  0.727582  0.343851  1
  H  H31  1  0.154139  0.884206  0.465605  1
  H  H32  1  0.677786  0.030949  0.912122  1
  H  H33  1  0.343851  0.814267  0.727582  1
  H  H34  1  0.884206  0.465605  0.154139  1
  H  H35  1  0.605969  0.767904  0.579181  1
  H  H36  1  0.579181  0.605969  0.767904  1
  H  H37  1  0.030949  0.912122  0.677786  1
