# generated using pymatgen
data_Ca12Ga12Ir5Ru3
_symmetry_space_group_name_H-M   'P 1'
_cell_length_a   5.83166207
_cell_length_b   8.25810812
_cell_length_c   14.78525558
_cell_angle_alpha   90.21013880
_cell_angle_beta   89.65861964
_cell_angle_gamma   90.04294643
_symmetry_Int_Tables_number   1
_chemical_formula_structural   Ca12Ga12Ir5Ru3
_chemical_formula_sum   'Ca12 Ga12 Ir5 Ru3'
_cell_volume   712.01805337
_cell_formula_units_Z   1
loop_
 _symmetry_equiv_pos_site_id
 _symmetry_equiv_pos_as_xyz
  1  'x, y, z'
loop_
 _atom_site_type_symbol
 _atom_site_label
 _atom_site_symmetry_multiplicity
 _atom_site_fract_x
 _atom_site_fract_y
 _atom_site_fract_z
 _atom_site_occupancy
  Ca  Ca0  1  0.888271  0.451966  0.108268  1
  Ca  Ca1  1  0.389500  0.048541  0.891655  1
  Ca  Ca2  1  0.613204  0.951273  0.391486  1
  Ca  Ca3  1  0.113992  0.548316  0.608101  1
  Ca  Ca4  1  0.111962  0.548319  0.892376  1
  Ca  Ca5  1  0.611754  0.950772  0.106446  1
  Ca  Ca6  1  0.387661  0.047791  0.608118  1
  Ca  Ca7  1  0.886710  0.450633  0.392539  1
  Ca  Ca8  1  0.383566  0.302356  0.249509  1
  Ca  Ca9  1  0.882387  0.195923  0.750086  1
  Ca  Ca10  1  0.115742  0.804047  0.250313  1
  Ca  Ca11  1  0.620226  0.697201  0.749036  1
  Ga  Ga12  1  0.928122  0.143894  0.249669  1
  Ga  Ga13  1  0.428851  0.357296  0.749883  1
  Ga  Ga14  1  0.567432  0.642922  0.249691  1
  Ga  Ga15  1  0.075882  0.856769  0.751999  1
  Ga  Ga16  1  0.364755  0.312097  0.039253  1
  Ga  Ga17  1  0.865900  0.189530  0.960121  1
  Ga  Ga18  1  0.134020  0.815554  0.460290  1
  Ga  Ga19  1  0.633210  0.685528  0.539349  1
  Ga  Ga20  1  0.632898  0.681103  0.958171  1
  Ga  Ga21  1  0.133829  0.817663  0.041241  1
  Ga  Ga22  1  0.869437  0.181879  0.540346  1
  Ga  Ga23  1  0.367380  0.317860  0.459256  1
  Ir  Ir24  1  0.901069  0.896856  0.599575  1
  Ir  Ir25  1  0.900938  0.899034  0.905481  1
  Ir  Ir26  1  0.399342  0.601805  0.095805  1
  Ir  Ir27  1  0.600743  0.397232  0.595374  1
  Ir  Ir28  1  0.101475  0.102460  0.402918  1
  Ru  Ru29  1  0.090953  0.102544  0.095376  1
  Ru  Ru30  1  0.593038  0.396847  0.903666  1
  Ru  Ru31  1  0.405747  0.603989  0.404604  1
