# generated using pymatgen
data_LaTm(Si2Rh3)2
_symmetry_space_group_name_H-M   'P 1'
_cell_length_a   5.59797987
_cell_length_b   6.66792181
_cell_length_c   6.66792092
_cell_angle_alpha   65.45252091
_cell_angle_beta   65.17996506
_cell_angle_gamma   65.17996944
_symmetry_Int_Tables_number   1
_chemical_formula_structural   LaTm(Si2Rh3)2
_chemical_formula_sum   'La1 Tm1 Si4 Rh6'
_cell_volume   196.19946309
_cell_formula_units_Z   1
loop_
 _symmetry_equiv_pos_site_id
 _symmetry_equiv_pos_as_xyz
  1  'x, y, z'
loop_
 _atom_site_type_symbol
 _atom_site_label
 _atom_site_symmetry_multiplicity
 _atom_site_fract_x
 _atom_site_fract_y
 _atom_site_fract_z
 _atom_site_occupancy
  La  La0  1  0.462772  0.250000  0.250000  1
  Tm  Tm1  1  0.557906  0.750000  0.750000  1
  Si  Si2  1  0.225670  0.579973  0.579973  1
  Si  Si3  1  0.772873  0.422584  0.422584  1
  Si  Si4  1  0.118040  0.077416  0.077416  1
  Si  Si5  1  0.885617  0.920027  0.920027  1
  Rh  Rh6  1  0.498196  0.208892  0.780965  1
  Rh  Rh7  1  0.988053  0.719035  0.291108  1
  Rh  Rh8  1  0.498196  0.780965  0.208892  1
  Rh  Rh9  1  0.988053  0.291108  0.719035  1
  Rh  Rh10  1  0.002312  0.503517  0.996483  1
  Rh  Rh11  1  0.002312  0.996483  0.503517  1
