# generated using pymatgen
data_Pa6Ga2Fe
_symmetry_space_group_name_H-M   'P 1'
_cell_length_a   8.08288100
_cell_length_b   8.08288014
_cell_length_c   3.44207400
_cell_angle_alpha   90.00000000
_cell_angle_beta   90.00000000
_cell_angle_gamma   120.00000761
_symmetry_Int_Tables_number   1
_chemical_formula_structural   Pa6Ga2Fe
_chemical_formula_sum   'Pa6 Ga2 Fe1'
_cell_volume   194.75253749
_cell_formula_units_Z   1
loop_
 _symmetry_equiv_pos_site_id
 _symmetry_equiv_pos_as_xyz
  1  'x, y, z'
loop_
 _atom_site_type_symbol
 _atom_site_label
 _atom_site_symmetry_multiplicity
 _atom_site_fract_x
 _atom_site_fract_y
 _atom_site_fract_z
 _atom_site_occupancy
  Pa  Pa0  1  0.253687  0.000000  0.500000  1
  Pa  Pa1  1  0.000000  0.253687  0.500000  1
  Pa  Pa2  1  0.746313  0.746313  0.500000  1
  Pa  Pa3  1  0.590154  0.000000  0.000000  1
  Pa  Pa4  1  0.000000  0.590154  0.000000  1
  Pa  Pa5  1  0.409846  0.409846  0.000000  1
  Ga  Ga6  1  0.333333  0.666667  0.500000  1
  Ga  Ga7  1  0.666667  0.333333  0.500000  1
  Fe  Fe8  1  0.000000  0.000000  0.000000  1
