# generated using pymatgen
data_LaPrBiO2
_symmetry_space_group_name_H-M   'P 1'
_cell_length_a   7.66943707
_cell_length_b   7.66943712
_cell_length_c   7.66943703
_cell_angle_alpha   149.19759303
_cell_angle_beta   149.19759851
_cell_angle_gamma   44.12053779
_symmetry_Int_Tables_number   1
_chemical_formula_structural   LaPrBiO2
_chemical_formula_sum   'La1 Pr1 Bi1 O2'
_cell_volume   117.95334067
_cell_formula_units_Z   1
loop_
 _symmetry_equiv_pos_site_id
 _symmetry_equiv_pos_as_xyz
  1  'x, y, z'
loop_
 _atom_site_type_symbol
 _atom_site_label
 _atom_site_symmetry_multiplicity
 _atom_site_fract_x
 _atom_site_fract_y
 _atom_site_fract_z
 _atom_site_occupancy
  La  La0  1  0.334242  0.334242  0.000000  1
  Pr  Pr1  1  0.664834  0.664834  0.000000  1
  Bi  Bi2  1  0.001279  0.001279  0.000000  1
  O  O3  1  0.249823  0.749823  0.500000  1
  O  O4  1  0.749823  0.249823  0.500000  1
