# generated using pymatgen
data_Li8Tc(TeBr8)3
_symmetry_space_group_name_H-M   'P 1'
_cell_length_a   6.78719100
_cell_length_b   6.78718917
_cell_length_c   28.02988200
_cell_angle_alpha   90.00000000
_cell_angle_beta   90.00000000
_cell_angle_gamma   120.00000405
_symmetry_Int_Tables_number   1
_chemical_formula_structural   Li8Tc(TeBr8)3
_chemical_formula_sum   'Li8 Tc1 Te3 Br24'
_cell_volume   1118.23197939
_cell_formula_units_Z   1
loop_
 _symmetry_equiv_pos_site_id
 _symmetry_equiv_pos_as_xyz
  1  'x, y, z'
loop_
 _atom_site_type_symbol
 _atom_site_label
 _atom_site_symmetry_multiplicity
 _atom_site_fract_x
 _atom_site_fract_y
 _atom_site_fract_z
 _atom_site_occupancy
  Li  Li0  1  0.000000  0.000000  0.249999  1
  Li  Li1  1  0.000000  0.000000  0.750001  1
  Li  Li2  1  0.333333  0.666667  0.999993  1
  Li  Li3  1  0.333333  0.666667  0.500008  1
  Li  Li4  1  0.333333  0.666667  0.249989  1
  Li  Li5  1  0.666667  0.333333  0.750011  1
  Li  Li6  1  0.666667  0.333333  0.000007  1
  Li  Li7  1  0.666667  0.333333  0.499992  1
  Tc  Tc8  1  0.000000  0.000000  0.500000  1
  Te  Te9  1  0.000000  0.000000  0.000000  1
  Te  Te10  1  0.333333  0.666667  0.749977  1
  Te  Te11  1  0.666667  0.333333  0.250023  1
  Br  Br12  1  0.336581  0.002918  0.306057  1
  Br  Br13  1  0.333624  0.997141  0.806002  1
  Br  Br14  1  0.000785  0.330761  0.055962  1
  Br  Br15  1  0.999233  0.306868  0.552139  1
  Br  Br16  1  0.997082  0.333663  0.306057  1
  Br  Br17  1  0.002859  0.336482  0.806002  1
  Br  Br18  1  0.336482  0.333624  0.193998  1
  Br  Br19  1  0.333663  0.336581  0.693943  1
  Br  Br20  1  0.306868  0.307635  0.447861  1
  Br  Br21  1  0.330761  0.329977  0.944038  1
  Br  Br22  1  0.692365  0.999233  0.447861  1
  Br  Br23  1  0.329977  0.999215  0.055962  1
  Br  Br24  1  0.307635  0.000767  0.552139  1
  Br  Br25  1  0.669239  0.670023  0.055962  1
  Br  Br26  1  0.693132  0.692365  0.552139  1
  Br  Br27  1  0.666337  0.663419  0.306057  1
  Br  Br28  1  0.663518  0.666376  0.806002  1
  Br  Br29  1  0.997141  0.663518  0.193998  1
  Br  Br30  1  0.002918  0.666337  0.693943  1
  Br  Br31  1  0.000767  0.693132  0.447861  1
  Br  Br32  1  0.999215  0.669239  0.944038  1
  Br  Br33  1  0.670023  0.000785  0.944038  1
  Br  Br34  1  0.666376  0.002859  0.193998  1
  Br  Br35  1  0.663419  0.997082  0.693943  1
