# generated using pymatgen
data_K2ClOF5
_symmetry_space_group_name_H-M   'P 1'
_cell_length_a   6.38257878
_cell_length_b   6.38257861
_cell_length_c   8.02958504
_cell_angle_alpha   85.11402581
_cell_angle_beta   85.11402018
_cell_angle_gamma   82.04177641
_symmetry_Int_Tables_number   1
_chemical_formula_structural   K2ClOF5
_chemical_formula_sum   'K4 Cl2 O2 F10'
_cell_volume   321.88253819
_cell_formula_units_Z   2
loop_
 _symmetry_equiv_pos_site_id
 _symmetry_equiv_pos_as_xyz
  1  'x, y, z'
loop_
 _atom_site_type_symbol
 _atom_site_label
 _atom_site_symmetry_multiplicity
 _atom_site_fract_x
 _atom_site_fract_y
 _atom_site_fract_z
 _atom_site_occupancy
  K  K0  1  0.320860  0.318142  0.026851  1
  K  K1  1  0.681858  0.679140  0.473149  1
  K  K2  1  0.679140  0.681858  0.973149  1
  K  K3  1  0.318142  0.320860  0.526851  1
  Cl  Cl4  1  0.826621  0.173379  0.250000  1
  Cl  Cl5  1  0.173379  0.826621  0.750000  1
  O  O6  1  0.996708  0.003292  0.250000  1
  O  O7  1  0.003292  0.996708  0.750000  1
  F  F8  1  0.877538  0.273001  0.024885  1
  F  F9  1  0.726999  0.122462  0.475115  1
  F  F10  1  0.122462  0.726999  0.975115  1
  F  F11  1  0.273001  0.877538  0.524885  1
  F  F12  1  0.988509  0.383601  0.312223  1
  F  F13  1  0.616399  0.011491  0.187777  1
  F  F14  1  0.011491  0.616399  0.687777  1
  F  F15  1  0.383601  0.988509  0.812223  1
  F  F16  1  0.533232  0.466768  0.250000  1
  F  F17  1  0.466768  0.533232  0.750000  1
