# generated using pymatgen
data_Y10Cd5In3Pd4
_symmetry_space_group_name_H-M   'P 1'
_cell_length_a   3.64957300
_cell_length_b   8.07402606
_cell_length_c   18.44721916
_cell_angle_alpha   90.10036598
_cell_angle_beta   90.00000000
_cell_angle_gamma   90.00000000
_symmetry_Int_Tables_number   1
_chemical_formula_structural   Y10Cd5In3Pd4
_chemical_formula_sum   'Y10 Cd5 In3 Pd4'
_cell_volume   543.57871527
_cell_formula_units_Z   1
loop_
 _symmetry_equiv_pos_site_id
 _symmetry_equiv_pos_as_xyz
  1  'x, y, z'
loop_
 _atom_site_type_symbol
 _atom_site_label
 _atom_site_symmetry_multiplicity
 _atom_site_fract_x
 _atom_site_fract_y
 _atom_site_fract_z
 _atom_site_occupancy
  Y  Y0  1  0.500000  0.243199  0.781993  1
  Y  Y1  1  0.500000  0.756950  0.218276  1
  Y  Y2  1  0.500000  0.259537  0.282341  1
  Y  Y3  1  0.500000  0.742841  0.717853  1
  Y  Y4  1  0.500000  0.113665  0.583416  1
  Y  Y5  1  0.500000  0.884237  0.416494  1
  Y  Y6  1  0.500000  0.385874  0.083897  1
  Y  Y7  1  0.500000  0.613964  0.916668  1
  Y  Y8  1  0.500000  0.000478  0.999561  1
  Y  Y9  1  0.500000  0.499829  0.500456  1
  Cd  Cd10  1  0.000000  0.574572  0.351317  1
  Cd  Cd11  1  0.000000  0.211560  0.431787  1
  Cd  Cd12  1  0.000000  0.788436  0.568059  1
  Cd  Cd13  1  0.000000  0.289092  0.931774  1
  Cd  Cd14  1  0.000000  0.711318  0.068058  1
  In  In15  1  0.000000  0.074550  0.148707  1
  In  In16  1  0.000000  0.925082  0.851120  1
  In  In17  1  0.000000  0.424370  0.648522  1
  Pd  Pd18  1  0.000000  0.027167  0.696781  1
  Pd  Pd19  1  0.000000  0.973299  0.303307  1
  Pd  Pd20  1  0.000000  0.472757  0.196416  1
  Pd  Pd21  1  0.000000  0.527223  0.803197  1
