# generated using pymatgen
data_Y7LuSi16MoW11
_symmetry_space_group_name_H-M   'P 1'
_cell_length_a   6.76660133
_cell_length_b   6.94267710
_cell_length_c   12.90492000
_cell_angle_alpha   89.96700145
_cell_angle_beta   89.99728787
_cell_angle_gamma   89.92218574
_symmetry_Int_Tables_number   1
_chemical_formula_structural   Y7LuSi16MoW11
_chemical_formula_sum   'Y7 Lu1 Si16 Mo1 W11'
_cell_volume   606.25090506
_cell_formula_units_Z   1
loop_
 _symmetry_equiv_pos_site_id
 _symmetry_equiv_pos_as_xyz
  1  'x, y, z'
loop_
 _atom_site_type_symbol
 _atom_site_label
 _atom_site_symmetry_multiplicity
 _atom_site_fract_x
 _atom_site_fract_y
 _atom_site_fract_z
 _atom_site_occupancy
  Y  Y0  1  0.496748  0.332592  0.093513  1
  Y  Y1  1  0.997243  0.166882  0.406453  1
  Y  Y2  1  0.503071  0.666991  0.593708  1
  Y  Y3  1  0.002877  0.833018  0.906864  1
  Y  Y4  1  0.502681  0.667419  0.906723  1
  Y  Y5  1  0.003071  0.832869  0.593870  1
  Y  Y6  1  0.496596  0.332667  0.405892  1
  Lu  Lu7  1  0.996042  0.167313  0.094099  1
  Si  Si8  1  0.660447  0.042181  0.547014  1
  Si  Si9  1  0.160178  0.457181  0.953574  1
  Si  Si10  1  0.337347  0.959514  0.047278  1
  Si  Si11  1  0.840027  0.542397  0.452441  1
  Si  Si12  1  0.339798  0.957841  0.452696  1
  Si  Si13  1  0.840778  0.540365  0.047717  1
  Si  Si14  1  0.660938  0.042212  0.953554  1
  Si  Si15  1  0.160381  0.458189  0.547110  1
  Si  Si16  1  0.535529  0.368883  0.750336  1
  Si  Si17  1  0.035078  0.130623  0.750077  1
  Si  Si18  1  0.465470  0.631657  0.249615  1
  Si  Si19  1  0.964928  0.869230  0.249268  1
  Si  Si20  1  0.802308  0.631450  0.750453  1
  Si  Si21  1  0.302076  0.868054  0.750178  1
  Si  Si22  1  0.196200  0.368075  0.248973  1
  Si  Si23  1  0.699139  0.131590  0.249243  1
  Mo  Mo24  1  0.834259  0.499044  0.249492  1
  W  W25  1  0.831498  0.336010  0.625466  1
  W  W26  1  0.330559  0.163527  0.874939  1
  W  W27  1  0.169358  0.664691  0.125197  1
  W  W28  1  0.668871  0.836758  0.374210  1
  W  W29  1  0.169160  0.664516  0.374208  1
  W  W30  1  0.669610  0.837435  0.124862  1
  W  W31  1  0.832001  0.335145  0.875466  1
  W  W32  1  0.331197  0.163548  0.625490  1
  W  W33  1  0.664906  0.000890  0.750288  1
  W  W34  1  0.165460  0.499085  0.750305  1
  W  W35  1  0.334166  0.000156  0.249429  1
