# generated using pymatgen
data_Dy5Y6Er5(CdNi)4
_symmetry_space_group_name_H-M   'P 1'
_cell_length_a   9.54317671
_cell_length_b   9.55496357
_cell_length_c   9.55496216
_cell_angle_alpha   60.06160877
_cell_angle_beta   60.04079647
_cell_angle_gamma   60.04079804
_symmetry_Int_Tables_number   1
_chemical_formula_structural   Dy5Y6Er5(CdNi)4
_chemical_formula_sum   'Dy5 Y6 Er5 Cd4 Ni4'
_cell_volume   616.74488981
_cell_formula_units_Z   1
loop_
 _symmetry_equiv_pos_site_id
 _symmetry_equiv_pos_as_xyz
  1  'x, y, z'
loop_
 _atom_site_type_symbol
 _atom_site_label
 _atom_site_symmetry_multiplicity
 _atom_site_fract_x
 _atom_site_fract_y
 _atom_site_fract_z
 _atom_site_occupancy
  Dy  Dy0  1  0.596451  0.598427  0.598427  1
  Dy  Dy1  1  0.599241  0.601003  0.200514  1
  Dy  Dy2  1  0.599241  0.200514  0.601003  1
  Dy  Dy3  1  0.206694  0.598427  0.598427  1
  Dy  Dy4  1  0.061150  0.438850  0.438850  1
  Y  Y5  1  0.185768  0.814232  0.814232  1
  Y  Y6  1  0.811507  0.188493  0.188493  1
  Y  Y7  1  0.812321  0.187449  0.813059  1
  Y  Y8  1  0.187172  0.813059  0.187449  1
  Y  Y9  1  0.812321  0.813059  0.187449  1
  Y  Y10  1  0.187172  0.187449  0.813059  1
  Er  Er11  1  0.436087  0.063913  0.063913  1
  Er  Er12  1  0.438140  0.062426  0.437949  1
  Er  Er13  1  0.061485  0.437949  0.062426  1
  Er  Er14  1  0.438140  0.437949  0.062426  1
  Er  Er15  1  0.061485  0.062426  0.437949  1
  Cd  Cd16  1  0.832128  0.829927  0.829927  1
  Cd  Cd17  1  0.831791  0.830203  0.506215  1
  Cd  Cd18  1  0.831791  0.506215  0.830203  1
  Cd  Cd19  1  0.508015  0.829927  0.829927  1
  Ni  Ni20  1  0.395286  0.391569  0.391569  1
  Ni  Ni21  1  0.392519  0.389975  0.824988  1
  Ni  Ni22  1  0.392519  0.824988  0.389975  1
  Ni  Ni23  1  0.821577  0.391569  0.391569  1
