# generated using pymatgen
data_Y2Al2Ga7Ir2Pt
_symmetry_space_group_name_H-M   'P 1'
_cell_length_a   7.60973470
_cell_length_b   7.60968005
_cell_length_c   9.48871000
_cell_angle_alpha   90.00000000
_cell_angle_beta   90.00000000
_cell_angle_gamma   119.90909627
_symmetry_Int_Tables_number   1
_chemical_formula_structural   Y2Al2Ga7Ir2Pt
_chemical_formula_sum   'Y4 Al4 Ga14 Ir4 Pt2'
_cell_volume   476.28927975
_cell_formula_units_Z   2
loop_
 _symmetry_equiv_pos_site_id
 _symmetry_equiv_pos_as_xyz
  1  'x, y, z'
loop_
 _atom_site_type_symbol
 _atom_site_label
 _atom_site_symmetry_multiplicity
 _atom_site_fract_x
 _atom_site_fract_y
 _atom_site_fract_z
 _atom_site_occupancy
  Y  Y0  1  0.999827  0.671633  0.250000  1
  Y  Y1  1  0.000173  0.328367  0.750000  1
  Y  Y2  1  0.671631  0.999827  0.250000  1
  Y  Y3  1  0.328369  0.000173  0.750000  1
  Al  Al4  1  0.335055  0.335055  0.557514  1
  Al  Al5  1  0.664945  0.664945  0.442486  1
  Al  Al6  1  0.664945  0.664945  0.057514  1
  Al  Al7  1  0.335055  0.335055  0.942486  1
  Ga  Ga8  1  0.132864  0.132863  0.250000  1
  Ga  Ga9  1  0.867136  0.867137  0.750000  1
  Ga  Ga10  1  0.999917  0.338786  0.080583  1
  Ga  Ga11  1  0.000083  0.661214  0.919417  1
  Ga  Ga12  1  0.000083  0.661214  0.580583  1
  Ga  Ga13  1  0.338778  0.999912  0.419420  1
  Ga  Ga14  1  0.999917  0.338786  0.419417  1
  Ga  Ga15  1  0.661222  0.000088  0.580580  1
  Ga  Ga16  1  0.661222  0.000088  0.919420  1
  Ga  Ga17  1  0.338778  0.999912  0.080580  1
  Ga  Ga18  1  0.347287  0.551754  0.250000  1
  Ga  Ga19  1  0.652713  0.448246  0.750000  1
  Ga  Ga20  1  0.551750  0.347283  0.250000  1
  Ga  Ga21  1  0.448250  0.652717  0.750000  1
  Ir  Ir22  1  0.669235  0.330768  0.000000  1
  Ir  Ir23  1  0.330765  0.669232  0.000000  1
  Ir  Ir24  1  0.330765  0.669232  0.500000  1
  Ir  Ir25  1  0.669235  0.330768  0.500000  1
  Pt  Pt26  1  0.000000  0.000000  0.000000  1
  Pt  Pt27  1  0.000000  0.000000  0.500000  1
