# generated using pymatgen
data_Y13Th3Mg2(InCo2)2
_symmetry_space_group_name_H-M   'P 1'
_cell_length_a   9.63050090
_cell_length_b   9.67796482
_cell_length_c   9.71435300
_cell_angle_alpha   59.87554881
_cell_angle_beta   59.71156011
_cell_angle_gamma   59.83274191
_symmetry_Int_Tables_number   1
_chemical_formula_structural   Y13Th3Mg2(InCo2)2
_chemical_formula_sum   'Y13 Th3 Mg2 In2 Co4'
_cell_volume   637.41050993
_cell_formula_units_Z   1
loop_
 _symmetry_equiv_pos_site_id
 _symmetry_equiv_pos_as_xyz
  1  'x, y, z'
loop_
 _atom_site_type_symbol
 _atom_site_label
 _atom_site_symmetry_multiplicity
 _atom_site_fract_x
 _atom_site_fract_y
 _atom_site_fract_z
 _atom_site_occupancy
  Y  Y0  1  0.954950  0.350228  0.347411  1
  Y  Y1  1  0.811591  0.187434  0.189125  1
  Y  Y2  1  0.188009  0.811903  0.812380  1
  Y  Y3  1  0.188009  0.811903  0.187707  1
  Y  Y4  1  0.811591  0.187434  0.811850  1
  Y  Y5  1  0.187272  0.186292  0.813218  1
  Y  Y6  1  0.811091  0.810402  0.189253  1
  Y  Y7  1  0.937074  0.564153  0.564305  1
  Y  Y8  1  0.561153  0.938166  0.937583  1
  Y  Y9  1  0.561153  0.938166  0.563097  1
  Y  Y10  1  0.937074  0.564153  0.934468  1
  Y  Y11  1  0.560455  0.563187  0.938179  1
  Y  Y12  1  0.936413  0.934777  0.564405  1
  Th  Th13  1  0.340188  0.344307  0.344310  1
  Th  Th14  1  0.340188  0.344307  0.971195  1
  Th  Th15  1  0.341008  0.967969  0.345512  1
  Mg  Mg16  1  0.579163  0.264766  0.578036  1
  Mg  Mg17  1  0.263441  0.579864  0.578348  1
  In  In18  1  0.583310  0.581203  0.582409  1
  In  In19  1  0.583310  0.581203  0.253078  1
  Co  Co20  1  0.153322  0.137777  0.139951  1
  Co  Co21  1  0.153322  0.137777  0.568951  1
  Co  Co22  1  0.154244  0.567266  0.139245  1
  Co  Co23  1  0.562663  0.145365  0.145986  1
