# generated using pymatgen
data_Pr2Ga6PtAu
_symmetry_space_group_name_H-M   'P 1'
_cell_length_a   4.36572900
_cell_length_b   4.36572900
_cell_length_c   10.72678900
_cell_angle_alpha   90.00000000
_cell_angle_beta   90.00000000
_cell_angle_gamma   90.00000000
_symmetry_Int_Tables_number   1
_chemical_formula_structural   Pr2Ga6PtAu
_chemical_formula_sum   'Pr2 Ga6 Pt1 Au1'
_cell_volume   204.44819715
_cell_formula_units_Z   1
loop_
 _symmetry_equiv_pos_site_id
 _symmetry_equiv_pos_as_xyz
  1  'x, y, z'
loop_
 _atom_site_type_symbol
 _atom_site_label
 _atom_site_symmetry_multiplicity
 _atom_site_fract_x
 _atom_site_fract_y
 _atom_site_fract_z
 _atom_site_occupancy
  Pr  Pr0  1  0.000000  0.000000  0.978431  1
  Pr  Pr1  1  0.500000  0.500000  0.489627  1
  Ga  Ga2  1  0.000000  0.500000  0.251350  1
  Ga  Ga3  1  0.500000  0.000000  0.744447  1
  Ga  Ga4  1  0.500000  0.000000  0.251350  1
  Ga  Ga5  1  0.000000  0.500000  0.744447  1
  Ga  Ga6  1  0.000000  0.000000  0.399142  1
  Ga  Ga7  1  0.500000  0.500000  0.889731  1
  Pt  Pt8  1  0.000000  0.000000  0.628197  1
  Au  Au9  1  0.500000  0.500000  0.123282  1
