# generated using pymatgen
data_Tb4Lu8Co5Bi
_symmetry_space_group_name_H-M   'P 1'
_cell_length_a   8.21107833
_cell_length_b   8.21107844
_cell_length_c   8.21107823
_cell_angle_alpha   111.34143695
_cell_angle_beta   110.61244826
_cell_angle_gamma   106.50088412
_symmetry_Int_Tables_number   1
_chemical_formula_structural   Tb4Lu8Co5Bi
_chemical_formula_sum   'Tb4 Lu8 Co5 Bi1'
_cell_volume   425.29429287
_cell_formula_units_Z   1
loop_
 _symmetry_equiv_pos_site_id
 _symmetry_equiv_pos_as_xyz
  1  'x, y, z'
loop_
 _atom_site_type_symbol
 _atom_site_label
 _atom_site_symmetry_multiplicity
 _atom_site_fract_x
 _atom_site_fract_y
 _atom_site_fract_z
 _atom_site_occupancy
  Tb  Tb0  1  0.596950  0.792120  0.804831  1
  Tb  Tb1  1  0.403050  0.207880  0.195169  1
  Tb  Tb2  1  0.987290  0.792120  0.195169  1
  Tb  Tb3  1  0.012710  0.207880  0.804831  1
  Lu  Lu4  1  0.817446  0.709672  0.527118  1
  Lu  Lu5  1  0.182554  0.290328  0.472882  1
  Lu  Lu6  1  0.182554  0.709672  0.892227  1
  Lu  Lu7  1  0.817446  0.290328  0.107773  1
  Lu  Lu8  1  0.687099  0.377254  0.690155  1
  Lu  Lu9  1  0.312901  0.622746  0.309845  1
  Lu  Lu10  1  0.687099  0.996944  0.309845  1
  Lu  Lu11  1  0.312901  0.003056  0.690155  1
  Co  Co12  1  0.623830  0.000000  0.623830  1
  Co  Co13  1  0.376170  0.000000  0.376170  1
  Co  Co14  1  0.112137  0.612137  0.500000  1
  Co  Co15  1  0.887863  0.387863  0.500000  1
  Co  Co16  1  0.000000  0.000000  0.000000  1
  Bi  Bi17  1  0.500000  0.500000  0.000000  1
