# generated using pymatgen
data_Nd7Y12HoPt16
_symmetry_space_group_name_H-M   'P 1'
_cell_length_a   7.68456670
_cell_length_b   7.75695606
_cell_length_c   14.66726400
_cell_angle_alpha   90.03987165
_cell_angle_beta   90.22773527
_cell_angle_gamma   89.77602820
_symmetry_Int_Tables_number   1
_chemical_formula_structural   Nd7Y12HoPt16
_chemical_formula_sum   'Nd7 Y12 Ho1 Pt16'
_cell_volume   874.28489627
_cell_formula_units_Z   1
loop_
 _symmetry_equiv_pos_site_id
 _symmetry_equiv_pos_as_xyz
  1  'x, y, z'
loop_
 _atom_site_type_symbol
 _atom_site_label
 _atom_site_symmetry_multiplicity
 _atom_site_fract_x
 _atom_site_fract_y
 _atom_site_fract_z
 _atom_site_occupancy
  Nd  Nd0  1  0.018465  0.821073  0.903758  1
  Nd  Nd1  1  0.482603  0.320929  0.095520  1
  Nd  Nd2  1  0.981791  0.179145  0.403889  1
  Nd  Nd3  1  0.483410  0.323107  0.405836  1
  Nd  Nd4  1  0.981919  0.179427  0.096244  1
  Nd  Nd5  1  0.517019  0.679249  0.903786  1
  Nd  Nd6  1  0.018603  0.818236  0.594293  1
  Y  Y7  1  0.669992  0.166429  0.622022  1
  Y  Y8  1  0.170365  0.333349  0.877281  1
  Y  Y9  1  0.330117  0.833656  0.122536  1
  Y  Y10  1  0.828231  0.666645  0.377856  1
  Y  Y11  1  0.332966  0.831587  0.378945  1
  Y  Y12  1  0.829800  0.667909  0.122163  1
  Y  Y13  1  0.669674  0.167893  0.877507  1
  Y  Y14  1  0.170976  0.333519  0.621199  1
  Y  Y15  1  0.517821  0.680615  0.598031  1
  Y  Y16  1  0.834760  0.507236  0.748887  1
  Y  Y17  1  0.335827  0.991730  0.749387  1
  Y  Y18  1  0.164190  0.492710  0.250297  1
  Ho  Ho19  1  0.664835  0.008536  0.250395  1
  Pt  Pt20  1  0.669689  0.964105  0.455366  1
  Pt  Pt21  1  0.168079  0.535312  0.045062  1
  Pt  Pt22  1  0.331836  0.034541  0.954913  1
  Pt  Pt23  1  0.823218  0.468298  0.545091  1
  Pt  Pt24  1  0.334399  0.029168  0.547002  1
  Pt  Pt25  1  0.830994  0.465722  0.954888  1
  Pt  Pt26  1  0.669157  0.966694  0.045658  1
  Pt  Pt27  1  0.167126  0.535357  0.455685  1
  Pt  Pt28  1  0.468647  0.380964  0.748698  1
  Pt  Pt29  1  0.967314  0.119154  0.749566  1
  Pt  Pt30  1  0.532046  0.620733  0.249850  1
  Pt  Pt31  1  0.032069  0.880547  0.250718  1
  Pt  Pt32  1  0.706905  0.860769  0.748516  1
  Pt  Pt33  1  0.209572  0.637505  0.748613  1
  Pt  Pt34  1  0.295197  0.137338  0.250638  1
  Pt  Pt35  1  0.790384  0.360815  0.249900  1
