# generated using pymatgen
data_YTm3Rh4F28
_symmetry_space_group_name_H-M   'P 1'
_cell_length_a   5.49482800
_cell_length_b   8.80458667
_cell_length_c   11.84732679
_cell_angle_alpha   62.65755394
_cell_angle_beta   89.96198466
_cell_angle_gamma   89.96795071
_symmetry_Int_Tables_number   1
_chemical_formula_structural   YTm3Rh4F28
_chemical_formula_sum   'Y1 Tm3 Rh4 F28'
_cell_volume   509.13370636
_cell_formula_units_Z   1
loop_
 _symmetry_equiv_pos_site_id
 _symmetry_equiv_pos_as_xyz
  1  'x, y, z'
loop_
 _atom_site_type_symbol
 _atom_site_label
 _atom_site_symmetry_multiplicity
 _atom_site_fract_x
 _atom_site_fract_y
 _atom_site_fract_z
 _atom_site_occupancy
  Y  Y0  1  0.239053  0.815087  0.765049  1
  Tm  Tm1  1  0.260708  0.814980  0.265096  1
  Tm  Tm2  1  0.738277  0.188254  0.734441  1
  Tm  Tm3  1  0.760955  0.185177  0.235018  1
  Rh  Rh4  1  0.758442  0.725858  0.045886  1
  Rh  Rh5  1  0.241251  0.271717  0.957087  1
  Rh  Rh6  1  0.259155  0.275208  0.454952  1
  Rh  Rh7  1  0.742381  0.725973  0.542044  1
  F  F8  1  0.939589  0.705019  0.413525  1
  F  F9  1  0.059380  0.295210  0.583535  1
  F  F10  1  0.440865  0.293679  0.084739  1
  F  F11  1  0.562919  0.704501  0.917005  1
  F  F12  1  0.465351  0.729126  0.138415  1
  F  F13  1  0.534126  0.270920  0.863082  1
  F  F14  1  0.967731  0.271783  0.361287  1
  F  F15  1  0.036019  0.727114  0.634120  1
  F  F16  1  0.952955  0.746176  0.176667  1
  F  F17  1  0.044991  0.252130  0.826020  1
  F  F18  1  0.455577  0.254911  0.324406  1
  F  F19  1  0.551565  0.744776  0.674415  1
  F  F20  1  0.771101  0.479107  0.142151  1
  F  F21  1  0.226175  0.518121  0.859922  1
  F  F22  1  0.272730  0.521832  0.358630  1
  F  F23  1  0.728160  0.479123  0.639612  1
  F  F24  1  0.941290  0.277232  0.045900  1
  F  F25  1  0.058522  0.719699  0.958819  1
  F  F26  1  0.440522  0.721786  0.454583  1
  F  F27  1  0.558285  0.279451  0.544286  1
  F  F28  1  0.743600  0.972374  0.448703  1
  F  F29  1  0.257970  0.028991  0.548196  1
  F  F30  1  0.242954  0.025466  0.051216  1
  F  F31  1  0.757779  0.971601  0.950862  1
  F  F32  1  0.581601  0.971955  0.231760  1
  F  F33  1  0.416171  0.034004  0.769232  1
  F  F34  1  0.082030  0.028241  0.268513  1
  F  F35  1  0.909821  0.973421  0.730825  1
