# generated using pymatgen
data_Ta2Ti3SiRh10
_symmetry_space_group_name_H-M   'P 1'
_cell_length_a   4.07363400
_cell_length_b   5.45930810
_cell_length_c   10.62086834
_cell_angle_alpha   91.01160842
_cell_angle_beta   90.00000000
_cell_angle_gamma   90.00000000
_symmetry_Int_Tables_number   1
_chemical_formula_structural   Ta2Ti3SiRh10
_chemical_formula_sum   'Ta2 Ti3 Si1 Rh10'
_cell_volume   236.16304604
_cell_formula_units_Z   1
loop_
 _symmetry_equiv_pos_site_id
 _symmetry_equiv_pos_as_xyz
  1  'x, y, z'
loop_
 _atom_site_type_symbol
 _atom_site_label
 _atom_site_symmetry_multiplicity
 _atom_site_fract_x
 _atom_site_fract_y
 _atom_site_fract_z
 _atom_site_occupancy
  Ta  Ta0  1  0.500000  0.333662  0.147588  1
  Ta  Ta1  1  0.500000  0.666338  0.852412  1
  Ti  Ti2  1  0.000000  0.000000  0.000000  1
  Ti  Ti3  1  0.500000  0.833825  0.361100  1
  Ti  Ti4  1  0.500000  0.166175  0.638900  1
  Si  Si5  1  0.000000  0.500000  0.500000  1
  Rh  Rh6  1  0.000000  0.000000  0.500000  1
  Rh  Rh7  1  0.000000  0.500000  0.000000  1
  Rh  Rh8  1  0.000000  0.088210  0.242119  1
  Rh  Rh9  1  0.000000  0.911790  0.757881  1
  Rh  Rh10  1  0.000000  0.587540  0.266031  1
  Rh  Rh11  1  0.000000  0.412460  0.733969  1
  Rh  Rh12  1  0.500000  0.318146  0.396618  1
  Rh  Rh13  1  0.500000  0.681854  0.603382  1
  Rh  Rh14  1  0.500000  0.812864  0.106797  1
  Rh  Rh15  1  0.500000  0.187136  0.893203  1
