# generated using pymatgen
data_Y5HoTm14(Cd3Co)2
_symmetry_space_group_name_H-M   'P 1'
_cell_length_a   9.53972722
_cell_length_b   9.53972616
_cell_length_c   9.58798300
_cell_angle_alpha   90.00000000
_cell_angle_beta   90.00000000
_cell_angle_gamma   119.96955281
_symmetry_Int_Tables_number   1
_chemical_formula_structural   Y5HoTm14(Cd3Co)2
_chemical_formula_sum   'Y5 Ho1 Tm14 Cd6 Co2'
_cell_volume   755.89750890
_cell_formula_units_Z   1
loop_
 _symmetry_equiv_pos_site_id
 _symmetry_equiv_pos_as_xyz
  1  'x, y, z'
loop_
 _atom_site_type_symbol
 _atom_site_label
 _atom_site_symmetry_multiplicity
 _atom_site_fract_x
 _atom_site_fract_y
 _atom_site_fract_z
 _atom_site_occupancy
  Y  Y0  1  0.541485  0.083231  0.250000  1
  Y  Y1  1  0.916769  0.458515  0.250000  1
  Y  Y2  1  0.458567  0.541433  0.750000  1
  Y  Y3  1  0.458511  0.917356  0.750000  1
  Y  Y4  1  0.082644  0.541489  0.750000  1
  Ho  Ho5  1  0.541151  0.458849  0.250000  1
  Tm  Tm6  1  0.000110  0.999890  0.500004  1
  Tm  Tm7  1  0.000110  0.999890  0.999996  1
  Tm  Tm8  1  0.212315  0.787685  0.435964  1
  Tm  Tm9  1  0.212661  0.424393  0.435795  1
  Tm  Tm10  1  0.575607  0.787339  0.435795  1
  Tm  Tm11  1  0.787888  0.212112  0.563829  1
  Tm  Tm12  1  0.787339  0.575494  0.563454  1
  Tm  Tm13  1  0.424506  0.212661  0.563454  1
  Tm  Tm14  1  0.787888  0.212112  0.936171  1
  Tm  Tm15  1  0.787339  0.575494  0.936546  1
  Tm  Tm16  1  0.424506  0.212661  0.936546  1
  Tm  Tm17  1  0.212315  0.787685  0.064036  1
  Tm  Tm18  1  0.212661  0.424393  0.064205  1
  Tm  Tm19  1  0.575607  0.787339  0.064205  1
  Cd  Cd20  1  0.885766  0.114234  0.250000  1
  Cd  Cd21  1  0.884957  0.770978  0.250000  1
  Cd  Cd22  1  0.229022  0.115043  0.250000  1
  Cd  Cd23  1  0.114239  0.885761  0.750000  1
  Cd  Cd24  1  0.114305  0.228476  0.750000  1
  Cd  Cd25  1  0.771524  0.885695  0.750000  1
  Co  Co26  1  0.333530  0.666470  0.250000  1
  Co  Co27  1  0.666678  0.333322  0.750000  1
