# generated using pymatgen
data_Dy2Er4Al24Os5Pd2Rh
_symmetry_space_group_name_H-M   'P 1'
_cell_length_a   8.76544019
_cell_length_b   8.78564966
_cell_length_c   9.57095800
_cell_angle_alpha   89.99446975
_cell_angle_beta   89.81806777
_cell_angle_gamma   119.33557883
_symmetry_Int_Tables_number   1
_chemical_formula_structural   Dy2Er4Al24Os5Pd2Rh
_chemical_formula_sum   'Dy2 Er4 Al24 Os5 Pd2 Rh1'
_cell_volume   642.53914088
_cell_formula_units_Z   1
loop_
 _symmetry_equiv_pos_site_id
 _symmetry_equiv_pos_as_xyz
  1  'x, y, z'
loop_
 _atom_site_type_symbol
 _atom_site_label
 _atom_site_symmetry_multiplicity
 _atom_site_fract_x
 _atom_site_fract_y
 _atom_site_fract_z
 _atom_site_occupancy
  Dy  Dy0  1  0.187584  0.382449  0.251823  1
  Dy  Dy1  1  0.812416  0.617551  0.748177  1
  Er  Er2  1  0.611661  0.813474  0.251713  1
  Er  Er3  1  0.388339  0.186526  0.748287  1
  Er  Er4  1  0.198591  0.810182  0.250796  1
  Er  Er5  1  0.801409  0.189818  0.749204  1
  Al  Al6  1  0.337804  0.669211  0.027316  1
  Al  Al7  1  0.662196  0.330789  0.972684  1
  Al  Al8  1  0.669023  0.331212  0.524906  1
  Al  Al9  1  0.330977  0.668788  0.475094  1
  Al  Al10  1  0.157135  0.323668  0.578675  1
  Al  Al11  1  0.842865  0.676332  0.421325  1
  Al  Al12  1  0.674742  0.840713  0.577151  1
  Al  Al13  1  0.833211  0.676004  0.078912  1
  Al  Al14  1  0.325258  0.159287  0.422849  1
  Al  Al15  1  0.166789  0.323996  0.921088  1
  Al  Al16  1  0.163984  0.835392  0.575590  1
  Al  Al17  1  0.326349  0.162845  0.075823  1
  Al  Al18  1  0.836016  0.164608  0.424410  1
  Al  Al19  1  0.673651  0.837155  0.924177  1
  Al  Al20  1  0.831248  0.158985  0.076997  1
  Al  Al21  1  0.168752  0.841015  0.923003  1
  Al  Al22  1  0.562148  0.126660  0.249515  1
  Al  Al23  1  0.437852  0.873340  0.750485  1
  Al  Al24  1  0.873928  0.438308  0.252426  1
  Al  Al25  1  0.126072  0.561692  0.747574  1
  Al  Al26  1  0.560880  0.439768  0.246912  1
  Al  Al27  1  0.439120  0.560232  0.753088  1
  Al  Al28  1  0.997897  0.000042  0.250030  1
  Al  Al29  1  0.002103  0.999958  0.749970  1
  Os  Os30  1  0.500000  0.000000  0.000000  1
  Os  Os31  1  0.500000  0.000000  0.500000  1
  Os  Os32  1  0.000000  0.500000  0.500000  1
  Os  Os33  1  0.000000  0.000000  0.000000  1
  Os  Os34  1  0.000000  0.000000  0.500000  1
  Pd  Pd35  1  0.000000  0.500000  0.000000  1
  Pd  Pd36  1  0.500000  0.500000  0.500000  1
  Rh  Rh37  1  0.500000  0.500000  0.000000  1
