# generated using pymatgen
data_Sc6Zn15PAu8
_symmetry_space_group_name_H-M   'P 1'
_cell_length_a   8.90573943
_cell_length_b   8.90573856
_cell_length_c   8.90573900
_cell_angle_alpha   60.00000208
_cell_angle_beta   60.00000532
_cell_angle_gamma   59.99999816
_symmetry_Int_Tables_number   1
_chemical_formula_structural   Sc6Zn15PAu8
_chemical_formula_sum   'Sc6 Zn15 P1 Au8'
_cell_volume   499.45332575
_cell_formula_units_Z   1
loop_
 _symmetry_equiv_pos_site_id
 _symmetry_equiv_pos_as_xyz
  1  'x, y, z'
loop_
 _atom_site_type_symbol
 _atom_site_label
 _atom_site_symmetry_multiplicity
 _atom_site_fract_x
 _atom_site_fract_y
 _atom_site_fract_z
 _atom_site_occupancy
  Sc  Sc0  1  0.707190  0.292810  0.292810  1
  Sc  Sc1  1  0.292810  0.707190  0.707190  1
  Sc  Sc2  1  0.292810  0.707190  0.292810  1
  Sc  Sc3  1  0.707190  0.292810  0.707190  1
  Sc  Sc4  1  0.292810  0.292810  0.707190  1
  Sc  Sc5  1  0.707190  0.707190  0.292810  1
  Zn  Zn6  1  0.500000  0.000000  0.000000  1
  Zn  Zn7  1  0.000000  0.500000  0.500000  1
  Zn  Zn8  1  0.000000  0.500000  0.000000  1
  Zn  Zn9  1  0.500000  0.000000  0.500000  1
  Zn  Zn10  1  0.000000  0.000000  0.500000  1
  Zn  Zn11  1  0.500000  0.500000  0.000000  1
  Zn  Zn12  1  0.336504  0.336504  0.336504  1
  Zn  Zn13  1  0.663496  0.663496  0.663496  1
  Zn  Zn14  1  0.336504  0.336504  0.990488  1
  Zn  Zn15  1  0.336504  0.990488  0.336504  1
  Zn  Zn16  1  0.663496  0.663496  0.009512  1
  Zn  Zn17  1  0.663496  0.009512  0.663496  1
  Zn  Zn18  1  0.990488  0.336504  0.336504  1
  Zn  Zn19  1  0.009512  0.663496  0.663496  1
  Zn  Zn20  1  0.000000  0.000000  0.000000  1
  P  P21  1  0.500000  0.500000  0.500000  1
  Au  Au22  1  0.122464  0.122464  0.122464  1
  Au  Au23  1  0.877536  0.877536  0.877536  1
  Au  Au24  1  0.122464  0.122464  0.632608  1
  Au  Au25  1  0.122464  0.632608  0.122464  1
  Au  Au26  1  0.877536  0.877536  0.367392  1
  Au  Au27  1  0.877536  0.367392  0.877536  1
  Au  Au28  1  0.632608  0.122464  0.122464  1
  Au  Au29  1  0.367392  0.877536  0.877536  1
