# generated using pymatgen
data_LaDyFe3P7Ru9
_symmetry_space_group_name_H-M   'P 1'
_cell_length_a   9.36326200
_cell_length_b   9.36326171
_cell_length_c   3.87443100
_cell_angle_alpha   90.00000000
_cell_angle_beta   90.00000000
_cell_angle_gamma   119.99999395
_symmetry_Int_Tables_number   1
_chemical_formula_structural   LaDyFe3P7Ru9
_chemical_formula_sum   'La1 Dy1 Fe3 P7 Ru9'
_cell_volume   294.16630642
_cell_formula_units_Z   1
loop_
 _symmetry_equiv_pos_site_id
 _symmetry_equiv_pos_as_xyz
  1  'x, y, z'
loop_
 _atom_site_type_symbol
 _atom_site_label
 _atom_site_symmetry_multiplicity
 _atom_site_fract_x
 _atom_site_fract_y
 _atom_site_fract_z
 _atom_site_occupancy
  La  La0  1  0.333333  0.666667  0.000000  1
  Dy  Dy1  1  0.000000  0.000000  0.500000  1
  Fe  Fe2  1  0.933063  0.489513  0.000000  1
  Fe  Fe3  1  0.510487  0.443550  0.000000  1
  Fe  Fe4  1  0.556450  0.066937  0.000000  1
  P  P5  1  0.973196  0.746671  0.000000  1
  P  P6  1  0.253329  0.226526  0.000000  1
  P  P7  1  0.773474  0.026804  0.000000  1
  P  P8  1  0.056840  0.444617  0.500000  1
  P  P9  1  0.555383  0.612221  0.500000  1
  P  P10  1  0.387779  0.943160  0.500000  1
  P  P11  1  0.666667  0.333333  0.000000  1
  Ru  Ru12  1  0.729518  0.753393  0.000000  1
  Ru  Ru13  1  0.246607  0.976125  0.000000  1
  Ru  Ru14  1  0.023875  0.270482  0.000000  1
  Ru  Ru15  1  0.102017  0.720717  0.500000  1
  Ru  Ru16  1  0.279283  0.381300  0.500000  1
  Ru  Ru17  1  0.618700  0.897983  0.500000  1
  Ru  Ru18  1  0.755129  0.536040  0.500000  1
  Ru  Ru19  1  0.463960  0.219091  0.500000  1
  Ru  Ru20  1  0.780909  0.244871  0.500000  1
