# generated using pymatgen
data_Lu4ZnAs5Ir7
_symmetry_space_group_name_H-M   'P 1'
_cell_length_a   7.20853515
_cell_length_b   7.20853540
_cell_length_c   7.20853600
_cell_angle_alpha   109.86559095
_cell_angle_beta   108.68533255
_cell_angle_gamma   109.86559421
_symmetry_Int_Tables_number   1
_chemical_formula_structural   Lu4ZnAs5Ir7
_chemical_formula_sum   'Lu4 Zn1 As5 Ir7'
_cell_volume   288.30887062
_cell_formula_units_Z   1
loop_
 _symmetry_equiv_pos_site_id
 _symmetry_equiv_pos_as_xyz
  1  'x, y, z'
loop_
 _atom_site_type_symbol
 _atom_site_label
 _atom_site_symmetry_multiplicity
 _atom_site_fract_x
 _atom_site_fract_y
 _atom_site_fract_z
 _atom_site_occupancy
  Lu  Lu0  1  0.490652  0.494601  0.490652  1
  Lu  Lu1  1  0.996051  0.505399  0.996051  1
  Lu  Lu2  1  0.490652  0.000000  0.996051  1
  Lu  Lu3  1  0.996051  0.000000  0.490652  1
  Zn  Zn4  1  0.699608  0.000000  0.699608  1
  As  As5  1  0.680351  0.685757  0.994594  1
  As  As6  1  0.308837  0.314243  0.994594  1
  As  As7  1  0.994594  0.685757  0.680351  1
  As  As8  1  0.994594  0.314243  0.308837  1
  As  As9  1  0.331693  0.000000  0.331693  1
  Ir  Ir10  1  0.747106  0.500000  0.247106  1
  Ir  Ir11  1  0.500355  0.251600  0.751955  1
  Ir  Ir12  1  0.751955  0.251600  0.500355  1
  Ir  Ir13  1  0.248755  0.748400  0.500355  1
  Ir  Ir14  1  0.247106  0.500000  0.747106  1
  Ir  Ir15  1  0.500355  0.748400  0.248755  1
  Ir  Ir16  1  0.021284  0.000000  0.021284  1
