# generated using pymatgen
data_DyHo4CdAu4
_symmetry_space_group_name_H-M   'P 1'
_cell_length_a   8.00376400
_cell_length_b   8.00376400
_cell_length_c   3.79696300
_cell_angle_alpha   90.00000000
_cell_angle_beta   90.00000000
_cell_angle_gamma   90.00000000
_symmetry_Int_Tables_number   1
_chemical_formula_structural   DyHo4CdAu4
_chemical_formula_sum   'Dy1 Ho4 Cd1 Au4'
_cell_volume   243.23435409
_cell_formula_units_Z   1
loop_
 _symmetry_equiv_pos_site_id
 _symmetry_equiv_pos_as_xyz
  1  'x, y, z'
loop_
 _atom_site_type_symbol
 _atom_site_label
 _atom_site_symmetry_multiplicity
 _atom_site_fract_x
 _atom_site_fract_y
 _atom_site_fract_z
 _atom_site_occupancy
  Dy  Dy0  1  0.500000  0.500000  0.000000  1
  Ho  Ho1  1  0.687755  0.138359  0.500000  1
  Ho  Ho2  1  0.312245  0.861641  0.500000  1
  Ho  Ho3  1  0.138359  0.312245  0.500000  1
  Ho  Ho4  1  0.861641  0.687755  0.500000  1
  Cd  Cd5  1  0.000000  0.000000  0.000000  1
  Au  Au6  1  0.145368  0.620369  0.000000  1
  Au  Au7  1  0.854632  0.379631  0.000000  1
  Au  Au8  1  0.620369  0.854632  0.000000  1
  Au  Au9  1  0.379631  0.145368  0.000000  1
