# generated using pymatgen
data_Th4Te12Au
_symmetry_space_group_name_H-M   'P 1'
_cell_length_a   7.58353192
_cell_length_b   7.58353325
_cell_length_c   11.66354763
_cell_angle_alpha   71.66561259
_cell_angle_beta   71.66561011
_cell_angle_gamma   71.96657446
_symmetry_Int_Tables_number   1
_chemical_formula_structural   Th4Te12Au
_chemical_formula_sum   'Th4 Te12 Au1'
_cell_volume   587.65383306
_cell_formula_units_Z   1
loop_
 _symmetry_equiv_pos_site_id
 _symmetry_equiv_pos_as_xyz
  1  'x, y, z'
loop_
 _atom_site_type_symbol
 _atom_site_label
 _atom_site_symmetry_multiplicity
 _atom_site_fract_x
 _atom_site_fract_y
 _atom_site_fract_z
 _atom_site_occupancy
  Th  Th0  1  0.809155  0.809155  0.836351  1
  Th  Th1  1  0.311085  0.311085  0.842526  1
  Th  Th2  1  0.688504  0.195067  0.159415  1
  Th  Th3  1  0.195067  0.688504  0.159415  1
  Te  Te4  1  0.012213  0.012213  0.316985  1
  Te  Te5  1  0.499931  0.499931  0.327951  1
  Te  Te6  1  0.481231  0.998074  0.676468  1
  Te  Te7  1  0.998074  0.481231  0.676468  1
  Te  Te8  1  0.260202  0.260202  0.333154  1
  Te  Te9  1  0.756850  0.756850  0.324799  1
  Te  Te10  1  0.241728  0.739323  0.670926  1
  Te  Te11  1  0.739323  0.241728  0.670926  1
  Te  Te12  1  0.021413  0.021413  0.943885  1
  Te  Te13  1  0.521572  0.521572  0.943451  1
  Te  Te14  1  0.481060  0.979601  0.055698  1
  Te  Te15  1  0.979601  0.481060  0.055698  1
  Au  Au16  1  0.814288  0.814288  0.540285  1
