# generated using pymatgen
data_CaYbTh2(Ga3Ir)6
_symmetry_space_group_name_H-M   'P 1'
_cell_length_a   7.64461842
_cell_length_b   7.67439736
_cell_length_c   9.54237000
_cell_angle_alpha   90.00000000
_cell_angle_beta   90.00000000
_cell_angle_gamma   119.78469433
_symmetry_Int_Tables_number   1
_chemical_formula_structural   CaYbTh2(Ga3Ir)6
_chemical_formula_sum   'Ca1 Yb1 Th2 Ga18 Ir6'
_cell_volume   485.87563932
_cell_formula_units_Z   1
loop_
 _symmetry_equiv_pos_site_id
 _symmetry_equiv_pos_as_xyz
  1  'x, y, z'
loop_
 _atom_site_type_symbol
 _atom_site_label
 _atom_site_symmetry_multiplicity
 _atom_site_fract_x
 _atom_site_fract_y
 _atom_site_fract_z
 _atom_site_occupancy
  Ca  Ca0  1  0.668383  0.995118  0.250000  1
  Yb  Yb1  1  0.330390  0.003583  0.750000  1
  Th  Th2  1  0.997381  0.668200  0.250000  1
  Th  Th3  1  0.001525  0.331778  0.750000  1
  Ga  Ga4  1  0.130499  0.127283  0.250000  1
  Ga  Ga5  1  0.871087  0.872752  0.750000  1
  Ga  Ga6  1  0.999944  0.327210  0.082877  1
  Ga  Ga7  1  0.002377  0.674126  0.915228  1
  Ga  Ga8  1  0.002377  0.674126  0.584772  1
  Ga  Ga9  1  0.341208  0.003835  0.425965  1
  Ga  Ga10  1  0.999944  0.327210  0.417123  1
  Ga  Ga11  1  0.657607  0.996871  0.577711  1
  Ga  Ga12  1  0.657607  0.996871  0.922289  1
  Ga  Ga13  1  0.341208  0.003835  0.074035  1
  Ga  Ga14  1  0.336389  0.329970  0.563628  1
  Ga  Ga15  1  0.663188  0.668663  0.440517  1
  Ga  Ga16  1  0.663188  0.668663  0.059483  1
  Ga  Ga17  1  0.336389  0.329970  0.936372  1
  Ga  Ga18  1  0.341144  0.544304  0.250000  1
  Ga  Ga19  1  0.656173  0.452961  0.750000  1
  Ga  Ga20  1  0.543635  0.335318  0.250000  1
  Ga  Ga21  1  0.456264  0.665321  0.750000  1
  Ir  Ir22  1  0.677903  0.335094  0.999551  1
  Ir  Ir23  1  0.323099  0.665852  0.999933  1
  Ir  Ir24  1  0.323099  0.665852  0.500067  1
  Ir  Ir25  1  0.677903  0.335094  0.500449  1
  Ir  Ir26  1  0.000043  0.000069  0.999561  1
  Ir  Ir27  1  0.000043  0.000069  0.500439  1
