# generated using pymatgen
data_Ba2NaReN4
_symmetry_space_group_name_H-M   'P 1'
_cell_length_a   10.71585331
_cell_length_b   10.38247623
_cell_length_c   8.12569479
_cell_angle_alpha   69.53520827
_cell_angle_beta   65.19490440
_cell_angle_gamma   45.26988057
_symmetry_Int_Tables_number   1
_chemical_formula_structural   Ba2NaReN4
_chemical_formula_sum   'Ba8 Na4 Re4 N16'
_cell_volume   580.92672595
_cell_formula_units_Z   4
loop_
 _symmetry_equiv_pos_site_id
 _symmetry_equiv_pos_as_xyz
  1  'x, y, z'
loop_
 _atom_site_type_symbol
 _atom_site_label
 _atom_site_symmetry_multiplicity
 _atom_site_fract_x
 _atom_site_fract_y
 _atom_site_fract_z
 _atom_site_occupancy
  Ba  Ba0  1  0.574240  0.925760  0.925760  1
  Ba  Ba1  1  0.925760  0.574240  0.574240  1
  Ba  Ba2  1  0.324240  0.675760  0.675760  1
  Ba  Ba3  1  0.112706  0.112706  0.887294  1
  Ba  Ba4  1  0.137294  0.137294  0.362706  1
  Ba  Ba5  1  0.362706  0.362706  0.137294  1
  Ba  Ba6  1  0.675760  0.324240  0.324240  1
  Ba  Ba7  1  0.887294  0.887294  0.112706  1
  Na  Na8  1  0.337831  0.337831  0.662169  1
  Na  Na9  1  0.912169  0.912169  0.587831  1
  Na  Na10  1  0.662169  0.662169  0.337831  1
  Na  Na11  1  0.587831  0.587831  0.912169  1
  Re  Re12  1  0.490331  0.009669  0.490331  1
  Re  Re13  1  0.009669  0.490331  0.009669  1
  Re  Re14  1  0.759669  0.240331  0.759669  1
  Re  Re15  1  0.240331  0.759669  0.240331  1
  N  N16  1  0.006300  0.661786  0.834666  1
  N  N17  1  0.706907  0.275342  0.995788  1
  N  N18  1  0.661786  0.006300  0.497248  1
  N  N19  1  0.497248  0.834666  0.661786  1
  N  N20  1  0.243700  0.588214  0.415334  1
  N  N21  1  0.752752  0.415334  0.588214  1
  N  N22  1  0.995788  0.021963  0.706907  1
  N  N23  1  0.543093  0.974658  0.254212  1
  N  N24  1  0.415334  0.752752  0.243700  1
  N  N25  1  0.974658  0.543093  0.228037  1
  N  N26  1  0.275342  0.706907  0.021963  1
  N  N27  1  0.834666  0.497248  0.006300  1
  N  N28  1  0.228037  0.254212  0.974658  1
  N  N29  1  0.588214  0.243700  0.752752  1
  N  N30  1  0.254212  0.228037  0.543093  1
  N  N31  1  0.021963  0.995788  0.275342  1
