# generated using pymatgen
data_Er3Tm9Fe3AgPd
_symmetry_space_group_name_H-M   'P 1'
_cell_length_a   8.09685822
_cell_length_b   8.10007061
_cell_length_c   8.09685709
_cell_angle_alpha   107.59424992
_cell_angle_beta   109.50620299
_cell_angle_gamma   111.31853609
_symmetry_Int_Tables_number   1
_chemical_formula_structural   Er3Tm9Fe3AgPd
_chemical_formula_sum   'Er3 Tm9 Fe3 Ag1 Pd1'
_cell_volume   408.43902246
_cell_formula_units_Z   1
loop_
 _symmetry_equiv_pos_site_id
 _symmetry_equiv_pos_as_xyz
  1  'x, y, z'
loop_
 _atom_site_type_symbol
 _atom_site_label
 _atom_site_symmetry_multiplicity
 _atom_site_fract_x
 _atom_site_fract_y
 _atom_site_fract_z
 _atom_site_occupancy
  Er  Er0  1  0.187690  0.421225  0.233535  1
  Er  Er1  1  0.812323  0.578743  0.766420  1
  Er  Er2  1  0.187970  0.954159  0.766187  1
  Tm  Tm3  1  0.931353  0.188128  0.743243  1
  Tm  Tm4  1  0.812596  0.045924  0.233329  1
  Tm  Tm5  1  0.068329  0.812708  0.256064  1
  Tm  Tm6  1  0.444885  0.188128  0.256775  1
  Tm  Tm7  1  0.556644  0.812708  0.744378  1
  Tm  Tm8  1  0.311424  0.310483  0.621866  1
  Tm  Tm9  1  0.688340  0.690618  0.378211  1
  Tm  Tm10  1  0.688617  0.310483  0.999059  1
  Tm  Tm11  1  0.312406  0.690618  0.002277  1
  Fe  Fe12  1  0.378616  0.378634  0.000018  1
  Fe  Fe13  1  0.621334  0.621765  0.000431  1
  Fe  Fe14  1  0.999898  0.999728  0.999829  1
  Ag  Ag15  1  0.998978  0.498518  0.499540  1
  Pd  Pd16  1  0.498594  0.997433  0.498840  1
