# generated using pymatgen
data_Dy8Ho2(SnBi)3
_symmetry_space_group_name_H-M   'P 1'
_cell_length_a   9.07801200
_cell_length_b   9.07476862
_cell_length_c   6.44458419
_cell_angle_alpha   89.97582606
_cell_angle_beta   90.00000000
_cell_angle_gamma   120.01181631
_symmetry_Int_Tables_number   1
_chemical_formula_structural   Dy8Ho2(SnBi)3
_chemical_formula_sum   'Dy8 Ho2 Sn3 Bi3'
_cell_volume   459.72706444
_cell_formula_units_Z   1
loop_
 _symmetry_equiv_pos_site_id
 _symmetry_equiv_pos_as_xyz
  1  'x, y, z'
loop_
 _atom_site_type_symbol
 _atom_site_label
 _atom_site_symmetry_multiplicity
 _atom_site_fract_x
 _atom_site_fract_y
 _atom_site_fract_z
 _atom_site_occupancy
  Dy  Dy0  1  0.995032  0.756558  0.749987  1
  Dy  Dy1  1  0.995027  0.235215  0.250003  1
  Dy  Dy2  1  0.759812  0.764785  0.249997  1
  Dy  Dy3  1  0.763307  0.000000  0.750000  1
  Dy  Dy4  1  0.238473  0.243442  0.750013  1
  Dy  Dy5  1  0.242298  0.000000  0.250000  1
  Dy  Dy6  1  0.668610  0.333462  0.501792  1
  Dy  Dy7  1  0.335147  0.666538  0.998208  1
  Ho  Ho8  1  0.335149  0.666528  0.501789  1
  Ho  Ho9  1  0.668623  0.333472  0.998211  1
  Sn  Sn10  1  0.000684  0.394236  0.750007  1
  Sn  Sn11  1  0.606447  0.605764  0.749993  1
  Sn  Sn12  1  0.605127  0.000000  0.250000  1
  Bi  Bi13  1  0.392042  0.000000  0.750000  1
  Bi  Bi14  1  0.393491  0.392759  0.249995  1
  Bi  Bi15  1  0.000732  0.607241  0.250005  1
