# generated using pymatgen
data_Tb8Ta10TiSi16Ir
_symmetry_space_group_name_H-M   'P 1'
_cell_length_a   7.04898998
_cell_length_b   7.04078414
_cell_length_c   12.97841717
_cell_angle_alpha   90.13963805
_cell_angle_beta   89.82006730
_cell_angle_gamma   89.67754173
_symmetry_Int_Tables_number   1
_chemical_formula_structural   Tb8Ta10TiSi16Ir
_chemical_formula_sum   'Tb8 Ta10 Ti1 Si16 Ir1'
_cell_volume   644.10893628
_cell_formula_units_Z   1
loop_
 _symmetry_equiv_pos_site_id
 _symmetry_equiv_pos_as_xyz
  1  'x, y, z'
loop_
 _atom_site_type_symbol
 _atom_site_label
 _atom_site_symmetry_multiplicity
 _atom_site_fract_x
 _atom_site_fract_y
 _atom_site_fract_z
 _atom_site_occupancy
  Tb  Tb0  1  0.341221  0.003691  0.467814  1
  Tb  Tb1  1  0.495363  0.841738  0.719635  1
  Tb  Tb2  1  0.501690  0.159066  0.216720  1
  Tb  Tb3  1  0.841240  0.494585  0.280436  1
  Tb  Tb4  1  0.159029  0.501712  0.783462  1
  Tb  Tb5  1  0.657406  0.996864  0.968376  1
  Tb  Tb6  1  0.004227  0.340124  0.531933  1
  Tb  Tb7  1  0.996923  0.657833  0.031395  1
  Ta  Ta8  1  0.173517  0.828359  0.247499  1
  Ta  Ta9  1  0.828052  0.175103  0.752517  1
  Ta  Ta10  1  0.670727  0.670403  0.499602  1
  Ta  Ta11  1  0.148306  0.004188  0.875559  1
  Ta  Ta12  1  0.495410  0.659177  0.124772  1
  Ta  Ta13  1  0.504956  0.346896  0.626086  1
  Ta  Ta14  1  0.659291  0.494577  0.875577  1
  Ta  Ta15  1  0.347711  0.504971  0.374058  1
  Ta  Ta16  1  0.847014  0.992597  0.374328  1
  Ta  Ta17  1  0.003638  0.149517  0.124674  1
  Ti  Ti18  1  0.993146  0.847318  0.626212  1
  Si  Si19  1  0.201851  0.132390  0.683856  1
  Si  Si20  1  0.369315  0.701672  0.933417  1
  Si  Si21  1  0.634329  0.296146  0.433119  1
  Si  Si22  1  0.701192  0.369091  0.066467  1
  Si  Si23  1  0.296256  0.635478  0.567090  1
  Si  Si24  1  0.796295  0.866427  0.183139  1
  Si  Si25  1  0.134761  0.202237  0.316360  1
  Si  Si26  1  0.866806  0.797361  0.815764  1
  Si  Si27  1  0.290223  0.953968  0.061702  1
  Si  Si28  1  0.545099  0.794251  0.313856  1
  Si  Si29  1  0.448885  0.209415  0.817318  1
  Si  Si30  1  0.795025  0.546868  0.685226  1
  Si  Si31  1  0.208921  0.449571  0.182328  1
  Si  Si32  1  0.708460  0.044593  0.565525  1
  Si  Si33  1  0.953759  0.291050  0.938364  1
  Si  Si34  1  0.045598  0.706528  0.435976  1
  Ir  Ir35  1  0.334356  0.334234  0.999838  1
