# generated using pymatgen
data_Ti6Co4Si2C
_symmetry_space_group_name_H-M   'P 1'
_cell_length_a   7.79422538
_cell_length_b   7.79422521
_cell_length_c   7.79422600
_cell_angle_alpha   59.99999666
_cell_angle_beta   59.99999736
_cell_angle_gamma   59.99999754
_symmetry_Int_Tables_number   1
_chemical_formula_structural   Ti6Co4Si2C
_chemical_formula_sum   'Ti12 Co8 Si4 C2'
_cell_volume   334.81420781
_cell_formula_units_Z   2
loop_
 _symmetry_equiv_pos_site_id
 _symmetry_equiv_pos_as_xyz
  1  'x, y, z'
loop_
 _atom_site_type_symbol
 _atom_site_label
 _atom_site_symmetry_multiplicity
 _atom_site_fract_x
 _atom_site_fract_y
 _atom_site_fract_z
 _atom_site_occupancy
  Ti  Ti0  1  0.058114  0.058114  0.441886  1
  Ti  Ti1  1  0.441886  0.058114  0.441886  1
  Ti  Ti2  1  0.058114  0.441886  0.441886  1
  Ti  Ti3  1  0.441886  0.441886  0.058114  1
  Ti  Ti4  1  0.058114  0.441886  0.058114  1
  Ti  Ti5  1  0.441886  0.058114  0.058114  1
  Ti  Ti6  1  0.191886  0.191886  0.808114  1
  Ti  Ti7  1  0.808114  0.191886  0.808114  1
  Ti  Ti8  1  0.191886  0.808114  0.808114  1
  Ti  Ti9  1  0.808114  0.808114  0.191886  1
  Ti  Ti10  1  0.191886  0.808114  0.191886  1
  Ti  Ti11  1  0.808114  0.191886  0.191886  1
  Co  Co12  1  0.416246  0.416246  0.751265  1
  Co  Co13  1  0.416246  0.751265  0.416246  1
  Co  Co14  1  0.751265  0.416246  0.416246  1
  Co  Co15  1  0.416246  0.416246  0.416246  1
  Co  Co16  1  0.833754  0.833754  0.498735  1
  Co  Co17  1  0.833754  0.498735  0.833754  1
  Co  Co18  1  0.498735  0.833754  0.833754  1
  Co  Co19  1  0.833754  0.833754  0.833754  1
  Si  Si20  1  0.625000  0.625000  0.125000  1
  Si  Si21  1  0.625000  0.125000  0.625000  1
  Si  Si22  1  0.125000  0.625000  0.625000  1
  Si  Si23  1  0.625000  0.625000  0.625000  1
  C  C24  1  0.250000  0.250000  0.250000  1
  C  C25  1  0.000000  0.000000  0.000000  1
