# generated using pymatgen
data_Y8Ge(PdPt)12
_symmetry_space_group_name_H-M   'P 1'
_cell_length_a   8.35588000
_cell_length_b   8.36212700
_cell_length_c   8.42479800
_cell_angle_alpha   90.00000000
_cell_angle_beta   90.00000000
_cell_angle_gamma   90.00000000
_symmetry_Int_Tables_number   1
_chemical_formula_structural   Y8Ge(PdPt)12
_chemical_formula_sum   'Y8 Ge1 Pd12 Pt12'
_cell_volume   588.66531887
_cell_formula_units_Z   1
loop_
 _symmetry_equiv_pos_site_id
 _symmetry_equiv_pos_as_xyz
  1  'x, y, z'
loop_
 _atom_site_type_symbol
 _atom_site_label
 _atom_site_symmetry_multiplicity
 _atom_site_fract_x
 _atom_site_fract_y
 _atom_site_fract_z
 _atom_site_occupancy
  Y  Y0  1  0.253102  0.253748  0.252851  1
  Y  Y1  1  0.746898  0.746252  0.747149  1
  Y  Y2  1  0.746898  0.746252  0.252851  1
  Y  Y3  1  0.746898  0.253748  0.747149  1
  Y  Y4  1  0.253102  0.253748  0.747149  1
  Y  Y5  1  0.253102  0.746252  0.252851  1
  Y  Y6  1  0.253102  0.746252  0.747149  1
  Y  Y7  1  0.746898  0.253748  0.252851  1
  Ge  Ge8  1  0.000000  0.000000  0.000000  1
  Pd  Pd9  1  0.500000  0.000000  0.260966  1
  Pd  Pd10  1  0.259962  0.000000  0.500000  1
  Pd  Pd11  1  0.500000  0.000000  0.739034  1
  Pd  Pd12  1  0.740038  0.000000  0.500000  1
  Pd  Pd13  1  0.000000  0.500000  0.258887  1
  Pd  Pd14  1  0.000000  0.500000  0.741113  1
  Pd  Pd15  1  0.500000  0.500000  0.252991  1
  Pd  Pd16  1  0.500000  0.500000  0.747009  1
  Pd  Pd17  1  0.000000  0.290227  0.000000  1
  Pd  Pd18  1  0.000000  0.709773  0.000000  1
  Pd  Pd19  1  0.000000  0.000000  0.289938  1
  Pd  Pd20  1  0.000000  0.000000  0.710062  1
  Pt  Pt21  1  0.259328  0.500000  0.000000  1
  Pt  Pt22  1  0.740672  0.500000  0.000000  1
  Pt  Pt23  1  0.000000  0.260303  0.500000  1
  Pt  Pt24  1  0.500000  0.259966  0.000000  1
  Pt  Pt25  1  0.000000  0.739697  0.500000  1
  Pt  Pt26  1  0.500000  0.740034  0.000000  1
  Pt  Pt27  1  0.251860  0.500000  0.500000  1
  Pt  Pt28  1  0.748140  0.500000  0.500000  1
  Pt  Pt29  1  0.500000  0.253170  0.500000  1
  Pt  Pt30  1  0.500000  0.746830  0.500000  1
  Pt  Pt31  1  0.289982  0.000000  0.000000  1
  Pt  Pt32  1  0.710018  0.000000  0.000000  1
