# generated using pymatgen
data_TbTm3V3PtF28
_symmetry_space_group_name_H-M   'P 1'
_cell_length_a   5.48777963
_cell_length_b   8.79948288
_cell_length_c   11.76410879
_cell_angle_alpha   63.03564944
_cell_angle_beta   90.18163334
_cell_angle_gamma   90.14111872
_symmetry_Int_Tables_number   1
_chemical_formula_structural   TbTm3V3PtF28
_chemical_formula_sum   'Tb1 Tm3 V3 Pt1 F28'
_cell_volume   506.32437722
_cell_formula_units_Z   1
loop_
 _symmetry_equiv_pos_site_id
 _symmetry_equiv_pos_as_xyz
  1  'x, y, z'
loop_
 _atom_site_type_symbol
 _atom_site_label
 _atom_site_symmetry_multiplicity
 _atom_site_fract_x
 _atom_site_fract_y
 _atom_site_fract_z
 _atom_site_occupancy
  Tb  Tb0  1  0.238897  0.813780  0.769587  1
  Tm  Tm1  1  0.258350  0.813278  0.264556  1
  Tm  Tm2  1  0.741798  0.193980  0.729674  1
  Tm  Tm3  1  0.759252  0.187406  0.233064  1
  V  V4  1  0.753140  0.724891  0.045900  1
  V  V5  1  0.246083  0.272253  0.956307  1
  V  V6  1  0.256278  0.276585  0.453080  1
  Pt  Pt7  1  0.742822  0.728773  0.542060  1
  F  F8  1  0.937937  0.699041  0.413633  1
  F  F9  1  0.048568  0.291717  0.576075  1
  F  F10  1  0.455890  0.289673  0.078239  1
  F  F11  1  0.544412  0.706345  0.924533  1
  F  F12  1  0.479275  0.733459  0.141512  1
  F  F13  1  0.519338  0.262515  0.861377  1
  F  F14  1  0.983840  0.273058  0.353889  1
  F  F15  1  0.041411  0.730076  0.633985  1
  F  F16  1  0.964241  0.746686  0.167900  1
  F  F17  1  0.038933  0.248310  0.833707  1
  F  F18  1  0.462447  0.257181  0.328628  1
  F  F19  1  0.555164  0.748764  0.676753  1
  F  F20  1  0.763899  0.491442  0.137479  1
  F  F21  1  0.234323  0.505312  0.862502  1
  F  F22  1  0.269863  0.511455  0.362038  1
  F  F23  1  0.732874  0.479794  0.645554  1
  F  F24  1  0.964493  0.282401  0.049555  1
  F  F25  1  0.034245  0.712686  0.954426  1
  F  F26  1  0.436713  0.717491  0.457518  1
  F  F27  1  0.539497  0.282963  0.546540  1
  F  F28  1  0.742527  0.978789  0.448945  1
  F  F29  1  0.257954  0.044030  0.545059  1
  F  F30  1  0.241685  0.038876  0.049879  1
  F  F31  1  0.758912  0.956427  0.952850  1
  F  F32  1  0.579875  0.969783  0.233990  1
  F  F33  1  0.423049  0.031635  0.769210  1
  F  F34  1  0.077838  0.023062  0.269874  1
  F  F35  1  0.914179  0.976086  0.730122  1
