# generated using pymatgen
data_Tb7Ho7Th2Mg2(CdIr2)2
_symmetry_space_group_name_H-M   'P 1'
_cell_length_a   9.69567675
_cell_length_b   9.69566829
_cell_length_c   9.68515700
_cell_angle_alpha   60.03538876
_cell_angle_beta   60.03555398
_cell_angle_gamma   60.21387239
_symmetry_Int_Tables_number   1
_chemical_formula_structural   Tb7Ho7Th2Mg2(CdIr2)2
_chemical_formula_sum   'Tb7 Ho7 Th2 Mg2 Cd2 Ir4'
_cell_volume   645.17568552
_cell_formula_units_Z   1
loop_
 _symmetry_equiv_pos_site_id
 _symmetry_equiv_pos_as_xyz
  1  'x, y, z'
loop_
 _atom_site_type_symbol
 _atom_site_label
 _atom_site_symmetry_multiplicity
 _atom_site_fract_x
 _atom_site_fract_y
 _atom_site_fract_z
 _atom_site_occupancy
  Tb  Tb0  1  0.063052  0.063055  0.436946  1
  Tb  Tb1  1  0.189467  0.813996  0.813530  1
  Tb  Tb2  1  0.813997  0.189464  0.183010  1
  Tb  Tb3  1  0.813998  0.189466  0.813531  1
  Tb  Tb4  1  0.189462  0.813994  0.183014  1
  Tb  Tb5  1  0.815866  0.815863  0.184133  1
  Tb  Tb6  1  0.191139  0.191140  0.808857  1
  Ho  Ho7  1  0.599344  0.201483  0.599588  1
  Ho  Ho8  1  0.201477  0.599350  0.599588  1
  Ho  Ho9  1  0.062546  0.438678  0.437576  1
  Ho  Ho10  1  0.438688  0.062549  0.061193  1
  Ho  Ho11  1  0.438683  0.062548  0.437568  1
  Ho  Ho12  1  0.062553  0.438679  0.061199  1
  Ho  Ho13  1  0.435957  0.435947  0.064048  1
  Th  Th14  1  0.596053  0.596037  0.600648  1
  Th  Th15  1  0.596041  0.596038  0.207263  1
  Mg  Mg16  1  0.828930  0.828945  0.829528  1
  Mg  Mg17  1  0.828941  0.828939  0.512604  1
  Cd  Cd18  1  0.832864  0.504479  0.831329  1
  Cd  Cd19  1  0.504475  0.832869  0.831328  1
  Ir  Ir20  1  0.390722  0.390727  0.395554  1
  Ir  Ir21  1  0.390734  0.390735  0.822994  1
  Ir  Ir22  1  0.393021  0.821994  0.392485  1
  Ir  Ir23  1  0.821990  0.393026  0.392486  1
