# generated using pymatgen
data_Sm8SiGeI12
_symmetry_space_group_name_H-M   'P 1'
_cell_length_a   4.29356500
_cell_length_b   14.28482300
_cell_length_c   15.07342500
_cell_angle_alpha   90.00229528
_cell_angle_beta   90.00000000
_cell_angle_gamma   90.00000000
_symmetry_Int_Tables_number   1
_chemical_formula_structural   Sm8SiGeI12
_chemical_formula_sum   'Sm8 Si1 Ge1 I12'
_cell_volume   924.49560261
_cell_formula_units_Z   1
loop_
 _symmetry_equiv_pos_site_id
 _symmetry_equiv_pos_as_xyz
  1  'x, y, z'
loop_
 _atom_site_type_symbol
 _atom_site_label
 _atom_site_symmetry_multiplicity
 _atom_site_fract_x
 _atom_site_fract_y
 _atom_site_fract_z
 _atom_site_occupancy
  Sm  Sm0  1  0.500000  0.115126  0.346042  1
  Sm  Sm1  1  0.500000  0.884874  0.653958  1
  Sm  Sm2  1  0.500000  0.614492  0.153107  1
  Sm  Sm3  1  0.500000  0.385508  0.846893  1
  Sm  Sm4  1  0.000000  0.113313  0.575778  1
  Sm  Sm5  1  0.000000  0.886687  0.424222  1
  Sm  Sm6  1  0.000000  0.612511  0.924762  1
  Sm  Sm7  1  0.000000  0.387489  0.075238  1
  Si  Si8  1  0.500000  0.500000  0.000000  1
  Ge  Ge9  1  0.500000  0.000000  0.500000  1
  I  I10  1  0.500000  0.244220  0.161530  1
  I  I11  1  0.500000  0.755780  0.838470  1
  I  I12  1  0.500000  0.744238  0.338509  1
  I  I13  1  0.500000  0.255762  0.661491  1
  I  I14  1  0.000000  0.258670  0.413995  1
  I  I15  1  0.000000  0.741330  0.586005  1
  I  I16  1  0.000000  0.758688  0.086066  1
  I  I17  1  0.000000  0.241312  0.913934  1
  I  I18  1  0.000000  0.998827  0.240463  1
  I  I19  1  0.000000  0.001173  0.759537  1
  I  I20  1  0.000000  0.498883  0.259578  1
  I  I21  1  0.000000  0.501117  0.740422  1
