# generated using pymatgen
data_LiDyTm3Sc5Si8
_symmetry_space_group_name_H-M   'P 1'
_cell_length_a   6.95809539
_cell_length_b   7.36389376
_cell_length_c   13.94620342
_cell_angle_alpha   90.08879091
_cell_angle_beta   90.02117674
_cell_angle_gamma   89.92025798
_symmetry_Int_Tables_number   1
_chemical_formula_structural   LiDyTm3Sc5Si8
_chemical_formula_sum   'Li2 Dy2 Tm6 Sc10 Si16'
_cell_volume   714.58338942
_cell_formula_units_Z   2
loop_
 _symmetry_equiv_pos_site_id
 _symmetry_equiv_pos_as_xyz
  1  'x, y, z'
loop_
 _atom_site_type_symbol
 _atom_site_label
 _atom_site_symmetry_multiplicity
 _atom_site_fract_x
 _atom_site_fract_y
 _atom_site_fract_z
 _atom_site_occupancy
  Li  Li0  1  0.159958  0.506465  0.749918  1
  Li  Li1  1  0.840042  0.493535  0.250082  1
  Dy  Dy2  1  0.009857  0.184229  0.097897  1
  Dy  Dy3  1  0.990143  0.815771  0.902103  1
  Tm  Tm4  1  0.485484  0.674798  0.902876  1
  Tm  Tm5  1  0.989755  0.815304  0.598154  1
  Tm  Tm6  1  0.514516  0.325202  0.097124  1
  Tm  Tm7  1  0.010245  0.184696  0.401846  1
  Tm  Tm8  1  0.514645  0.325069  0.403003  1
  Tm  Tm9  1  0.485355  0.674931  0.596997  1
  Sc  Sc10  1  0.341481  0.003797  0.250163  1
  Sc  Sc11  1  0.658519  0.996203  0.749837  1
  Sc  Sc12  1  0.326379  0.181305  0.626157  1
  Sc  Sc13  1  0.673621  0.818695  0.373843  1
  Sc  Sc14  1  0.165901  0.674870  0.373138  1
  Sc  Sc15  1  0.673353  0.818573  0.126370  1
  Sc  Sc16  1  0.834099  0.325130  0.626862  1
  Sc  Sc17  1  0.326647  0.181427  0.873630  1
  Sc  Sc18  1  0.833785  0.325354  0.872974  1
  Sc  Sc19  1  0.166215  0.674646  0.127026  1
  Si  Si20  1  0.029364  0.100368  0.749664  1
  Si  Si21  1  0.970636  0.899632  0.250336  1
  Si  Si22  1  0.466605  0.610955  0.250092  1
  Si  Si23  1  0.533395  0.389045  0.749908  1
  Si  Si24  1  0.287636  0.876862  0.749628  1
  Si  Si25  1  0.712364  0.123138  0.250372  1
  Si  Si26  1  0.220814  0.371424  0.250330  1
  Si  Si27  1  0.779186  0.628576  0.749670  1
  Si  Si28  1  0.161135  0.461593  0.533441  1
  Si  Si29  1  0.838865  0.538407  0.466559  1
  Si  Si30  1  0.342025  0.967167  0.461205  1
  Si  Si31  1  0.838478  0.538412  0.033443  1
  Si  Si32  1  0.657975  0.032833  0.538795  1
  Si  Si33  1  0.161522  0.461588  0.966557  1
  Si  Si34  1  0.656930  0.033183  0.961324  1
  Si  Si35  1  0.343070  0.966817  0.038676  1
