# generated using pymatgen
data_Tb7HoHf12Si15Ni
_symmetry_space_group_name_H-M   'P 1'
_cell_length_a   7.26691741
_cell_length_b   7.29854199
_cell_length_c   13.40326830
_cell_angle_alpha   90.21398678
_cell_angle_beta   89.91206253
_cell_angle_gamma   90.12511336
_symmetry_Int_Tables_number   1
_chemical_formula_structural   Tb7HoHf12Si15Ni
_chemical_formula_sum   'Tb7 Ho1 Hf12 Si15 Ni1'
_cell_volume   710.87374809
_cell_formula_units_Z   1
loop_
 _symmetry_equiv_pos_site_id
 _symmetry_equiv_pos_as_xyz
  1  'x, y, z'
loop_
 _atom_site_type_symbol
 _atom_site_label
 _atom_site_symmetry_multiplicity
 _atom_site_fract_x
 _atom_site_fract_y
 _atom_site_fract_z
 _atom_site_occupancy
  Tb  Tb0  1  0.005302  0.654356  0.714230  1
  Tb  Tb1  1  0.160167  0.491064  0.461682  1
  Tb  Tb2  1  0.503822  0.844596  0.034955  1
  Tb  Tb3  1  0.843534  0.503265  0.965690  1
  Tb  Tb4  1  0.495829  0.154054  0.537030  1
  Tb  Tb5  1  0.344016  0.996980  0.785463  1
  Tb  Tb6  1  0.657297  0.003027  0.284513  1
  Ho  Ho7  1  0.997265  0.347574  0.215465  1
  Hf  Hf8  1  0.174903  0.176740  0.999518  1
  Hf  Hf9  1  0.825917  0.823095  0.499584  1
  Hf  Hf10  1  0.324078  0.676528  0.250514  1
  Hf  Hf11  1  0.675423  0.324410  0.750084  1
  Hf  Hf12  1  0.153370  0.005849  0.374018  1
  Hf  Hf13  1  0.850655  0.004454  0.874947  1
  Hf  Hf14  1  0.504080  0.648794  0.624366  1
  Hf  Hf15  1  0.351571  0.496034  0.874919  1
  Hf  Hf16  1  0.493805  0.349519  0.129207  1
  Hf  Hf17  1  0.640790  0.499203  0.376137  1
  Hf  Hf18  1  0.997012  0.147886  0.625967  1
  Hf  Hf19  1  0.001412  0.850961  0.124634  1
  Si  Si20  1  0.638411  0.704966  0.817812  1
  Si  Si21  1  0.203898  0.860588  0.565928  1
  Si  Si22  1  0.137922  0.796205  0.932981  1
  Si  Si23  1  0.796161  0.139067  0.067277  1
  Si  Si24  1  0.859911  0.199966  0.435411  1
  Si  Si25  1  0.295829  0.361894  0.683641  1
  Si  Si26  1  0.704881  0.640034  0.182766  1
  Si  Si27  1  0.290704  0.052030  0.185635  1
  Si  Si28  1  0.706358  0.949811  0.685684  1
  Si  Si29  1  0.449797  0.794330  0.435820  1
  Si  Si30  1  0.205447  0.550403  0.063512  1
  Si  Si31  1  0.548660  0.206237  0.936350  1
  Si  Si32  1  0.795505  0.449615  0.564732  1
  Si  Si33  1  0.048832  0.295626  0.814735  1
  Si  Si34  1  0.949909  0.707259  0.313999  1
  Ni  Ni35  1  0.367528  0.293584  0.310795  1
