# generated using pymatgen
data_CeDy9(Al2Ru3)2
_symmetry_space_group_name_H-M   'P 1'
_cell_length_a   8.42864667
_cell_length_b   8.42864759
_cell_length_c   8.31236255
_cell_angle_alpha   110.17081336
_cell_angle_beta   109.21449448
_cell_angle_gamma   109.59517224
_symmetry_Int_Tables_number   1
_chemical_formula_structural   CeDy9(Al2Ru3)2
_chemical_formula_sum   'Ce1 Dy9 Al4 Ru6'
_cell_volume   451.35653407
_cell_formula_units_Z   1
loop_
 _symmetry_equiv_pos_site_id
 _symmetry_equiv_pos_as_xyz
  1  'x, y, z'
loop_
 _atom_site_type_symbol
 _atom_site_label
 _atom_site_symmetry_multiplicity
 _atom_site_fract_x
 _atom_site_fract_y
 _atom_site_fract_z
 _atom_site_occupancy
  Ce  Ce0  1  0.193704  0.943704  0.250000  1
  Dy  Dy1  1  0.781497  0.787658  0.785493  1
  Dy  Dy2  1  0.317505  0.567505  0.750000  1
  Dy  Dy3  1  0.753227  0.319801  0.569035  1
  Dy  Dy4  1  0.569494  0.748480  0.317222  1
  Dy  Dy5  1  0.715614  0.499965  0.998033  1
  Dy  Dy6  1  0.001933  0.717580  0.501967  1
  Dy  Dy7  1  0.502165  0.996004  0.714507  1
  Dy  Dy8  1  0.250766  0.184191  0.930965  1
  Dy  Dy9  1  0.931258  0.252271  0.182778  1
  Al  Al10  1  0.412565  0.413967  0.407908  1
  Al  Al11  1  0.092068  0.497655  0.004159  1
  Al  Al12  1  0.993497  0.087910  0.495841  1
  Al  Al13  1  0.506057  0.004657  0.092092  1
  Ru  Ru14  1  0.875679  0.125679  0.750000  1
  Ru  Ru15  1  0.740792  0.871302  0.119162  1
  Ru  Ru16  1  0.130129  0.763760  0.908858  1
  Ru  Ru17  1  0.252140  0.621631  0.380838  1
  Ru  Ru18  1  0.354903  0.221272  0.591142  1
  Ru  Ru19  1  0.625007  0.375007  0.250000  1
