# generated using pymatgen
data_Yb2Tm2(Ga8Pt3)3
_symmetry_space_group_name_H-M   'P 1'
_cell_length_a   7.47189284
_cell_length_b   7.56421367
_cell_length_c   13.37922543
_cell_angle_alpha   84.69741524
_cell_angle_beta   79.47387268
_cell_angle_gamma   60.72162489
_symmetry_Int_Tables_number   1
_chemical_formula_structural   Yb2Tm2(Ga8Pt3)3
_chemical_formula_sum   'Yb2 Tm2 Ga24 Pt9'
_cell_volume   648.47748820
_cell_formula_units_Z   1
loop_
 _symmetry_equiv_pos_site_id
 _symmetry_equiv_pos_as_xyz
  1  'x, y, z'
loop_
 _atom_site_type_symbol
 _atom_site_label
 _atom_site_symmetry_multiplicity
 _atom_site_fract_x
 _atom_site_fract_y
 _atom_site_fract_z
 _atom_site_occupancy
  Yb  Yb0  1  0.398455  0.167321  0.808128  1
  Yb  Yb1  1  0.601545  0.832679  0.191872  1
  Tm  Tm2  1  0.734022  0.497780  0.809427  1
  Tm  Tm3  1  0.265978  0.502220  0.190573  1
  Ga  Ga4  1  0.687631  0.833481  0.938706  1
  Ga  Ga5  1  0.312369  0.166519  0.061294  1
  Ga  Ga6  1  0.145929  0.831635  0.559421  1
  Ga  Ga7  1  0.854071  0.168365  0.440579  1
  Ga  Ga8  1  0.477786  0.166862  0.556517  1
  Ga  Ga9  1  0.522214  0.833138  0.443483  1
  Ga  Ga10  1  0.221360  0.164041  0.322701  1
  Ga  Ga11  1  0.778640  0.835959  0.677299  1
  Ga  Ga12  1  0.437682  0.502933  0.675471  1
  Ga  Ga13  1  0.562318  0.497067  0.324529  1
  Ga  Ga14  1  0.108791  0.161457  0.674453  1
  Ga  Ga15  1  0.891209  0.838543  0.325547  1
  Ga  Ga16  1  0.362821  0.494769  0.938354  1
  Ga  Ga17  1  0.637179  0.505231  0.061646  1
  Ga  Ga18  1  0.022302  0.169586  0.944206  1
  Ga  Ga19  1  0.977698  0.830414  0.055794  1
  Ga  Ga20  1  0.187848  0.498040  0.443278  1
  Ga  Ga21  1  0.812152  0.501960  0.556722  1
  Ga  Ga22  1  0.732830  0.166084  0.181698  1
  Ga  Ga23  1  0.267170  0.833916  0.818302  1
  Ga  Ga24  1  0.059945  0.630849  0.817237  1
  Ga  Ga25  1  0.940055  0.369151  0.182763  1
  Ga  Ga26  1  0.857503  0.042419  0.816297  1
  Ga  Ga27  1  0.142497  0.957581  0.183703  1
  Pt  Pt28  1  0.114904  0.494769  0.640072  1
  Pt  Pt29  1  0.885096  0.505231  0.359928  1
  Pt  Pt30  1  0.661874  0.168517  0.999030  1
  Pt  Pt31  1  0.338126  0.831483  0.000970  1
  Pt  Pt32  1  0.541193  0.166799  0.360323  1
  Pt  Pt33  1  0.458807  0.833201  0.639677  1
  Pt  Pt34  1  0.778440  0.174102  0.636941  1
  Pt  Pt35  1  0.221560  0.825898  0.363059  1
  Pt  Pt36  1  0.000000  0.500000  0.000000  1
