# generated using pymatgen
data_Ca2(Al3Pd)3
_symmetry_space_group_name_H-M   'P 1'
_cell_length_a   7.66643166
_cell_length_b   7.66643059
_cell_length_c   9.52569300
_cell_angle_alpha   90.00000000
_cell_angle_beta   90.00000000
_cell_angle_gamma   119.49878339
_symmetry_Int_Tables_number   1
_chemical_formula_structural   Ca2(Al3Pd)3
_chemical_formula_sum   'Ca4 Al18 Pd6'
_cell_volume   487.28725239
_cell_formula_units_Z   2
loop_
 _symmetry_equiv_pos_site_id
 _symmetry_equiv_pos_as_xyz
  1  'x, y, z'
loop_
 _atom_site_type_symbol
 _atom_site_label
 _atom_site_symmetry_multiplicity
 _atom_site_fract_x
 _atom_site_fract_y
 _atom_site_fract_z
 _atom_site_occupancy
  Ca  Ca0  1  0.996406  0.670048  0.250000  1
  Ca  Ca1  1  0.003594  0.329952  0.750000  1
  Ca  Ca2  1  0.670048  0.996406  0.250000  1
  Ca  Ca3  1  0.329952  0.003594  0.750000  1
  Al  Al4  1  0.130945  0.130945  0.250000  1
  Al  Al5  1  0.869055  0.869055  0.750000  1
  Al  Al6  1  0.000669  0.334673  0.076147  1
  Al  Al7  1  0.999331  0.665327  0.923853  1
  Al  Al8  1  0.999331  0.665327  0.576147  1
  Al  Al9  1  0.334673  0.000669  0.423853  1
  Al  Al10  1  0.000669  0.334673  0.423853  1
  Al  Al11  1  0.665327  0.999331  0.576147  1
  Al  Al12  1  0.665327  0.999331  0.923853  1
  Al  Al13  1  0.334673  0.000669  0.076147  1
  Al  Al14  1  0.333162  0.333162  0.555007  1
  Al  Al15  1  0.666838  0.666839  0.444993  1
  Al  Al16  1  0.666838  0.666839  0.055007  1
  Al  Al17  1  0.333162  0.333162  0.944993  1
  Al  Al18  1  0.339056  0.544214  0.250000  1
  Al  Al19  1  0.660944  0.455786  0.750000  1
  Al  Al20  1  0.544214  0.339056  0.250000  1
  Al  Al21  1  0.455786  0.660944  0.750000  1
  Pd  Pd22  1  0.671135  0.328865  0.000000  1
  Pd  Pd23  1  0.328865  0.671135  0.000000  1
  Pd  Pd24  1  0.328865  0.671135  0.500000  1
  Pd  Pd25  1  0.671135  0.328865  0.500000  1
  Pd  Pd26  1  0.000000  0.000000  0.000000  1
  Pd  Pd27  1  0.000000  0.000000  0.500000  1
