# generated using pymatgen
data_Tm10Ga4TcBi
_symmetry_space_group_name_H-M   'P 1'
_cell_length_a   8.93808955
_cell_length_b   8.93808952
_cell_length_c   8.93809000
_cell_angle_alpha   130.40614767
_cell_angle_beta   130.40614750
_cell_angle_gamma   72.75830770
_symmetry_Int_Tables_number   1
_chemical_formula_structural   Tm10Ga4TcBi
_chemical_formula_sum   'Tm10 Ga4 Tc1 Bi1'
_cell_volume   404.49485691
_cell_formula_units_Z   1
loop_
 _symmetry_equiv_pos_site_id
 _symmetry_equiv_pos_as_xyz
  1  'x, y, z'
loop_
 _atom_site_type_symbol
 _atom_site_label
 _atom_site_symmetry_multiplicity
 _atom_site_fract_x
 _atom_site_fract_y
 _atom_site_fract_z
 _atom_site_occupancy
  Tm  Tm0  1  0.983788  0.983788  0.000000  1
  Tm  Tm1  1  0.516212  0.516212  0.000000  1
  Tm  Tm2  1  0.842383  0.288588  0.836814  1
  Tm  Tm3  1  0.211412  0.657617  0.163186  1
  Tm  Tm4  1  0.451774  0.005568  0.163186  1
  Tm  Tm5  1  0.288588  0.451774  0.446206  1
  Tm  Tm6  1  0.048226  0.211412  0.553794  1
  Tm  Tm7  1  0.494432  0.048226  0.836814  1
  Tm  Tm8  1  0.657617  0.494432  0.446206  1
  Tm  Tm9  1  0.005568  0.842383  0.553794  1
  Ga  Ga10  1  0.124955  0.624955  0.749908  1
  Ga  Ga11  1  0.875045  0.375045  0.250092  1
  Ga  Ga12  1  0.624955  0.875045  0.500000  1
  Ga  Ga13  1  0.375045  0.124955  0.500000  1
  Tc  Tc14  1  0.250000  0.250000  0.000000  1
  Bi  Bi15  1  0.750000  0.750000  0.000000  1
