# generated using pymatgen
data_YbEuErCoSn6
_symmetry_space_group_name_H-M   'P 1'
_cell_length_a   8.33541484
_cell_length_b   8.33541437
_cell_length_c   13.40139100
_cell_angle_alpha   90.00000000
_cell_angle_beta   90.00000000
_cell_angle_gamma   147.27230331
_symmetry_Int_Tables_number   1
_chemical_formula_structural   YbEuErCoSn6
_chemical_formula_sum   'Yb2 Eu2 Er2 Co2 Sn12'
_cell_volume   503.40569284
_cell_formula_units_Z   2
loop_
 _symmetry_equiv_pos_site_id
 _symmetry_equiv_pos_as_xyz
  1  'x, y, z'
loop_
 _atom_site_type_symbol
 _atom_site_label
 _atom_site_symmetry_multiplicity
 _atom_site_fract_x
 _atom_site_fract_y
 _atom_site_fract_z
 _atom_site_occupancy
  Yb  Yb0  1  0.098959  0.901041  0.902391  1
  Yb  Yb1  1  0.901041  0.098959  0.402391  1
  Eu  Eu2  1  0.903149  0.096851  0.094453  1
  Eu  Eu3  1  0.096851  0.903149  0.594453  1
  Er  Er4  1  0.900481  0.099519  0.752531  1
  Er  Er5  1  0.099519  0.900481  0.252531  1
  Co  Co6  1  0.293844  0.706156  0.249943  1
  Co  Co7  1  0.706156  0.293844  0.749943  1
  Sn  Sn8  1  0.757841  0.242159  0.571610  1
  Sn  Sn9  1  0.425112  0.574888  0.579125  1
  Sn  Sn10  1  0.575071  0.424929  0.420441  1
  Sn  Sn11  1  0.731202  0.268798  0.249157  1
  Sn  Sn12  1  0.268798  0.731202  0.749157  1
  Sn  Sn13  1  0.242159  0.757841  0.071610  1
  Sn  Sn14  1  0.245417  0.754583  0.429026  1
  Sn  Sn15  1  0.574888  0.425112  0.079125  1
  Sn  Sn16  1  0.454073  0.545927  0.251321  1
  Sn  Sn17  1  0.545927  0.454073  0.751321  1
  Sn  Sn18  1  0.754583  0.245417  0.929026  1
  Sn  Sn19  1  0.424929  0.575071  0.920441  1
