# generated using pymatgen
data_Zr2Tc4B4Ru
_symmetry_space_group_name_H-M   'P 1'
_cell_length_a   3.10799500
_cell_length_b   8.63587501
_cell_length_c   10.07012203
_cell_angle_alpha   90.00738943
_cell_angle_beta   90.00000000
_cell_angle_gamma   90.00000000
_symmetry_Int_Tables_number   1
_chemical_formula_structural   Zr2Tc4B4Ru
_chemical_formula_sum   'Zr4 Tc8 B8 Ru2'
_cell_volume   270.28465459
_cell_formula_units_Z   2
loop_
 _symmetry_equiv_pos_site_id
 _symmetry_equiv_pos_as_xyz
  1  'x, y, z'
loop_
 _atom_site_type_symbol
 _atom_site_label
 _atom_site_symmetry_multiplicity
 _atom_site_fract_x
 _atom_site_fract_y
 _atom_site_fract_z
 _atom_site_occupancy
  Zr  Zr0  1  0.500000  0.838019  0.184464  1
  Zr  Zr1  1  0.500000  0.161981  0.815536  1
  Zr  Zr2  1  0.500000  0.661982  0.684445  1
  Zr  Zr3  1  0.500000  0.338018  0.315555  1
  Tc  Tc4  1  0.000000  0.660250  0.954425  1
  Tc  Tc5  1  0.000000  0.339750  0.045575  1
  Tc  Tc6  1  0.000000  0.839748  0.454422  1
  Tc  Tc7  1  0.000000  0.160252  0.545578  1
  Tc  Tc8  1  0.000000  0.407801  0.760015  1
  Tc  Tc9  1  0.000000  0.592199  0.239985  1
  Tc  Tc10  1  0.000000  0.907794  0.739987  1
  Tc  Tc11  1  0.000000  0.092206  0.260013  1
  B  B12  1  0.500000  0.967989  0.587442  1
  B  B13  1  0.500000  0.032011  0.412558  1
  B  B14  1  0.500000  0.849174  0.900427  1
  B  B15  1  0.500000  0.150826  0.099573  1
  B  B16  1  0.500000  0.650855  0.400447  1
  B  B17  1  0.500000  0.349145  0.599553  1
  B  B18  1  0.500000  0.467997  0.912566  1
  B  B19  1  0.500000  0.532003  0.087434  1
  Ru  Ru20  1  0.000000  0.000000  0.000000  1
  Ru  Ru21  1  0.000000  0.500000  0.500000  1
