# generated using pymatgen
data_Hf2Mn4NbSi4W
_symmetry_space_group_name_H-M   'P 1'
_cell_length_a   3.58432300
_cell_length_b   6.40453916
_cell_length_c   7.53526028
_cell_angle_alpha   90.28616501
_cell_angle_beta   90.00000000
_cell_angle_gamma   90.00000000
_symmetry_Int_Tables_number   1
_chemical_formula_structural   Hf2Mn4NbSi4W
_chemical_formula_sum   'Hf2 Mn4 Nb1 Si4 W1'
_cell_volume   172.97680275
_cell_formula_units_Z   1
loop_
 _symmetry_equiv_pos_site_id
 _symmetry_equiv_pos_as_xyz
  1  'x, y, z'
loop_
 _atom_site_type_symbol
 _atom_site_label
 _atom_site_symmetry_multiplicity
 _atom_site_fract_x
 _atom_site_fract_y
 _atom_site_fract_z
 _atom_site_occupancy
  Hf  Hf0  1  0.750000  0.034106  0.669694  1
  Hf  Hf1  1  0.750000  0.536555  0.828428  1
  Mn  Mn2  1  0.250000  0.359291  0.559155  1
  Mn  Mn3  1  0.250000  0.863092  0.940819  1
  Mn  Mn4  1  0.750000  0.637021  0.436047  1
  Mn  Mn5  1  0.750000  0.137614  0.063436  1
  Nb  Nb6  1  0.250000  0.467216  0.177674  1
  Si  Si7  1  0.250000  0.732194  0.621291  1
  Si  Si8  1  0.250000  0.232993  0.875498  1
  Si  Si9  1  0.750000  0.262119  0.366350  1
  Si  Si10  1  0.750000  0.771420  0.135461  1
  W  W11  1  0.250000  0.966380  0.326147  1
