# generated using pymatgen
data_Y9ScAlCd2Ni
_symmetry_space_group_name_H-M   'P 1'
_cell_length_a   9.55808703
_cell_length_b   9.58961873
_cell_length_c   9.58308900
_cell_angle_alpha   90.00000000
_cell_angle_beta   90.00000000
_cell_angle_gamma   120.10917669
_symmetry_Int_Tables_number   1
_chemical_formula_structural   Y9ScAlCd2Ni
_chemical_formula_sum   'Y18 Sc2 Al2 Cd4 Ni2'
_cell_volume   759.85309952
_cell_formula_units_Z   2
loop_
 _symmetry_equiv_pos_site_id
 _symmetry_equiv_pos_as_xyz
  1  'x, y, z'
loop_
 _atom_site_type_symbol
 _atom_site_label
 _atom_site_symmetry_multiplicity
 _atom_site_fract_x
 _atom_site_fract_y
 _atom_site_fract_z
 _atom_site_occupancy
  Y  Y0  1  0.544060  0.456094  0.250000  1
  Y  Y1  1  0.544060  0.087966  0.250000  1
  Y  Y2  1  0.911936  0.455968  0.250000  1
  Y  Y3  1  0.456634  0.544908  0.750000  1
  Y  Y4  1  0.456634  0.911726  0.750000  1
  Y  Y5  1  0.086724  0.543362  0.750000  1
  Y  Y6  1  0.207033  0.791460  0.437682  1
  Y  Y7  1  0.207033  0.415575  0.437682  1
  Y  Y8  1  0.586491  0.793246  0.435257  1
  Y  Y9  1  0.792390  0.207577  0.558897  1
  Y  Y10  1  0.792390  0.584812  0.558897  1
  Y  Y11  1  0.417622  0.208810  0.564060  1
  Y  Y12  1  0.792390  0.207577  0.941103  1
  Y  Y13  1  0.792390  0.584812  0.941103  1
  Y  Y14  1  0.417622  0.208810  0.935940  1
  Y  Y15  1  0.207033  0.791460  0.062318  1
  Y  Y16  1  0.207033  0.415575  0.062318  1
  Y  Y17  1  0.586491  0.793246  0.064743  1
  Sc  Sc18  1  0.998752  0.999376  0.497370  1
  Sc  Sc19  1  0.998752  0.999376  0.002630  1
  Al  Al20  1  0.887726  0.107468  0.250000  1
  Al  Al21  1  0.887726  0.780259  0.250000  1
  Cd  Cd22  1  0.218015  0.109007  0.250000  1
  Cd  Cd23  1  0.110952  0.889651  0.750000  1
  Cd  Cd24  1  0.110952  0.221301  0.750000  1
  Cd  Cd25  1  0.779002  0.889501  0.750000  1
  Ni  Ni26  1  0.332516  0.666259  0.250000  1
  Ni  Ni27  1  0.669636  0.334818  0.750000  1
