# generated using pymatgen
data_Sr4Li5Pd9
_symmetry_space_group_name_H-M   'P 1'
_cell_length_a   5.66800975
_cell_length_b   5.66801010
_cell_length_c   12.86587753
_cell_angle_alpha   77.27492462
_cell_angle_beta   77.27492651
_cell_angle_gamma   60.00000794
_symmetry_Int_Tables_number   1
_chemical_formula_structural   Sr4Li5Pd9
_chemical_formula_sum   'Sr4 Li5 Pd9'
_cell_volume   346.18498111
_cell_formula_units_Z   1
loop_
 _symmetry_equiv_pos_site_id
 _symmetry_equiv_pos_as_xyz
  1  'x, y, z'
loop_
 _atom_site_type_symbol
 _atom_site_label
 _atom_site_symmetry_multiplicity
 _atom_site_fract_x
 _atom_site_fract_y
 _atom_site_fract_z
 _atom_site_occupancy
  Sr  Sr0  1  0.950357  0.950357  0.148927  1
  Sr  Sr1  1  0.049643  0.049643  0.851073  1
  Sr  Sr2  1  0.853183  0.853183  0.440452  1
  Sr  Sr3  1  0.146817  0.146817  0.559548  1
  Li  Li4  1  0.500000  0.500000  0.500000  1
  Li  Li5  1  0.721827  0.721827  0.834517  1
  Li  Li6  1  0.278173  0.278173  0.165483  1
  Li  Li7  1  0.611118  0.611118  0.166646  1
  Li  Li8  1  0.388882  0.388882  0.833354  1
  Pd  Pd9  1  0.000000  0.500000  0.000000  1
  Pd  Pd10  1  0.500000  0.000000  0.000000  1
  Pd  Pd11  1  0.500000  0.500000  0.000000  1
  Pd  Pd12  1  0.389805  0.389805  0.329519  1
  Pd  Pd13  1  0.890872  0.389805  0.329519  1
  Pd  Pd14  1  0.389805  0.890872  0.329519  1
  Pd  Pd15  1  0.610195  0.610195  0.670481  1
  Pd  Pd16  1  0.109128  0.610195  0.670481  1
  Pd  Pd17  1  0.610195  0.109128  0.670481  1
