# generated using pymatgen
data_CeTh7(FeSi3)4
_symmetry_space_group_name_H-M   'P 1'
_cell_length_a   8.14484626
_cell_length_b   8.13269854
_cell_length_c   8.28143500
_cell_angle_alpha   90.00000000
_cell_angle_beta   90.00000000
_cell_angle_gamma   119.95066924
_symmetry_Int_Tables_number   1
_chemical_formula_structural   CeTh7(FeSi3)4
_chemical_formula_sum   'Ce1 Th7 Fe4 Si12'
_cell_volume   475.30180429
_cell_formula_units_Z   1
loop_
 _symmetry_equiv_pos_site_id
 _symmetry_equiv_pos_as_xyz
  1  'x, y, z'
loop_
 _atom_site_type_symbol
 _atom_site_label
 _atom_site_symmetry_multiplicity
 _atom_site_fract_x
 _atom_site_fract_y
 _atom_site_fract_z
 _atom_site_occupancy
  Ce  Ce0  1  0.999593  0.499796  0.750000  1
  Th  Th1  1  0.000052  0.000026  0.250000  1
  Th  Th2  1  0.999990  0.999995  0.750000  1
  Th  Th3  1  0.499955  0.500059  0.250000  1
  Th  Th4  1  0.499955  0.999896  0.250000  1
  Th  Th5  1  0.000178  0.500089  0.250000  1
  Th  Th6  1  0.500047  0.500019  0.750000  1
  Th  Th7  1  0.500047  0.000028  0.750000  1
  Fe  Fe8  1  0.335861  0.667931  0.499785  1
  Fe  Fe9  1  0.664164  0.332081  0.499810  1
  Fe  Fe10  1  0.664164  0.332081  0.000190  1
  Fe  Fe11  1  0.335861  0.667931  0.000215  1
  Si  Si12  1  0.169765  0.827945  0.501826  1
  Si  Si13  1  0.169765  0.341820  0.501826  1
  Si  Si14  1  0.661187  0.830594  0.499567  1
  Si  Si15  1  0.830275  0.172018  0.501428  1
  Si  Si16  1  0.830275  0.658256  0.501428  1
  Si  Si17  1  0.338799  0.169399  0.499365  1
  Si  Si18  1  0.830275  0.172018  0.998572  1
  Si  Si19  1  0.830275  0.658256  0.998572  1
  Si  Si20  1  0.338799  0.169399  0.000635  1
  Si  Si21  1  0.169765  0.827945  0.998174  1
  Si  Si22  1  0.169765  0.341820  0.998174  1
  Si  Si23  1  0.661187  0.830594  0.000433  1
