# generated using pymatgen
data_Dy5Ho3Ti11Si16Hg
_symmetry_space_group_name_H-M   'P 1'
_cell_length_a   7.08490565
_cell_length_b   7.08474785
_cell_length_c   12.92908401
_cell_angle_alpha   90.12630852
_cell_angle_beta   89.86849275
_cell_angle_gamma   89.60896140
_symmetry_Int_Tables_number   1
_chemical_formula_structural   Dy5Ho3Ti11Si16Hg
_chemical_formula_sum   'Dy5 Ho3 Ti11 Si16 Hg1'
_cell_volume   648.95397625
_cell_formula_units_Z   1
loop_
 _symmetry_equiv_pos_site_id
 _symmetry_equiv_pos_as_xyz
  1  'x, y, z'
loop_
 _atom_site_type_symbol
 _atom_site_label
 _atom_site_symmetry_multiplicity
 _atom_site_fract_x
 _atom_site_fract_y
 _atom_site_fract_z
 _atom_site_occupancy
  Dy  Dy0  1  0.341219  0.002274  0.466967  1
  Dy  Dy1  1  0.497998  0.839396  0.716048  1
  Dy  Dy2  1  0.501335  0.157412  0.215101  1
  Dy  Dy3  1  0.839450  0.498009  0.283959  1
  Dy  Dy4  1  0.157412  0.501375  0.784861  1
  Ho  Ho5  1  0.657159  0.000136  0.968356  1
  Ho  Ho6  1  0.002214  0.341372  0.533070  1
  Ho  Ho7  1  0.000155  0.657185  0.031686  1
  Ti  Ti8  1  0.173572  0.826721  0.250550  1
  Ti  Ti9  1  0.826748  0.173544  0.749392  1
  Ti  Ti10  1  0.673094  0.673002  0.500028  1
  Ti  Ti11  1  0.147245  0.008175  0.876854  1
  Ti  Ti12  1  0.495254  0.650149  0.123932  1
  Ti  Ti13  1  0.507351  0.351337  0.624611  1
  Ti  Ti14  1  0.650139  0.495281  0.876067  1
  Ti  Ti15  1  0.351298  0.507343  0.375390  1
  Ti  Ti16  1  0.849682  0.991699  0.374807  1
  Ti  Ti17  1  0.008175  0.147228  0.123162  1
  Ti  Ti18  1  0.991652  0.849651  0.625191  1
  Si  Si19  1  0.201829  0.131883  0.683773  1
  Si  Si20  1  0.373901  0.724179  0.927531  1
  Si  Si21  1  0.631477  0.294609  0.432984  1
  Si  Si22  1  0.724171  0.373919  0.072487  1
  Si  Si23  1  0.294442  0.631311  0.567064  1
  Si  Si24  1  0.798235  0.867248  0.183181  1
  Si  Si25  1  0.131875  0.201955  0.316159  1
  Si  Si26  1  0.867302  0.798195  0.816760  1
  Si  Si27  1  0.285964  0.933026  0.067497  1
  Si  Si28  1  0.546512  0.791296  0.314944  1
  Si  Si29  1  0.458687  0.205062  0.805569  1
  Si  Si30  1  0.791392  0.546570  0.684959  1
  Si  Si31  1  0.205050  0.458761  0.194426  1
  Si  Si32  1  0.709617  0.047869  0.564160  1
  Si  Si33  1  0.933060  0.285992  0.932552  1
  Si  Si34  1  0.047861  0.709362  0.435923  1
  Hg  Hg35  1  0.327471  0.327469  0.999997  1
