# generated using pymatgen
data_Li2GaCo(PO3)8
_symmetry_space_group_name_H-M   'P 1'
_cell_length_a   8.37024500
_cell_length_b   9.12248836
_cell_length_c   12.62275219
_cell_angle_alpha   89.95503481
_cell_angle_beta   90.00000000
_cell_angle_gamma   90.00000000
_symmetry_Int_Tables_number   1
_chemical_formula_structural   Li2GaCo(PO3)8
_chemical_formula_sum   'Li4 Ga2 Co2 P16 O48'
_cell_volume   963.84103159
_cell_formula_units_Z   2
loop_
 _symmetry_equiv_pos_site_id
 _symmetry_equiv_pos_as_xyz
  1  'x, y, z'
loop_
 _atom_site_type_symbol
 _atom_site_label
 _atom_site_symmetry_multiplicity
 _atom_site_fract_x
 _atom_site_fract_y
 _atom_site_fract_z
 _atom_site_occupancy
  Li  Li0  1  0.002211  0.750000  0.000000  1
  Li  Li1  1  0.508334  0.750000  0.500000  1
  Li  Li2  1  0.491666  0.250000  0.500000  1
  Li  Li3  1  0.997789  0.250000  0.000000  1
  Ga  Ga4  1  0.631505  0.250000  0.000000  1
  Ga  Ga5  1  0.368495  0.750000  0.000000  1
  Co  Co6  1  0.869954  0.750000  0.500000  1
  Co  Co7  1  0.130046  0.250000  0.500000  1
  P  P8  1  0.463653  0.488883  0.849014  1
  P  P9  1  0.536347  0.988883  0.849014  1
  P  P10  1  0.964403  0.489518  0.646168  1
  P  P11  1  0.180438  0.995908  0.860210  1
  P  P12  1  0.180438  0.504092  0.139790  1
  P  P13  1  0.819562  0.004092  0.139790  1
  P  P14  1  0.463653  0.011117  0.150986  1
  P  P15  1  0.536347  0.511117  0.150986  1
  P  P16  1  0.035597  0.510482  0.353832  1
  P  P17  1  0.964403  0.010482  0.353832  1
  P  P18  1  0.318079  0.006405  0.364128  1
  P  P19  1  0.681921  0.506405  0.364128  1
  P  P20  1  0.318079  0.493595  0.635872  1
  P  P21  1  0.681921  0.993595  0.635872  1
  P  P22  1  0.035597  0.989518  0.646168  1
  P  P23  1  0.819562  0.495908  0.860210  1
  O  O24  1  0.864776  0.875880  0.377470  1
  O  O25  1  0.464356  0.368758  0.931083  1
  O  O26  1  0.535644  0.868758  0.931083  1
  O  O27  1  0.809383  0.366665  0.936416  1
  O  O28  1  0.190617  0.633335  0.063584  1
  O  O29  1  0.809383  0.133335  0.063584  1
  O  O30  1  0.464356  0.131242  0.068917  1
  O  O31  1  0.535644  0.631242  0.068917  1
  O  O32  1  0.094403  0.370831  0.105854  1
  O  O33  1  0.905597  0.870831  0.105854  1
  O  O34  1  0.365737  0.877025  0.126040  1
  O  O35  1  0.634263  0.377025  0.126040  1
  O  O36  1  0.357781  0.462732  0.180500  1
  O  O37  1  0.642219  0.962732  0.180500  1
  O  O38  1  0.103835  0.576747  0.245729  1
  O  O39  1  0.896165  0.076747  0.245729  1
  O  O40  1  0.396661  0.078794  0.258744  1
  O  O41  1  0.603339  0.578794  0.258744  1
  O  O42  1  0.142237  0.962362  0.322707  1
  O  O43  1  0.857763  0.462362  0.322707  1
  O  O44  1  0.135224  0.375880  0.377470  1
  O  O45  1  0.190617  0.866665  0.936416  1
  O  O46  1  0.407080  0.875384  0.399229  1
  O  O47  1  0.592920  0.375384  0.399229  1
  O  O48  1  0.035560  0.631857  0.435486  1
  O  O49  1  0.964440  0.131857  0.435486  1
  O  O50  1  0.304350  0.136056  0.439610  1
  O  O51  1  0.695650  0.636056  0.439610  1
  O  O52  1  0.304350  0.363944  0.560390  1
  O  O53  1  0.695650  0.863944  0.560390  1
  O  O54  1  0.035560  0.868143  0.564514  1
  O  O55  1  0.964440  0.368143  0.564514  1
  O  O56  1  0.407080  0.624616  0.600771  1
  O  O57  1  0.592920  0.124616  0.600771  1
  O  O58  1  0.135224  0.124120  0.622530  1
  O  O59  1  0.864776  0.624120  0.622530  1
  O  O60  1  0.142237  0.537638  0.677293  1
  O  O61  1  0.857763  0.037638  0.677293  1
  O  O62  1  0.396661  0.421206  0.741256  1
  O  O63  1  0.603339  0.921206  0.741256  1
  O  O64  1  0.103835  0.923253  0.754271  1
  O  O65  1  0.896165  0.423253  0.754271  1
  O  O66  1  0.357781  0.037268  0.819500  1
  O  O67  1  0.642219  0.537268  0.819500  1
  O  O68  1  0.365737  0.622975  0.873960  1
  O  O69  1  0.905597  0.629169  0.894146  1
  O  O70  1  0.094403  0.129169  0.894146  1
  O  O71  1  0.634263  0.122975  0.873960  1
