# generated using pymatgen
data_Dy5ScC2Br7
_symmetry_space_group_name_H-M   'P 1'
_cell_length_a   10.50919483
_cell_length_b   10.50919518
_cell_length_c   12.27008544
_cell_angle_alpha   57.49626808
_cell_angle_beta   57.49626711
_cell_angle_gamma   20.73825391
_symmetry_Int_Tables_number   1
_chemical_formula_structural   Dy5ScC2Br7
_chemical_formula_sum   'Dy5 Sc1 C2 Br7'
_cell_volume   401.93050158
_cell_formula_units_Z   1
loop_
 _symmetry_equiv_pos_site_id
 _symmetry_equiv_pos_as_xyz
  1  'x, y, z'
loop_
 _atom_site_type_symbol
 _atom_site_label
 _atom_site_symmetry_multiplicity
 _atom_site_fract_x
 _atom_site_fract_y
 _atom_site_fract_z
 _atom_site_occupancy
  Dy  Dy0  1  0.234750  0.234750  0.820397  1
  Dy  Dy1  1  0.312805  0.312805  0.366812  1
  Dy  Dy2  1  0.130270  0.130270  0.446750  1
  Dy  Dy3  1  0.870302  0.870302  0.550257  1
  Dy  Dy4  1  0.688000  0.688000  0.629620  1
  Sc  Sc5  1  0.763059  0.763059  0.191780  1
  C  C6  1  0.281469  0.281469  0.599059  1
  C  C7  1  0.719591  0.719591  0.396857  1
  Br  Br8  1  0.169461  0.169461  0.177402  1
  Br  Br9  1  0.839396  0.839396  0.818646  1
  Br  Br10  1  0.058400  0.058400  0.717255  1
  Br  Br11  1  0.942292  0.942292  0.279402  1
  Br  Br12  1  0.500470  0.500470  0.499346  1
  Br  Br13  1  0.375533  0.375533  0.083145  1
  Br  Br14  1  0.614203  0.614203  0.923273  1
