# generated using pymatgen
data_Hf5Fe16Si7W
_symmetry_space_group_name_H-M   'P 1'
_cell_length_a   7.98943107
_cell_length_b   8.02088764
_cell_length_c   8.02088744
_cell_angle_alpha   59.74070022
_cell_angle_beta   60.12964483
_cell_angle_gamma   60.12964664
_symmetry_Int_Tables_number   1
_chemical_formula_structural   Hf5Fe16Si7W
_chemical_formula_sum   'Hf5 Fe16 Si7 W1'
_cell_volume   363.43970911
_cell_formula_units_Z   1
loop_
 _symmetry_equiv_pos_site_id
 _symmetry_equiv_pos_as_xyz
  1  'x, y, z'
loop_
 _atom_site_type_symbol
 _atom_site_label
 _atom_site_symmetry_multiplicity
 _atom_site_fract_x
 _atom_site_fract_y
 _atom_site_fract_z
 _atom_site_occupancy
  Hf  Hf0  1  0.703303  0.705450  0.296697  1
  Hf  Hf1  1  0.294550  0.296697  0.705450  1
  Hf  Hf2  1  0.710288  0.289712  0.289712  1
  Hf  Hf3  1  0.703303  0.296697  0.705450  1
  Hf  Hf4  1  0.294550  0.705450  0.296697  1
  Fe  Fe5  1  0.890053  0.875897  0.875897  1
  Fe  Fe6  1  0.025571  0.325731  0.325731  1
  Fe  Fe7  1  0.124103  0.109947  0.641845  1
  Fe  Fe8  1  0.323940  0.022995  0.329125  1
  Fe  Fe9  1  0.322967  0.325731  0.325731  1
  Fe  Fe10  1  0.674269  0.677033  0.974429  1
  Fe  Fe11  1  0.879020  0.875608  0.366353  1
  Fe  Fe12  1  0.670875  0.676060  0.676060  1
  Fe  Fe13  1  0.674269  0.974429  0.677033  1
  Fe  Fe14  1  0.323940  0.329125  0.022995  1
  Fe  Fe15  1  0.879020  0.366353  0.875608  1
  Fe  Fe16  1  0.633647  0.120980  0.120980  1
  Fe  Fe17  1  0.124103  0.641845  0.109947  1
  Fe  Fe18  1  0.124392  0.120980  0.120980  1
  Fe  Fe19  1  0.977005  0.676060  0.676060  1
  Fe  Fe20  1  0.358155  0.875897  0.875897  1
  Si  Si21  1  0.999593  0.000407  0.499963  1
  Si  Si22  1  0.999593  0.499963  0.000407  1
  Si  Si23  1  0.993382  0.006618  0.006618  1
  Si  Si24  1  0.500037  0.000407  0.499963  1
  Si  Si25  1  0.999356  0.500644  0.500644  1
  Si  Si26  1  0.499356  0.000644  0.000644  1
  Si  Si27  1  0.500037  0.499963  0.000407  1
  W  W28  1  0.297323  0.702677  0.702677  1
