# generated using pymatgen
data_Ta12Al8WAu3C4
_symmetry_space_group_name_H-M   'P 1'
_cell_length_a   8.47276794
_cell_length_b   8.47276762
_cell_length_c   8.47276623
_cell_angle_alpha   59.09869804
_cell_angle_beta   59.09870203
_cell_angle_gamma   59.09870304
_symmetry_Int_Tables_number   1
_chemical_formula_structural   Ta12Al8WAu3C4
_chemical_formula_sum   'Ta12 Al8 W1 Au3 C4'
_cell_volume   421.25431434
_cell_formula_units_Z   1
loop_
 _symmetry_equiv_pos_site_id
 _symmetry_equiv_pos_as_xyz
  1  'x, y, z'
loop_
 _atom_site_type_symbol
 _atom_site_label
 _atom_site_symmetry_multiplicity
 _atom_site_fract_x
 _atom_site_fract_y
 _atom_site_fract_z
 _atom_site_occupancy
  Ta  Ta0  1  0.571561  0.930112  0.571561  1
  Ta  Ta1  1  0.319888  0.678439  0.678439  1
  Ta  Ta2  1  0.697511  0.313205  0.313205  1
  Ta  Ta3  1  0.313205  0.697511  0.313205  1
  Ta  Ta4  1  0.678439  0.678439  0.319888  1
  Ta  Ta5  1  0.313205  0.313205  0.697511  1
  Ta  Ta6  1  0.571561  0.571561  0.930112  1
  Ta  Ta7  1  0.930112  0.571561  0.571561  1
  Ta  Ta8  1  0.552489  0.936795  0.936795  1
  Ta  Ta9  1  0.936795  0.936795  0.552489  1
  Ta  Ta10  1  0.678439  0.319888  0.678439  1
  Ta  Ta11  1  0.936795  0.552489  0.936795  1
  Al  Al12  1  0.910003  0.910003  0.910003  1
  Al  Al13  1  0.997386  0.333750  0.333750  1
  Al  Al14  1  0.333750  0.997386  0.333750  1
  Al  Al15  1  0.333750  0.333750  0.997386  1
  Al  Al16  1  0.916250  0.252614  0.916250  1
  Al  Al17  1  0.916250  0.916250  0.252614  1
  Al  Al18  1  0.252614  0.916250  0.916250  1
  Al  Al19  1  0.339997  0.339997  0.339997  1
  W  W20  1  0.125000  0.125000  0.125000  1
  Au  Au21  1  0.625000  0.125000  0.125000  1
  Au  Au22  1  0.125000  0.625000  0.125000  1
  Au  Au23  1  0.125000  0.125000  0.625000  1
  C  C24  1  0.625000  0.625000  0.625000  1
  C  C25  1  0.125000  0.625000  0.625000  1
  C  C26  1  0.625000  0.125000  0.625000  1
  C  C27  1  0.625000  0.625000  0.125000  1
