# generated using pymatgen
data_Nd5(SnTe)2
_symmetry_space_group_name_H-M   'P 1'
_cell_length_a   8.36452000
_cell_length_b   8.36040800
_cell_length_c   16.01452500
_cell_angle_alpha   90.00000000
_cell_angle_beta   90.00000000
_cell_angle_gamma   90.00000000
_symmetry_Int_Tables_number   1
_chemical_formula_structural   Nd5(SnTe)2
_chemical_formula_sum   'Nd20 Sn8 Te8'
_cell_volume   1119.90854366
_cell_formula_units_Z   4
loop_
 _symmetry_equiv_pos_site_id
 _symmetry_equiv_pos_as_xyz
  1  'x, y, z'
loop_
 _atom_site_type_symbol
 _atom_site_label
 _atom_site_symmetry_multiplicity
 _atom_site_fract_x
 _atom_site_fract_y
 _atom_site_fract_z
 _atom_site_occupancy
  Nd  Nd0  1  0.073749  0.165839  0.385951  1
  Nd  Nd1  1  0.409820  0.834548  0.116158  1
  Nd  Nd2  1  0.090180  0.334548  0.616158  1
  Nd  Nd3  1  0.426251  0.665839  0.885951  1
  Nd  Nd4  1  0.909820  0.665452  0.116158  1
  Nd  Nd5  1  0.090180  0.334548  0.883842  1
  Nd  Nd6  1  0.241283  0.499378  0.250000  1
  Nd  Nd7  1  0.741283  0.000622  0.250000  1
  Nd  Nd8  1  0.426251  0.665839  0.614049  1
  Nd  Nd9  1  0.258717  0.999378  0.750000  1
  Nd  Nd10  1  0.590180  0.165452  0.616158  1
  Nd  Nd11  1  0.758717  0.500622  0.750000  1
  Nd  Nd12  1  0.909820  0.665452  0.383842  1
  Nd  Nd13  1  0.073749  0.165839  0.114049  1
  Nd  Nd14  1  0.926251  0.834161  0.885951  1
  Nd  Nd15  1  0.590180  0.165452  0.883842  1
  Nd  Nd16  1  0.573749  0.334161  0.114049  1
  Nd  Nd17  1  0.409820  0.834548  0.383842  1
  Nd  Nd18  1  0.926251  0.834161  0.614049  1
  Nd  Nd19  1  0.573749  0.334161  0.385951  1
  Sn  Sn20  1  0.625899  0.868027  0.750000  1
  Sn  Sn21  1  0.874101  0.368027  0.250000  1
  Sn  Sn22  1  0.609657  0.629909  0.250000  1
  Sn  Sn23  1  0.390343  0.370091  0.750000  1
  Sn  Sn24  1  0.125899  0.631973  0.750000  1
  Sn  Sn25  1  0.890343  0.129909  0.750000  1
  Sn  Sn26  1  0.374101  0.131973  0.250000  1
  Sn  Sn27  1  0.109657  0.870091  0.250000  1
  Te  Te28  1  0.755862  0.497404  0.548761  1
  Te  Te29  1  0.744138  0.997404  0.451239  1
  Te  Te30  1  0.244138  0.502596  0.451239  1
  Te  Te31  1  0.255862  0.002596  0.951239  1
  Te  Te32  1  0.755862  0.497404  0.951239  1
  Te  Te33  1  0.244138  0.502596  0.048761  1
  Te  Te34  1  0.255862  0.002596  0.548761  1
  Te  Te35  1  0.744138  0.997404  0.048761  1
