# generated using pymatgen
data_DyY3U2O12
_symmetry_space_group_name_H-M   'P 1'
_cell_length_a   6.52139542
_cell_length_b   6.52139518
_cell_length_c   6.66959105
_cell_angle_alpha   80.61767161
_cell_angle_beta   80.61768516
_cell_angle_gamma   120.60494934
_symmetry_Int_Tables_number   1
_chemical_formula_structural   DyY3U2O12
_chemical_formula_sum   'Dy1 Y3 U2 O12'
_cell_volume   230.53972654
_cell_formula_units_Z   1
loop_
 _symmetry_equiv_pos_site_id
 _symmetry_equiv_pos_as_xyz
  1  'x, y, z'
loop_
 _atom_site_type_symbol
 _atom_site_label
 _atom_site_symmetry_multiplicity
 _atom_site_fract_x
 _atom_site_fract_y
 _atom_site_fract_z
 _atom_site_occupancy
  Dy  Dy0  1  0.750046  0.249954  0.250000  1
  Y  Y1  1  0.915090  0.084910  0.750000  1
  Y  Y2  1  0.249865  0.750135  0.750000  1
  Y  Y3  1  0.084886  0.915114  0.250000  1
  U  U4  1  0.585750  0.414250  0.750000  1
  U  U5  1  0.414264  0.585736  0.250000  1
  O  O6  1  0.933201  0.770125  0.628589  1
  O  O7  1  0.627387  0.142329  0.625182  1
  O  O8  1  0.689370  0.534586  0.379769  1
  O  O9  1  0.465414  0.310630  0.120231  1
  O  O10  1  0.310689  0.465031  0.620017  1
  O  O11  1  0.141751  0.626786  0.125780  1
  O  O12  1  0.373214  0.858249  0.374220  1
  O  O13  1  0.229875  0.066799  0.871411  1
  O  O14  1  0.066455  0.229896  0.371277  1
  O  O15  1  0.770104  0.933545  0.128723  1
  O  O16  1  0.857671  0.372613  0.874818  1
  O  O17  1  0.534969  0.689311  0.879983  1
