# generated using pymatgen
data_Ca3Yb3(BiN)2
_symmetry_space_group_name_H-M   'P 1'
_cell_length_a   6.93758200
_cell_length_b   6.93758128
_cell_length_c   11.57809500
_cell_angle_alpha   90.00000000
_cell_angle_beta   90.00000000
_cell_angle_gamma   119.99999389
_symmetry_Int_Tables_number   1
_chemical_formula_structural   Ca3Yb3(BiN)2
_chemical_formula_sum   'Ca6 Yb6 Bi4 N4'
_cell_volume   482.59629219
_cell_formula_units_Z   2
loop_
 _symmetry_equiv_pos_site_id
 _symmetry_equiv_pos_as_xyz
  1  'x, y, z'
loop_
 _atom_site_type_symbol
 _atom_site_label
 _atom_site_symmetry_multiplicity
 _atom_site_fract_x
 _atom_site_fract_y
 _atom_site_fract_z
 _atom_site_occupancy
  Ca  Ca0  1  0.500000  0.500000  0.000000  1
  Ca  Ca1  1  0.000000  0.500000  0.000000  1
  Ca  Ca2  1  0.500000  0.500000  0.500000  1
  Ca  Ca3  1  0.500000  0.000000  0.000000  1
  Ca  Ca4  1  0.000000  0.500000  0.500000  1
  Ca  Ca5  1  0.500000  0.000000  0.500000  1
  Yb  Yb6  1  0.816099  0.183901  0.750000  1
  Yb  Yb7  1  0.183901  0.816099  0.250000  1
  Yb  Yb8  1  0.367802  0.183901  0.750000  1
  Yb  Yb9  1  0.632198  0.816099  0.250000  1
  Yb  Yb10  1  0.816099  0.632198  0.750000  1
  Yb  Yb11  1  0.183901  0.367802  0.250000  1
  Bi  Bi12  1  0.000000  0.000000  0.000000  1
  Bi  Bi13  1  0.000000  0.000000  0.500000  1
  Bi  Bi14  1  0.666667  0.333333  0.250000  1
  Bi  Bi15  1  0.333333  0.666667  0.750000  1
  N  N16  1  0.666667  0.333333  0.882143  1
  N  N17  1  0.333333  0.666667  0.117857  1
  N  N18  1  0.333333  0.666667  0.382143  1
  N  N19  1  0.666667  0.333333  0.617857  1
