# generated using pymatgen
data_Tb4Al24ZnPd7Pt
_symmetry_space_group_name_H-M   'P 1'
_cell_length_a   7.56313135
_cell_length_b   7.56616692
_cell_length_c   13.15937904
_cell_angle_alpha   84.53683703
_cell_angle_beta   100.99233705
_cell_angle_gamma   119.84541747
_symmetry_Int_Tables_number   1
_chemical_formula_structural   Tb4Al24ZnPd7Pt
_chemical_formula_sum   'Tb4 Al24 Zn1 Pd7 Pt1'
_cell_volume   641.17385864
_cell_formula_units_Z   1
loop_
 _symmetry_equiv_pos_site_id
 _symmetry_equiv_pos_as_xyz
  1  'x, y, z'
loop_
 _atom_site_type_symbol
 _atom_site_label
 _atom_site_symmetry_multiplicity
 _atom_site_fract_x
 _atom_site_fract_y
 _atom_site_fract_z
 _atom_site_occupancy
  Tb  Tb0  1  0.437972  0.828055  0.808080  1
  Tb  Tb1  1  0.562374  0.168317  0.191905  1
  Tb  Tb2  1  0.764892  0.501632  0.807945  1
  Tb  Tb3  1  0.230926  0.498339  0.190899  1
  Al  Al4  1  0.482850  0.165421  0.946009  1
  Al  Al5  1  0.518417  0.833734  0.055430  1
  Al  Al6  1  0.015795  0.161486  0.559633  1
  Al  Al7  1  0.977614  0.834104  0.434413  1
  Al  Al8  1  0.352238  0.839607  0.558181  1
  Al  Al9  1  0.645512  0.166877  0.437255  1
  Al  Al10  1  0.617280  0.836209  0.329363  1
  Al  Al11  1  0.382934  0.162240  0.672995  1
  Al  Al12  1  0.054412  0.491880  0.673271  1
  Al  Al13  1  0.942494  0.506271  0.329293  1
  Al  Al14  1  0.737394  0.845990  0.671464  1
  Al  Al15  1  0.269575  0.159145  0.330720  1
  Al  Al16  1  0.147377  0.500451  0.945465  1
  Al  Al17  1  0.851405  0.500037  0.055434  1
  Al  Al18  1  0.818538  0.833162  0.956057  1
  Al  Al19  1  0.182692  0.166945  0.046106  1
  Al  Al20  1  0.310797  0.499690  0.436181  1
  Al  Al21  1  0.693870  0.499695  0.558331  1
  Al  Al22  1  0.102647  0.835579  0.184313  1
  Al  Al23  1  0.896576  0.164702  0.816601  1
  Al  Al24  1  0.305585  0.366281  0.817348  1
  Al  Al25  1  0.692619  0.631350  0.185606  1
  Al  Al26  1  0.104014  0.958045  0.816278  1
  Al  Al27  1  0.897901  0.041428  0.184599  1
  Zn  Zn28  1  0.391396  0.510702  0.639954  1
  Pd  Pd29  1  0.171132  0.828324  0.999202  1
  Pd  Pd30  1  0.828800  0.171697  0.999844  1
  Pd  Pd31  1  0.294602  0.831592  0.363046  1
  Pd  Pd32  1  0.704904  0.166448  0.636533  1
  Pd  Pd33  1  0.045897  0.825056  0.636279  1
  Pd  Pd34  1  0.955245  0.176130  0.362893  1
  Pd  Pd35  1  0.499881  0.500186  0.999918  1
  Pt  Pt36  1  0.611442  0.493193  0.363152  1
