# generated using pymatgen
data_Tb3YTl4
_symmetry_space_group_name_H-M   'P 1'
_cell_length_a   6.59309959
_cell_length_b   6.59309881
_cell_length_c   10.94869700
_cell_angle_alpha   90.00000000
_cell_angle_beta   90.00000000
_cell_angle_gamma   110.49770830
_symmetry_Int_Tables_number   1
_chemical_formula_structural   Tb3YTl4
_chemical_formula_sum   'Tb6 Y2 Tl8'
_cell_volume   445.79559955
_cell_formula_units_Z   2
loop_
 _symmetry_equiv_pos_site_id
 _symmetry_equiv_pos_as_xyz
  1  'x, y, z'
loop_
 _atom_site_type_symbol
 _atom_site_label
 _atom_site_symmetry_multiplicity
 _atom_site_fract_x
 _atom_site_fract_y
 _atom_site_fract_z
 _atom_site_occupancy
  Tb  Tb0  1  0.500663  0.500663  0.250000  1
  Tb  Tb1  1  0.499337  0.499337  0.750000  1
  Tb  Tb2  1  0.250929  0.749071  0.500000  1
  Tb  Tb3  1  0.250929  0.749071  0.000000  1
  Tb  Tb4  1  0.749071  0.250929  0.500000  1
  Tb  Tb5  1  0.749071  0.250929  0.000000  1
  Y  Y6  1  0.997573  0.997573  0.250000  1
  Y  Y7  1  0.002427  0.002427  0.750000  1
  Tl  Tl8  1  0.247615  0.247615  0.001119  1
  Tl  Tl9  1  0.752385  0.752385  0.998881  1
  Tl  Tl10  1  0.247615  0.247615  0.498881  1
  Tl  Tl11  1  0.752385  0.752385  0.501119  1
  Tl  Tl12  1  0.497499  0.000848  0.250000  1
  Tl  Tl13  1  0.999152  0.502501  0.750000  1
  Tl  Tl14  1  0.502501  0.999152  0.750000  1
  Tl  Tl15  1  0.000848  0.497499  0.250000  1
