# generated using pymatgen
data_Ce8Fe3Si12Ru
_symmetry_space_group_name_H-M   'P 1'
_cell_length_a   8.14399000
_cell_length_b   8.14398930
_cell_length_c   8.09788800
_cell_angle_alpha   90.00000000
_cell_angle_beta   90.00000000
_cell_angle_gamma   119.99999471
_symmetry_Int_Tables_number   1
_chemical_formula_structural   Ce8Fe3Si12Ru
_chemical_formula_sum   'Ce8 Fe3 Si12 Ru1'
_cell_volume   465.13267254
_cell_formula_units_Z   1
loop_
 _symmetry_equiv_pos_site_id
 _symmetry_equiv_pos_as_xyz
  1  'x, y, z'
loop_
 _atom_site_type_symbol
 _atom_site_label
 _atom_site_symmetry_multiplicity
 _atom_site_fract_x
 _atom_site_fract_y
 _atom_site_fract_z
 _atom_site_occupancy
  Ce  Ce0  1  0.000000  0.000000  0.250770  1
  Ce  Ce1  1  0.000000  0.000000  0.749415  1
  Ce  Ce2  1  0.499165  0.500835  0.250460  1
  Ce  Ce3  1  0.499165  0.998329  0.250460  1
  Ce  Ce4  1  0.001671  0.500835  0.250460  1
  Ce  Ce5  1  0.500166  0.499834  0.750099  1
  Ce  Ce6  1  0.500166  0.000333  0.750099  1
  Ce  Ce7  1  0.999667  0.499834  0.750099  1
  Fe  Fe8  1  0.333333  0.666667  0.490680  1
  Fe  Fe9  1  0.666667  0.333333  0.523161  1
  Fe  Fe10  1  0.666667  0.333333  0.978947  1
  Si  Si11  1  0.169279  0.830721  0.501805  1
  Si  Si12  1  0.169279  0.338560  0.501805  1
  Si  Si13  1  0.661440  0.830721  0.501805  1
  Si  Si14  1  0.830367  0.169633  0.497231  1
  Si  Si15  1  0.830367  0.660732  0.497231  1
  Si  Si16  1  0.339268  0.169633  0.497231  1
  Si  Si17  1  0.829857  0.170143  0.003124  1
  Si  Si18  1  0.829857  0.659713  0.003124  1
  Si  Si19  1  0.340287  0.170143  0.003124  1
  Si  Si20  1  0.164710  0.835290  0.998368  1
  Si  Si21  1  0.164710  0.329422  0.998368  1
  Si  Si22  1  0.670578  0.835290  0.998368  1
  Ru  Ru23  1  0.333333  0.666667  0.003764  1
