# generated using pymatgen
data_Gd6InRhO12
_symmetry_space_group_name_H-M   'P 1'
_cell_length_a   6.69807720
_cell_length_b   6.69807745
_cell_length_c   6.69807711
_cell_angle_alpha   93.98959383
_cell_angle_beta   93.98960123
_cell_angle_gamma   93.98960943
_symmetry_Int_Tables_number   1
_chemical_formula_structural   Gd6InRhO12
_chemical_formula_sum   'Gd6 In1 Rh1 O12'
_cell_volume   298.21219533
_cell_formula_units_Z   1
loop_
 _symmetry_equiv_pos_site_id
 _symmetry_equiv_pos_as_xyz
  1  'x, y, z'
loop_
 _atom_site_type_symbol
 _atom_site_label
 _atom_site_symmetry_multiplicity
 _atom_site_fract_x
 _atom_site_fract_y
 _atom_site_fract_z
 _atom_site_occupancy
  Gd  Gd0  1  0.567722  0.080650  0.261200  1
  Gd  Gd1  1  0.080650  0.261200  0.567722  1
  Gd  Gd2  1  0.738800  0.432278  0.919350  1
  Gd  Gd3  1  0.261200  0.567722  0.080650  1
  Gd  Gd4  1  0.919350  0.738800  0.432278  1
  Gd  Gd5  1  0.432278  0.919350  0.738800  1
  In  In6  1  0.000000  0.000000  0.000000  1
  Rh  Rh7  1  0.500000  0.500000  0.500000  1
  O  O8  1  0.688071  0.085019  0.932895  1
  O  O9  1  0.914981  0.067105  0.311929  1
  O  O10  1  0.413054  0.198487  0.542604  1
  O  O11  1  0.067105  0.311929  0.914981  1
  O  O12  1  0.542604  0.413054  0.198487  1
  O  O13  1  0.801513  0.457396  0.586946  1
  O  O14  1  0.198487  0.542604  0.413054  1
  O  O15  1  0.457396  0.586946  0.801513  1
  O  O16  1  0.932895  0.688071  0.085019  1
  O  O17  1  0.586946  0.801513  0.457396  1
  O  O18  1  0.085019  0.932895  0.688071  1
  O  O19  1  0.311929  0.914981  0.067105  1
