# generated using pymatgen
data_Dy3ErAl24Ir2Pt7
_symmetry_space_group_name_H-M   'P 1'
_cell_length_a   7.51518316
_cell_length_b   7.51445851
_cell_length_c   13.17836207
_cell_angle_alpha   84.52295061
_cell_angle_beta   100.91110685
_cell_angle_gamma   119.77952492
_symmetry_Int_Tables_number   1
_chemical_formula_structural   Dy3ErAl24Ir2Pt7
_chemical_formula_sum   'Dy3 Er1 Al24 Ir2 Pt7'
_cell_volume   634.25849043
_cell_formula_units_Z   1
loop_
 _symmetry_equiv_pos_site_id
 _symmetry_equiv_pos_as_xyz
  1  'x, y, z'
loop_
 _atom_site_type_symbol
 _atom_site_label
 _atom_site_symmetry_multiplicity
 _atom_site_fract_x
 _atom_site_fract_y
 _atom_site_fract_z
 _atom_site_occupancy
  Dy  Dy0  1  0.731980  0.998608  0.190200  1
  Dy  Dy1  1  0.267211  0.001305  0.809685  1
  Dy  Dy2  1  0.062153  0.668859  0.190608  1
  Er  Er3  1  0.938392  0.331575  0.809548  1
  Al  Al4  1  0.810199  0.870503  0.817676  1
  Al  Al5  1  0.190404  0.128951  0.182300  1
  Al  Al6  1  0.985242  0.668760  0.946246  1
  Al  Al7  1  0.020111  0.334313  0.053333  1
  Al  Al8  1  0.396316  0.662925  0.818875  1
  Al  Al9  1  0.601656  0.335674  0.182679  1
  Al  Al10  1  0.882524  0.664862  0.673161  1
  Al  Al11  1  0.117518  0.334764  0.326257  1
  Al  Al12  1  0.603409  0.458249  0.816872  1
  Al  Al13  1  0.397288  0.543782  0.181541  1
  Al  Al14  1  0.230784  0.340211  0.671016  1
  Al  Al15  1  0.769254  0.659824  0.329120  1
  Al  Al16  1  0.853464  0.333574  0.559287  1
  Al  Al17  1  0.186537  0.999517  0.559124  1
  Al  Al18  1  0.814032  0.000048  0.440849  1
  Al  Al19  1  0.348830  0.996505  0.053717  1
  Al  Al20  1  0.648166  0.998224  0.946598  1
  Al  Al21  1  0.556978  0.992439  0.673712  1
  Al  Al22  1  0.443531  0.007437  0.326805  1
  Al  Al23  1  0.521602  0.668620  0.561764  1
  Al  Al24  1  0.478341  0.331642  0.438060  1
  Al  Al25  1  0.682289  0.671114  0.042982  1
  Al  Al26  1  0.314291  0.332203  0.956954  1
  Al  Al27  1  0.146828  0.665824  0.440974  1
  Ir  Ir28  1  0.328499  0.671286  0.999926  1
  Ir  Ir29  1  0.999790  0.000358  0.999902  1
  Pt  Pt30  1  0.545993  0.324509  0.637053  1
  Pt  Pt31  1  0.454212  0.674995  0.362686  1
  Pt  Pt32  1  0.887865  0.008488  0.638499  1
  Pt  Pt33  1  0.112253  0.991620  0.361633  1
  Pt  Pt34  1  0.671577  0.328558  0.999920  1
  Pt  Pt35  1  0.204066  0.666850  0.638705  1
  Pt  Pt36  1  0.796412  0.333023  0.361734  1
