# generated using pymatgen
data_Cs4Dy11YS20
_symmetry_space_group_name_H-M   'P 1'
_cell_length_a   4.00995200
_cell_length_b   12.01273900
_cell_length_c   21.41458700
_cell_angle_alpha   90.00034294
_cell_angle_beta   90.00000000
_cell_angle_gamma   90.00000000
_symmetry_Int_Tables_number   1
_chemical_formula_structural   Cs4Dy11YS20
_chemical_formula_sum   'Cs4 Dy11 Y1 S20'
_cell_volume   1031.55150823
_cell_formula_units_Z   1
loop_
 _symmetry_equiv_pos_site_id
 _symmetry_equiv_pos_as_xyz
  1  'x, y, z'
loop_
 _atom_site_type_symbol
 _atom_site_label
 _atom_site_symmetry_multiplicity
 _atom_site_fract_x
 _atom_site_fract_y
 _atom_site_fract_z
 _atom_site_occupancy
  Cs  Cs0  1  0.250000  0.854123  0.092929  1
  Cs  Cs1  1  0.750000  0.145884  0.907077  1
  Cs  Cs2  1  0.750000  0.354117  0.407075  1
  Cs  Cs3  1  0.250000  0.645876  0.592926  1
  Dy  Dy4  1  0.250000  0.202512  0.174547  1
  Dy  Dy5  1  0.250000  0.297479  0.674545  1
  Dy  Dy6  1  0.750000  0.702513  0.325452  1
  Dy  Dy7  1  0.250000  0.957808  0.697538  1
  Dy  Dy8  1  0.750000  0.042175  0.302513  1
  Dy  Dy9  1  0.750000  0.457823  0.802510  1
  Dy  Dy10  1  0.250000  0.542176  0.197489  1
  Dy  Dy11  1  0.750000  0.390947  0.052971  1
  Dy  Dy12  1  0.250000  0.609044  0.947006  1
  Dy  Dy13  1  0.250000  0.890956  0.447028  1
  Dy  Dy14  1  0.750000  0.109049  0.552976  1
  Y  Y15  1  0.750000  0.797349  0.825459  1
  S  S16  1  0.250000  0.951267  0.568723  1
  S  S17  1  0.750000  0.048731  0.431266  1
  S  S18  1  0.750000  0.451263  0.931270  1
  S  S19  1  0.250000  0.548736  0.068730  1
  S  S20  1  0.750000  0.761857  0.951509  1
  S  S21  1  0.250000  0.238133  0.048562  1
  S  S22  1  0.250000  0.261872  0.548561  1
  S  S23  1  0.750000  0.738129  0.451438  1
  S  S24  1  0.250000  0.946734  0.824285  1
  S  S25  1  0.750000  0.053591  0.175696  1
  S  S26  1  0.750000  0.446412  0.675701  1
  S  S27  1  0.250000  0.553594  0.324300  1
  S  S28  1  0.750000  0.126073  0.682761  1
  S  S29  1  0.250000  0.873935  0.317231  1
  S  S30  1  0.250000  0.625889  0.817240  1
  S  S31  1  0.750000  0.373938  0.182765  1
  S  S32  1  0.750000  0.689702  0.198775  1
  S  S33  1  0.250000  0.310308  0.801223  1
  S  S34  1  0.250000  0.189700  0.301221  1
  S  S35  1  0.750000  0.810307  0.698698  1
