# generated using pymatgen
data_Dy4YAg2B4Rh13
_symmetry_space_group_name_H-M   'P 1'
_cell_length_a   4.20928500
_cell_length_b   4.20928500
_cell_length_c   21.01714200
_cell_angle_alpha   90.00000000
_cell_angle_beta   90.00000000
_cell_angle_gamma   90.00000000
_symmetry_Int_Tables_number   1
_chemical_formula_structural   Dy4YAg2B4Rh13
_chemical_formula_sum   'Dy4 Y1 Ag2 B4 Rh13'
_cell_volume   372.38340777
_cell_formula_units_Z   1
loop_
 _symmetry_equiv_pos_site_id
 _symmetry_equiv_pos_as_xyz
  1  'x, y, z'
loop_
 _atom_site_type_symbol
 _atom_site_label
 _atom_site_symmetry_multiplicity
 _atom_site_fract_x
 _atom_site_fract_y
 _atom_site_fract_z
 _atom_site_occupancy
  Dy  Dy0  1  0.000000  0.000000  0.892142  1
  Dy  Dy1  1  0.000000  0.000000  0.107858  1
  Dy  Dy2  1  0.000000  0.000000  0.300864  1
  Dy  Dy3  1  0.000000  0.000000  0.699136  1
  Y  Y4  1  0.000000  0.000000  0.500000  1
  Ag  Ag5  1  0.500000  0.000000  0.000000  1
  Ag  Ag6  1  0.000000  0.500000  0.000000  1
  B  B7  1  0.500000  0.500000  0.194231  1
  B  B8  1  0.500000  0.500000  0.399105  1
  B  B9  1  0.500000  0.500000  0.600895  1
  B  B10  1  0.500000  0.500000  0.805769  1
  Rh  Rh11  1  0.500000  0.500000  0.903024  1
  Rh  Rh12  1  0.500000  0.500000  0.096976  1
  Rh  Rh13  1  0.500000  0.500000  0.299139  1
  Rh  Rh14  1  0.500000  0.500000  0.500000  1
  Rh  Rh15  1  0.500000  0.500000  0.700861  1
  Rh  Rh16  1  0.500000  0.000000  0.201876  1
  Rh  Rh17  1  0.500000  0.000000  0.399640  1
  Rh  Rh18  1  0.500000  0.000000  0.600360  1
  Rh  Rh19  1  0.500000  0.000000  0.798124  1
  Rh  Rh20  1  0.000000  0.500000  0.201876  1
  Rh  Rh21  1  0.000000  0.500000  0.399640  1
  Rh  Rh22  1  0.000000  0.500000  0.600360  1
  Rh  Rh23  1  0.000000  0.500000  0.798124  1
