# generated using pymatgen
data_LaLu(Si7Rh3)2
_symmetry_space_group_name_H-M   'P 1'
_cell_length_a   8.02390584
_cell_length_b   8.02390634
_cell_length_c   8.02390800
_cell_angle_alpha   57.06225628
_cell_angle_beta   57.06225396
_cell_angle_gamma   57.06225426
_symmetry_Int_Tables_number   1
_chemical_formula_structural   LaLu(Si7Rh3)2
_chemical_formula_sum   'La1 Lu1 Si14 Rh6'
_cell_volume   340.55754261
_cell_formula_units_Z   1
loop_
 _symmetry_equiv_pos_site_id
 _symmetry_equiv_pos_as_xyz
  1  'x, y, z'
loop_
 _atom_site_type_symbol
 _atom_site_label
 _atom_site_symmetry_multiplicity
 _atom_site_fract_x
 _atom_site_fract_y
 _atom_site_fract_z
 _atom_site_occupancy
  La  La0  1  0.500000  0.500000  0.500000  1
  Lu  Lu1  1  0.000000  0.000000  0.000000  1
  Si  Si2  1  0.749880  0.749880  0.749880  1
  Si  Si3  1  0.250120  0.250120  0.250120  1
  Si  Si4  1  0.853418  0.062451  0.673736  1
  Si  Si5  1  0.673736  0.853418  0.062451  1
  Si  Si6  1  0.062451  0.673736  0.853418  1
  Si  Si7  1  0.650353  0.829023  0.434083  1
  Si  Si8  1  0.434083  0.650353  0.829023  1
  Si  Si9  1  0.829023  0.434083  0.650353  1
  Si  Si10  1  0.170977  0.565917  0.349647  1
  Si  Si11  1  0.565917  0.349647  0.170977  1
  Si  Si12  1  0.349647  0.170977  0.565917  1
  Si  Si13  1  0.937549  0.326264  0.146582  1
  Si  Si14  1  0.326264  0.146582  0.937549  1
  Si  Si15  1  0.146582  0.937549  0.326264  1
  Rh  Rh16  1  0.066524  0.428489  0.753077  1
  Rh  Rh17  1  0.246923  0.933476  0.571511  1
  Rh  Rh18  1  0.571511  0.246923  0.933476  1
  Rh  Rh19  1  0.933476  0.571511  0.246923  1
  Rh  Rh20  1  0.428489  0.753077  0.066524  1
  Rh  Rh21  1  0.753077  0.066524  0.428489  1
