# generated using pymatgen
data_Tb3ErGa4(IrPd)2
_symmetry_space_group_name_H-M   'P 1'
_cell_length_a   4.42737100
_cell_length_b   6.88217540
_cell_length_c   7.70417158
_cell_angle_alpha   89.69411044
_cell_angle_beta   90.00000000
_cell_angle_gamma   90.00000000
_symmetry_Int_Tables_number   1
_chemical_formula_structural   Tb3ErGa4(IrPd)2
_chemical_formula_sum   'Tb3 Er1 Ga4 Ir2 Pd2'
_cell_volume   234.74232961
_cell_formula_units_Z   1
loop_
 _symmetry_equiv_pos_site_id
 _symmetry_equiv_pos_as_xyz
  1  'x, y, z'
loop_
 _atom_site_type_symbol
 _atom_site_label
 _atom_site_symmetry_multiplicity
 _atom_site_fract_x
 _atom_site_fract_y
 _atom_site_fract_z
 _atom_site_occupancy
  Tb  Tb0  1  0.250000  0.984695  0.303619  1
  Tb  Tb1  1  0.750000  0.026217  0.687698  1
  Tb  Tb2  1  0.750000  0.524857  0.813585  1
  Er  Er3  1  0.250000  0.484389  0.195993  1
  Ga  Ga4  1  0.250000  0.334151  0.568656  1
  Ga  Ga5  1  0.250000  0.832703  0.930970  1
  Ga  Ga6  1  0.750000  0.659659  0.426135  1
  Ga  Ga7  1  0.750000  0.161645  0.073296  1
  Ir  Ir8  1  0.750000  0.771197  0.105249  1
  Ir  Ir9  1  0.750000  0.274753  0.393043  1
  Pd  Pd10  1  0.250000  0.223615  0.896937  1
  Pd  Pd11  1  0.250000  0.722121  0.604818  1
