# generated using pymatgen
data_Tb3Mg(Ni4As3)2
_symmetry_space_group_name_H-M   'P 1'
_cell_length_a   3.93585300
_cell_length_b   11.07242700
_cell_length_c   12.83296000
_cell_angle_alpha   90.00000000
_cell_angle_beta   90.00000000
_cell_angle_gamma   90.00000000
_symmetry_Int_Tables_number   1
_chemical_formula_structural   Tb3Mg(Ni4As3)2
_chemical_formula_sum   'Tb6 Mg2 Ni16 As12'
_cell_volume   559.25327483
_cell_formula_units_Z   2
loop_
 _symmetry_equiv_pos_site_id
 _symmetry_equiv_pos_as_xyz
  1  'x, y, z'
loop_
 _atom_site_type_symbol
 _atom_site_label
 _atom_site_symmetry_multiplicity
 _atom_site_fract_x
 _atom_site_fract_y
 _atom_site_fract_z
 _atom_site_occupancy
  Tb  Tb0  1  0.000000  0.500000  0.527398  1
  Tb  Tb1  1  0.500000  0.000000  0.472602  1
  Tb  Tb2  1  0.500000  0.820936  0.205855  1
  Tb  Tb3  1  0.500000  0.179064  0.205855  1
  Tb  Tb4  1  0.000000  0.679064  0.794145  1
  Tb  Tb5  1  0.000000  0.320936  0.794145  1
  Mg  Mg6  1  0.500000  0.500000  0.152819  1
  Mg  Mg7  1  0.000000  0.000000  0.847181  1
  Ni  Ni8  1  0.500000  0.500000  0.700517  1
  Ni  Ni9  1  0.000000  0.000000  0.299483  1
  Ni  Ni10  1  0.000000  0.500000  0.985757  1
  Ni  Ni11  1  0.500000  0.000000  0.014243  1
  Ni  Ni12  1  0.500000  0.334091  0.997303  1
  Ni  Ni13  1  0.500000  0.665909  0.997303  1
  Ni  Ni14  1  0.000000  0.165909  0.002697  1
  Ni  Ni15  1  0.000000  0.834091  0.002697  1
  Ni  Ni16  1  0.500000  0.299558  0.429803  1
  Ni  Ni17  1  0.500000  0.700442  0.429803  1
  Ni  Ni18  1  0.000000  0.200442  0.570197  1
  Ni  Ni19  1  0.000000  0.799558  0.570197  1
  Ni  Ni20  1  0.500000  0.881519  0.707085  1
  Ni  Ni21  1  0.500000  0.118481  0.707085  1
  Ni  Ni22  1  0.000000  0.618481  0.292915  1
  Ni  Ni23  1  0.000000  0.381519  0.292915  1
  As  As24  1  0.500000  0.500000  0.879294  1
  As  As25  1  0.000000  0.000000  0.120706  1
  As  As26  1  0.500000  0.500000  0.357212  1
  As  As27  1  0.000000  0.000000  0.642788  1
  As  As28  1  0.500000  0.313115  0.615386  1
  As  As29  1  0.500000  0.686885  0.615386  1
  As  As30  1  0.000000  0.186885  0.384614  1
  As  As31  1  0.000000  0.813115  0.384614  1
  As  As32  1  0.500000  0.838425  0.892489  1
  As  As33  1  0.500000  0.161575  0.892489  1
  As  As34  1  0.000000  0.661575  0.107511  1
  As  As35  1  0.000000  0.338425  0.107511  1
