# generated using pymatgen
data_TbY3Al18(PdRh2)2
_symmetry_space_group_name_H-M   'P 1'
_cell_length_a   7.59343206
_cell_length_b   7.59360945
_cell_length_c   9.48928501
_cell_angle_alpha   89.96133235
_cell_angle_beta   89.95863294
_cell_angle_gamma   119.55482162
_symmetry_Int_Tables_number   1
_chemical_formula_structural   TbY3Al18(PdRh2)2
_chemical_formula_sum   'Tb1 Y3 Al18 Pd2 Rh4'
_cell_volume   475.97139453
_cell_formula_units_Z   1
loop_
 _symmetry_equiv_pos_site_id
 _symmetry_equiv_pos_as_xyz
  1  'x, y, z'
loop_
 _atom_site_type_symbol
 _atom_site_label
 _atom_site_symmetry_multiplicity
 _atom_site_fract_x
 _atom_site_fract_y
 _atom_site_fract_z
 _atom_site_occupancy
  Tb  Tb0  1  0.995128  0.669863  0.250560  1
  Y  Y1  1  0.004861  0.330107  0.749404  1
  Y  Y2  1  0.669884  0.995149  0.250599  1
  Y  Y3  1  0.330122  0.004878  0.749404  1
  Al  Al4  1  0.126584  0.126590  0.251345  1
  Al  Al5  1  0.873448  0.873454  0.748659  1
  Al  Al6  1  0.001466  0.331162  0.077776  1
  Al  Al7  1  0.998528  0.668810  0.922206  1
  Al  Al8  1  0.000642  0.665341  0.574210  1
  Al  Al9  1  0.334693  0.999383  0.425825  1
  Al  Al10  1  0.999355  0.334629  0.425829  1
  Al  Al11  1  0.665340  0.000647  0.574187  1
  Al  Al12  1  0.668812  0.998535  0.922226  1
  Al  Al13  1  0.331223  0.001496  0.077775  1
  Al  Al14  1  0.331949  0.331954  0.548802  1
  Al  Al15  1  0.668024  0.668046  0.451216  1
  Al  Al16  1  0.668933  0.668956  0.056137  1
  Al  Al17  1  0.331041  0.331039  0.943853  1
  Al  Al18  1  0.340489  0.547608  0.254081  1
  Al  Al19  1  0.659516  0.452359  0.745922  1
  Al  Al20  1  0.547598  0.340478  0.254079  1
  Al  Al21  1  0.452372  0.659522  0.745924  1
  Pd  Pd22  1  0.672360  0.327598  0.999985  1
  Pd  Pd23  1  0.327639  0.672380  0.999986  1
  Rh  Rh24  1  0.328001  0.672011  0.500012  1
  Rh  Rh25  1  0.672000  0.327976  0.500010  1
  Rh  Rh26  1  0.999993  0.000029  0.999977  1
  Rh  Rh27  1  0.000000  0.000001  0.500011  1
