# generated using pymatgen
data_SrSmHoGa8Ag3
_symmetry_space_group_name_H-M   'P 1'
_cell_length_a   4.39970046
_cell_length_b   8.52548354
_cell_length_c   8.52548407
_cell_angle_alpha   68.53469768
_cell_angle_beta   75.04666689
_cell_angle_gamma   75.04666466
_symmetry_Int_Tables_number   1
_chemical_formula_structural   SrSmHoGa8Ag3
_chemical_formula_sum   'Sr1 Sm1 Ho1 Ga8 Ag3'
_cell_volume   282.72831363
_cell_formula_units_Z   1
loop_
 _symmetry_equiv_pos_site_id
 _symmetry_equiv_pos_as_xyz
  1  'x, y, z'
loop_
 _atom_site_type_symbol
 _atom_site_label
 _atom_site_symmetry_multiplicity
 _atom_site_fract_x
 _atom_site_fract_y
 _atom_site_fract_z
 _atom_site_occupancy
  Sr  Sr0  1  0.500621  0.499379  0.499379  1
  Sm  Sm1  1  0.200201  0.799799  0.799799  1
  Ho  Ho2  1  0.800435  0.199565  0.199565  1
  Ga  Ga3  1  0.353702  0.361926  0.930668  1
  Ga  Ga4  1  0.646228  0.635378  0.072168  1
  Ga  Ga5  1  0.353702  0.930668  0.361926  1
  Ga  Ga6  1  0.646228  0.072168  0.635378  1
  Ga  Ga7  1  0.163295  0.470322  0.203088  1
  Ga  Ga8  1  0.837831  0.527181  0.797157  1
  Ga  Ga9  1  0.163295  0.203088  0.470322  1
  Ga  Ga10  1  0.837831  0.797157  0.527181  1
  Ag  Ag11  1  0.498821  0.001179  0.001179  1
  Ag  Ag12  1  0.998905  0.809376  0.192814  1
  Ag  Ag13  1  0.998905  0.192814  0.809376  1
