# generated using pymatgen
data_Y12Co4SnRu
_symmetry_space_group_name_H-M   'P 1'
_cell_length_a   8.33896255
_cell_length_b   8.33896246
_cell_length_c   8.33896319
_cell_angle_alpha   111.26890823
_cell_angle_beta   110.59982602
_cell_angle_gamma   106.58369523
_symmetry_Int_Tables_number   1
_chemical_formula_structural   Y12Co4SnRu
_chemical_formula_sum   'Y12 Co4 Sn1 Ru1'
_cell_volume   445.52880359
_cell_formula_units_Z   1
loop_
 _symmetry_equiv_pos_site_id
 _symmetry_equiv_pos_as_xyz
  1  'x, y, z'
loop_
 _atom_site_type_symbol
 _atom_site_label
 _atom_site_symmetry_multiplicity
 _atom_site_fract_x
 _atom_site_fract_y
 _atom_site_fract_z
 _atom_site_occupancy
  Y  Y0  1  0.407637  0.214022  0.193615  1
  Y  Y1  1  0.592363  0.785978  0.806385  1
  Y  Y2  1  0.020407  0.214022  0.806385  1
  Y  Y3  1  0.979593  0.785978  0.193615  1
  Y  Y4  1  0.184622  0.287448  0.472071  1
  Y  Y5  1  0.815378  0.712552  0.527929  1
  Y  Y6  1  0.184622  0.712552  0.897174  1
  Y  Y7  1  0.815378  0.287448  0.102826  1
  Y  Y8  1  0.312747  0.618833  0.306086  1
  Y  Y9  1  0.687253  0.381167  0.693914  1
  Y  Y10  1  0.312747  0.006661  0.693914  1
  Y  Y11  1  0.687253  0.993339  0.306086  1
  Co  Co12  1  0.380307  0.000000  0.380307  1
  Co  Co13  1  0.619693  0.000000  0.619693  1
  Co  Co14  1  0.110293  0.610293  0.500000  1
  Co  Co15  1  0.889707  0.389707  0.500000  1
  Sn  Sn16  1  0.500000  0.500000  0.000000  1
  Ru  Ru17  1  0.000000  0.000000  0.000000  1
