# generated using pymatgen
data_YbIrRh3Pb3O14
_symmetry_space_group_name_H-M   'P 1'
_cell_length_a   7.28324446
_cell_length_b   7.26522572
_cell_length_c   7.26073400
_cell_angle_alpha   60.02044940
_cell_angle_beta   60.10218760
_cell_angle_gamma   60.18439150
_symmetry_Int_Tables_number   1
_chemical_formula_structural   YbIrRh3Pb3O14
_chemical_formula_sum   'Yb1 Ir1 Rh3 Pb3 O14'
_cell_volume   272.29750377
_cell_formula_units_Z   1
loop_
 _symmetry_equiv_pos_site_id
 _symmetry_equiv_pos_as_xyz
  1  'x, y, z'
loop_
 _atom_site_type_symbol
 _atom_site_label
 _atom_site_symmetry_multiplicity
 _atom_site_fract_x
 _atom_site_fract_y
 _atom_site_fract_z
 _atom_site_occupancy
  Yb  Yb0  1  0.625000  0.125000  0.125000  1
  Ir  Ir1  1  0.625000  0.125000  0.625000  1
  Rh  Rh2  1  0.125000  0.625000  0.625000  1
  Rh  Rh3  1  0.625000  0.625000  0.125000  1
  Rh  Rh4  1  0.625000  0.625000  0.625000  1
  Pb  Pb5  1  0.125000  0.625000  0.125000  1
  Pb  Pb6  1  0.125000  0.125000  0.625000  1
  Pb  Pb7  1  0.125000  0.125000  0.125000  1
  O  O8  1  0.711034  0.706432  0.291267  1
  O  O9  1  0.294706  0.292429  0.706433  1
  O  O10  1  0.710161  0.293929  0.695624  1
  O  O11  1  0.291542  0.709866  0.292602  1
  O  O12  1  0.291542  0.709866  0.705990  1
  O  O13  1  0.710161  0.293929  0.300285  1
  O  O14  1  0.538966  0.543568  0.958733  1
  O  O15  1  0.955294  0.957571  0.543567  1
  O  O16  1  0.539839  0.956071  0.554376  1
  O  O17  1  0.958458  0.540134  0.957398  1
  O  O18  1  0.958458  0.540134  0.544010  1
  O  O19  1  0.539839  0.956071  0.949715  1
  O  O20  1  0.252815  0.247529  0.249828  1
  O  O21  1  0.997185  0.002471  0.000172  1
