# generated using pymatgen
data_Sm2Y4Si5GeRh12
_symmetry_space_group_name_H-M   'P 1'
_cell_length_a   5.60757200
_cell_length_b   5.60757167
_cell_length_c   15.13991800
_cell_angle_alpha   90.00000000
_cell_angle_beta   90.00000000
_cell_angle_gamma   119.99999016
_symmetry_Int_Tables_number   1
_chemical_formula_structural   Sm2Y4Si5GeRh12
_chemical_formula_sum   'Sm2 Y4 Si5 Ge1 Rh12'
_cell_volume   412.29103279
_cell_formula_units_Z   1
loop_
 _symmetry_equiv_pos_site_id
 _symmetry_equiv_pos_as_xyz
  1  'x, y, z'
loop_
 _atom_site_type_symbol
 _atom_site_label
 _atom_site_symmetry_multiplicity
 _atom_site_fract_x
 _atom_site_fract_y
 _atom_site_fract_z
 _atom_site_occupancy
  Sm  Sm0  1  0.666667  0.333333  0.750544  1
  Sm  Sm1  1  0.333333  0.666667  0.249456  1
  Y  Y2  1  0.666667  0.333333  0.963497  1
  Y  Y3  1  0.666667  0.333333  0.536992  1
  Y  Y4  1  0.333333  0.666667  0.036503  1
  Y  Y5  1  0.333333  0.666667  0.463008  1
  Si  Si6  1  0.666667  0.333333  0.248799  1
  Si  Si7  1  0.000000  0.000000  0.249159  1
  Si  Si8  1  0.000000  0.000000  0.750841  1
  Si  Si9  1  0.333333  0.666667  0.751201  1
  Si  Si10  1  0.000000  0.000000  0.000000  1
  Ge  Ge11  1  0.000000  0.000000  0.500000  1
  Rh  Rh12  1  0.166378  0.332757  0.869555  1
  Rh  Rh13  1  0.167483  0.334966  0.633417  1
  Rh  Rh14  1  0.667243  0.833622  0.869555  1
  Rh  Rh15  1  0.334966  0.167483  0.366583  1
  Rh  Rh16  1  0.832517  0.665034  0.366583  1
  Rh  Rh17  1  0.832517  0.167483  0.366583  1
  Rh  Rh18  1  0.833622  0.166378  0.130445  1
  Rh  Rh19  1  0.332757  0.166378  0.130445  1
  Rh  Rh20  1  0.665034  0.832517  0.633417  1
  Rh  Rh21  1  0.167483  0.832517  0.633417  1
  Rh  Rh22  1  0.833622  0.667243  0.130445  1
  Rh  Rh23  1  0.166378  0.833622  0.869555  1
