# generated using pymatgen
data_La19Ho(Ga2Sn)4
_symmetry_space_group_name_H-M   'P 1'
_cell_length_a   8.18249400
_cell_length_b   8.18249400
_cell_length_c   14.84438300
_cell_angle_alpha   90.00000000
_cell_angle_beta   90.00000000
_cell_angle_gamma   90.00000000
_symmetry_Int_Tables_number   1
_chemical_formula_structural   La19Ho(Ga2Sn)4
_chemical_formula_sum   'La19 Ho1 Ga8 Sn4'
_cell_volume   993.87906352
_cell_formula_units_Z   1
loop_
 _symmetry_equiv_pos_site_id
 _symmetry_equiv_pos_as_xyz
  1  'x, y, z'
loop_
 _atom_site_type_symbol
 _atom_site_label
 _atom_site_symmetry_multiplicity
 _atom_site_fract_x
 _atom_site_fract_y
 _atom_site_fract_z
 _atom_site_occupancy
  La  La0  1  0.339106  0.320090  0.105839  1
  La  La1  1  0.837547  0.824376  0.893438  1
  La  La2  1  0.000000  0.500000  0.221883  1
  La  La3  1  0.837182  0.177050  0.394071  1
  La  La4  1  0.162453  0.175624  0.893438  1
  La  La5  1  0.660894  0.679910  0.105839  1
  La  La6  1  0.000000  0.500000  0.722241  1
  La  La7  1  0.826917  0.837151  0.607898  1
  La  La8  1  0.322950  0.337182  0.394071  1
  La  La9  1  0.179910  0.839106  0.105839  1
  La  La10  1  0.173083  0.162849  0.607898  1
  La  La11  1  0.820090  0.160894  0.105839  1
  La  La12  1  0.337151  0.673083  0.607898  1
  La  La13  1  0.500000  0.000000  0.284531  1
  La  La14  1  0.675624  0.337547  0.893438  1
  La  La15  1  0.662849  0.326917  0.607898  1
  La  La16  1  0.324376  0.662453  0.893438  1
  La  La17  1  0.162818  0.822950  0.394071  1
  La  La18  1  0.677050  0.662818  0.394071  1
  Ho  Ho19  1  0.500000  0.000000  0.763678  1
  Ga  Ga20  1  0.620794  0.378855  0.249765  1
  Ga  Ga21  1  0.871436  0.120444  0.751942  1
  Ga  Ga22  1  0.878855  0.879206  0.249765  1
  Ga  Ga23  1  0.128564  0.879556  0.751942  1
  Ga  Ga24  1  0.379556  0.371436  0.751942  1
  Ga  Ga25  1  0.121145  0.120794  0.249765  1
  Ga  Ga26  1  0.379206  0.621145  0.249765  1
  Ga  Ga27  1  0.620444  0.628564  0.751942  1
  Sn  Sn28  1  0.500000  0.000000  0.506012  1
  Sn  Sn29  1  0.000000  0.500000  0.001799  1
  Sn  Sn30  1  0.500000  0.000000  0.986527  1
  Sn  Sn31  1  0.000000  0.500000  0.501517  1
