# generated using pymatgen
data_Tl3AsRhBr9
_symmetry_space_group_name_H-M   'P 1'
_cell_length_a   7.44397900
_cell_length_b   7.44397882
_cell_length_c   19.32662200
_cell_angle_alpha   90.00000000
_cell_angle_beta   90.00000000
_cell_angle_gamma   119.99999636
_symmetry_Int_Tables_number   1
_chemical_formula_structural   Tl3AsRhBr9
_chemical_formula_sum   'Tl6 As2 Rh2 Br18'
_cell_volume   927.46358792
_cell_formula_units_Z   2
loop_
 _symmetry_equiv_pos_site_id
 _symmetry_equiv_pos_as_xyz
  1  'x, y, z'
loop_
 _atom_site_type_symbol
 _atom_site_label
 _atom_site_symmetry_multiplicity
 _atom_site_fract_x
 _atom_site_fract_y
 _atom_site_fract_z
 _atom_site_occupancy
  Tl  Tl0  1  0.666667  0.333333  0.916300  1
  Tl  Tl1  1  0.333333  0.666667  0.416300  1
  Tl  Tl2  1  0.666667  0.333333  0.547774  1
  Tl  Tl3  1  0.333333  0.666667  0.047774  1
  Tl  Tl4  1  0.000000  0.000000  0.770742  1
  Tl  Tl5  1  0.000000  0.000000  0.270742  1
  As  As6  1  0.333333  0.666667  0.652233  1
  As  As7  1  0.666667  0.333333  0.152233  1
  Rh  Rh8  1  0.666667  0.333333  0.337305  1
  Rh  Rh9  1  0.333333  0.666667  0.837305  1
  Br  Br10  1  0.825018  0.650034  0.411836  1
  Br  Br11  1  0.174982  0.349966  0.911836  1
  Br  Br12  1  0.174982  0.825018  0.911836  1
  Br  Br13  1  0.169360  0.338722  0.585012  1
  Br  Br14  1  0.650034  0.825018  0.911836  1
  Br  Br15  1  0.349966  0.174982  0.411836  1
  Br  Br16  1  0.013210  0.506605  0.761701  1
  Br  Br17  1  0.825018  0.174982  0.411836  1
  Br  Br18  1  0.506605  0.013210  0.261701  1
  Br  Br19  1  0.493395  0.506605  0.761701  1
  Br  Br20  1  0.506605  0.493395  0.261701  1
  Br  Br21  1  0.986790  0.493395  0.261701  1
  Br  Br22  1  0.338722  0.169360  0.085012  1
  Br  Br23  1  0.493395  0.986790  0.761701  1
  Br  Br24  1  0.830640  0.661278  0.085012  1
  Br  Br25  1  0.169360  0.830640  0.585012  1
  Br  Br26  1  0.661278  0.830640  0.585012  1
  Br  Br27  1  0.830640  0.169360  0.085012  1
