# generated using pymatgen
data_Er4Ge(B7Ir6)2
_symmetry_space_group_name_H-M   'P 1'
_cell_length_a   3.49807425
_cell_length_b   7.83151293
_cell_length_c   13.55209113
_cell_angle_alpha   89.89422088
_cell_angle_beta   90.02480653
_cell_angle_gamma   90.04438340
_symmetry_Int_Tables_number   1
_chemical_formula_structural   Er4Ge(B7Ir6)2
_chemical_formula_sum   'Er4 Ge1 B14 Ir12'
_cell_volume   371.26165454
_cell_formula_units_Z   1
loop_
 _symmetry_equiv_pos_site_id
 _symmetry_equiv_pos_as_xyz
  1  'x, y, z'
loop_
 _atom_site_type_symbol
 _atom_site_label
 _atom_site_symmetry_multiplicity
 _atom_site_fract_x
 _atom_site_fract_y
 _atom_site_fract_z
 _atom_site_occupancy
  Er  Er0  1  0.251493  0.499055  0.834673  1
  Er  Er1  1  0.252750  0.000962  0.331695  1
  Er  Er2  1  0.747250  0.999038  0.668305  1
  Er  Er3  1  0.748507  0.500945  0.165327  1
  Ge  Ge4  1  0.500000  0.500000  0.500000  1
  B  B5  1  0.500000  0.000000  0.000000  1
  B  B6  1  0.000000  0.000000  0.000000  1
  B  B7  1  0.755476  0.325624  0.726855  1
  B  B8  1  0.754261  0.828582  0.220206  1
  B  B9  1  0.752027  0.753275  0.804529  1
  B  B10  1  0.754435  0.249055  0.299284  1
  B  B11  1  0.749983  0.422856  0.975037  1
  B  B12  1  0.761246  0.919907  0.474716  1
  B  B13  1  0.245739  0.171418  0.779794  1
  B  B14  1  0.244524  0.674376  0.273145  1
  B  B15  1  0.245565  0.750945  0.700716  1
  B  B16  1  0.247973  0.246725  0.195471  1
  B  B17  1  0.238754  0.080093  0.525284  1
  B  B18  1  0.250017  0.577144  0.024963  1
  Ir  Ir19  1  0.746348  0.595024  0.672929  1
  Ir  Ir20  1  0.749991  0.091040  0.159818  1
  Ir  Ir21  1  0.750596  0.706644  0.964536  1
  Ir  Ir22  1  0.743382  0.199981  0.461548  1
  Ir  Ir23  1  0.748086  0.198649  0.875200  1
  Ir  Ir24  1  0.746498  0.707085  0.365833  1
  Ir  Ir25  1  0.250009  0.908960  0.840182  1
  Ir  Ir26  1  0.253652  0.404976  0.327071  1
  Ir  Ir27  1  0.256618  0.800019  0.538452  1
  Ir  Ir28  1  0.249404  0.293356  0.035464  1
  Ir  Ir29  1  0.253502  0.292915  0.634167  1
  Ir  Ir30  1  0.251914  0.801351  0.124800  1
