# generated using pymatgen
data_Na4Pr9Dy7Sn16
_symmetry_space_group_name_H-M   'P 1'
_cell_length_a   7.92292154
_cell_length_b   8.31544619
_cell_length_c   15.77824000
_cell_angle_alpha   90.01521375
_cell_angle_beta   90.04587758
_cell_angle_gamma   90.02658430
_symmetry_Int_Tables_number   1
_chemical_formula_structural   Na4Pr9Dy7Sn16
_chemical_formula_sum   'Na4 Pr9 Dy7 Sn16'
_cell_volume   1039.51143019
_cell_formula_units_Z   1
loop_
 _symmetry_equiv_pos_site_id
 _symmetry_equiv_pos_as_xyz
  1  'x, y, z'
loop_
 _atom_site_type_symbol
 _atom_site_label
 _atom_site_symmetry_multiplicity
 _atom_site_fract_x
 _atom_site_fract_y
 _atom_site_fract_z
 _atom_site_occupancy
  Na  Na0  1  0.161623  0.495546  0.749443  1
  Na  Na1  1  0.661798  0.003496  0.749414  1
  Na  Na2  1  0.838230  0.503382  0.250187  1
  Na  Na3  1  0.337998  0.997121  0.250160  1
  Pr  Pr4  1  0.834922  0.672757  0.874129  1
  Pr  Pr5  1  0.492091  0.316143  0.903184  1
  Pr  Pr6  1  0.992580  0.183705  0.596411  1
  Pr  Pr7  1  0.507354  0.683942  0.402929  1
  Pr  Pr8  1  0.008281  0.816329  0.097846  1
  Pr  Pr9  1  0.507426  0.683233  0.097399  1
  Pr  Pr10  1  0.007330  0.816599  0.402901  1
  Pr  Pr11  1  0.492090  0.316225  0.596138  1
  Pr  Pr12  1  0.992650  0.183316  0.903095  1
  Dy  Dy13  1  0.334299  0.828933  0.873786  1
  Dy  Dy14  1  0.833504  0.671119  0.625384  1
  Dy  Dy15  1  0.665961  0.171448  0.373887  1
  Dy  Dy16  1  0.166005  0.328179  0.126932  1
  Dy  Dy17  1  0.665279  0.171616  0.127290  1
  Dy  Dy18  1  0.165507  0.328701  0.373763  1
  Dy  Dy19  1  0.334725  0.828562  0.625640  1
  Sn  Sn20  1  0.327506  0.039806  0.038001  1
  Sn  Sn21  1  0.828542  0.460934  0.462002  1
  Sn  Sn22  1  0.671491  0.960616  0.537383  1
  Sn  Sn23  1  0.176709  0.537973  0.964000  1
  Sn  Sn24  1  0.668166  0.964059  0.963908  1
  Sn  Sn25  1  0.171233  0.539420  0.537385  1
  Sn  Sn26  1  0.328085  0.039554  0.462253  1
  Sn  Sn27  1  0.829428  0.458278  0.039876  1
  Sn  Sn28  1  0.526729  0.605415  0.747896  1
  Sn  Sn29  1  0.032711  0.895171  0.748254  1
  Sn  Sn30  1  0.469774  0.391807  0.250418  1
  Sn  Sn31  1  0.969826  0.108423  0.250272  1
  Sn  Sn32  1  0.292937  0.136045  0.749502  1
  Sn  Sn33  1  0.789433  0.362165  0.748565  1
  Sn  Sn34  1  0.708683  0.864851  0.250112  1
  Sn  Sn35  1  0.209096  0.635130  0.250252  1
