# generated using pymatgen
data_LaNd6IrI12
_symmetry_space_group_name_H-M   'P 1'
_cell_length_a   10.09091840
_cell_length_b   10.09091804
_cell_length_c   10.09091800
_cell_angle_alpha   106.76359999
_cell_angle_beta   106.76360473
_cell_angle_gamma   106.76359843
_symmetry_Int_Tables_number   1
_chemical_formula_structural   LaNd6IrI12
_chemical_formula_sum   'La1 Nd6 Ir1 I12'
_cell_volume   861.19073916
_cell_formula_units_Z   1
loop_
 _symmetry_equiv_pos_site_id
 _symmetry_equiv_pos_as_xyz
  1  'x, y, z'
loop_
 _atom_site_type_symbol
 _atom_site_label
 _atom_site_symmetry_multiplicity
 _atom_site_fract_x
 _atom_site_fract_y
 _atom_site_fract_z
 _atom_site_occupancy
  La  La0  1  0.500000  0.500000  0.500000  1
  Nd  Nd1  1  0.096060  0.022236  0.299145  1
  Nd  Nd2  1  0.299145  0.096060  0.022236  1
  Nd  Nd3  1  0.022236  0.299145  0.096060  1
  Nd  Nd4  1  0.903940  0.977764  0.700855  1
  Nd  Nd5  1  0.700855  0.903940  0.977764  1
  Nd  Nd6  1  0.977764  0.700855  0.903940  1
  Ir  Ir7  1  0.000000  0.000000  0.000000  1
  I  I8  1  0.069535  0.678727  0.224398  1
  I  I9  1  0.224398  0.069535  0.678727  1
  I  I10  1  0.678727  0.224398  0.069535  1
  I  I11  1  0.930465  0.321273  0.775602  1
  I  I12  1  0.775602  0.930465  0.321273  1
  I  I13  1  0.321273  0.775602  0.930465  1
  I  I14  1  0.461946  0.156679  0.382859  1
  I  I15  1  0.382859  0.461946  0.156679  1
  I  I16  1  0.156679  0.382859  0.461946  1
  I  I17  1  0.538054  0.843321  0.617141  1
  I  I18  1  0.617141  0.538054  0.843321  1
  I  I19  1  0.843321  0.617141  0.538054  1
