# generated using pymatgen
data_TbFePPd
_symmetry_space_group_name_H-M   'P 1'
_cell_length_a   9.24929082
_cell_length_b   9.24929086
_cell_length_c   3.86111500
_cell_angle_alpha   90.00000000
_cell_angle_beta   90.00000000
_cell_angle_gamma   156.36073608
_symmetry_Int_Tables_number   1
_chemical_formula_structural   TbFePPd
_chemical_formula_sum   'Tb2 Fe2 P2 Pd2'
_cell_volume   132.44908767
_cell_formula_units_Z   2
loop_
 _symmetry_equiv_pos_site_id
 _symmetry_equiv_pos_as_xyz
  1  'x, y, z'
loop_
 _atom_site_type_symbol
 _atom_site_label
 _atom_site_symmetry_multiplicity
 _atom_site_fract_x
 _atom_site_fract_y
 _atom_site_fract_z
 _atom_site_occupancy
  Tb  Tb0  1  0.614491  0.385509  0.250000  1
  Tb  Tb1  1  0.385509  0.614491  0.750000  1
  Fe  Fe2  1  0.249539  0.750461  0.250000  1
  Fe  Fe3  1  0.750461  0.249539  0.750000  1
  P  P4  1  0.813055  0.186945  0.250000  1
  P  P5  1  0.186945  0.813055  0.750000  1
  Pd  Pd6  1  0.948394  0.051606  0.250000  1
  Pd  Pd7  1  0.051606  0.948394  0.750000  1
