# generated using pymatgen
data_Rb6Na4ZrSnBi6
_symmetry_space_group_name_H-M   'P 1'
_cell_length_a   14.66430927
_cell_length_b   14.66431049
_cell_length_c   14.66430986
_cell_angle_alpha   150.75675921
_cell_angle_beta   106.11664170
_cell_angle_gamma   81.36453468
_symmetry_Int_Tables_number   1
_chemical_formula_structural   Rb6Na4ZrSnBi6
_chemical_formula_sum   'Rb12 Na8 Zr2 Sn2 Bi12'
_cell_volume   1451.21279322
_cell_formula_units_Z   2
loop_
 _symmetry_equiv_pos_site_id
 _symmetry_equiv_pos_as_xyz
  1  'x, y, z'
loop_
 _atom_site_type_symbol
 _atom_site_label
 _atom_site_symmetry_multiplicity
 _atom_site_fract_x
 _atom_site_fract_y
 _atom_site_fract_z
 _atom_site_occupancy
  Rb  Rb0  1  0.594123  0.963207  0.218805  1
  Rb  Rb1  1  0.069715  0.759722  0.837825  1
  Rb  Rb2  1  0.915616  0.109315  0.354823  1
  Rb  Rb3  1  0.415616  0.060793  0.806301  1
  Rb  Rb4  1  0.754492  0.609315  0.693699  1
  Rb  Rb5  1  0.244402  0.375317  0.281195  1
  Rb  Rb6  1  0.094123  0.875317  0.630915  1
  Rb  Rb7  1  0.421898  0.231890  0.662175  1
  Rb  Rb8  1  0.744402  0.463207  0.869085  1
  Rb  Rb9  1  0.254492  0.560793  0.145177  1
  Rb  Rb10  1  0.921898  0.259722  0.190007  1
  Rb  Rb11  1  0.569715  0.731890  0.309993  1
  Na  Na12  1  0.002977  0.252977  0.750000  1
  Na  Na13  1  0.662289  0.912289  0.750000  1
  Na  Na14  1  0.997895  0.747895  0.250000  1
  Na  Na15  1  0.497895  0.247895  0.250000  1
  Na  Na16  1  0.502977  0.752977  0.750000  1
  Na  Na17  1  0.162289  0.412289  0.750000  1
  Na  Na18  1  0.336492  0.086492  0.250000  1
  Na  Na19  1  0.836492  0.586492  0.250000  1
  Zr  Zr20  1  0.833317  0.083317  0.750000  1
  Zr  Zr21  1  0.333317  0.583317  0.750000  1
  Sn  Sn22  1  0.669163  0.419163  0.250000  1
  Sn  Sn23  1  0.169163  0.919163  0.250000  1
  Bi  Bi24  1  0.349857  0.741920  0.084795  1
  Bi  Bi25  1  0.484369  0.554117  0.359994  1
  Bi  Bi26  1  0.984369  0.624377  0.930253  1
  Bi  Bi27  1  0.512245  0.455476  0.655574  1
  Bi  Bi28  1  0.299902  0.856670  0.844426  1
  Bi  Bi29  1  0.694124  0.124377  0.140006  1
  Bi  Bi30  1  0.012245  0.356670  0.056768  1
  Bi  Bi31  1  0.657125  0.241920  0.892063  1
  Bi  Bi32  1  0.799902  0.955476  0.443232  1
  Bi  Bi33  1  0.157125  0.265062  0.415205  1
  Bi  Bi34  1  0.194124  0.054117  0.569747  1
  Bi  Bi35  1  0.849857  0.765062  0.607937  1
