# generated using pymatgen
data_SmY2Pa(ReB6)2
_symmetry_space_group_name_H-M   'P 1'
_cell_length_a   3.72228800
_cell_length_b   9.22874059
_cell_length_c   11.60909904
_cell_angle_alpha   89.61669876
_cell_angle_beta   90.00000000
_cell_angle_gamma   90.00000000
_symmetry_Int_Tables_number   1
_chemical_formula_structural   SmY2Pa(ReB6)2
_chemical_formula_sum   'Sm2 Y4 Pa2 Re4 B24'
_cell_volume   398.78719866
_cell_formula_units_Z   2
loop_
 _symmetry_equiv_pos_site_id
 _symmetry_equiv_pos_as_xyz
  1  'x, y, z'
loop_
 _atom_site_type_symbol
 _atom_site_label
 _atom_site_symmetry_multiplicity
 _atom_site_fract_x
 _atom_site_fract_y
 _atom_site_fract_z
 _atom_site_occupancy
  Sm  Sm0  1  0.000000  0.324144  0.413779  1
  Sm  Sm1  1  0.000000  0.675856  0.586221  1
  Y  Y2  1  0.000000  0.444978  0.126488  1
  Y  Y3  1  0.000000  0.555022  0.873512  1
  Y  Y4  1  0.000000  0.943965  0.373019  1
  Y  Y5  1  0.000000  0.056035  0.626981  1
  Pa  Pa6  1  0.000000  0.822405  0.086922  1
  Pa  Pa7  1  0.000000  0.177595  0.913078  1
  Re  Re8  1  0.000000  0.134461  0.174034  1
  Re  Re9  1  0.000000  0.865539  0.825966  1
  Re  Re10  1  0.000000  0.641641  0.316871  1
  Re  Re11  1  0.000000  0.358359  0.683129  1
  B  B12  1  0.500000  0.053020  0.066775  1
  B  B13  1  0.500000  0.946980  0.933226  1
  B  B14  1  0.500000  0.554183  0.431133  1
  B  B15  1  0.500000  0.445817  0.568866  1
  B  B16  1  0.500000  0.246940  0.079681  1
  B  B17  1  0.500000  0.753060  0.920319  1
  B  B18  1  0.500000  0.747912  0.418228  1
  B  B19  1  0.500000  0.252088  0.581772  1
  B  B20  1  0.500000  0.290484  0.232586  1
  B  B21  1  0.500000  0.709516  0.767414  1
  B  B22  1  0.500000  0.792411  0.265548  1
  B  B23  1  0.500000  0.207589  0.734452  1
  B  B24  1  0.500000  0.130903  0.313035  1
  B  B25  1  0.500000  0.869097  0.686965  1
  B  B26  1  0.500000  0.633415  0.185539  1
  B  B27  1  0.500000  0.366585  0.814461  1
  B  B28  1  0.500000  0.483803  0.286445  1
  B  B29  1  0.500000  0.516197  0.713555  1
  B  B30  1  0.500000  0.982974  0.212501  1
  B  B31  1  0.500000  0.017026  0.787499  1
  B  B32  1  0.500000  0.103852  0.470754  1
  B  B33  1  0.500000  0.896148  0.529246  1
  B  B34  1  0.500000  0.614756  0.031588  1
  B  B35  1  0.500000  0.385244  0.968412  1
