# generated using pymatgen
data_Ca5Yb(YSi2)4
_symmetry_space_group_name_H-M   'P 1'
_cell_length_a   7.44232207
_cell_length_b   7.82856904
_cell_length_c   15.16865307
_cell_angle_alpha   89.99779240
_cell_angle_beta   89.98926668
_cell_angle_gamma   90.01069318
_symmetry_Int_Tables_number   1
_chemical_formula_structural   Ca5Yb(YSi2)4
_chemical_formula_sum   'Ca10 Yb2 Y8 Si16'
_cell_volume   883.76713810
_cell_formula_units_Z   2
loop_
 _symmetry_equiv_pos_site_id
 _symmetry_equiv_pos_as_xyz
  1  'x, y, z'
loop_
 _atom_site_type_symbol
 _atom_site_label
 _atom_site_symmetry_multiplicity
 _atom_site_fract_x
 _atom_site_fract_y
 _atom_site_fract_z
 _atom_site_occupancy
  Ca  Ca0  1  0.970117  0.815445  0.403810  1
  Ca  Ca1  1  0.470646  0.685087  0.096211  1
  Ca  Ca2  1  0.529618  0.315241  0.596118  1
  Ca  Ca3  1  0.029437  0.184609  0.903955  1
  Ca  Ca4  1  0.029552  0.184669  0.596085  1
  Ca  Ca5  1  0.529629  0.315166  0.903881  1
  Ca  Ca6  1  0.470590  0.684993  0.403756  1
  Ca  Ca7  1  0.354786  0.018820  0.750014  1
  Ca  Ca8  1  0.854671  0.481161  0.750023  1
  Ca  Ca9  1  0.145214  0.519073  0.249842  1
  Yb  Yb10  1  0.970113  0.815313  0.096653  1
  Yb  Yb11  1  0.645730  0.980768  0.249822  1
  Y  Y12  1  0.313652  0.176748  0.121302  1
  Y  Y13  1  0.813305  0.322541  0.378574  1
  Y  Y14  1  0.186325  0.677196  0.878986  1
  Y  Y15  1  0.686522  0.823047  0.621172  1
  Y  Y16  1  0.313898  0.177056  0.378630  1
  Y  Y17  1  0.813391  0.322606  0.121369  1
  Y  Y18  1  0.186548  0.677062  0.621158  1
  Y  Y19  1  0.686614  0.823027  0.878911  1
  Si  Si20  1  0.859736  0.533431  0.538335  1
  Si  Si21  1  0.359592  0.966465  0.961750  1
  Si  Si22  1  0.640149  0.033202  0.461448  1
  Si  Si23  1  0.140041  0.467004  0.038595  1
  Si  Si24  1  0.140275  0.466499  0.461575  1
  Si  Si25  1  0.640751  0.032693  0.038606  1
  Si  Si26  1  0.359761  0.966590  0.538378  1
  Si  Si27  1  0.859645  0.533798  0.961829  1
  Si  Si28  1  0.978157  0.884798  0.750005  1
  Si  Si29  1  0.478145  0.615352  0.750006  1
  Si  Si30  1  0.521995  0.384801  0.250053  1
  Si  Si31  1  0.021681  0.115155  0.249826  1
  Si  Si32  1  0.249881  0.394890  0.750003  1
  Si  Si33  1  0.749850  0.105121  0.749971  1
  Si  Si34  1  0.249572  0.895059  0.249778  1
  Si  Si35  1  0.750411  0.605515  0.249568  1
