# generated using pymatgen
data_Zr4AlMoIr6
_symmetry_space_group_name_H-M   'P 1'
_cell_length_a   5.39346300
_cell_length_b   5.39346241
_cell_length_c   8.15028200
_cell_angle_alpha   90.00000000
_cell_angle_beta   90.00000000
_cell_angle_gamma   120.00000976
_symmetry_Int_Tables_number   1
_chemical_formula_structural   Zr4AlMoIr6
_chemical_formula_sum   'Zr4 Al1 Mo1 Ir6'
_cell_volume   205.32346484
_cell_formula_units_Z   1
loop_
 _symmetry_equiv_pos_site_id
 _symmetry_equiv_pos_as_xyz
  1  'x, y, z'
loop_
 _atom_site_type_symbol
 _atom_site_label
 _atom_site_symmetry_multiplicity
 _atom_site_fract_x
 _atom_site_fract_y
 _atom_site_fract_z
 _atom_site_occupancy
  Zr  Zr0  1  0.333333  0.666667  0.427101  1
  Zr  Zr1  1  0.666667  0.333333  0.572899  1
  Zr  Zr2  1  0.666667  0.333333  0.949427  1
  Zr  Zr3  1  0.333333  0.666667  0.050573  1
  Al  Al4  1  0.000000  0.000000  0.500000  1
  Mo  Mo5  1  0.000000  0.000000  0.000000  1
  Ir  Ir6  1  0.829624  0.170376  0.253576  1
  Ir  Ir7  1  0.829624  0.659249  0.253576  1
  Ir  Ir8  1  0.340751  0.170376  0.253576  1
  Ir  Ir9  1  0.170376  0.829624  0.746424  1
  Ir  Ir10  1  0.170376  0.340751  0.746424  1
  Ir  Ir11  1  0.659249  0.829624  0.746424  1
