# generated using pymatgen
data_DyEr3(Ga2Ag)4
_symmetry_space_group_name_H-M   'P 1'
_cell_length_a   4.37518900
_cell_length_b   6.93891544
_cell_length_c   10.24463415
_cell_angle_alpha   90.06179755
_cell_angle_beta   90.00000000
_cell_angle_gamma   90.00000000
_symmetry_Int_Tables_number   1
_chemical_formula_structural   DyEr3(Ga2Ag)4
_chemical_formula_sum   'Dy1 Er3 Ga8 Ag4'
_cell_volume   311.01734846
_cell_formula_units_Z   1
loop_
 _symmetry_equiv_pos_site_id
 _symmetry_equiv_pos_as_xyz
  1  'x, y, z'
loop_
 _atom_site_type_symbol
 _atom_site_label
 _atom_site_symmetry_multiplicity
 _atom_site_fract_x
 _atom_site_fract_y
 _atom_site_fract_z
 _atom_site_occupancy
  Dy  Dy0  1  0.250000  0.279298  0.675173  1
  Er  Er1  1  0.250000  0.779108  0.825397  1
  Er  Er2  1  0.750000  0.220647  0.174968  1
  Er  Er3  1  0.750000  0.720811  0.324969  1
  Ga  Ga4  1  0.250000  0.929150  0.154718  1
  Ga  Ga5  1  0.750000  0.069956  0.845685  1
  Ga  Ga6  1  0.750000  0.571929  0.654600  1
  Ga  Ga7  1  0.250000  0.429608  0.345271  1
  Ga  Ga8  1  0.250000  0.702618  0.536282  1
  Ga  Ga9  1  0.750000  0.298359  0.463094  1
  Ga  Ga10  1  0.750000  0.798610  0.036462  1
  Ga  Ga11  1  0.250000  0.200713  0.964448  1
  Ag  Ag12  1  0.250000  0.544474  0.095954  1
  Ag  Ag13  1  0.750000  0.455461  0.904314  1
  Ag  Ag14  1  0.750000  0.955071  0.595450  1
  Ag  Ag15  1  0.250000  0.044187  0.403212  1
