# generated using pymatgen
data_Yb7U(Si4W3)4
_symmetry_space_group_name_H-M   'P 1'
_cell_length_a   6.86169553
_cell_length_b   6.86365495
_cell_length_c   12.79230600
_cell_angle_alpha   90.08009627
_cell_angle_beta   89.97737960
_cell_angle_gamma   90.07728132
_symmetry_Int_Tables_number   1
_chemical_formula_structural   Yb7U(Si4W3)4
_chemical_formula_sum   'Yb7 U1 Si16 W12'
_cell_volume   602.46923201
_cell_formula_units_Z   1
loop_
 _symmetry_equiv_pos_site_id
 _symmetry_equiv_pos_as_xyz
  1  'x, y, z'
loop_
 _atom_site_type_symbol
 _atom_site_label
 _atom_site_symmetry_multiplicity
 _atom_site_fract_x
 _atom_site_fract_y
 _atom_site_fract_z
 _atom_site_occupancy
  Yb  Yb0  1  0.331480  0.006761  0.469789  1
  Yb  Yb1  1  0.492784  0.832426  0.720098  1
  Yb  Yb2  1  0.506039  0.168032  0.220471  1
  Yb  Yb3  1  0.831420  0.492178  0.280008  1
  Yb  Yb4  1  0.167804  0.505453  0.778702  1
  Yb  Yb5  1  0.666631  0.996073  0.969994  1
  Yb  Yb6  1  0.007334  0.331180  0.529614  1
  U  U7  1  0.999626  0.665867  0.031925  1
  Si  Si8  1  0.200079  0.126954  0.685511  1
  Si  Si9  1  0.373206  0.701833  0.935275  1
  Si  Si10  1  0.628153  0.299108  0.435471  1
  Si  Si11  1  0.704174  0.371995  0.065438  1
  Si  Si12  1  0.299509  0.628643  0.563947  1
  Si  Si13  1  0.797494  0.871334  0.184833  1
  Si  Si14  1  0.127055  0.198718  0.313432  1
  Si  Si15  1  0.870502  0.796898  0.814981  1
  Si  Si16  1  0.296917  0.962730  0.066427  1
  Si  Si17  1  0.537836  0.793956  0.313960  1
  Si  Si18  1  0.461236  0.207722  0.815229  1
  Si  Si19  1  0.795132  0.537471  0.684605  1
  Si  Si20  1  0.207180  0.461447  0.186013  1
  Si  Si21  1  0.704824  0.038372  0.564702  1
  Si  Si22  1  0.961373  0.293578  0.933613  1
  Si  Si23  1  0.037367  0.703929  0.434945  1
  W  W24  1  0.325120  0.339613  0.000799  1
  W  W25  1  0.164698  0.826428  0.247593  1
  W  W26  1  0.831294  0.169545  0.750407  1
  W  W27  1  0.668407  0.668717  0.500538  1
  W  W28  1  0.154760  0.002893  0.877525  1
  W  W29  1  0.501433  0.661762  0.123700  1
  W  W30  1  0.507142  0.340326  0.624598  1
  W  W31  1  0.665954  0.498585  0.877761  1
  W  W32  1  0.340573  0.507612  0.374787  1
  W  W33  1  0.840076  0.991737  0.374870  1
  W  W34  1  0.004276  0.158901  0.123041  1
  W  W35  1  0.991113  0.841224  0.625399  1
