# generated using pymatgen
data_Mn2Co3Si7(Mo6C)2
_symmetry_space_group_name_H-M   'P 1'
_cell_length_a   7.74209150
_cell_length_b   7.74209083
_cell_length_c   7.76097835
_cell_angle_alpha   60.47460684
_cell_angle_beta   60.47460861
_cell_angle_gamma   60.47693584
_symmetry_Int_Tables_number   1
_chemical_formula_structural   Mn2Co3Si7(Mo6C)2
_chemical_formula_sum   'Mn2 Co3 Si7 Mo12 C2'
_cell_volume   332.47560608
_cell_formula_units_Z   1
loop_
 _symmetry_equiv_pos_site_id
 _symmetry_equiv_pos_as_xyz
  1  'x, y, z'
loop_
 _atom_site_type_symbol
 _atom_site_label
 _atom_site_symmetry_multiplicity
 _atom_site_fract_x
 _atom_site_fract_y
 _atom_site_fract_z
 _atom_site_occupancy
  Mn  Mn0  1  0.831701  0.831701  0.840740  1
  Mn  Mn1  1  0.620607  0.620607  0.130934  1
  Co  Co2  1  0.620472  0.134517  0.620915  1
  Co  Co3  1  0.134517  0.620472  0.620915  1
  Co  Co4  1  0.625660  0.625660  0.624604  1
  Si  Si5  1  0.415357  0.415357  0.756249  1
  Si  Si6  1  0.415205  0.754546  0.415176  1
  Si  Si7  1  0.754546  0.415205  0.415176  1
  Si  Si8  1  0.411293  0.411293  0.418464  1
  Si  Si9  1  0.835960  0.835960  0.502258  1
  Si  Si10  1  0.838729  0.501079  0.830221  1
  Si  Si11  1  0.501079  0.838729  0.830221  1
  Mo  Mo12  1  0.054955  0.054955  0.442854  1
  Mo  Mo13  1  0.443066  0.056490  0.439434  1
  Mo  Mo14  1  0.056490  0.443066  0.439434  1
  Mo  Mo15  1  0.445532  0.445532  0.053328  1
  Mo  Mo16  1  0.054806  0.444911  0.052767  1
  Mo  Mo17  1  0.444911  0.054806  0.052767  1
  Mo  Mo18  1  0.191860  0.191860  0.812192  1
  Mo  Mo19  1  0.808618  0.184422  0.812101  1
  Mo  Mo20  1  0.184422  0.808618  0.812101  1
  Mo  Mo21  1  0.808690  0.808690  0.187251  1
  Mo  Mo22  1  0.195331  0.805072  0.194266  1
  Mo  Mo23  1  0.805072  0.195331  0.194266  1
  C  C24  1  0.249725  0.249725  0.246454  1
  C  C25  1  0.001397  0.001397  0.004909  1
