# generated using pymatgen
data_Cd7Pd8Pt
_symmetry_space_group_name_H-M   'P 1'
_cell_length_a   7.13843125
_cell_length_b   7.13843057
_cell_length_c   7.13843029
_cell_angle_alpha   106.63774343
_cell_angle_beta   106.63773355
_cell_angle_gamma   115.30018904
_symmetry_Int_Tables_number   1
_chemical_formula_structural   Cd7Pd8Pt
_chemical_formula_sum   'Cd7 Pd8 Pt1'
_cell_volume   277.82260749
_cell_formula_units_Z   1
loop_
 _symmetry_equiv_pos_site_id
 _symmetry_equiv_pos_as_xyz
  1  'x, y, z'
loop_
 _atom_site_type_symbol
 _atom_site_label
 _atom_site_symmetry_multiplicity
 _atom_site_fract_x
 _atom_site_fract_y
 _atom_site_fract_z
 _atom_site_occupancy
  Cd  Cd0  1  0.500000  0.000000  0.500000  1
  Cd  Cd1  1  0.000000  0.500000  0.500000  1
  Cd  Cd2  1  0.500000  0.500000  0.000000  1
  Cd  Cd3  1  0.240674  0.240674  0.481349  1
  Cd  Cd4  1  0.759326  0.759326  0.518651  1
  Cd  Cd5  1  0.240674  0.759326  0.000000  1
  Cd  Cd6  1  0.759326  0.240674  0.000000  1
  Pd  Pd7  1  0.504432  0.256273  0.248159  1
  Pd  Pd8  1  0.495568  0.743727  0.751841  1
  Pd  Pd9  1  0.008113  0.256273  0.751841  1
  Pd  Pd10  1  0.256273  0.008113  0.751841  1
  Pd  Pd11  1  0.991887  0.743727  0.248159  1
  Pd  Pd12  1  0.743727  0.991887  0.248159  1
  Pd  Pd13  1  0.256273  0.504432  0.248159  1
  Pd  Pd14  1  0.743727  0.495568  0.751841  1
  Pt  Pt15  1  0.000000  0.000000  0.000000  1
