# generated using pymatgen
data_NdSm2(BN2)2
_symmetry_space_group_name_H-M   'P 1'
_cell_length_a   6.45125516
_cell_length_b   6.45125547
_cell_length_c   6.45125588
_cell_angle_alpha   148.30693092
_cell_angle_beta   121.98019372
_cell_angle_gamma   67.63529895
_symmetry_Int_Tables_number   1
_chemical_formula_structural   NdSm2(BN2)2
_chemical_formula_sum   'Nd1 Sm2 B2 N4'
_cell_volume   118.15806585
_cell_formula_units_Z   1
loop_
 _symmetry_equiv_pos_site_id
 _symmetry_equiv_pos_as_xyz
  1  'x, y, z'
loop_
 _atom_site_type_symbol
 _atom_site_label
 _atom_site_symmetry_multiplicity
 _atom_site_fract_x
 _atom_site_fract_y
 _atom_site_fract_z
 _atom_site_occupancy
  Nd  Nd0  1  0.000000  0.000000  0.000000  1
  Sm  Sm1  1  0.701962  0.201962  0.500000  1
  Sm  Sm2  1  0.298038  0.798038  0.500000  1
  B  B3  1  0.357470  0.500000  0.857470  1
  B  B4  1  0.642530  0.500000  0.142530  1
  N  N5  1  0.365264  0.620877  0.744387  1
  N  N6  1  0.876490  0.620877  0.255613  1
  N  N7  1  0.123510  0.379123  0.744387  1
  N  N8  1  0.634736  0.379123  0.255613  1
