# generated using pymatgen
data_BaVNiAs2
_symmetry_space_group_name_H-M   'P 1'
_cell_length_a   7.18444624
_cell_length_b   7.18444676
_cell_length_c   7.18444668
_cell_angle_alpha   147.38234647
_cell_angle_beta   147.38235263
_cell_angle_gamma   46.79798701
_symmetry_Int_Tables_number   1
_chemical_formula_structural   BaVNiAs2
_chemical_formula_sum   'Ba1 V1 Ni1 As2'
_cell_volume   107.35172421
_cell_formula_units_Z   1
loop_
 _symmetry_equiv_pos_site_id
 _symmetry_equiv_pos_as_xyz
  1  'x, y, z'
loop_
 _atom_site_type_symbol
 _atom_site_label
 _atom_site_symmetry_multiplicity
 _atom_site_fract_x
 _atom_site_fract_y
 _atom_site_fract_z
 _atom_site_occupancy
  Ba  Ba0  1  0.000000  0.000000  0.000000  1
  V  V1  1  0.750000  0.250000  0.500000  1
  Ni  Ni2  1  0.250000  0.750000  0.500000  1
  As  As3  1  0.353239  0.353239  0.000000  1
  As  As4  1  0.646761  0.646761  0.000000  1
