# generated using pymatgen
data_TmPu3(NbN2)4
_symmetry_space_group_name_H-M   'P 1'
_cell_length_a   3.28073100
_cell_length_b   5.67382547
_cell_length_c   10.95172360
_cell_angle_alpha   90.03239009
_cell_angle_beta   90.00000000
_cell_angle_gamma   90.00000000
_symmetry_Int_Tables_number   1
_chemical_formula_structural   TmPu3(NbN2)4
_chemical_formula_sum   'Tm1 Pu3 Nb4 N8'
_cell_volume   203.85858243
_cell_formula_units_Z   1
loop_
 _symmetry_equiv_pos_site_id
 _symmetry_equiv_pos_as_xyz
  1  'x, y, z'
loop_
 _atom_site_type_symbol
 _atom_site_label
 _atom_site_symmetry_multiplicity
 _atom_site_fract_x
 _atom_site_fract_y
 _atom_site_fract_z
 _atom_site_occupancy
  Tm  Tm0  1  0.250000  0.581314  0.858197  1
  Pu  Pu1  1  0.750000  0.420458  0.139776  1
  Pu  Pu2  1  0.750000  0.918799  0.359491  1
  Pu  Pu3  1  0.250000  0.080285  0.640791  1
  Nb  Nb4  1  0.250000  0.918064  0.102528  1
  Nb  Nb5  1  0.750000  0.082236  0.896638  1
  Nb  Nb6  1  0.750000  0.581589  0.605551  1
  Nb  Nb7  1  0.250000  0.418279  0.396463  1
  N  N8  1  0.250000  0.656094  0.243768  1
  N  N9  1  0.750000  0.343534  0.757031  1
  N  N10  1  0.750000  0.842173  0.746161  1
  N  N11  1  0.250000  0.156237  0.255219  1
  N  N12  1  0.250000  0.754099  0.506349  1
  N  N13  1  0.750000  0.245275  0.494855  1
  N  N14  1  0.750000  0.746459  0.004190  1
  N  N15  1  0.250000  0.255104  0.992994  1
