# generated using pymatgen
data_Er4Nb2Ir5Ru
_symmetry_space_group_name_H-M   'P 1'
_cell_length_a   5.61367494
_cell_length_b   5.61367435
_cell_length_c   8.26111800
_cell_angle_alpha   90.00000000
_cell_angle_beta   90.00000000
_cell_angle_gamma   119.93361258
_symmetry_Int_Tables_number   1
_chemical_formula_structural   Er4Nb2Ir5Ru
_chemical_formula_sum   'Er4 Nb2 Ir5 Ru1'
_cell_volume   225.60778027
_cell_formula_units_Z   1
loop_
 _symmetry_equiv_pos_site_id
 _symmetry_equiv_pos_as_xyz
  1  'x, y, z'
loop_
 _atom_site_type_symbol
 _atom_site_label
 _atom_site_symmetry_multiplicity
 _atom_site_fract_x
 _atom_site_fract_y
 _atom_site_fract_z
 _atom_site_occupancy
  Er  Er0  1  0.333082  0.666918  0.438854  1
  Er  Er1  1  0.667033  0.332967  0.561333  1
  Er  Er2  1  0.667033  0.332967  0.938667  1
  Er  Er3  1  0.333082  0.666918  0.061146  1
  Nb  Nb4  1  0.998627  0.001373  0.002746  1
  Nb  Nb5  1  0.998627  0.001373  0.497254  1
  Ir  Ir6  1  0.172719  0.345045  0.750000  1
  Ir  Ir7  1  0.172475  0.827525  0.750000  1
  Ir  Ir8  1  0.347787  0.172907  0.250000  1
  Ir  Ir9  1  0.827093  0.652213  0.250000  1
  Ir  Ir10  1  0.654955  0.827281  0.750000  1
  Ru  Ru11  1  0.827487  0.172513  0.250000  1
