# generated using pymatgen
data_Ni2Ag4SnPdO8
_symmetry_space_group_name_H-M   'P 1'
_cell_length_a   5.41413832
_cell_length_b   6.26801095
_cell_length_c   7.27322520
_cell_angle_alpha   64.40484180
_cell_angle_beta   104.27745372
_cell_angle_gamma   89.99831578
_symmetry_Int_Tables_number   1
_chemical_formula_structural   Ni2Ag4SnPdO8
_chemical_formula_sum   'Ni2 Ag4 Sn1 Pd1 O8'
_cell_volume   214.11706078
_cell_formula_units_Z   1
loop_
 _symmetry_equiv_pos_site_id
 _symmetry_equiv_pos_as_xyz
  1  'x, y, z'
loop_
 _atom_site_type_symbol
 _atom_site_label
 _atom_site_symmetry_multiplicity
 _atom_site_fract_x
 _atom_site_fract_y
 _atom_site_fract_z
 _atom_site_occupancy
  Ni  Ni0  1  0.500229  0.256756  0.500067  1
  Ni  Ni1  1  0.999699  0.497047  0.499854  1
  Ag  Ag2  1  0.004595  0.999777  0.999868  1
  Ag  Ag3  1  0.499436  0.253616  0.994525  1
  Ag  Ag4  1  0.995420  0.499573  0.000146  1
  Ag  Ag5  1  0.500699  0.748016  0.005490  1
  Sn  Sn6  1  0.999986  0.006112  0.500088  1
  Pd  Pd7  1  0.499970  0.745759  0.499976  1
  O  O8  1  0.880886  0.666736  0.663813  1
  O  O9  1  0.392608  0.908455  0.667746  1
  O  O10  1  0.888899  0.165357  0.667366  1
  O  O11  1  0.388598  0.424679  0.662203  1
  O  O12  1  0.119100  0.831039  0.336172  1
  O  O13  1  0.607427  0.076641  0.332282  1
  O  O14  1  0.111085  0.333111  0.332684  1
  O  O15  1  0.611365  0.587325  0.337715  1
