# generated using pymatgen
data_Dy15Er5(FeBi2)4
_symmetry_space_group_name_H-M   'P 1'
_cell_length_a   7.95035045
_cell_length_b   8.91374204
_cell_length_c   12.41258907
_cell_angle_alpha   89.93527401
_cell_angle_beta   90.02117313
_cell_angle_gamma   90.03716856
_symmetry_Int_Tables_number   1
_chemical_formula_structural   Dy15Er5(FeBi2)4
_chemical_formula_sum   'Dy15 Er5 Fe4 Bi8'
_cell_volume   879.64677328
_cell_formula_units_Z   1
loop_
 _symmetry_equiv_pos_site_id
 _symmetry_equiv_pos_as_xyz
  1  'x, y, z'
loop_
 _atom_site_type_symbol
 _atom_site_label
 _atom_site_symmetry_multiplicity
 _atom_site_fract_x
 _atom_site_fract_y
 _atom_site_fract_z
 _atom_site_occupancy
  Dy  Dy0  1  0.848309  0.750433  0.800091  1
  Dy  Dy1  1  0.151869  0.249487  0.200314  1
  Dy  Dy2  1  0.348728  0.249689  0.699444  1
  Dy  Dy3  1  0.651620  0.749946  0.300098  1
  Dy  Dy4  1  0.381677  0.750199  0.686175  1
  Dy  Dy5  1  0.617040  0.249644  0.313872  1
  Dy  Dy6  1  0.882108  0.248857  0.813431  1
  Dy  Dy7  1  0.117808  0.751320  0.186643  1
  Dy  Dy8  1  0.946240  0.750761  0.505276  1
  Dy  Dy9  1  0.055790  0.249401  0.494537  1
  Dy  Dy10  1  0.445110  0.248913  0.994756  1
  Dy  Dy11  1  0.554493  0.751136  0.005201  1
  Dy  Dy12  1  0.674231  0.464971  0.562654  1
  Dy  Dy13  1  0.825399  0.465427  0.063122  1
  Dy  Dy14  1  0.174601  0.534744  0.937042  1
  Er  Er15  1  0.672704  0.035820  0.562988  1
  Er  Er16  1  0.327506  0.963814  0.436677  1
  Er  Er17  1  0.172482  0.963676  0.936965  1
  Er  Er18  1  0.326677  0.535479  0.436811  1
  Er  Er19  1  0.827557  0.036531  0.063108  1
  Fe  Fe20  1  0.568741  0.749684  0.508334  1
  Fe  Fe21  1  0.431284  0.249666  0.491638  1
  Fe  Fe22  1  0.067611  0.249222  0.991911  1
  Fe  Fe23  1  0.930619  0.750958  0.008681  1
  Bi  Bi24  1  0.570047  0.493745  0.826663  1
  Bi  Bi25  1  0.429542  0.506266  0.173348  1
  Bi  Bi26  1  0.069648  0.505911  0.673392  1
  Bi  Bi27  1  0.431150  0.993911  0.173577  1
  Bi  Bi28  1  0.930977  0.493998  0.326884  1
  Bi  Bi29  1  0.568781  0.006106  0.826205  1
  Bi  Bi30  1  0.930397  0.006309  0.326680  1
  Bi  Bi31  1  0.069257  0.993977  0.673475  1
