# generated using pymatgen
data_Li(UPd4)3
_symmetry_space_group_name_H-M   'P 1'
_cell_length_a   5.77350600
_cell_length_b   5.77350662
_cell_length_c   9.42702600
_cell_angle_alpha   90.00000000
_cell_angle_beta   90.00000000
_cell_angle_gamma   120.00000792
_symmetry_Int_Tables_number   1
_chemical_formula_structural   Li(UPd4)3
_chemical_formula_sum   'Li1 U3 Pd12'
_cell_volume   272.13511915
_cell_formula_units_Z   1
loop_
 _symmetry_equiv_pos_site_id
 _symmetry_equiv_pos_as_xyz
  1  'x, y, z'
loop_
 _atom_site_type_symbol
 _atom_site_label
 _atom_site_symmetry_multiplicity
 _atom_site_fract_x
 _atom_site_fract_y
 _atom_site_fract_z
 _atom_site_occupancy
  Li  Li0  1  0.333333  0.666667  0.750000  1
  U  U1  1  0.000000  0.000000  0.510156  1
  U  U2  1  0.000000  0.000000  0.989844  1
  U  U3  1  0.666667  0.333333  0.250000  1
  Pd  Pd4  1  0.499150  0.500850  0.502598  1
  Pd  Pd5  1  0.499150  0.998300  0.502598  1
  Pd  Pd6  1  0.001700  0.500850  0.502598  1
  Pd  Pd7  1  0.499150  0.500850  0.997402  1
  Pd  Pd8  1  0.499150  0.998300  0.997402  1
  Pd  Pd9  1  0.001700  0.500850  0.997402  1
  Pd  Pd10  1  0.169134  0.830866  0.250000  1
  Pd  Pd11  1  0.169134  0.338269  0.250000  1
  Pd  Pd12  1  0.661731  0.830866  0.250000  1
  Pd  Pd13  1  0.828820  0.171180  0.750000  1
  Pd  Pd14  1  0.828820  0.657640  0.750000  1
  Pd  Pd15  1  0.342360  0.171180  0.750000  1
