# generated using pymatgen
data_PrErCdIrO7
_symmetry_space_group_name_H-M   'P 1'
_cell_length_a   6.44170878
_cell_length_b   6.60080153
_cell_length_c   7.57940100
_cell_angle_alpha   90.00000000
_cell_angle_beta   90.00000000
_cell_angle_gamma   111.35709484
_symmetry_Int_Tables_number   1
_chemical_formula_structural   PrErCdIrO7
_chemical_formula_sum   'Pr2 Er2 Cd2 Ir2 O14'
_cell_volume   300.14815210
_cell_formula_units_Z   2
loop_
 _symmetry_equiv_pos_site_id
 _symmetry_equiv_pos_as_xyz
  1  'x, y, z'
loop_
 _atom_site_type_symbol
 _atom_site_label
 _atom_site_symmetry_multiplicity
 _atom_site_fract_x
 _atom_site_fract_y
 _atom_site_fract_z
 _atom_site_occupancy
  Pr  Pr0  1  0.000000  0.000000  0.000000  1
  Pr  Pr1  1  0.000000  0.000000  0.500000  1
  Er  Er2  1  0.955530  0.489768  0.750000  1
  Er  Er3  1  0.044470  0.510232  0.250000  1
  Cd  Cd4  1  0.485937  0.983144  0.750000  1
  Cd  Cd5  1  0.514063  0.016856  0.250000  1
  Ir  Ir6  1  0.500000  0.500000  0.000000  1
  Ir  Ir7  1  0.500000  0.500000  0.500000  1
  O  O8  1  0.598604  0.510657  0.750000  1
  O  O9  1  0.401396  0.489343  0.250000  1
  O  O10  1  0.843223  0.129137  0.750000  1
  O  O11  1  0.156777  0.870863  0.250000  1
  O  O12  1  0.127045  0.850195  0.750000  1
  O  O13  1  0.872955  0.149805  0.250000  1
  O  O14  1  0.430344  0.195377  0.000055  1
  O  O15  1  0.569656  0.804623  0.500055  1
  O  O16  1  0.174859  0.434099  0.966569  1
  O  O17  1  0.825141  0.565901  0.466569  1
  O  O18  1  0.430344  0.195377  0.499945  1
  O  O19  1  0.569656  0.804623  0.999945  1
  O  O20  1  0.825141  0.565901  0.033431  1
  O  O21  1  0.174859  0.434099  0.533431  1
