# generated using pymatgen
data_Y9Er7Cd4Pd3Ru
_symmetry_space_group_name_H-M   'P 1'
_cell_length_a   9.68308901
_cell_length_b   9.68073769
_cell_length_c   9.69216746
_cell_angle_alpha   59.59254551
_cell_angle_beta   59.66331535
_cell_angle_gamma   59.70082913
_symmetry_Int_Tables_number   1
_chemical_formula_structural   Y9Er7Cd4Pd3Ru
_chemical_formula_sum   'Y9 Er7 Cd4 Pd3 Ru1'
_cell_volume   637.35604158
_cell_formula_units_Z   1
loop_
 _symmetry_equiv_pos_site_id
 _symmetry_equiv_pos_as_xyz
  1  'x, y, z'
loop_
 _atom_site_type_symbol
 _atom_site_label
 _atom_site_symmetry_multiplicity
 _atom_site_fract_x
 _atom_site_fract_y
 _atom_site_fract_z
 _atom_site_occupancy
  Y  Y0  1  0.810620  0.188613  0.810558  1
  Y  Y1  1  0.188185  0.187772  0.817073  1
  Y  Y2  1  0.810895  0.810706  0.188579  1
  Y  Y3  1  0.935221  0.565773  0.565216  1
  Y  Y4  1  0.560305  0.936151  0.936588  1
  Y  Y5  1  0.565366  0.935127  0.565469  1
  Y  Y6  1  0.936297  0.560605  0.936402  1
  Y  Y7  1  0.565074  0.565726  0.935309  1
  Y  Y8  1  0.936601  0.936274  0.560140  1
  Er  Er9  1  0.353407  0.353524  0.353066  1
  Er  Er10  1  0.349768  0.350347  0.945387  1
  Er  Er11  1  0.349876  0.944924  0.350245  1
  Er  Er12  1  0.945205  0.350004  0.349789  1
  Er  Er13  1  0.817175  0.187931  0.188412  1
  Er  Er14  1  0.188758  0.810589  0.810729  1
  Er  Er15  1  0.187957  0.817225  0.188046  1
  Cd  Cd16  1  0.580425  0.580558  0.580545  1
  Cd  Cd17  1  0.581294  0.581323  0.254433  1
  Cd  Cd18  1  0.581399  0.254384  0.581276  1
  Cd  Cd19  1  0.254370  0.581451  0.581299  1
  Pd  Pd20  1  0.146014  0.144057  0.565967  1
  Pd  Pd21  1  0.146245  0.567200  0.144202  1
  Pd  Pd22  1  0.565901  0.146022  0.145946  1
  Ru  Ru23  1  0.143640  0.143710  0.145320  1
