# generated using pymatgen
data_LuTh2(CoSn)3
_symmetry_space_group_name_H-M   'P 1'
_cell_length_a   7.34886590
_cell_length_b   7.23473586
_cell_length_c   3.99328700
_cell_angle_alpha   90.00000000
_cell_angle_beta   90.00000000
_cell_angle_gamma   119.48758136
_symmetry_Int_Tables_number   1
_chemical_formula_structural   LuTh2(CoSn)3
_chemical_formula_sum   'Lu1 Th2 Co3 Sn3'
_cell_volume   184.80918237
_cell_formula_units_Z   1
loop_
 _symmetry_equiv_pos_site_id
 _symmetry_equiv_pos_as_xyz
  1  'x, y, z'
loop_
 _atom_site_type_symbol
 _atom_site_label
 _atom_site_symmetry_multiplicity
 _atom_site_fract_x
 _atom_site_fract_y
 _atom_site_fract_z
 _atom_site_occupancy
  Lu  Lu0  1  0.000000  0.593447  0.500000  1
  Th  Th1  1  0.413818  0.416473  0.500000  1
  Th  Th2  1  0.586182  0.002655  0.500000  1
  Co  Co3  1  0.345092  0.665997  0.000000  1
  Co  Co4  1  0.000000  0.002203  0.500000  1
  Co  Co5  1  0.654908  0.320904  0.000000  1
  Sn  Sn6  1  0.759982  0.748085  0.000000  1
  Sn  Sn7  1  0.000000  0.262132  0.000000  1
  Sn  Sn8  1  0.240018  0.988103  0.000000  1
