# generated using pymatgen
data_Tb3Al12(RuPt)2
_symmetry_space_group_name_H-M   'P 1'
_cell_length_a   8.84598374
_cell_length_b   8.84598355
_cell_length_c   9.51585017
_cell_angle_alpha   90.13070949
_cell_angle_beta   89.86929072
_cell_angle_gamma   119.85667999
_symmetry_Int_Tables_number   1
_chemical_formula_structural   Tb3Al12(RuPt)2
_chemical_formula_sum   'Tb6 Al24 Ru4 Pt4'
_cell_volume   645.79454961
_cell_formula_units_Z   2
loop_
 _symmetry_equiv_pos_site_id
 _symmetry_equiv_pos_as_xyz
  1  'x, y, z'
loop_
 _atom_site_type_symbol
 _atom_site_label
 _atom_site_symmetry_multiplicity
 _atom_site_fract_x
 _atom_site_fract_y
 _atom_site_fract_z
 _atom_site_occupancy
  Tb  Tb0  1  0.381852  0.189321  0.247968  1
  Tb  Tb1  1  0.809262  0.190738  0.249487  1
  Tb  Tb2  1  0.810679  0.618148  0.247968  1
  Tb  Tb3  1  0.618148  0.810679  0.752032  1
  Tb  Tb4  1  0.190738  0.809262  0.750513  1
  Tb  Tb5  1  0.189321  0.381852  0.752032  1
  Al  Al6  1  0.437664  0.874357  0.246024  1
  Al  Al7  1  0.125643  0.562336  0.246024  1
  Al  Al8  1  0.435913  0.564087  0.249909  1
  Al  Al9  1  0.562336  0.125643  0.753976  1
  Al  Al10  1  0.874357  0.437664  0.753976  1
  Al  Al11  1  0.564087  0.435913  0.750091  1
  Al  Al12  1  0.162142  0.837858  0.420569  1
  Al  Al13  1  0.161962  0.323063  0.421525  1
  Al  Al14  1  0.676937  0.838038  0.421525  1
  Al  Al15  1  0.837858  0.162142  0.579431  1
  Al  Al16  1  0.838038  0.676937  0.578475  1
  Al  Al17  1  0.323063  0.161962  0.578475  1
  Al  Al18  1  0.836159  0.163841  0.925350  1
  Al  Al19  1  0.842264  0.674251  0.926293  1
  Al  Al20  1  0.325749  0.157736  0.926293  1
  Al  Al21  1  0.163841  0.836159  0.074650  1
  Al  Al22  1  0.157736  0.325749  0.073707  1
  Al  Al23  1  0.674251  0.842264  0.073707  1
  Al  Al24  1  0.333428  0.666572  0.532844  1
  Al  Al25  1  0.666572  0.333428  0.467156  1
  Al  Al26  1  0.669582  0.330418  0.028977  1
  Al  Al27  1  0.330418  0.669582  0.971023  1
  Al  Al28  1  0.001177  0.998823  0.249374  1
  Al  Al29  1  0.998823  0.001177  0.750626  1
  Ru  Ru30  1  0.000000  0.000000  0.500000  1
  Ru  Ru31  1  0.000000  0.000000  0.000000  1
  Ru  Ru32  1  0.500000  0.000000  0.000000  1
  Ru  Ru33  1  0.000000  0.500000  0.000000  1
  Pt  Pt34  1  0.500000  0.000000  0.500000  1
  Pt  Pt35  1  0.000000  0.500000  0.500000  1
  Pt  Pt36  1  0.500000  0.500000  0.500000  1
  Pt  Pt37  1  0.500000  0.500000  0.000000  1
