# generated using pymatgen
data_Eu16ZnIn4Rh3
_symmetry_space_group_name_H-M   'P 1'
_cell_length_a   10.26185465
_cell_length_b   10.27446018
_cell_length_c   10.26185300
_cell_angle_alpha   60.04057866
_cell_angle_beta   60.00000208
_cell_angle_gamma   60.04057425
_symmetry_Int_Tables_number   1
_chemical_formula_structural   Eu16ZnIn4Rh3
_chemical_formula_sum   'Eu16 Zn1 In4 Rh3'
_cell_volume   765.52919220
_cell_formula_units_Z   1
loop_
 _symmetry_equiv_pos_site_id
 _symmetry_equiv_pos_as_xyz
  1  'x, y, z'
loop_
 _atom_site_type_symbol
 _atom_site_label
 _atom_site_symmetry_multiplicity
 _atom_site_fract_x
 _atom_site_fract_y
 _atom_site_fract_z
 _atom_site_occupancy
  Eu  Eu0  1  0.806466  0.808309  0.192612  1
  Eu  Eu1  1  0.804809  0.186344  0.804809  1
  Eu  Eu2  1  0.204036  0.186344  0.804809  1
  Eu  Eu3  1  0.655345  0.033963  0.655345  1
  Eu  Eu4  1  0.056405  0.057344  0.443124  1
  Eu  Eu5  1  0.440491  0.446310  0.056599  1
  Eu  Eu6  1  0.647763  0.660108  0.647763  1
  Eu  Eu7  1  0.804809  0.186344  0.204036  1
  Eu  Eu8  1  0.192612  0.808309  0.806466  1
  Eu  Eu9  1  0.044365  0.660108  0.647763  1
  Eu  Eu10  1  0.443124  0.057344  0.056405  1
  Eu  Eu11  1  0.443124  0.057344  0.443124  1
  Eu  Eu12  1  0.056599  0.446310  0.056599  1
  Eu  Eu13  1  0.647763  0.660108  0.044365  1
  Eu  Eu14  1  0.192612  0.808309  0.192612  1
  Eu  Eu15  1  0.056599  0.446310  0.440491  1
  Zn  Zn16  1  0.859848  0.420456  0.859848  1
  In  In17  1  0.421915  0.420793  0.421915  1
  In  In18  1  0.421915  0.420793  0.735377  1
  In  In19  1  0.420617  0.738150  0.420617  1
  In  In20  1  0.735377  0.420793  0.421915  1
  Rh  Rh21  1  0.862599  0.856601  0.862599  1
  Rh  Rh22  1  0.862599  0.856601  0.418201  1
  Rh  Rh23  1  0.418201  0.856601  0.862599  1
