# generated using pymatgen
data_Cu4Ni2SnRhO8
_symmetry_space_group_name_H-M   'P 1'
_cell_length_a   5.38614299
_cell_length_b   6.80526557
_cell_length_c   6.25338601
_cell_angle_alpha   117.36835420
_cell_angle_beta   90.00450316
_cell_angle_gamma   105.30579737
_symmetry_Int_Tables_number   1
_chemical_formula_structural   Cu4Ni2SnRhO8
_chemical_formula_sum   'Cu4 Ni2 Sn1 Rh1 O8'
_cell_volume   194.35373560
_cell_formula_units_Z   1
loop_
 _symmetry_equiv_pos_site_id
 _symmetry_equiv_pos_as_xyz
  1  'x, y, z'
loop_
 _atom_site_type_symbol
 _atom_site_label
 _atom_site_symmetry_multiplicity
 _atom_site_fract_x
 _atom_site_fract_y
 _atom_site_fract_z
 _atom_site_occupancy
  Cu  Cu0  1  0.000039  0.999993  0.499923  1
  Cu  Cu1  1  0.999957  0.999987  0.000070  1
  Cu  Cu2  1  0.503232  0.003585  0.251850  1
  Cu  Cu3  1  0.496758  0.996436  0.748162  1
  Ni  Ni4  1  0.500004  0.499981  0.746425  1
  Ni  Ni5  1  0.500023  0.500032  0.253578  1
  Sn  Sn6  1  0.000008  0.499995  0.999997  1
  Rh  Rh7  1  0.000000  0.499988  0.499994  1
  O  O8  1  0.387189  0.679116  0.589619  1
  O  O9  1  0.395666  0.683100  0.091557  1
  O  O10  1  0.612809  0.320872  0.410375  1
  O  O11  1  0.604327  0.316960  0.908468  1
  O  O12  1  0.895632  0.681911  0.345443  1
  O  O13  1  0.895610  0.681869  0.836551  1
  O  O14  1  0.104374  0.318073  0.654529  1
  O  O15  1  0.104370  0.318103  0.163459  1
