# generated using pymatgen
data_AcEu2NpO7
_symmetry_space_group_name_H-M   'P 1'
_cell_length_a   6.73715200
_cell_length_b   6.73715251
_cell_length_c   8.01681300
_cell_angle_alpha   90.00000000
_cell_angle_beta   90.00000000
_cell_angle_gamma   110.12575041
_symmetry_Int_Tables_number   1
_chemical_formula_structural   AcEu2NpO7
_chemical_formula_sum   'Ac2 Eu4 Np2 O14'
_cell_volume   341.65846311
_cell_formula_units_Z   2
loop_
 _symmetry_equiv_pos_site_id
 _symmetry_equiv_pos_as_xyz
  1  'x, y, z'
loop_
 _atom_site_type_symbol
 _atom_site_label
 _atom_site_symmetry_multiplicity
 _atom_site_fract_x
 _atom_site_fract_y
 _atom_site_fract_z
 _atom_site_occupancy
  Ac  Ac0  1  0.499890  0.499890  0.500000  1
  Ac  Ac1  1  0.500110  0.500110  0.000000  1
  Eu  Eu2  1  0.466945  0.999012  0.250127  1
  Eu  Eu3  1  0.533055  0.000988  0.750127  1
  Eu  Eu4  1  0.999012  0.466945  0.749873  1
  Eu  Eu5  1  0.000988  0.533055  0.249873  1
  Np  Np6  1  0.999832  0.999832  0.500000  1
  Np  Np7  1  0.000168  0.000168  0.000000  1
  O  O8  1  0.317279  0.072448  0.530463  1
  O  O9  1  0.682721  0.927552  0.030463  1
  O  O10  1  0.072448  0.317279  0.469537  1
  O  O11  1  0.927552  0.682721  0.969537  1
  O  O12  1  0.926952  0.682046  0.530074  1
  O  O13  1  0.073048  0.317954  0.030074  1
  O  O14  1  0.682046  0.926952  0.469926  1
  O  O15  1  0.317954  0.073048  0.969926  1
  O  O16  1  0.637983  0.362017  0.250000  1
  O  O17  1  0.362017  0.637983  0.750000  1
  O  O18  1  0.360696  0.639304  0.250000  1
  O  O19  1  0.639304  0.360696  0.750000  1
  O  O20  1  0.075163  0.924837  0.250000  1
  O  O21  1  0.924837  0.075163  0.750000  1
