# generated using pymatgen
data_Er9TmBiPb5
_symmetry_space_group_name_H-M   'P 1'
_cell_length_a   6.50355100
_cell_length_b   9.01197942
_cell_length_c   9.00664004
_cell_angle_alpha   120.01859184
_cell_angle_beta   90.00054404
_cell_angle_gamma   90.00287613
_symmetry_Int_Tables_number   1
_chemical_formula_structural   Er9TmBiPb5
_chemical_formula_sum   'Er9 Tm1 Bi1 Pb5'
_cell_volume   457.07007231
_cell_formula_units_Z   1
loop_
 _symmetry_equiv_pos_site_id
 _symmetry_equiv_pos_as_xyz
  1  'x, y, z'
loop_
 _atom_site_type_symbol
 _atom_site_label
 _atom_site_symmetry_multiplicity
 _atom_site_fract_x
 _atom_site_fract_y
 _atom_site_fract_z
 _atom_site_occupancy
  Er  Er0  1  0.498982  0.331535  0.664489  1
  Er  Er1  1  0.498941  0.667056  0.335524  1
  Er  Er2  1  0.001073  0.667073  0.335534  1
  Er  Er3  1  0.750019  0.235151  0.999989  1
  Er  Er4  1  0.750010  0.764421  0.760858  1
  Er  Er5  1  0.749999  0.003599  0.239158  1
  Er  Er6  1  0.249980  0.763278  0.999985  1
  Er  Er7  1  0.249985  0.236733  0.237362  1
  Er  Er8  1  0.249982  0.999417  0.762651  1
  Tm  Tm9  1  0.001071  0.331495  0.664397  1
  Bi  Bi10  1  0.750036  0.606833  0.999941  1
  Pb  Pb11  1  0.750054  0.394985  0.394564  1
  Pb  Pb12  1  0.750058  0.000584  0.605532  1
  Pb  Pb13  1  0.249931  0.393698  0.999941  1
  Pb  Pb14  1  0.249938  0.605472  0.606959  1
  Pb  Pb15  1  0.249942  0.998671  0.393116  1
