# generated using pymatgen
data_Y2B4Ir2Rh3
_symmetry_space_group_name_H-M   'P 1'
_cell_length_a   7.52277981
_cell_length_b   6.32215082
_cell_length_c   5.61711320
_cell_angle_alpha   77.86593751
_cell_angle_beta   55.24779777
_cell_angle_gamma   46.88627740
_symmetry_Int_Tables_number   1
_chemical_formula_structural   Y2B4Ir2Rh3
_chemical_formula_sum   'Y2 B4 Ir2 Rh3'
_cell_volume   152.89873094
_cell_formula_units_Z   1
loop_
 _symmetry_equiv_pos_site_id
 _symmetry_equiv_pos_as_xyz
  1  'x, y, z'
loop_
 _atom_site_type_symbol
 _atom_site_label
 _atom_site_symmetry_multiplicity
 _atom_site_fract_x
 _atom_site_fract_y
 _atom_site_fract_z
 _atom_site_occupancy
  Y  Y0  1  0.857404  0.857403  0.142596  1
  Y  Y1  1  0.142597  0.142596  0.857404  1
  B  B2  1  0.476691  0.791849  0.215749  1
  B  B3  1  0.215749  0.515710  0.476691  1
  B  B4  1  0.791851  0.476690  0.515710  1
  B  B5  1  0.515711  0.215748  0.791850  1
  Ir  Ir6  1  0.249999  0.250001  0.250001  1
  Ir  Ir7  1  0.500001  0.500000  0.500000  1
  Rh  Rh8  1  0.501036  0.501039  0.998963  1
  Rh  Rh9  1  0.998963  0.998963  0.501037  1
  Rh  Rh10  1  0.750000  0.750001  0.750000  1
