# generated using pymatgen
data_Tb2Ho4TaCo17P12
_symmetry_space_group_name_H-M   'P 1'
_cell_length_a   3.69461600
_cell_length_b   10.55720800
_cell_length_c   12.24767100
_cell_angle_alpha   90.00000000
_cell_angle_beta   90.00000000
_cell_angle_gamma   90.00000000
_symmetry_Int_Tables_number   1
_chemical_formula_structural   Tb2Ho4TaCo17P12
_chemical_formula_sum   'Tb2 Ho4 Ta1 Co17 P12'
_cell_volume   477.71832026
_cell_formula_units_Z   1
loop_
 _symmetry_equiv_pos_site_id
 _symmetry_equiv_pos_as_xyz
  1  'x, y, z'
loop_
 _atom_site_type_symbol
 _atom_site_label
 _atom_site_symmetry_multiplicity
 _atom_site_fract_x
 _atom_site_fract_y
 _atom_site_fract_z
 _atom_site_occupancy
  Tb  Tb0  1  0.000000  0.500000  0.526886  1
  Tb  Tb1  1  0.500000  0.000000  0.477631  1
  Ho  Ho2  1  0.500000  0.820005  0.207039  1
  Ho  Ho3  1  0.500000  0.179995  0.207039  1
  Ho  Ho4  1  0.000000  0.682656  0.796061  1
  Ho  Ho5  1  0.000000  0.317344  0.796061  1
  Ta  Ta6  1  0.500000  0.500000  0.154325  1
  Co  Co7  1  0.000000  0.500000  0.985263  1
  Co  Co8  1  0.500000  0.000000  0.014313  1
  Co  Co9  1  0.500000  0.295179  0.432225  1
  Co  Co10  1  0.500000  0.704821  0.432225  1
  Co  Co11  1  0.000000  0.202785  0.569719  1
  Co  Co12  1  0.000000  0.797215  0.569719  1
  Co  Co13  1  0.500000  0.879385  0.708456  1
  Co  Co14  1  0.500000  0.120615  0.708456  1
  Co  Co15  1  0.000000  0.622575  0.293061  1
  Co  Co16  1  0.000000  0.377425  0.293061  1
  Co  Co17  1  0.500000  0.330312  0.990036  1
  Co  Co18  1  0.500000  0.669688  0.990036  1
  Co  Co19  1  0.000000  0.163987  0.004298  1
  Co  Co20  1  0.000000  0.836013  0.004298  1
  Co  Co21  1  0.000000  0.000000  0.838921  1
  Co  Co22  1  0.500000  0.500000  0.702225  1
  Co  Co23  1  0.000000  0.000000  0.296373  1
  P  P24  1  0.500000  0.309641  0.617209  1
  P  P25  1  0.500000  0.690359  0.617209  1
  P  P26  1  0.000000  0.188569  0.385322  1
  P  P27  1  0.000000  0.811431  0.385322  1
  P  P28  1  0.500000  0.500000  0.880370  1
  P  P29  1  0.000000  0.000000  0.117360  1
  P  P30  1  0.500000  0.850876  0.890106  1
  P  P31  1  0.500000  0.149124  0.890106  1
  P  P32  1  0.000000  0.661252  0.103576  1
  P  P33  1  0.000000  0.338748  0.103576  1
  P  P34  1  0.500000  0.500000  0.355993  1
  P  P35  1  0.000000  0.000000  0.656126  1
