# generated using pymatgen
data_Lu3ScCo3Si4Rh
_symmetry_space_group_name_H-M   'P 1'
_cell_length_a   4.09630900
_cell_length_b   6.64605307
_cell_length_c   7.05379785
_cell_angle_alpha   89.87744150
_cell_angle_beta   90.00000000
_cell_angle_gamma   90.00000000
_symmetry_Int_Tables_number   1
_chemical_formula_structural   Lu3ScCo3Si4Rh
_chemical_formula_sum   'Lu3 Sc1 Co3 Si4 Rh1'
_cell_volume   192.03417776
_cell_formula_units_Z   1
loop_
 _symmetry_equiv_pos_site_id
 _symmetry_equiv_pos_as_xyz
  1  'x, y, z'
loop_
 _atom_site_type_symbol
 _atom_site_label
 _atom_site_symmetry_multiplicity
 _atom_site_fract_x
 _atom_site_fract_y
 _atom_site_fract_z
 _atom_site_occupancy
  Lu  Lu0  1  0.750000  0.003552  0.191470  1
  Lu  Lu1  1  0.250000  0.485936  0.692281  1
  Lu  Lu2  1  0.750000  0.501183  0.312625  1
  Sc  Sc3  1  0.250000  0.993483  0.797751  1
  Co  Co4  1  0.750000  0.852417  0.569426  1
  Co  Co5  1  0.250000  0.154583  0.442838  1
  Co  Co6  1  0.750000  0.351779  0.934073  1
  Si  Si7  1  0.250000  0.290127  0.098439  1
  Si  Si8  1  0.750000  0.706809  0.878683  1
  Si  Si9  1  0.250000  0.801851  0.407485  1
  Si  Si10  1  0.750000  0.196351  0.613181  1
  Rh  Rh11  1  0.250000  0.661928  0.061746  1
