# generated using pymatgen
data_RbHo(WO4)2
_symmetry_space_group_name_H-M   'P 1'
_cell_length_a   7.65359348
_cell_length_b   7.65359312
_cell_length_c   7.49211243
_cell_angle_alpha   62.31172171
_cell_angle_beta   62.31172336
_cell_angle_gamma   88.33382415
_symmetry_Int_Tables_number   1
_chemical_formula_structural   RbHo(WO4)2
_chemical_formula_sum   'Rb2 Ho2 W4 O16'
_cell_volume   334.20130160
_cell_formula_units_Z   2
loop_
 _symmetry_equiv_pos_site_id
 _symmetry_equiv_pos_as_xyz
  1  'x, y, z'
loop_
 _atom_site_type_symbol
 _atom_site_label
 _atom_site_symmetry_multiplicity
 _atom_site_fract_x
 _atom_site_fract_y
 _atom_site_fract_z
 _atom_site_occupancy
  Rb  Rb0  1  0.203356  0.796644  0.750000  1
  Rb  Rb1  1  0.796644  0.203356  0.250000  1
  Ho  Ho2  1  0.776129  0.223871  0.750000  1
  Ho  Ho3  1  0.223871  0.776129  0.250000  1
  W  W4  1  0.699923  0.690426  0.784857  1
  W  W5  1  0.300077  0.309574  0.215143  1
  W  W6  1  0.309574  0.300077  0.715143  1
  W  W7  1  0.690426  0.699923  0.284857  1
  O  O8  1  0.623718  0.752391  0.559437  1
  O  O9  1  0.376282  0.247609  0.440563  1
  O  O10  1  0.247609  0.376282  0.940563  1
  O  O11  1  0.752391  0.623718  0.059437  1
  O  O12  1  0.361818  0.055771  0.878611  1
  O  O13  1  0.638182  0.944229  0.121389  1
  O  O14  1  0.944229  0.638182  0.621389  1
  O  O15  1  0.055771  0.361818  0.378611  1
  O  O16  1  0.593956  0.373378  0.962171  1
  O  O17  1  0.406044  0.626622  0.037829  1
  O  O18  1  0.626622  0.406044  0.537829  1
  O  O19  1  0.373378  0.593956  0.462171  1
  O  O20  1  0.771802  0.956873  0.696992  1
  O  O21  1  0.228198  0.043127  0.303008  1
  O  O22  1  0.043127  0.228198  0.803008  1
  O  O23  1  0.956873  0.771802  0.196992  1
