# generated using pymatgen
data_Sm2Lu3Co19(Si3P)3
_symmetry_space_group_name_H-M   'P 1'
_cell_length_a   12.11836100
_cell_length_b   12.11836170
_cell_length_c   3.69941700
_cell_angle_alpha   90.00000000
_cell_angle_beta   90.00000000
_cell_angle_gamma   120.00000081
_symmetry_Int_Tables_number   1
_chemical_formula_structural   Sm2Lu3Co19(Si3P)3
_chemical_formula_sum   'Sm2 Lu3 Co19 Si9 P3'
_cell_volume   470.49142525
_cell_formula_units_Z   1
loop_
 _symmetry_equiv_pos_site_id
 _symmetry_equiv_pos_as_xyz
  1  'x, y, z'
loop_
 _atom_site_type_symbol
 _atom_site_label
 _atom_site_symmetry_multiplicity
 _atom_site_fract_x
 _atom_site_fract_y
 _atom_site_fract_z
 _atom_site_occupancy
  Sm  Sm0  1  0.666667  0.333333  0.000000  1
  Sm  Sm1  1  0.333333  0.666667  0.000000  1
  Lu  Lu2  1  0.183996  0.183996  0.500000  1
  Lu  Lu3  1  0.816004  0.000000  0.500000  1
  Lu  Lu4  1  0.000000  0.816004  0.500000  1
  Co  Co5  1  0.825389  0.195328  0.000000  1
  Co  Co6  1  0.804672  0.630058  0.000000  1
  Co  Co7  1  0.369942  0.174611  0.000000  1
  Co  Co8  1  0.195328  0.825389  0.000000  1
  Co  Co9  1  0.630058  0.804672  0.000000  1
  Co  Co10  1  0.174611  0.369942  0.000000  1
  Co  Co11  1  0.557409  0.557409  0.000000  1
  Co  Co12  1  0.442591  0.000000  0.000000  1
  Co  Co13  1  0.000000  0.442591  0.000000  1
  Co  Co14  1  0.645860  0.122435  0.500000  1
  Co  Co15  1  0.877565  0.523426  0.500000  1
  Co  Co16  1  0.476574  0.354140  0.500000  1
  Co  Co17  1  0.122435  0.645860  0.500000  1
  Co  Co18  1  0.523426  0.877565  0.500000  1
  Co  Co19  1  0.354140  0.476574  0.500000  1
  Co  Co20  1  0.725561  0.725561  0.500000  1
  Co  Co21  1  0.274439  0.000000  0.500000  1
  Co  Co22  1  0.000000  0.274439  0.500000  1
  Co  Co23  1  0.000000  0.000000  0.000000  1
  Si  Si24  1  0.368268  0.368268  0.000000  1
  Si  Si25  1  0.631732  0.000000  0.000000  1
  Si  Si26  1  0.000000  0.631732  0.000000  1
  Si  Si27  1  0.843321  0.318950  0.500000  1
  Si  Si28  1  0.681050  0.524371  0.500000  1
  Si  Si29  1  0.475629  0.156679  0.500000  1
  Si  Si30  1  0.318950  0.843321  0.500000  1
  Si  Si31  1  0.524371  0.681050  0.500000  1
  Si  Si32  1  0.156679  0.475629  0.500000  1
  P  P33  1  0.821307  0.821307  0.000000  1
  P  P34  1  0.178693  0.000000  0.000000  1
  P  P35  1  0.000000  0.178693  0.000000  1
