# generated using pymatgen
data_Ba3TmMn2O9
_symmetry_space_group_name_H-M   'P 1'
_cell_length_a   5.87904709
_cell_length_b   5.87904660
_cell_length_c   14.42950000
_cell_angle_alpha   90.00000000
_cell_angle_beta   90.00000000
_cell_angle_gamma   59.98462677
_symmetry_Int_Tables_number   1
_chemical_formula_structural   Ba3TmMn2O9
_chemical_formula_sum   'Ba6 Tm2 Mn4 O18'
_cell_volume   431.84555855
_cell_formula_units_Z   2
loop_
 _symmetry_equiv_pos_site_id
 _symmetry_equiv_pos_as_xyz
  1  'x, y, z'
loop_
 _atom_site_type_symbol
 _atom_site_label
 _atom_site_symmetry_multiplicity
 _atom_site_fract_x
 _atom_site_fract_y
 _atom_site_fract_z
 _atom_site_occupancy
  Ba  Ba0  1  0.332277  0.332277  0.910755  1
  Ba  Ba1  1  0.667723  0.667723  0.410755  1
  Ba  Ba2  1  0.665728  0.665728  0.100729  1
  Ba  Ba3  1  0.334272  0.334272  0.600728  1
  Ba  Ba4  1  0.999893  0.999893  0.755790  1
  Ba  Ba5  1  0.000107  0.000107  0.255790  1
  Tm  Tm6  1  0.998836  0.998836  0.005748  1
  Tm  Tm7  1  0.001165  0.001165  0.505749  1
  Mn  Mn8  1  0.665768  0.665768  0.846676  1
  Mn  Mn9  1  0.334232  0.334232  0.346677  1
  Mn  Mn10  1  0.332490  0.332490  0.164785  1
  Mn  Mn11  1  0.667510  0.667510  0.664786  1
  O  O12  1  0.521744  0.521744  0.755124  1
  O  O13  1  0.478257  0.478257  0.255125  1
  O  O14  1  0.521606  0.956614  0.756025  1
  O  O15  1  0.478394  0.043387  0.256025  1
  O  O16  1  0.956614  0.521606  0.756025  1
  O  O17  1  0.043387  0.478394  0.256025  1
  O  O18  1  0.646143  0.174862  0.093632  1
  O  O19  1  0.353857  0.825139  0.593632  1
  O  O20  1  0.174862  0.646143  0.093632  1
  O  O21  1  0.825139  0.353857  0.593632  1
  O  O22  1  0.350902  0.822369  0.917392  1
  O  O23  1  0.649099  0.177631  0.417391  1
  O  O24  1  0.822369  0.350902  0.917392  1
  O  O25  1  0.177631  0.649099  0.417391  1
  O  O26  1  0.174826  0.174826  0.094265  1
  O  O27  1  0.825173  0.825173  0.594265  1
  O  O28  1  0.822295  0.822295  0.918132  1
  O  O29  1  0.177705  0.177705  0.418131  1
