# generated using pymatgen
data_KNd2CuSe4
_symmetry_space_group_name_H-M   'P 1'
_cell_length_a   7.52347881
_cell_length_b   7.52347879
_cell_length_c   14.64408600
_cell_angle_alpha   90.00000000
_cell_angle_beta   90.00000000
_cell_angle_gamma   147.42630052
_symmetry_Int_Tables_number   1
_chemical_formula_structural   KNd2CuSe4
_chemical_formula_sum   'K2 Nd4 Cu2 Se8'
_cell_volume   446.26397748
_cell_formula_units_Z   2
loop_
 _symmetry_equiv_pos_site_id
 _symmetry_equiv_pos_as_xyz
  1  'x, y, z'
loop_
 _atom_site_type_symbol
 _atom_site_label
 _atom_site_symmetry_multiplicity
 _atom_site_fract_x
 _atom_site_fract_y
 _atom_site_fract_z
 _atom_site_occupancy
  K  K0  1  0.109369  0.890631  0.250000  1
  K  K1  1  0.890631  0.109369  0.750000  1
  Nd  Nd2  1  0.634973  0.365027  0.935824  1
  Nd  Nd3  1  0.365027  0.634973  0.435824  1
  Nd  Nd4  1  0.634973  0.365027  0.564176  1
  Nd  Nd5  1  0.365027  0.634973  0.064176  1
  Cu  Cu6  1  0.161416  0.838584  0.750000  1
  Cu  Cu7  1  0.838584  0.161416  0.250000  1
  Se  Se8  1  0.000000  0.000000  0.500000  1
  Se  Se9  1  0.000000  0.000000  0.000000  1
  Se  Se10  1  0.734255  0.265745  0.115968  1
  Se  Se11  1  0.265745  0.734255  0.884032  1
  Se  Se12  1  0.565705  0.434295  0.750000  1
  Se  Se13  1  0.734255  0.265745  0.384032  1
  Se  Se14  1  0.434295  0.565705  0.250000  1
  Se  Se15  1  0.265745  0.734255  0.615968  1
