# generated using pymatgen
data_Cs3Li2ZrP3
_symmetry_space_group_name_H-M   'P 1'
_cell_length_a   10.39438947
_cell_length_b   10.39439022
_cell_length_c   16.69996900
_cell_angle_alpha   90.00000000
_cell_angle_beta   90.00000000
_cell_angle_gamma   143.14329748
_symmetry_Int_Tables_number   1
_chemical_formula_structural   Cs3Li2ZrP3
_chemical_formula_sum   'Cs12 Li8 Zr4 P12'
_cell_volume   1082.25980478
_cell_formula_units_Z   4
loop_
 _symmetry_equiv_pos_site_id
 _symmetry_equiv_pos_as_xyz
  1  'x, y, z'
loop_
 _atom_site_type_symbol
 _atom_site_label
 _atom_site_symmetry_multiplicity
 _atom_site_fract_x
 _atom_site_fract_y
 _atom_site_fract_z
 _atom_site_occupancy
  Cs  Cs0  1  0.951049  0.606824  0.828653  1
  Cs  Cs1  1  0.548951  0.893176  0.328653  1
  Cs  Cs2  1  0.393176  0.048951  0.171347  1
  Cs  Cs3  1  0.048951  0.393176  0.171347  1
  Cs  Cs4  1  0.893176  0.548951  0.328653  1
  Cs  Cs5  1  0.451049  0.106824  0.671347  1
  Cs  Cs6  1  0.606824  0.951049  0.828653  1
  Cs  Cs7  1  0.289891  0.289891  0.320084  1
  Cs  Cs8  1  0.789891  0.789891  0.179916  1
  Cs  Cs9  1  0.210109  0.210109  0.820084  1
  Cs  Cs10  1  0.710109  0.710109  0.679916  1
  Cs  Cs11  1  0.106824  0.451049  0.671347  1
  Li  Li12  1  0.917252  0.082748  0.000000  1
  Li  Li13  1  0.582748  0.417252  0.500000  1
  Li  Li14  1  0.082748  0.917252  0.000000  1
  Li  Li15  1  0.417252  0.582748  0.500000  1
  Li  Li16  1  0.750597  0.249403  0.000000  1
  Li  Li17  1  0.749403  0.250597  0.500000  1
  Li  Li18  1  0.249403  0.750597  0.000000  1
  Li  Li19  1  0.250597  0.749403  0.500000  1
  Zr  Zr20  1  0.587500  0.412500  0.000000  1
  Zr  Zr21  1  0.912500  0.087500  0.500000  1
  Zr  Zr22  1  0.412500  0.587500  0.000000  1
  Zr  Zr23  1  0.087500  0.912500  0.500000  1
  P  P24  1  0.896231  0.572349  0.079962  1
  P  P25  1  0.427651  0.103769  0.920038  1
  P  P26  1  0.603769  0.927651  0.579962  1
  P  P27  1  0.927651  0.603769  0.579962  1
  P  P28  1  0.103769  0.427651  0.920038  1
  P  P29  1  0.572349  0.896231  0.079962  1
  P  P30  1  0.396231  0.072349  0.420038  1
  P  P31  1  0.222651  0.222651  0.577596  1
  P  P32  1  0.722651  0.722651  0.922404  1
  P  P33  1  0.277349  0.277349  0.077596  1
  P  P34  1  0.072349  0.396231  0.420038  1
  P  P35  1  0.777349  0.777349  0.422404  1
