# generated using pymatgen
data_Er9TmOs4
_symmetry_space_group_name_H-M   'P 1'
_cell_length_a   6.29203894
_cell_length_b   7.32359766
_cell_length_c   8.33368769
_cell_angle_alpha   96.94246281
_cell_angle_beta   112.17929402
_cell_angle_gamma   90.00000711
_symmetry_Int_Tables_number   1
_chemical_formula_structural   Er9TmOs4
_chemical_formula_sum   'Er9 Tm1 Os4'
_cell_volume   352.56215668
_cell_formula_units_Z   1
loop_
 _symmetry_equiv_pos_site_id
 _symmetry_equiv_pos_as_xyz
  1  'x, y, z'
loop_
 _atom_site_type_symbol
 _atom_site_label
 _atom_site_symmetry_multiplicity
 _atom_site_fract_x
 _atom_site_fract_y
 _atom_site_fract_z
 _atom_site_occupancy
  Er  Er0  1  0.792712  0.083549  0.817148  1
  Er  Er1  1  0.975564  0.416451  0.182852  1
  Er  Er2  1  0.207174  0.916194  0.182819  1
  Er  Er3  1  0.024355  0.583806  0.817181  1
  Er  Er4  1  0.203702  0.182720  0.564154  1
  Er  Er5  1  0.639549  0.317280  0.435846  1
  Er  Er6  1  0.796180  0.817192  0.435665  1
  Er  Er7  1  0.360515  0.682808  0.564335  1
  Er  Er8  1  0.420391  0.250000  0.000000  1
  Tm  Tm9  1  0.579337  0.750000  0.000000  1
  Os  Os10  1  0.602925  0.422233  0.780886  1
  Os  Os11  1  0.822038  0.077767  0.219114  1
  Os  Os12  1  0.397339  0.578372  0.219121  1
  Os  Os13  1  0.178219  0.921628  0.780879  1
