# generated using pymatgen
data_LiYB6Os
_symmetry_space_group_name_H-M   'P 1'
_cell_length_a   3.52012800
_cell_length_b   8.87371700
_cell_length_c   11.23402700
_cell_angle_alpha   90.00000000
_cell_angle_beta   90.00000000
_cell_angle_gamma   90.00000000
_symmetry_Int_Tables_number   1
_chemical_formula_structural   LiYB6Os
_chemical_formula_sum   'Li4 Y4 B24 Os4'
_cell_volume   350.91302883
_cell_formula_units_Z   4
loop_
 _symmetry_equiv_pos_site_id
 _symmetry_equiv_pos_as_xyz
  1  'x, y, z'
loop_
 _atom_site_type_symbol
 _atom_site_label
 _atom_site_symmetry_multiplicity
 _atom_site_fract_x
 _atom_site_fract_y
 _atom_site_fract_z
 _atom_site_occupancy
  Li  Li0  1  0.000000  0.944280  0.372034  1
  Li  Li1  1  0.000000  0.055720  0.627966  1
  Li  Li2  1  0.000000  0.444280  0.127966  1
  Li  Li3  1  0.000000  0.555720  0.872034  1
  Y  Y4  1  0.000000  0.320914  0.413266  1
  Y  Y5  1  0.000000  0.679086  0.586734  1
  Y  Y6  1  0.000000  0.820914  0.086734  1
  Y  Y7  1  0.000000  0.179086  0.913266  1
  B  B8  1  0.500000  0.554397  0.432436  1
  B  B9  1  0.500000  0.445603  0.567564  1
  B  B10  1  0.500000  0.054397  0.067564  1
  B  B11  1  0.500000  0.945603  0.932436  1
  B  B12  1  0.500000  0.759180  0.417398  1
  B  B13  1  0.500000  0.240820  0.582602  1
  B  B14  1  0.500000  0.259180  0.082602  1
  B  B15  1  0.500000  0.740820  0.917398  1
  B  B16  1  0.500000  0.794820  0.264071  1
  B  B17  1  0.500000  0.205180  0.735928  1
  B  B18  1  0.500000  0.294820  0.235929  1
  B  B19  1  0.500000  0.705180  0.764072  1
  B  B20  1  0.500000  0.625022  0.181582  1
  B  B21  1  0.500000  0.374978  0.818418  1
  B  B22  1  0.500000  0.125022  0.318418  1
  B  B23  1  0.500000  0.874978  0.681582  1
  B  B24  1  0.500000  0.978940  0.214458  1
  B  B25  1  0.500000  0.021060  0.785542  1
  B  B26  1  0.500000  0.478940  0.285542  1
  B  B27  1  0.500000  0.521060  0.714458  1
  B  B28  1  0.500000  0.592249  0.025505  1
  B  B29  1  0.500000  0.407751  0.974495  1
  B  B30  1  0.500000  0.092249  0.474495  1
  B  B31  1  0.500000  0.907751  0.525505  1
  Os  Os32  1  0.000000  0.641187  0.318704  1
  Os  Os33  1  0.000000  0.358813  0.681296  1
  Os  Os34  1  0.000000  0.141187  0.181296  1
  Os  Os35  1  0.000000  0.858813  0.818704  1
