# generated using pymatgen
data_Ba5Al3Ga2Pb
_symmetry_space_group_name_H-M   'P 1'
_cell_length_a   6.06179300
_cell_length_b   6.06179298
_cell_length_c   11.28716100
_cell_angle_alpha   90.00000000
_cell_angle_beta   90.00000000
_cell_angle_gamma   119.99999463
_symmetry_Int_Tables_number   1
_chemical_formula_structural   Ba5Al3Ga2Pb
_chemical_formula_sum   'Ba5 Al3 Ga2 Pb1'
_cell_volume   359.18449208
_cell_formula_units_Z   1
loop_
 _symmetry_equiv_pos_site_id
 _symmetry_equiv_pos_as_xyz
  1  'x, y, z'
loop_
 _atom_site_type_symbol
 _atom_site_label
 _atom_site_symmetry_multiplicity
 _atom_site_fract_x
 _atom_site_fract_y
 _atom_site_fract_z
 _atom_site_occupancy
  Ba  Ba0  1  0.666667  0.333333  0.828788  1
  Ba  Ba1  1  0.333333  0.666667  0.702030  1
  Ba  Ba2  1  0.333333  0.666667  0.297970  1
  Ba  Ba3  1  0.666667  0.333333  0.171212  1
  Ba  Ba4  1  0.000000  0.000000  0.500000  1
  Al  Al5  1  0.175496  0.824504  0.000000  1
  Al  Al6  1  0.175496  0.350992  0.000000  1
  Al  Al7  1  0.649008  0.824504  0.000000  1
  Ga  Ga8  1  0.000000  0.000000  0.177378  1
  Ga  Ga9  1  0.000000  0.000000  0.822622  1
  Pb  Pb10  1  0.666667  0.333333  0.500000  1
