# generated using pymatgen
data_Tb4Er3Tm3Sn8
_symmetry_space_group_name_H-M   'P 1'
_cell_length_a   7.99387100
_cell_length_b   8.13477502
_cell_length_c   15.37342304
_cell_angle_alpha   89.99142464
_cell_angle_beta   90.00000000
_cell_angle_gamma   90.00000000
_symmetry_Int_Tables_number   1
_chemical_formula_structural   Tb4Er3Tm3Sn8
_chemical_formula_sum   'Tb8 Er6 Tm6 Sn16'
_cell_volume   999.70820240
_cell_formula_units_Z   2
loop_
 _symmetry_equiv_pos_site_id
 _symmetry_equiv_pos_as_xyz
  1  'x, y, z'
loop_
 _atom_site_type_symbol
 _atom_site_label
 _atom_site_symmetry_multiplicity
 _atom_site_fract_x
 _atom_site_fract_y
 _atom_site_fract_z
 _atom_site_occupancy
  Tb  Tb0  1  0.520709  0.320550  0.902713  1
  Tb  Tb1  1  0.020709  0.179450  0.597287  1
  Tb  Tb2  1  0.479314  0.679509  0.402806  1
  Tb  Tb3  1  0.979314  0.820491  0.097194  1
  Tb  Tb4  1  0.479315  0.679510  0.097261  1
  Tb  Tb5  1  0.979315  0.820490  0.402739  1
  Tb  Tb6  1  0.520670  0.320501  0.597264  1
  Tb  Tb7  1  0.020670  0.179499  0.902736  1
  Er  Er8  1  0.367029  0.836477  0.877410  1
  Er  Er9  1  0.867029  0.663523  0.622590  1
  Er  Er10  1  0.633016  0.163556  0.377446  1
  Er  Er11  1  0.133016  0.336444  0.122554  1
  Er  Er12  1  0.632995  0.163498  0.122486  1
  Er  Er13  1  0.132995  0.336502  0.377514  1
  Tm  Tm14  1  0.366926  0.836509  0.622611  1
  Tm  Tm15  1  0.866926  0.663491  0.877389  1
  Tm  Tm16  1  0.198074  0.503889  0.749978  1
  Tm  Tm17  1  0.698074  0.996111  0.750022  1
  Tm  Tm18  1  0.801908  0.496265  0.249994  1
  Tm  Tm19  1  0.301908  0.003735  0.250006  1
  Sn  Sn20  1  0.294494  0.037212  0.041774  1
  Sn  Sn21  1  0.794494  0.462788  0.458226  1
  Sn  Sn22  1  0.705233  0.962703  0.541813  1
  Sn  Sn23  1  0.205233  0.537297  0.958187  1
  Sn  Sn24  1  0.705678  0.962525  0.958167  1
  Sn  Sn25  1  0.205678  0.537475  0.541833  1
  Sn  Sn26  1  0.294569  0.037048  0.458375  1
  Sn  Sn27  1  0.794569  0.462952  0.041625  1
  Sn  Sn28  1  0.564283  0.620969  0.749997  1
  Sn  Sn29  1  0.064283  0.879031  0.750003  1
  Sn  Sn30  1  0.435722  0.379170  0.250001  1
  Sn  Sn31  1  0.935722  0.120830  0.249999  1
  Sn  Sn32  1  0.329551  0.146967  0.749935  1
  Sn  Sn33  1  0.829551  0.353033  0.750065  1
  Sn  Sn34  1  0.670512  0.852949  0.250007  1
  Sn  Sn35  1  0.170512  0.647051  0.249993  1
