# generated using pymatgen
data_Pr16Hg4Pt3Rh
_symmetry_space_group_name_H-M   'P 1'
_cell_length_a   10.05882059
_cell_length_b   10.05882050
_cell_length_c   10.05882009
_cell_angle_alpha   60.04922662
_cell_angle_beta   60.04922908
_cell_angle_gamma   60.04923053
_symmetry_Int_Tables_number   1
_chemical_formula_structural   Pr16Hg4Pt3Rh
_chemical_formula_sum   'Pr16 Hg4 Pt3 Rh1'
_cell_volume   720.46099674
_cell_formula_units_Z   1
loop_
 _symmetry_equiv_pos_site_id
 _symmetry_equiv_pos_as_xyz
  1  'x, y, z'
loop_
 _atom_site_type_symbol
 _atom_site_label
 _atom_site_symmetry_multiplicity
 _atom_site_fract_x
 _atom_site_fract_y
 _atom_site_fract_z
 _atom_site_occupancy
  Pr  Pr0  1  0.351486  0.351486  0.351486  1
  Pr  Pr1  1  0.350695  0.350695  0.945256  1
  Pr  Pr2  1  0.350695  0.945256  0.350695  1
  Pr  Pr3  1  0.945256  0.350695  0.350695  1
  Pr  Pr4  1  0.814309  0.190419  0.190419  1
  Pr  Pr5  1  0.190312  0.808304  0.808304  1
  Pr  Pr6  1  0.190419  0.814309  0.190419  1
  Pr  Pr7  1  0.808304  0.190312  0.808304  1
  Pr  Pr8  1  0.190419  0.190419  0.814309  1
  Pr  Pr9  1  0.808304  0.808304  0.190312  1
  Pr  Pr10  1  0.938938  0.562593  0.562593  1
  Pr  Pr11  1  0.560626  0.936666  0.936666  1
  Pr  Pr12  1  0.562593  0.938938  0.562593  1
  Pr  Pr13  1  0.936666  0.560626  0.936666  1
  Pr  Pr14  1  0.562593  0.562593  0.938938  1
  Pr  Pr15  1  0.936666  0.936666  0.560626  1
  Hg  Hg16  1  0.584105  0.584105  0.584105  1
  Hg  Hg17  1  0.585017  0.585017  0.245608  1
  Hg  Hg18  1  0.585017  0.245608  0.585017  1
  Hg  Hg19  1  0.245608  0.585017  0.585017  1
  Pt  Pt20  1  0.144011  0.144011  0.570412  1
  Pt  Pt21  1  0.144011  0.570412  0.144011  1
  Pt  Pt22  1  0.570412  0.144011  0.144011  1
  Rh  Rh23  1  0.143535  0.143535  0.143535  1
