# generated using pymatgen
data_Tb11YCo5Sb
_symmetry_space_group_name_H-M   'P 1'
_cell_length_a   8.32474664
_cell_length_b   8.32474713
_cell_length_c   8.31654063
_cell_angle_alpha   110.80668914
_cell_angle_beta   110.57976632
_cell_angle_gamma   107.09575201
_symmetry_Int_Tables_number   1
_chemical_formula_structural   Tb11YCo5Sb
_chemical_formula_sum   'Tb11 Y1 Co5 Sb1'
_cell_volume   442.86333908
_cell_formula_units_Z   1
loop_
 _symmetry_equiv_pos_site_id
 _symmetry_equiv_pos_as_xyz
  1  'x, y, z'
loop_
 _atom_site_type_symbol
 _atom_site_label
 _atom_site_symmetry_multiplicity
 _atom_site_fract_x
 _atom_site_fract_y
 _atom_site_fract_z
 _atom_site_occupancy
  Tb  Tb0  1  0.184776  0.291398  0.476174  1
  Tb  Tb1  1  0.184342  0.708247  0.892589  1
  Tb  Tb2  1  0.815430  0.291678  0.107107  1
  Tb  Tb3  1  0.687279  0.379342  0.692158  1
  Tb  Tb4  1  0.312605  0.620652  0.307693  1
  Tb  Tb5  1  0.687041  0.995089  0.307693  1
  Tb  Tb6  1  0.312817  0.004880  0.692158  1
  Tb  Tb7  1  0.600630  0.793591  0.807085  1
  Tb  Tb8  1  0.399068  0.206249  0.192783  1
  Tb  Tb9  1  0.986534  0.793716  0.192783  1
  Tb  Tb10  1  0.013495  0.206456  0.807085  1
  Y  Y11  1  0.814519  0.708901  0.523420  1
  Co  Co12  1  0.623809  0.999527  0.623336  1
  Co  Co13  1  0.376229  0.000148  0.376378  1
  Co  Co14  1  0.112539  0.611777  0.500477  1
  Co  Co15  1  0.888699  0.387938  0.500477  1
  Co  Co16  1  0.999944  0.000261  0.000205  1
  Sb  Sb17  1  0.500246  0.500153  0.000399  1
