# generated using pymatgen
data_EuTh(Ga3Ir)3
_symmetry_space_group_name_H-M   'P 1'
_cell_length_a   7.66606002
_cell_length_b   7.67433222
_cell_length_c   9.57392800
_cell_angle_alpha   90.00000000
_cell_angle_beta   90.00000000
_cell_angle_gamma   119.70759328
_symmetry_Int_Tables_number   1
_chemical_formula_structural   EuTh(Ga3Ir)3
_chemical_formula_sum   'Eu2 Th2 Ga18 Ir6'
_cell_volume   489.22170372
_cell_formula_units_Z   2
loop_
 _symmetry_equiv_pos_site_id
 _symmetry_equiv_pos_as_xyz
  1  'x, y, z'
loop_
 _atom_site_type_symbol
 _atom_site_label
 _atom_site_symmetry_multiplicity
 _atom_site_fract_x
 _atom_site_fract_y
 _atom_site_fract_z
 _atom_site_occupancy
  Eu  Eu0  1  0.669257  0.995990  0.250000  1
  Eu  Eu1  1  0.330743  0.004010  0.750000  1
  Th  Th2  1  0.997974  0.668374  0.250000  1
  Th  Th3  1  0.002026  0.331626  0.750000  1
  Ga  Ga4  1  0.131423  0.129407  0.250000  1
  Ga  Ga5  1  0.868577  0.870593  0.750000  1
  Ga  Ga6  1  0.000312  0.329355  0.081418  1
  Ga  Ga7  1  0.999688  0.670645  0.918582  1
  Ga  Ga8  1  0.999688  0.670645  0.581418  1
  Ga  Ga9  1  0.339711  0.004044  0.423913  1
  Ga  Ga10  1  0.000312  0.329355  0.418582  1
  Ga  Ga11  1  0.660289  0.995956  0.576087  1
  Ga  Ga12  1  0.660289  0.995956  0.923913  1
  Ga  Ga13  1  0.339711  0.004044  0.076087  1
  Ga  Ga14  1  0.336400  0.332519  0.561064  1
  Ga  Ga15  1  0.663600  0.667481  0.438936  1
  Ga  Ga16  1  0.663600  0.667481  0.061064  1
  Ga  Ga17  1  0.336400  0.332519  0.938936  1
  Ga  Ga18  1  0.340716  0.543753  0.250000  1
  Ga  Ga19  1  0.659284  0.456247  0.750000  1
  Ga  Ga20  1  0.543222  0.336510  0.250000  1
  Ga  Ga21  1  0.456778  0.663490  0.750000  1
  Ir  Ir22  1  0.676601  0.333907  0.999882  1
  Ir  Ir23  1  0.323399  0.666093  0.000118  1
  Ir  Ir24  1  0.323399  0.666093  0.499882  1
  Ir  Ir25  1  0.676601  0.333907  0.500118  1
  Ir  Ir26  1  0.000000  0.000000  0.000000  1
  Ir  Ir27  1  0.000000  0.000000  0.500000  1
