# generated using pymatgen
data_Y3Ga(SiRh3)2
_symmetry_space_group_name_H-M   'P 1'
_cell_length_a   5.59238800
_cell_length_b   5.59238607
_cell_length_c   15.29413200
_cell_angle_alpha   90.00000000
_cell_angle_beta   90.00000000
_cell_angle_gamma   119.99998777
_symmetry_Int_Tables_number   1
_chemical_formula_structural   Y3Ga(SiRh3)2
_chemical_formula_sum   'Y6 Ga2 Si4 Rh12'
_cell_volume   414.23802233
_cell_formula_units_Z   2
loop_
 _symmetry_equiv_pos_site_id
 _symmetry_equiv_pos_as_xyz
  1  'x, y, z'
loop_
 _atom_site_type_symbol
 _atom_site_label
 _atom_site_symmetry_multiplicity
 _atom_site_fract_x
 _atom_site_fract_y
 _atom_site_fract_z
 _atom_site_occupancy
  Y  Y0  1  0.333333  0.666667  0.537968  1
  Y  Y1  1  0.666667  0.333333  0.462032  1
  Y  Y2  1  0.666667  0.333333  0.037968  1
  Y  Y3  1  0.333333  0.666667  0.962032  1
  Y  Y4  1  0.333333  0.666667  0.750000  1
  Y  Y5  1  0.666667  0.333333  0.250000  1
  Ga  Ga6  1  0.000000  0.000000  0.000000  1
  Ga  Ga7  1  0.000000  0.000000  0.500000  1
  Si  Si8  1  0.000000  0.000000  0.250000  1
  Si  Si9  1  0.000000  0.000000  0.750000  1
  Si  Si10  1  0.333333  0.666667  0.250000  1
  Si  Si11  1  0.666667  0.333333  0.750000  1
  Rh  Rh12  1  0.167588  0.335177  0.133938  1
  Rh  Rh13  1  0.832412  0.664823  0.866062  1
  Rh  Rh14  1  0.664823  0.832412  0.133938  1
  Rh  Rh15  1  0.832412  0.664823  0.633938  1
  Rh  Rh16  1  0.335177  0.167588  0.866062  1
  Rh  Rh17  1  0.167588  0.335177  0.366062  1
  Rh  Rh18  1  0.167588  0.832412  0.133938  1
  Rh  Rh19  1  0.335177  0.167588  0.633938  1
  Rh  Rh20  1  0.832412  0.167588  0.866062  1
  Rh  Rh21  1  0.664823  0.832412  0.366062  1
  Rh  Rh22  1  0.832412  0.167588  0.633938  1
  Rh  Rh23  1  0.167588  0.832412  0.366062  1
