# generated using pymatgen
data_Pr6Si4IrRh3
_symmetry_space_group_name_H-M   'P 1'
_cell_length_a   5.84317411
_cell_length_b   5.84317338
_cell_length_c   13.54901000
_cell_angle_alpha   90.00000000
_cell_angle_beta   90.00000000
_cell_angle_gamma   137.95338192
_symmetry_Int_Tables_number   1
_chemical_formula_structural   Pr6Si4IrRh3
_chemical_formula_sum   'Pr6 Si4 Ir1 Rh3'
_cell_volume   309.81909641
_cell_formula_units_Z   1
loop_
 _symmetry_equiv_pos_site_id
 _symmetry_equiv_pos_as_xyz
  1  'x, y, z'
loop_
 _atom_site_type_symbol
 _atom_site_label
 _atom_site_symmetry_multiplicity
 _atom_site_fract_x
 _atom_site_fract_y
 _atom_site_fract_z
 _atom_site_occupancy
  Pr  Pr0  1  0.771429  0.228571  0.603226  1
  Pr  Pr1  1  0.516850  0.483150  0.250000  1
  Pr  Pr2  1  0.228166  0.771834  0.396861  1
  Pr  Pr3  1  0.771429  0.228571  0.896774  1
  Pr  Pr4  1  0.481582  0.518418  0.750000  1
  Pr  Pr5  1  0.228166  0.771834  0.103139  1
  Si  Si6  1  0.059306  0.940694  0.586847  1
  Si  Si7  1  0.059306  0.940694  0.913153  1
  Si  Si8  1  0.941270  0.058730  0.413670  1
  Si  Si9  1  0.941270  0.058730  0.086330  1
  Ir  Ir10  1  0.182673  0.817327  0.750000  1
  Rh  Rh11  1  0.817586  0.182414  0.250000  1
  Rh  Rh12  1  0.500484  0.499516  0.000113  1
  Rh  Rh13  1  0.500484  0.499516  0.499887  1
