# generated using pymatgen
data_Ce3Er5(CdRu)2
_symmetry_space_group_name_H-M   'P 1'
_cell_length_a   9.52364328
_cell_length_b   9.52364260
_cell_length_c   9.61591070
_cell_angle_alpha   60.21723601
_cell_angle_beta   60.21723468
_cell_angle_gamma   60.57779165
_symmetry_Int_Tables_number   1
_chemical_formula_structural   Ce3Er5(CdRu)2
_chemical_formula_sum   'Ce6 Er10 Cd4 Ru4'
_cell_volume   621.40243602
_cell_formula_units_Z   2
loop_
 _symmetry_equiv_pos_site_id
 _symmetry_equiv_pos_as_xyz
  1  'x, y, z'
loop_
 _atom_site_type_symbol
 _atom_site_label
 _atom_site_symmetry_multiplicity
 _atom_site_fract_x
 _atom_site_fract_y
 _atom_site_fract_z
 _atom_site_occupancy
  Ce  Ce0  1  0.188087  0.811002  0.185174  1
  Ce  Ce1  1  0.811002  0.188088  0.185175  1
  Ce  Ce2  1  0.347880  0.347880  0.957094  1
  Ce  Ce3  1  0.349415  0.957719  0.347562  1
  Ce  Ce4  1  0.957719  0.349415  0.347562  1
  Ce  Ce5  1  0.344894  0.344894  0.354568  1
  Er  Er6  1  0.560272  0.560272  0.937738  1
  Er  Er7  1  0.935652  0.563568  0.933943  1
  Er  Er8  1  0.563568  0.935652  0.933943  1
  Er  Er9  1  0.937592  0.937592  0.564071  1
  Er  Er10  1  0.564394  0.934092  0.565256  1
  Er  Er11  1  0.934092  0.564394  0.565256  1
  Er  Er12  1  0.190407  0.190407  0.804785  1
  Er  Er13  1  0.812309  0.186226  0.809467  1
  Er  Er14  1  0.186225  0.812310  0.809467  1
  Er  Er15  1  0.809053  0.809054  0.185088  1
  Cd  Cd16  1  0.583068  0.583068  0.252939  1
  Cd  Cd17  1  0.580583  0.253434  0.583697  1
  Cd  Cd18  1  0.253434  0.580583  0.583697  1
  Cd  Cd19  1  0.581143  0.581143  0.580156  1
  Ru  Ru20  1  0.143217  0.143217  0.561830  1
  Ru  Ru21  1  0.153708  0.582077  0.149414  1
  Ru  Ru22  1  0.582077  0.153708  0.149414  1
  Ru  Ru23  1  0.130208  0.130208  0.152705  1
