# generated using pymatgen
data_SmHo2RuI3
_symmetry_space_group_name_H-M   'P 1'
_cell_length_a   4.23149800
_cell_length_b   8.94716821
_cell_length_c   12.33373023
_cell_angle_alpha   94.96399128
_cell_angle_beta   90.00000000
_cell_angle_gamma   90.00000000
_symmetry_Int_Tables_number   1
_chemical_formula_structural   SmHo2RuI3
_chemical_formula_sum   'Sm2 Ho4 Ru2 I6'
_cell_volume   465.20267788
_cell_formula_units_Z   2
loop_
 _symmetry_equiv_pos_site_id
 _symmetry_equiv_pos_as_xyz
  1  'x, y, z'
loop_
 _atom_site_type_symbol
 _atom_site_label
 _atom_site_symmetry_multiplicity
 _atom_site_fract_x
 _atom_site_fract_y
 _atom_site_fract_z
 _atom_site_occupancy
  Sm  Sm0  1  0.750000  0.272981  0.605337  1
  Sm  Sm1  1  0.250000  0.727019  0.394663  1
  Ho  Ho2  1  0.750000  0.880401  0.625243  1
  Ho  Ho3  1  0.250000  0.119599  0.374757  1
  Ho  Ho4  1  0.750000  0.893321  0.183283  1
  Ho  Ho5  1  0.250000  0.106679  0.816717  1
  Ru  Ru6  1  0.750000  0.939054  0.404858  1
  Ru  Ru7  1  0.250000  0.060946  0.595142  1
  I  I8  1  0.750000  0.415258  0.363369  1
  I  I9  1  0.250000  0.584742  0.636631  1
  I  I10  1  0.750000  0.867721  0.889165  1
  I  I11  1  0.250000  0.132279  0.110835  1
  I  I12  1  0.750000  0.357951  0.870771  1
  I  I13  1  0.250000  0.642049  0.129229  1
