# generated using pymatgen
data_Dy2Er3Co19(SiP3)3
_symmetry_space_group_name_H-M   'P 1'
_cell_length_a   12.02477900
_cell_length_b   12.02477917
_cell_length_c   3.67718600
_cell_angle_alpha   90.00000000
_cell_angle_beta   90.00000000
_cell_angle_gamma   120.00000228
_symmetry_Int_Tables_number   1
_chemical_formula_structural   Dy2Er3Co19(SiP3)3
_chemical_formula_sum   'Dy2 Er3 Co19 Si3 P9'
_cell_volume   460.46903711
_cell_formula_units_Z   1
loop_
 _symmetry_equiv_pos_site_id
 _symmetry_equiv_pos_as_xyz
  1  'x, y, z'
loop_
 _atom_site_type_symbol
 _atom_site_label
 _atom_site_symmetry_multiplicity
 _atom_site_fract_x
 _atom_site_fract_y
 _atom_site_fract_z
 _atom_site_occupancy
  Dy  Dy0  1  0.333333  0.666667  0.000000  1
  Dy  Dy1  1  0.666667  0.333333  0.000000  1
  Er  Er2  1  0.000000  0.184877  0.500000  1
  Er  Er3  1  0.815123  0.815123  0.500000  1
  Er  Er4  1  0.184877  0.000000  0.500000  1
  Co  Co5  1  0.622708  0.824729  0.000000  1
  Co  Co6  1  0.175271  0.797979  0.000000  1
  Co  Co7  1  0.202021  0.377292  0.000000  1
  Co  Co8  1  0.377292  0.202021  0.000000  1
  Co  Co9  1  0.824729  0.622708  0.000000  1
  Co  Co10  1  0.797979  0.175271  0.000000  1
  Co  Co11  1  0.000000  0.556452  0.000000  1
  Co  Co12  1  0.443548  0.443548  0.000000  1
  Co  Co13  1  0.556452  0.000000  0.000000  1
  Co  Co14  1  0.515188  0.642148  0.500000  1
  Co  Co15  1  0.357852  0.873040  0.500000  1
  Co  Co16  1  0.126960  0.484812  0.500000  1
  Co  Co17  1  0.484812  0.126960  0.500000  1
  Co  Co18  1  0.642148  0.515188  0.500000  1
  Co  Co19  1  0.873040  0.357852  0.500000  1
  Co  Co20  1  0.000000  0.716133  0.500000  1
  Co  Co21  1  0.283867  0.283867  0.500000  1
  Co  Co22  1  0.716133  0.000000  0.500000  1
  Co  Co23  1  0.000000  0.000000  0.000000  1
  Si  Si24  1  0.000000  0.368390  0.000000  1
  Si  Si25  1  0.631610  0.631610  0.000000  1
  Si  Si26  1  0.368390  0.000000  0.000000  1
  P  P27  1  0.520298  0.834634  0.500000  1
  P  P28  1  0.165366  0.685663  0.500000  1
  P  P29  1  0.314337  0.479702  0.500000  1
  P  P30  1  0.479702  0.314337  0.500000  1
  P  P31  1  0.834634  0.520298  0.500000  1
  P  P32  1  0.685663  0.165366  0.500000  1
  P  P33  1  0.000000  0.818796  0.000000  1
  P  P34  1  0.181204  0.181204  0.000000  1
  P  P35  1  0.818796  0.000000  0.000000  1
