# generated using pymatgen
data_Cs2TiZn3As4
_symmetry_space_group_name_H-M   'P 1'
_cell_length_a   8.24521042
_cell_length_b   8.24521077
_cell_length_c   5.95474100
_cell_angle_alpha   90.00000000
_cell_angle_beta   90.00000000
_cell_angle_gamma   137.59314936
_symmetry_Int_Tables_number   1
_chemical_formula_structural   Cs2TiZn3As4
_chemical_formula_sum   'Cs2 Ti1 Zn3 As4'
_cell_volume   273.00961325
_cell_formula_units_Z   1
loop_
 _symmetry_equiv_pos_site_id
 _symmetry_equiv_pos_as_xyz
  1  'x, y, z'
loop_
 _atom_site_type_symbol
 _atom_site_label
 _atom_site_symmetry_multiplicity
 _atom_site_fract_x
 _atom_site_fract_y
 _atom_site_fract_z
 _atom_site_occupancy
  Cs  Cs0  1  0.500000  0.000000  0.256448  1
  Cs  Cs1  1  0.000000  0.500000  0.743552  1
  Ti  Ti2  1  0.000000  0.000000  0.000000  1
  Zn  Zn3  1  0.500000  0.500000  0.500000  1
  Zn  Zn4  1  0.500000  0.500000  0.000000  1
  Zn  Zn5  1  0.000000  0.000000  0.500000  1
  As  As6  1  0.662609  0.852572  0.758130  1
  As  As7  1  0.147428  0.337391  0.241870  1
  As  As8  1  0.852572  0.662609  0.241870  1
  As  As9  1  0.337391  0.147428  0.758130  1
