# generated using pymatgen
data_DyEr11InCo4Au
_symmetry_space_group_name_H-M   'P 1'
_cell_length_a   8.27021694
_cell_length_b   8.27021796
_cell_length_c   8.26648157
_cell_angle_alpha   111.10197464
_cell_angle_beta   110.64814931
_cell_angle_gamma   106.71820350
_symmetry_Int_Tables_number   1
_chemical_formula_structural   DyEr11InCo4Au
_chemical_formula_sum   'Dy1 Er11 In1 Co4 Au1'
_cell_volume   434.37896002
_cell_formula_units_Z   1
loop_
 _symmetry_equiv_pos_site_id
 _symmetry_equiv_pos_as_xyz
  1  'x, y, z'
loop_
 _atom_site_type_symbol
 _atom_site_label
 _atom_site_symmetry_multiplicity
 _atom_site_fract_x
 _atom_site_fract_y
 _atom_site_fract_z
 _atom_site_occupancy
  Dy  Dy0  1  0.186859  0.290432  0.477292  1
  Er  Er1  1  0.813475  0.709408  0.522883  1
  Er  Er2  1  0.186623  0.709727  0.896350  1
  Er  Er3  1  0.813027  0.290478  0.103504  1
  Er  Er4  1  0.315868  0.619754  0.303657  1
  Er  Er5  1  0.684631  0.380528  0.696343  1
  Er  Er6  1  0.315816  0.011711  0.696343  1
  Er  Er7  1  0.683903  0.987789  0.303657  1
  Er  Er8  1  0.427107  0.222349  0.204194  1
  Er  Er9  1  0.573485  0.778128  0.795914  1
  Er  Er10  1  0.017786  0.222429  0.795914  1
  Er  Er11  1  0.981845  0.777088  0.204194  1
  In  In12  1  0.500170  0.500070  0.000240  1
  Co  Co13  1  0.112565  0.613172  0.500104  1
  Co  Co14  1  0.886932  0.387539  0.500104  1
  Co  Co15  1  0.377435  0.999867  0.377301  1
  Co  Co16  1  0.622641  0.999884  0.622525  1
  Au  Au17  1  0.999831  0.999647  0.999478  1
