# generated using pymatgen
data_K4Sr2(CrH9)3
_symmetry_space_group_name_H-M   'P 1'
_cell_length_a   9.09778200
_cell_length_b   9.12436167
_cell_length_c   5.29718700
_cell_angle_alpha   90.00000000
_cell_angle_beta   90.00000000
_cell_angle_gamma   119.90368397
_symmetry_Int_Tables_number   1
_chemical_formula_structural   K4Sr2(CrH9)3
_chemical_formula_sum   'K4 Sr2 Cr3 H27'
_cell_volume   381.18397802
_cell_formula_units_Z   1
loop_
 _symmetry_equiv_pos_site_id
 _symmetry_equiv_pos_as_xyz
  1  'x, y, z'
loop_
 _atom_site_type_symbol
 _atom_site_label
 _atom_site_symmetry_multiplicity
 _atom_site_fract_x
 _atom_site_fract_y
 _atom_site_fract_z
 _atom_site_occupancy
  K  K0  1  0.018883  0.279775  0.500000  1
  K  K1  1  0.739107  0.720225  0.500000  1
  K  K2  1  0.002962  0.597018  0.000000  1
  K  K3  1  0.405943  0.402982  0.000000  1
  Sr  Sr4  1  0.236741  0.000000  0.500000  1
  Sr  Sr5  1  0.606738  0.000000  0.000000  1
  Cr  Cr6  1  0.994872  0.000000  0.000000  1
  Cr  Cr7  1  0.351425  0.715119  0.500000  1
  Cr  Cr8  1  0.636308  0.284881  0.500000  1
  H  H9  1  0.868854  0.000000  0.217344  1
  H  H10  1  0.992466  0.868935  0.210998  1
  H  H11  1  0.868854  0.000000  0.782656  1
  H  H12  1  0.992466  0.868935  0.789002  1
  H  H13  1  0.123531  0.131065  0.210998  1
  H  H14  1  0.123531  0.131065  0.789002  1
  H  H15  1  0.173452  0.000000  0.000000  1
  H  H16  1  0.989540  0.173938  0.000000  1
  H  H17  1  0.815602  0.826062  0.000000  1
  H  H18  1  0.236592  0.567367  0.302320  1
  H  H19  1  0.483706  0.728296  0.284899  1
  H  H20  1  0.236592  0.567367  0.697680  1
  H  H21  1  0.511386  0.178818  0.738623  1
  H  H22  1  0.332569  0.821182  0.261377  1
  H  H23  1  0.483706  0.728296  0.715101  1
  H  H24  1  0.669226  0.432633  0.697680  1
  H  H25  1  0.511386  0.178818  0.261377  1
  H  H26  1  0.332569  0.821182  0.738623  1
  H  H27  1  0.669226  0.432633  0.302320  1
  H  H28  1  0.755410  0.271704  0.715101  1
  H  H29  1  0.755410  0.271704  0.284899  1
  H  H30  1  0.401754  0.571607  0.500000  1
  H  H31  1  0.546137  0.878859  0.500000  1
  H  H32  1  0.474958  0.314285  0.500000  1
  H  H33  1  0.160673  0.685715  0.500000  1
  H  H34  1  0.830147  0.428393  0.500000  1
  H  H35  1  0.667278  0.121141  0.500000  1
