# generated using pymatgen
data_CeNdCrN3
_symmetry_space_group_name_H-M   'P 1'
_cell_length_a   3.53182845
_cell_length_b   3.74568737
_cell_length_c   6.83742817
_cell_angle_alpha   105.89709407
_cell_angle_beta   104.96753413
_cell_angle_gamma   89.99999517
_symmetry_Int_Tables_number   1
_chemical_formula_structural   CeNdCrN3
_chemical_formula_sum   'Ce1 Nd1 Cr1 N3'
_cell_volume   83.79837031
_cell_formula_units_Z   1
loop_
 _symmetry_equiv_pos_site_id
 _symmetry_equiv_pos_as_xyz
  1  'x, y, z'
loop_
 _atom_site_type_symbol
 _atom_site_label
 _atom_site_symmetry_multiplicity
 _atom_site_fract_x
 _atom_site_fract_y
 _atom_site_fract_z
 _atom_site_occupancy
  Ce  Ce0  1  0.350342  0.350343  0.700684  1
  Nd  Nd1  1  0.645267  0.645266  0.290531  1
  Cr  Cr2  1  0.998751  0.998751  0.997501  1
  N  N3  1  0.998382  0.498382  0.996764  1
  N  N4  1  0.167180  0.167180  0.334359  1
  N  N5  1  0.840080  0.840079  0.680159  1
