# generated using pymatgen
data_Tm4MoI4
_symmetry_space_group_name_H-M   'P 1'
_cell_length_a   11.56095366
_cell_length_b   11.56095383
_cell_length_c   5.90838381
_cell_angle_alpha   90.20424565
_cell_angle_beta   90.20423685
_cell_angle_gamma   90.03249358
_symmetry_Int_Tables_number   1
_chemical_formula_structural   Tm4MoI4
_chemical_formula_sum   'Tm8 Mo2 I8'
_cell_volume   789.67871950
_cell_formula_units_Z   2
loop_
 _symmetry_equiv_pos_site_id
 _symmetry_equiv_pos_as_xyz
  1  'x, y, z'
loop_
 _atom_site_type_symbol
 _atom_site_label
 _atom_site_symmetry_multiplicity
 _atom_site_fract_x
 _atom_site_fract_y
 _atom_site_fract_z
 _atom_site_occupancy
  Tm  Tm0  1  0.199265  0.917712  0.001001  1
  Tm  Tm1  1  0.800735  0.082288  0.998999  1
  Tm  Tm2  1  0.082288  0.800735  0.498999  1
  Tm  Tm3  1  0.917712  0.199265  0.501001  1
  Tm  Tm4  1  0.800930  0.917870  0.497889  1
  Tm  Tm5  1  0.199070  0.082130  0.502111  1
  Tm  Tm6  1  0.082130  0.199070  0.002111  1
  Tm  Tm7  1  0.917870  0.800930  0.997889  1
  Mo  Mo8  1  0.999893  0.000107  0.250000  1
  Mo  Mo9  1  0.000107  0.999893  0.750000  1
  I  I10  1  0.351860  0.853570  0.499976  1
  I  I11  1  0.648140  0.146430  0.500024  1
  I  I12  1  0.146430  0.648140  0.000024  1
  I  I13  1  0.853570  0.351860  0.999976  1
  I  I14  1  0.351679  0.146765  0.003884  1
  I  I15  1  0.648321  0.853235  0.996116  1
  I  I16  1  0.853235  0.648321  0.496116  1
  I  I17  1  0.146765  0.351679  0.503884  1
