# generated using pymatgen
data_DyIO4
_symmetry_space_group_name_H-M   'P 1'
_cell_length_a   5.01996894
_cell_length_b   5.01996956
_cell_length_c   7.22415800
_cell_angle_alpha   90.00000000
_cell_angle_beta   90.00000000
_cell_angle_gamma   94.31715351
_symmetry_Int_Tables_number   1
_chemical_formula_structural   DyIO4
_chemical_formula_sum   'Dy2 I2 O8'
_cell_volume   181.53290120
_cell_formula_units_Z   2
loop_
 _symmetry_equiv_pos_site_id
 _symmetry_equiv_pos_as_xyz
  1  'x, y, z'
loop_
 _atom_site_type_symbol
 _atom_site_label
 _atom_site_symmetry_multiplicity
 _atom_site_fract_x
 _atom_site_fract_y
 _atom_site_fract_z
 _atom_site_occupancy
  Dy  Dy0  1  0.000000  0.000000  0.000000  1
  Dy  Dy1  1  0.000000  0.000000  0.500000  1
  I  I2  1  0.470299  0.529701  0.750000  1
  I  I3  1  0.529701  0.470299  0.250000  1
  O  O4  1  0.309198  0.690802  0.948395  1
  O  O5  1  0.309198  0.690802  0.551605  1
  O  O6  1  0.690802  0.309198  0.051605  1
  O  O7  1  0.690802  0.309198  0.448395  1
  O  O8  1  0.830664  0.763426  0.250000  1
  O  O9  1  0.236574  0.169336  0.250000  1
  O  O10  1  0.763426  0.830664  0.750000  1
  O  O11  1  0.169336  0.236574  0.750000  1
