# generated using pymatgen
data_Ho3Tm2CoSb2
_symmetry_space_group_name_H-M   'P 1'
_cell_length_a   7.78819500
_cell_length_b   8.74197800
_cell_length_c   12.11231100
_cell_angle_alpha   90.00000000
_cell_angle_beta   90.00000000
_cell_angle_gamma   90.00000000
_symmetry_Int_Tables_number   1
_chemical_formula_structural   Ho3Tm2CoSb2
_chemical_formula_sum   'Ho12 Tm8 Co4 Sb8'
_cell_volume   824.65736008
_cell_formula_units_Z   4
loop_
 _symmetry_equiv_pos_site_id
 _symmetry_equiv_pos_as_xyz
  1  'x, y, z'
loop_
 _atom_site_type_symbol
 _atom_site_label
 _atom_site_symmetry_multiplicity
 _atom_site_fract_x
 _atom_site_fract_y
 _atom_site_fract_z
 _atom_site_occupancy
  Ho  Ho0  1  0.155964  0.750000  0.203990  1
  Ho  Ho1  1  0.655964  0.250000  0.296010  1
  Ho  Ho2  1  0.844036  0.250000  0.796010  1
  Ho  Ho3  1  0.344036  0.750000  0.703990  1
  Ho  Ho4  1  0.451817  0.750000  0.997868  1
  Ho  Ho5  1  0.951817  0.250000  0.502132  1
  Ho  Ho6  1  0.548183  0.250000  0.002132  1
  Ho  Ho7  1  0.048183  0.750000  0.497868  1
  Ho  Ho8  1  0.622908  0.750000  0.308035  1
  Ho  Ho9  1  0.122908  0.250000  0.191965  1
  Ho  Ho10  1  0.377092  0.250000  0.691965  1
  Ho  Ho11  1  0.877092  0.750000  0.808035  1
  Tm  Tm12  1  0.823913  0.963231  0.065355  1
  Tm  Tm13  1  0.323913  0.036769  0.434645  1
  Tm  Tm14  1  0.176087  0.463231  0.934645  1
  Tm  Tm15  1  0.676087  0.536769  0.565355  1
  Tm  Tm16  1  0.176087  0.036769  0.934645  1
  Tm  Tm17  1  0.676087  0.963231  0.565355  1
  Tm  Tm18  1  0.823913  0.536769  0.065355  1
  Tm  Tm19  1  0.323913  0.463231  0.434645  1
  Co  Co20  1  0.432806  0.750000  0.490808  1
  Co  Co21  1  0.932806  0.250000  0.009192  1
  Co  Co22  1  0.567194  0.250000  0.509192  1
  Co  Co23  1  0.067194  0.750000  0.990808  1
  Sb  Sb24  1  0.930825  0.991864  0.327134  1
  Sb  Sb25  1  0.430825  0.008136  0.172866  1
  Sb  Sb26  1  0.069175  0.491864  0.672866  1
  Sb  Sb27  1  0.569175  0.508136  0.827134  1
  Sb  Sb28  1  0.069175  0.008136  0.672866  1
  Sb  Sb29  1  0.569175  0.991864  0.827134  1
  Sb  Sb30  1  0.930825  0.508136  0.327134  1
  Sb  Sb31  1  0.430825  0.491864  0.172866  1
