# generated using pymatgen
data_Lu7TcRhSe2
_symmetry_space_group_name_H-M   'P 1'
_cell_length_a   8.92239276
_cell_length_b   8.92294412
_cell_length_c   8.92294400
_cell_angle_alpha   155.03868316
_cell_angle_beta   119.41392825
_cell_angle_gamma   66.56536520
_symmetry_Int_Tables_number   1
_chemical_formula_structural   Lu7TcRhSe2
_chemical_formula_sum   'Lu7 Tc1 Rh1 Se2'
_cell_volume   258.95218538
_cell_formula_units_Z   1
loop_
 _symmetry_equiv_pos_site_id
 _symmetry_equiv_pos_as_xyz
  1  'x, y, z'
loop_
 _atom_site_type_symbol
 _atom_site_label
 _atom_site_symmetry_multiplicity
 _atom_site_fract_x
 _atom_site_fract_y
 _atom_site_fract_z
 _atom_site_occupancy
  Lu  Lu0  1  0.543307  0.126058  0.417249  1
  Lu  Lu1  1  0.289932  0.873258  0.416675  1
  Lu  Lu2  1  0.947511  0.316283  0.631228  1
  Lu  Lu3  1  0.311201  0.683072  0.628130  1
  Lu  Lu4  1  0.611091  0.358339  0.252751  1
  Lu  Lu5  1  0.901234  0.641621  0.259612  1
  Lu  Lu6  1  0.002993  0.001391  0.001603  1
  Tc  Tc7  1  0.168207  0.237284  0.930922  1
  Rh  Rh8  1  0.692803  0.762513  0.930290  1
  Se  Se9  1  0.263115  0.500771  0.762345  1
  Se  Se10  1  0.659463  0.999409  0.660054  1
