# generated using pymatgen
data_HfPaNi6
_symmetry_space_group_name_H-M   'P 1'
_cell_length_a   5.29002501
_cell_length_b   5.29019487
_cell_length_c   4.48697100
_cell_angle_alpha   90.00000000
_cell_angle_beta   90.00000000
_cell_angle_gamma   119.99974312
_symmetry_Int_Tables_number   1
_chemical_formula_structural   HfPaNi6
_chemical_formula_sum   'Hf1 Pa1 Ni6'
_cell_volume   108.74628094
_cell_formula_units_Z   1
loop_
 _symmetry_equiv_pos_site_id
 _symmetry_equiv_pos_as_xyz
  1  'x, y, z'
loop_
 _atom_site_type_symbol
 _atom_site_label
 _atom_site_symmetry_multiplicity
 _atom_site_fract_x
 _atom_site_fract_y
 _atom_site_fract_z
 _atom_site_occupancy
  Hf  Hf0  1  0.666662  0.333333  0.250001  1
  Pa  Pa1  1  0.333326  0.666664  0.750001  1
  Ni  Ni2  1  0.156153  0.312313  0.250001  1
  Ni  Ni3  1  0.687700  0.843852  0.250001  1
  Ni  Ni4  1  0.156151  0.843855  0.250001  1
  Ni  Ni5  1  0.838596  0.677170  0.750001  1
  Ni  Ni6  1  0.322825  0.161406  0.750001  1
  Ni  Ni7  1  0.838589  0.161406  0.750001  1
