# generated using pymatgen
data_Pr2(GaPd3)3
_symmetry_space_group_name_H-M   'P 1'
_cell_length_a   7.84418900
_cell_length_b   7.84418858
_cell_length_c   9.20232200
_cell_angle_alpha   90.00000000
_cell_angle_beta   90.00000000
_cell_angle_gamma   120.15042606
_symmetry_Int_Tables_number   1
_chemical_formula_structural   Pr2(GaPd3)3
_chemical_formula_sum   'Pr4 Ga6 Pd18'
_cell_volume   489.62528167
_cell_formula_units_Z   2
loop_
 _symmetry_equiv_pos_site_id
 _symmetry_equiv_pos_as_xyz
  1  'x, y, z'
loop_
 _atom_site_type_symbol
 _atom_site_label
 _atom_site_symmetry_multiplicity
 _atom_site_fract_x
 _atom_site_fract_y
 _atom_site_fract_z
 _atom_site_occupancy
  Pr  Pr0  1  0.329817  0.016851  0.750000  1
  Pr  Pr1  1  0.670183  0.983149  0.250000  1
  Pr  Pr2  1  0.016851  0.329817  0.750000  1
  Pr  Pr3  1  0.983149  0.670183  0.250000  1
  Ga  Ga4  1  0.000000  0.000000  0.500000  1
  Ga  Ga5  1  0.677154  0.322846  0.000000  1
  Ga  Ga6  1  0.322846  0.677154  0.500000  1
  Ga  Ga7  1  0.322846  0.677154  0.000000  1
  Ga  Ga8  1  0.000000  0.000000  0.000000  1
  Ga  Ga9  1  0.677154  0.322846  0.500000  1
  Pd  Pd10  1  0.331169  0.331169  0.962493  1
  Pd  Pd11  1  0.448840  0.652390  0.750000  1
  Pd  Pd12  1  0.551160  0.347610  0.250000  1
  Pd  Pd13  1  0.652390  0.448840  0.750000  1
  Pd  Pd14  1  0.000707  0.337776  0.080802  1
  Pd  Pd15  1  0.999293  0.662224  0.580802  1
  Pd  Pd16  1  0.337776  0.000707  0.419198  1
  Pd  Pd17  1  0.662224  0.999293  0.919198  1
  Pd  Pd18  1  0.999293  0.662224  0.919198  1
  Pd  Pd19  1  0.000707  0.337776  0.419198  1
  Pd  Pd20  1  0.662224  0.999293  0.580802  1
  Pd  Pd21  1  0.868378  0.868378  0.750000  1
  Pd  Pd22  1  0.331169  0.331169  0.537507  1
  Pd  Pd23  1  0.668831  0.668831  0.037507  1
  Pd  Pd24  1  0.337776  0.000707  0.080802  1
  Pd  Pd25  1  0.668831  0.668831  0.462493  1
  Pd  Pd26  1  0.131622  0.131622  0.250000  1
  Pd  Pd27  1  0.347610  0.551160  0.250000  1
