# generated using pymatgen
data_Ho16CdHg3RuRh3
_symmetry_space_group_name_H-M   'P 1'
_cell_length_a   9.54744446
_cell_length_b   9.53860284
_cell_length_c   9.55348488
_cell_angle_alpha   59.98673400
_cell_angle_beta   60.02090833
_cell_angle_gamma   59.96933105
_symmetry_Int_Tables_number   1
_chemical_formula_structural   Ho16CdHg3RuRh3
_chemical_formula_sum   'Ho16 Cd1 Hg3 Ru1 Rh3'
_cell_volume   615.09608048
_cell_formula_units_Z   1
loop_
 _symmetry_equiv_pos_site_id
 _symmetry_equiv_pos_as_xyz
  1  'x, y, z'
loop_
 _atom_site_type_symbol
 _atom_site_label
 _atom_site_symmetry_multiplicity
 _atom_site_fract_x
 _atom_site_fract_y
 _atom_site_fract_z
 _atom_site_occupancy
  Ho  Ho0  1  0.936407  0.937230  0.562752  1
  Ho  Ho1  1  0.561785  0.562855  0.936260  1
  Ho  Ho2  1  0.688979  0.690293  0.310684  1
  Ho  Ho3  1  0.149198  0.554490  0.147115  1
  Ho  Ho4  1  0.686180  0.312390  0.690737  1
  Ho  Ho5  1  0.150985  0.149583  0.148756  1
  Ho  Ho6  1  0.550676  0.149583  0.148756  1
  Ho  Ho7  1  0.688760  0.311511  0.310968  1
  Ho  Ho8  1  0.150077  0.147928  0.551917  1
  Ho  Ho9  1  0.310046  0.690293  0.310684  1
  Ho  Ho10  1  0.310830  0.687593  0.690748  1
  Ho  Ho11  1  0.936551  0.564562  0.562336  1
  Ho  Ho12  1  0.939100  0.562855  0.936260  1
  Ho  Ho13  1  0.563611  0.937230  0.562752  1
  Ho  Ho14  1  0.562138  0.939738  0.935987  1
  Ho  Ho15  1  0.310692  0.312390  0.690737  1
  Cd  Cd16  1  0.919660  0.241207  0.919475  1
  Hg  Hg17  1  0.914492  0.916252  0.254764  1
  Hg  Hg18  1  0.254353  0.916525  0.914393  1
  Hg  Hg19  1  0.914730  0.916525  0.914393  1
  Ru  Ru20  1  0.357972  0.356700  0.927354  1
  Rh  Rh21  1  0.357787  0.927249  0.357175  1
  Rh  Rh22  1  0.927004  0.357510  0.357499  1
  Rh  Rh23  1  0.357987  0.357510  0.357499  1
