# generated using pymatgen
data_Pr3Mg2ScGa2Au
_symmetry_space_group_name_H-M   'P 1'
_cell_length_a   7.58224300
_cell_length_b   7.54117874
_cell_length_c   4.56393000
_cell_angle_alpha   90.00000000
_cell_angle_beta   90.00000000
_cell_angle_gamma   119.82101267
_symmetry_Int_Tables_number   1
_chemical_formula_structural   Pr3Mg2ScGa2Au
_chemical_formula_sum   'Pr3 Mg2 Sc1 Ga2 Au1'
_cell_volume   226.40551887
_cell_formula_units_Z   1
loop_
 _symmetry_equiv_pos_site_id
 _symmetry_equiv_pos_as_xyz
  1  'x, y, z'
loop_
 _atom_site_type_symbol
 _atom_site_label
 _atom_site_symmetry_multiplicity
 _atom_site_fract_x
 _atom_site_fract_y
 _atom_site_fract_z
 _atom_site_occupancy
  Pr  Pr0  1  0.000000  0.412676  0.000000  1
  Pr  Pr1  1  0.580742  0.580447  0.000000  1
  Pr  Pr2  1  0.419258  0.999704  0.000000  1
  Mg  Mg3  1  0.242240  0.243892  0.500000  1
  Mg  Mg4  1  0.757760  0.001652  0.500000  1
  Sc  Sc5  1  0.000000  0.760608  0.500000  1
  Ga  Ga6  1  0.329929  0.667672  0.500000  1
  Ga  Ga7  1  0.670071  0.337742  0.500000  1
  Au  Au8  1  0.000000  0.995607  0.000000  1
