# generated using pymatgen
data_ErTm2Th11Os6
_symmetry_space_group_name_H-M   'P 1'
_cell_length_a   9.90635271
_cell_length_b   9.96909998
_cell_length_c   6.36929735
_cell_angle_alpha   90.05039956
_cell_angle_beta   90.03530476
_cell_angle_gamma   120.12158004
_symmetry_Int_Tables_number   1
_chemical_formula_structural   ErTm2Th11Os6
_chemical_formula_sum   'Er1 Tm2 Th11 Os6'
_cell_volume   544.07407652
_cell_formula_units_Z   1
loop_
 _symmetry_equiv_pos_site_id
 _symmetry_equiv_pos_as_xyz
  1  'x, y, z'
loop_
 _atom_site_type_symbol
 _atom_site_label
 _atom_site_symmetry_multiplicity
 _atom_site_fract_x
 _atom_site_fract_y
 _atom_site_fract_z
 _atom_site_occupancy
  Er  Er0  1  0.927996  0.463899  0.801012  1
  Tm  Tm1  1  0.459864  0.536550  0.299717  1
  Tm  Tm2  1  0.073940  0.535872  0.302179  1
  Th  Th3  1  0.252146  0.128385  0.508933  1
  Th  Th4  1  0.541036  0.080632  0.796246  1
  Th  Th5  1  0.745785  0.872330  0.013369  1
  Th  Th6  1  0.667595  0.334226  0.274052  1
  Th  Th7  1  0.126430  0.869133  0.009024  1
  Th  Th8  1  0.459979  0.916739  0.295795  1
  Th  Th9  1  0.537771  0.466087  0.801437  1
  Th  Th10  1  0.874801  0.130842  0.511626  1
  Th  Th11  1  0.125783  0.256470  0.015010  1
  Th  Th12  1  0.873085  0.744893  0.509128  1
  Th  Th13  1  0.331973  0.664721  0.770010  1
  Os  Os14  1  0.812895  0.628098  0.047786  1
  Os  Os15  1  0.814455  0.184636  0.045997  1
  Os  Os16  1  0.629842  0.812973  0.545195  1
  Os  Os17  1  0.371540  0.187525  0.042690  1
  Os  Os18  1  0.186326  0.370441  0.551255  1
  Os  Os19  1  0.186757  0.815548  0.543538  1
