# generated using pymatgen
data_Dy3Er5(ZnCo)2
_symmetry_space_group_name_H-M   'P 1'
_cell_length_a   9.31058463
_cell_length_b   9.31058426
_cell_length_c   9.31058500
_cell_angle_alpha   60.00000093
_cell_angle_beta   60.00000225
_cell_angle_gamma   59.99999607
_symmetry_Int_Tables_number   1
_chemical_formula_structural   Dy3Er5(ZnCo)2
_chemical_formula_sum   'Dy6 Er10 Zn4 Co4'
_cell_volume   570.71049113
_cell_formula_units_Z   2
loop_
 _symmetry_equiv_pos_site_id
 _symmetry_equiv_pos_as_xyz
  1  'x, y, z'
loop_
 _atom_site_type_symbol
 _atom_site_label
 _atom_site_symmetry_multiplicity
 _atom_site_fract_x
 _atom_site_fract_y
 _atom_site_fract_z
 _atom_site_occupancy
  Dy  Dy0  1  0.188477  0.811523  0.811523  1
  Dy  Dy1  1  0.811523  0.188477  0.188477  1
  Dy  Dy2  1  0.811523  0.188477  0.811523  1
  Dy  Dy3  1  0.188477  0.811523  0.188477  1
  Dy  Dy4  1  0.811523  0.811523  0.188477  1
  Dy  Dy5  1  0.188477  0.188477  0.811523  1
  Er  Er6  1  0.600171  0.600171  0.600171  1
  Er  Er7  1  0.600171  0.600171  0.199488  1
  Er  Er8  1  0.600171  0.199488  0.600171  1
  Er  Er9  1  0.199488  0.600171  0.600171  1
  Er  Er10  1  0.060081  0.439919  0.439919  1
  Er  Er11  1  0.439919  0.060081  0.060081  1
  Er  Er12  1  0.439919  0.060081  0.439919  1
  Er  Er13  1  0.060081  0.439919  0.060081  1
  Er  Er14  1  0.439919  0.439919  0.060081  1
  Er  Er15  1  0.060081  0.060081  0.439919  1
  Zn  Zn16  1  0.827537  0.827537  0.827537  1
  Zn  Zn17  1  0.827537  0.827537  0.517387  1
  Zn  Zn18  1  0.827537  0.517387  0.827537  1
  Zn  Zn19  1  0.517387  0.827537  0.827537  1
  Co  Co20  1  0.391763  0.391763  0.391763  1
  Co  Co21  1  0.391763  0.391763  0.824711  1
  Co  Co22  1  0.391763  0.824711  0.391763  1
  Co  Co23  1  0.824711  0.391763  0.391763  1
