# generated using pymatgen
data_TbY7(CuP)12
_symmetry_space_group_name_H-M   'P 1'
_cell_length_a   3.85795900
_cell_length_b   10.67699402
_cell_length_c   12.95934700
_cell_angle_alpha   90.00305342
_cell_angle_beta   90.00000000
_cell_angle_gamma   90.00000000
_symmetry_Int_Tables_number   1
_chemical_formula_structural   TbY7(CuP)12
_chemical_formula_sum   'Tb1 Y7 Cu12 P12'
_cell_volume   533.81371205
_cell_formula_units_Z   1
loop_
 _symmetry_equiv_pos_site_id
 _symmetry_equiv_pos_as_xyz
  1  'x, y, z'
loop_
 _atom_site_type_symbol
 _atom_site_label
 _atom_site_symmetry_multiplicity
 _atom_site_fract_x
 _atom_site_fract_y
 _atom_site_fract_z
 _atom_site_occupancy
  Tb  Tb0  1  0.250000  0.930543  0.792941  1
  Y  Y1  1  0.750000  0.430379  0.707256  1
  Y  Y2  1  0.250000  0.569628  0.292752  1
  Y  Y3  1  0.750000  0.069681  0.207251  1
  Y  Y4  1  0.250000  0.841198  0.502839  1
  Y  Y5  1  0.750000  0.341419  0.997027  1
  Y  Y6  1  0.250000  0.658556  0.003097  1
  Y  Y7  1  0.750000  0.158661  0.496914  1
  Cu  Cu8  1  0.250000  0.403168  0.513672  1
  Cu  Cu9  1  0.750000  0.903041  0.986582  1
  Cu  Cu10  1  0.250000  0.096917  0.013719  1
  Cu  Cu11  1  0.750000  0.596819  0.486318  1
  Cu  Cu12  1  0.250000  0.272838  0.332223  1
  Cu  Cu13  1  0.750000  0.772820  0.167781  1
  Cu  Cu14  1  0.250000  0.227304  0.832298  1
  Cu  Cu15  1  0.750000  0.727191  0.667737  1
  Cu  Cu16  1  0.250000  0.860354  0.279916  1
  Cu  Cu17  1  0.750000  0.360319  0.220045  1
  Cu  Cu18  1  0.250000  0.639499  0.779982  1
  Cu  Cu19  1  0.750000  0.139956  0.719942  1
  P  P20  1  0.250000  0.241030  0.643576  1
  P  P21  1  0.750000  0.740510  0.856610  1
  P  P22  1  0.250000  0.259000  0.143556  1
  P  P23  1  0.750000  0.758944  0.356387  1
  P  P24  1  0.250000  0.604116  0.600951  1
  P  P25  1  0.750000  0.104273  0.899160  1
  P  P26  1  0.250000  0.895935  0.100885  1
  P  P27  1  0.750000  0.395909  0.399076  1
  P  P28  1  0.250000  0.057087  0.368752  1
  P  P29  1  0.750000  0.557048  0.131235  1
  P  P30  1  0.250000  0.442885  0.868817  1
  P  P31  1  0.750000  0.942969  0.630707  1
