# generated using pymatgen
data_Ho19Lu(Ir2Ru)4
_symmetry_space_group_name_H-M   'P 1'
_cell_length_a   10.78222300
_cell_length_b   10.78222300
_cell_length_c   6.40872400
_cell_angle_alpha   90.00000000
_cell_angle_beta   90.00000000
_cell_angle_gamma   90.00000000
_symmetry_Int_Tables_number   1
_chemical_formula_structural   Ho19Lu(Ir2Ru)4
_chemical_formula_sum   'Ho19 Lu1 Ir8 Ru4'
_cell_volume   745.05475031
_cell_formula_units_Z   1
loop_
 _symmetry_equiv_pos_site_id
 _symmetry_equiv_pos_as_xyz
  1  'x, y, z'
loop_
 _atom_site_type_symbol
 _atom_site_label
 _atom_site_symmetry_multiplicity
 _atom_site_fract_x
 _atom_site_fract_y
 _atom_site_fract_z
 _atom_site_occupancy
  Ho  Ho0  1  0.292856  0.086370  0.377520  1
  Ho  Ho1  1  0.293231  0.913468  0.877236  1
  Ho  Ho2  1  0.706769  0.086532  0.877236  1
  Ho  Ho3  1  0.707144  0.913630  0.377520  1
  Ho  Ho4  1  0.586562  0.793462  0.877440  1
  Ho  Ho5  1  0.586554  0.206493  0.377518  1
  Ho  Ho6  1  0.413446  0.793507  0.377518  1
  Ho  Ho7  1  0.413438  0.206538  0.877440  1
  Ho  Ho8  1  0.206493  0.413446  0.622482  1
  Ho  Ho9  1  0.206538  0.586562  0.122560  1
  Ho  Ho10  1  0.793462  0.413438  0.122560  1
  Ho  Ho11  1  0.793507  0.586554  0.622482  1
  Ho  Ho12  1  0.913468  0.706769  0.122764  1
  Ho  Ho13  1  0.913630  0.292856  0.622480  1
  Ho  Ho14  1  0.086370  0.707144  0.622480  1
  Ho  Ho15  1  0.086532  0.293231  0.122764  1
  Ho  Ho16  1  0.000000  0.000000  0.000000  1
  Ho  Ho17  1  0.500000  0.500000  0.000000  1
  Ho  Ho18  1  0.500000  0.500000  0.500000  1
  Lu  Lu19  1  0.000000  0.000000  0.500000  1
  Ir  Ir20  1  0.848386  0.151628  0.251607  1
  Ir  Ir21  1  0.848372  0.848386  0.748393  1
  Ir  Ir22  1  0.151628  0.151614  0.748393  1
  Ir  Ir23  1  0.151614  0.848372  0.251607  1
  Ir  Ir24  1  0.652423  0.347547  0.749846  1
  Ir  Ir25  1  0.652453  0.652423  0.250154  1
  Ir  Ir26  1  0.347547  0.347577  0.250154  1
  Ir  Ir27  1  0.347577  0.652453  0.749846  1
  Ru  Ru28  1  0.500000  0.000000  0.122361  1
  Ru  Ru29  1  0.500000  0.000000  0.622175  1
  Ru  Ru30  1  0.000000  0.500000  0.877639  1
  Ru  Ru31  1  0.000000  0.500000  0.377825  1
