# generated using pymatgen
data_Rb8HfGeSe8
_symmetry_space_group_name_H-M   'P 1'
_cell_length_a   8.78681420
_cell_length_b   10.47391200
_cell_length_c   15.42348200
_cell_angle_alpha   90.00000000
_cell_angle_beta   90.19560045
_cell_angle_gamma   90.00000000
_symmetry_Int_Tables_number   1
_chemical_formula_structural   Rb8HfGeSe8
_chemical_formula_sum   'Rb16 Hf2 Ge2 Se16'
_cell_volume   1419.45053969
_cell_formula_units_Z   2
loop_
 _symmetry_equiv_pos_site_id
 _symmetry_equiv_pos_as_xyz
  1  'x, y, z'
loop_
 _atom_site_type_symbol
 _atom_site_label
 _atom_site_symmetry_multiplicity
 _atom_site_fract_x
 _atom_site_fract_y
 _atom_site_fract_z
 _atom_site_occupancy
  Rb  Rb0  1  0.000000  0.000000  0.000000  1
  Rb  Rb1  1  0.500000  0.000000  0.500000  1
  Rb  Rb2  1  0.000000  0.500000  0.000000  1
  Rb  Rb3  1  0.500000  0.500000  0.500000  1
  Rb  Rb4  1  0.988756  0.750000  0.424931  1
  Rb  Rb5  1  0.485559  0.250000  0.077466  1
  Rb  Rb6  1  0.011244  0.250000  0.575069  1
  Rb  Rb7  1  0.514441  0.750000  0.922534  1
  Rb  Rb8  1  0.836684  0.046542  0.275404  1
  Rb  Rb9  1  0.337740  0.942601  0.221708  1
  Rb  Rb10  1  0.163316  0.546542  0.724596  1
  Rb  Rb11  1  0.662260  0.442601  0.778292  1
  Rb  Rb12  1  0.163316  0.953458  0.724596  1
  Rb  Rb13  1  0.662260  0.057399  0.778292  1
  Rb  Rb14  1  0.836684  0.453458  0.275404  1
  Rb  Rb15  1  0.337740  0.557399  0.221708  1
  Hf  Hf16  1  0.759405  0.750000  0.665739  1
  Hf  Hf17  1  0.240595  0.250000  0.334261  1
  Ge  Ge18  1  0.736874  0.750000  0.164167  1
  Ge  Ge19  1  0.263126  0.250000  0.835833  1
  Se  Se20  1  0.988073  0.250000  0.826839  1
  Se  Se21  1  0.528106  0.250000  0.325917  1
  Se  Se22  1  0.471894  0.750000  0.674083  1
  Se  Se23  1  0.011927  0.750000  0.173161  1
  Se  Se24  1  0.650164  0.563651  0.089203  1
  Se  Se25  1  0.154045  0.448372  0.410926  1
  Se  Se26  1  0.349836  0.063651  0.910797  1
  Se  Se27  1  0.845955  0.948372  0.589074  1
  Se  Se28  1  0.349836  0.436349  0.910797  1
  Se  Se29  1  0.845955  0.551628  0.589074  1
  Se  Se30  1  0.650164  0.936349  0.089203  1
  Se  Se31  1  0.154045  0.051628  0.410926  1
  Se  Se32  1  0.634030  0.750000  0.310027  1
  Se  Se33  1  0.127709  0.250000  0.182720  1
  Se  Se34  1  0.365970  0.250000  0.689973  1
  Se  Se35  1  0.872291  0.750000  0.817280  1
