# generated using pymatgen
data_CeThI2NO
_symmetry_space_group_name_H-M   'P 1'
_cell_length_a   4.13270600
_cell_length_b   4.09723700
_cell_length_c   10.09372000
_cell_angle_alpha   90.00000000
_cell_angle_beta   90.00000000
_cell_angle_gamma   90.00000000
_symmetry_Int_Tables_number   1
_chemical_formula_structural   CeThI2NO
_chemical_formula_sum   'Ce1 Th1 I2 N1 O1'
_cell_volume   170.91368972
_cell_formula_units_Z   1
loop_
 _symmetry_equiv_pos_site_id
 _symmetry_equiv_pos_as_xyz
  1  'x, y, z'
loop_
 _atom_site_type_symbol
 _atom_site_label
 _atom_site_symmetry_multiplicity
 _atom_site_fract_x
 _atom_site_fract_y
 _atom_site_fract_z
 _atom_site_occupancy
  Ce  Ce0  1  0.000000  0.500000  0.878455  1
  Th  Th1  1  0.500000  0.000000  0.109815  1
  I  I2  1  0.500000  0.000000  0.692090  1
  I  I3  1  0.000000  0.500000  0.309944  1
  N  N4  1  0.500000  0.500000  0.004282  1
  O  O5  1  0.000000  0.000000  0.005414  1
