# generated using pymatgen
data_Cr3Fe9(Mo3N)4
_symmetry_space_group_name_H-M   'P 1'
_cell_length_a   7.81511824
_cell_length_b   7.83951655
_cell_length_c   7.81511900
_cell_angle_alpha   60.10289918
_cell_angle_beta   60.00000102
_cell_angle_gamma   60.10290128
_symmetry_Int_Tables_number   1
_chemical_formula_structural   Cr3Fe9(Mo3N)4
_chemical_formula_sum   'Cr3 Fe9 Mo12 N4'
_cell_volume   339.09326305
_cell_formula_units_Z   1
loop_
 _symmetry_equiv_pos_site_id
 _symmetry_equiv_pos_as_xyz
  1  'x, y, z'
loop_
 _atom_site_type_symbol
 _atom_site_label
 _atom_site_symmetry_multiplicity
 _atom_site_fract_x
 _atom_site_fract_y
 _atom_site_fract_z
 _atom_site_occupancy
  Cr  Cr0  1  0.125000  0.625000  0.625000  1
  Cr  Cr1  1  0.625000  0.625000  0.125000  1
  Cr  Cr2  1  0.625000  0.625000  0.625000  1
  Fe  Fe3  1  0.625000  0.125000  0.625000  1
  Fe  Fe4  1  0.732183  0.422154  0.422831  1
  Fe  Fe5  1  0.421918  0.734247  0.421918  1
  Fe  Fe6  1  0.422831  0.422154  0.732183  1
  Fe  Fe7  1  0.422831  0.422154  0.422831  1
  Fe  Fe8  1  0.517817  0.827846  0.827169  1
  Fe  Fe9  1  0.828082  0.515753  0.828082  1
  Fe  Fe10  1  0.827169  0.827846  0.517817  1
  Fe  Fe11  1  0.827169  0.827846  0.827169  1
  Mo  Mo12  1  0.799847  0.800111  0.200021  1
  Mo  Mo13  1  0.204117  0.199933  0.797975  1
  Mo  Mo14  1  0.797975  0.199933  0.797975  1
  Mo  Mo15  1  0.200021  0.800111  0.200021  1
  Mo  Mo16  1  0.200021  0.800111  0.799847  1
  Mo  Mo17  1  0.797975  0.199933  0.204117  1
  Mo  Mo18  1  0.450153  0.449889  0.049979  1
  Mo  Mo19  1  0.045883  0.050067  0.452025  1
  Mo  Mo20  1  0.452025  0.050067  0.452025  1
  Mo  Mo21  1  0.049979  0.449889  0.049979  1
  Mo  Mo22  1  0.049979  0.449889  0.450153  1
  Mo  Mo23  1  0.452025  0.050067  0.045883  1
  N  N24  1  0.625000  0.125000  0.125000  1
  N  N25  1  0.125000  0.625000  0.125000  1
  N  N26  1  0.125000  0.125000  0.625000  1
  N  N27  1  0.125000  0.125000  0.125000  1
