# generated using pymatgen
data_Nd3Cd2CuHgPd2
_symmetry_space_group_name_H-M   'P 1'
_cell_length_a   7.89839700
_cell_length_b   7.87512510
_cell_length_c   3.87967300
_cell_angle_alpha   90.00000000
_cell_angle_beta   90.00000000
_cell_angle_gamma   120.09779003
_symmetry_Int_Tables_number   1
_chemical_formula_structural   Nd3Cd2CuHgPd2
_chemical_formula_sum   'Nd3 Cd2 Cu1 Hg1 Pd2'
_cell_volume   208.78215611
_cell_formula_units_Z   1
loop_
 _symmetry_equiv_pos_site_id
 _symmetry_equiv_pos_as_xyz
  1  'x, y, z'
loop_
 _atom_site_type_symbol
 _atom_site_label
 _atom_site_symmetry_multiplicity
 _atom_site_fract_x
 _atom_site_fract_y
 _atom_site_fract_z
 _atom_site_occupancy
  Nd  Nd0  1  0.583887  0.000000  0.000000  1
  Nd  Nd1  1  0.003086  0.592766  0.000000  1
  Nd  Nd2  1  0.410320  0.407234  0.000000  1
  Cd  Cd3  1  0.998106  0.247673  0.500000  1
  Cd  Cd4  1  0.750433  0.752327  0.500000  1
  Cu  Cu5  1  0.996789  0.000000  0.000000  1
  Hg  Hg6  1  0.250514  0.000000  0.500000  1
  Pd  Pd7  1  0.334348  0.661831  0.500000  1
  Pd  Pd8  1  0.672518  0.338169  0.500000  1
