# generated using pymatgen
data_LuPuS2
_symmetry_space_group_name_H-M   'P 1'
_cell_length_a   5.50547600
_cell_length_b   5.50547600
_cell_length_c   5.47752300
_cell_angle_alpha   90.00000000
_cell_angle_beta   90.00000000
_cell_angle_gamma   90.00000000
_symmetry_Int_Tables_number   1
_chemical_formula_structural   LuPuS2
_chemical_formula_sum   'Lu2 Pu2 S4'
_cell_volume   166.02517908
_cell_formula_units_Z   2
loop_
 _symmetry_equiv_pos_site_id
 _symmetry_equiv_pos_as_xyz
  1  'x, y, z'
loop_
 _atom_site_type_symbol
 _atom_site_label
 _atom_site_symmetry_multiplicity
 _atom_site_fract_x
 _atom_site_fract_y
 _atom_site_fract_z
 _atom_site_occupancy
  Lu  Lu0  1  0.000000  0.000000  0.500000  1
  Lu  Lu1  1  0.500000  0.500000  0.500000  1
  Pu  Pu2  1  0.000000  0.500000  0.998731  1
  Pu  Pu3  1  0.500000  0.000000  0.001268  1
  S  S4  1  0.000000  0.500000  0.499344  1
  S  S5  1  0.500000  0.000000  0.500655  1
  S  S6  1  0.000000  0.000000  0.000000  1
  S  S7  1  0.500000  0.500000  0.000000  1
