# generated using pymatgen
data_Li5Cd5Ag8
_symmetry_space_group_name_H-M   'P 1'
_cell_length_a   4.65399400
_cell_length_b   4.65399584
_cell_length_c   17.50734600
_cell_angle_alpha   90.00000000
_cell_angle_beta   90.00000000
_cell_angle_gamma   120.00001537
_symmetry_Int_Tables_number   1
_chemical_formula_structural   Li5Cd5Ag8
_chemical_formula_sum   'Li5 Cd5 Ag8'
_cell_volume   328.39965246
_cell_formula_units_Z   1
loop_
 _symmetry_equiv_pos_site_id
 _symmetry_equiv_pos_as_xyz
  1  'x, y, z'
loop_
 _atom_site_type_symbol
 _atom_site_label
 _atom_site_symmetry_multiplicity
 _atom_site_fract_x
 _atom_site_fract_y
 _atom_site_fract_z
 _atom_site_occupancy
  Li  Li0  1  0.000000  0.000000  0.500000  1
  Li  Li1  1  0.333333  0.666667  0.284789  1
  Li  Li2  1  0.666667  0.333333  0.715211  1
  Li  Li3  1  0.333333  0.666667  0.106202  1
  Li  Li4  1  0.666667  0.333333  0.893798  1
  Cd  Cd5  1  0.000000  0.000000  0.000000  1
  Cd  Cd6  1  0.333333  0.666667  0.777737  1
  Cd  Cd7  1  0.666667  0.333333  0.222263  1
  Cd  Cd8  1  0.333333  0.666667  0.609918  1
  Cd  Cd9  1  0.666667  0.333333  0.390082  1
  Ag  Ag10  1  0.000000  0.000000  0.670616  1
  Ag  Ag11  1  0.000000  0.000000  0.329384  1
  Ag  Ag12  1  0.000000  0.000000  0.836137  1
  Ag  Ag13  1  0.000000  0.000000  0.163863  1
  Ag  Ag14  1  0.333333  0.666667  0.942006  1
  Ag  Ag15  1  0.666667  0.333333  0.057994  1
  Ag  Ag16  1  0.333333  0.666667  0.446265  1
  Ag  Ag17  1  0.666667  0.333333  0.553735  1
