# generated using pymatgen
data_Tb2ThMn(Co5B2)2
_symmetry_space_group_name_H-M   'P 1'
_cell_length_a   5.06324426
_cell_length_b   5.06243552
_cell_length_c   9.76169001
_cell_angle_alpha   90.00359490
_cell_angle_beta   89.99698220
_cell_angle_gamma   119.98941443
_symmetry_Int_Tables_number   1
_chemical_formula_structural   Tb2ThMn(Co5B2)2
_chemical_formula_sum   'Tb2 Th1 Mn1 Co10 B4'
_cell_volume   216.71568332
_cell_formula_units_Z   1
loop_
 _symmetry_equiv_pos_site_id
 _symmetry_equiv_pos_as_xyz
  1  'x, y, z'
loop_
 _atom_site_type_symbol
 _atom_site_label
 _atom_site_symmetry_multiplicity
 _atom_site_fract_x
 _atom_site_fract_y
 _atom_site_fract_z
 _atom_site_occupancy
  Tb  Tb0  1  0.999984  0.999997  0.343814  1
  Tb  Tb1  1  0.999967  0.999990  0.656377  1
  Th  Th2  1  0.000050  0.999993  0.999894  1
  Mn  Mn3  1  0.333418  0.666598  0.999946  1
  Co  Co4  1  0.666782  0.333557  0.999979  1
  Co  Co5  1  0.499692  0.999407  0.500015  1
  Co  Co6  1  0.499692  0.500302  0.500010  1
  Co  Co7  1  0.000593  0.500304  0.500035  1
  Co  Co8  1  0.500998  0.002025  0.206864  1
  Co  Co9  1  0.500987  0.498950  0.206856  1
  Co  Co10  1  0.997964  0.498965  0.206800  1
  Co  Co11  1  0.500941  0.002008  0.793096  1
  Co  Co12  1  0.500932  0.498933  0.793025  1
  Co  Co13  1  0.997928  0.498958  0.793127  1
  B  B14  1  0.333374  0.666742  0.350046  1
  B  B15  1  0.666623  0.333275  0.351600  1
  B  B16  1  0.666572  0.333298  0.648486  1
  B  B17  1  0.333404  0.666696  0.650034  1
