# generated using pymatgen
data_Sm3Ho(B4Mo)4
_symmetry_space_group_name_H-M   'P 1'
_cell_length_a   3.66364800
_cell_length_b   6.06997128
_cell_length_c   11.73700746
_cell_angle_alpha   89.92577090
_cell_angle_beta   90.00000000
_cell_angle_gamma   90.00000000
_symmetry_Int_Tables_number   1
_chemical_formula_structural   Sm3Ho(B4Mo)4
_chemical_formula_sum   'Sm3 Ho1 B16 Mo4'
_cell_volume   261.01014768
_cell_formula_units_Z   1
loop_
 _symmetry_equiv_pos_site_id
 _symmetry_equiv_pos_as_xyz
  1  'x, y, z'
loop_
 _atom_site_type_symbol
 _atom_site_label
 _atom_site_symmetry_multiplicity
 _atom_site_fract_x
 _atom_site_fract_y
 _atom_site_fract_z
 _atom_site_occupancy
  Sm  Sm0  1  0.000000  0.626421  0.349819  1
  Sm  Sm1  1  0.000000  0.373546  0.650596  1
  Sm  Sm2  1  0.000000  0.126271  0.149856  1
  Ho  Ho3  1  0.000000  0.873367  0.850421  1
  B  B4  1  0.500000  0.784462  0.184835  1
  B  B5  1  0.500000  0.212665  0.814835  1
  B  B6  1  0.500000  0.284480  0.314571  1
  B  B7  1  0.500000  0.715806  0.687019  1
  B  B8  1  0.500000  0.865531  0.030517  1
  B  B9  1  0.500000  0.133850  0.966933  1
  B  B10  1  0.500000  0.364922  0.468268  1
  B  B11  1  0.500000  0.635119  0.532535  1
  B  B12  1  0.500000  0.887182  0.453538  1
  B  B13  1  0.500000  0.112570  0.547346  1
  B  B14  1  0.500000  0.387805  0.045941  1
  B  B15  1  0.500000  0.614997  0.951910  1
  B  B16  1  0.500000  0.976119  0.307895  1
  B  B17  1  0.500000  0.022562  0.694056  1
  B  B18  1  0.500000  0.476210  0.191672  1
  B  B19  1  0.500000  0.525648  0.807595  1
  Mo  Mo20  1  0.000000  0.629307  0.082228  1
  Mo  Mo21  1  0.000000  0.371288  0.916271  1
  Mo  Mo22  1  0.000000  0.128672  0.417164  1
  Mo  Mo23  1  0.000000  0.871201  0.584180  1
