# generated using pymatgen
data_Cs2ZrNp3O12
_symmetry_space_group_name_H-M   'P 1'
_cell_length_a   7.92246596
_cell_length_b   7.92246695
_cell_length_c   7.73519531
_cell_angle_alpha   59.19828362
_cell_angle_beta   59.19827754
_cell_angle_gamma   60.01264248
_symmetry_Int_Tables_number   1
_chemical_formula_structural   Cs2ZrNp3O12
_chemical_formula_sum   'Cs2 Zr1 Np3 O12'
_cell_volume   339.11505878
_cell_formula_units_Z   1
loop_
 _symmetry_equiv_pos_site_id
 _symmetry_equiv_pos_as_xyz
  1  'x, y, z'
loop_
 _atom_site_type_symbol
 _atom_site_label
 _atom_site_symmetry_multiplicity
 _atom_site_fract_x
 _atom_site_fract_y
 _atom_site_fract_z
 _atom_site_occupancy
  Cs  Cs0  1  0.890258  0.842973  0.883287  1
  Cs  Cs1  1  0.157027  0.109742  0.116713  1
  Zr  Zr2  1  0.502772  0.497228  0.000000  1
  Np  Np3  1  0.501339  0.998746  0.499941  1
  Np  Np4  1  0.001254  0.498661  0.500059  1
  Np  Np5  1  0.501330  0.498670  0.500000  1
  O  O6  1  0.185855  0.183004  0.564754  1
  O  O7  1  0.563381  0.565615  0.189939  1
  O  O8  1  0.563696  0.179507  0.190146  1
  O  O9  1  0.185683  0.566128  0.564562  1
  O  O10  1  0.182454  0.562942  0.190921  1
  O  O11  1  0.565549  0.183399  0.566888  1
  O  O12  1  0.816996  0.814145  0.435246  1
  O  O13  1  0.434385  0.436619  0.810061  1
  O  O14  1  0.437058  0.817546  0.809079  1
  O  O15  1  0.816601  0.434451  0.433112  1
  O  O16  1  0.820493  0.436304  0.809854  1
  O  O17  1  0.433872  0.814317  0.435438  1
