# generated using pymatgen
data_S27F
_symmetry_space_group_name_H-M   'P 1'
_cell_length_a   14.50379388
_cell_length_b   14.50379355
_cell_length_c   14.50379503
_cell_angle_alpha   118.31595600
_cell_angle_beta   118.31595484
_cell_angle_gamma   118.31595938
_symmetry_Int_Tables_number   1
_chemical_formula_structural   S27F
_chemical_formula_sum   'S27 F1'
_cell_volume   1019.15383380
_cell_formula_units_Z   1
loop_
 _symmetry_equiv_pos_site_id
 _symmetry_equiv_pos_as_xyz
  1  'x, y, z'
loop_
 _atom_site_type_symbol
 _atom_site_label
 _atom_site_symmetry_multiplicity
 _atom_site_fract_x
 _atom_site_fract_y
 _atom_site_fract_z
 _atom_site_occupancy
  S  S0  1  0.031532  0.635456  0.635456  1
  S  S1  1  0.635456  0.635456  0.031532  1
  S  S2  1  0.635456  0.031532  0.635456  1
  S  S3  1  0.228377  0.845716  0.710921  1
  S  S4  1  0.845716  0.710921  0.228377  1
  S  S5  1  0.710921  0.228377  0.845716  1
  S  S6  1  0.845716  0.228377  0.710921  1
  S  S7  1  0.228377  0.710921  0.845716  1
  S  S8  1  0.710921  0.845716  0.228377  1
  S  S9  1  0.111405  0.644540  0.454394  1
  S  S10  1  0.644540  0.454394  0.111405  1
  S  S11  1  0.454394  0.111405  0.644540  1
  S  S12  1  0.644540  0.111405  0.454394  1
  S  S13  1  0.111405  0.454394  0.644540  1
  S  S14  1  0.454394  0.644540  0.111405  1
  S  S15  1  0.343678  0.727557  0.592912  1
  S  S16  1  0.727557  0.592912  0.343678  1
  S  S17  1  0.592912  0.343678  0.727557  1
  S  S18  1  0.727557  0.343678  0.592912  1
  S  S19  1  0.343678  0.592912  0.727557  1
  S  S20  1  0.592912  0.727557  0.343678  1
  S  S21  1  0.197196  0.468624  0.468624  1
  S  S22  1  0.468624  0.468624  0.197196  1
  S  S23  1  0.468624  0.197196  0.468624  1
  S  S24  1  0.002948  0.920708  0.920708  1
  S  S25  1  0.920708  0.920708  0.002948  1
  S  S26  1  0.920708  0.002948  0.920708  1
  F  F27  1  0.446849  0.446849  0.446849  1
