# generated using pymatgen
data_La3Nd5Mg2OsPt
_symmetry_space_group_name_H-M   'P 1'
_cell_length_a   10.06858816
_cell_length_b   10.11957183
_cell_length_c   10.21110594
_cell_angle_alpha   59.36926245
_cell_angle_beta   59.86284075
_cell_angle_gamma   59.79829018
_symmetry_Int_Tables_number   1
_chemical_formula_structural   La3Nd5Mg2OsPt
_chemical_formula_sum   'La6 Nd10 Mg4 Os2 Pt2'
_cell_volume   730.24522942
_cell_formula_units_Z   2
loop_
 _symmetry_equiv_pos_site_id
 _symmetry_equiv_pos_as_xyz
  1  'x, y, z'
loop_
 _atom_site_type_symbol
 _atom_site_label
 _atom_site_symmetry_multiplicity
 _atom_site_fract_x
 _atom_site_fract_y
 _atom_site_fract_z
 _atom_site_occupancy
  La  La0  1  0.344303  0.345702  0.353434  1
  La  La1  1  0.345702  0.344303  0.956561  1
  La  La2  1  0.343336  0.962836  0.343905  1
  La  La3  1  0.962836  0.343336  0.349924  1
  La  La4  1  0.821764  0.184701  0.187883  1
  La  La5  1  0.184701  0.821764  0.805651  1
  Nd  Nd6  1  0.188898  0.813414  0.191520  1
  Nd  Nd7  1  0.813414  0.188898  0.806168  1
  Nd  Nd8  1  0.188914  0.188914  0.811086  1
  Nd  Nd9  1  0.806834  0.806834  0.193166  1
  Nd  Nd10  1  0.935194  0.559134  0.569265  1
  Nd  Nd11  1  0.559134  0.935194  0.936408  1
  Nd  Nd12  1  0.558444  0.936843  0.565810  1
  Nd  Nd13  1  0.936843  0.558444  0.938903  1
  Nd  Nd14  1  0.562746  0.562746  0.937254  1
  Nd  Nd15  1  0.937185  0.937185  0.562815  1
  Mg  Mg16  1  0.580796  0.578007  0.579451  1
  Mg  Mg17  1  0.578007  0.580796  0.261746  1
  Mg  Mg18  1  0.579183  0.259359  0.582388  1
  Mg  Mg19  1  0.259359  0.579183  0.579072  1
  Os  Os20  1  0.139142  0.147775  0.137970  1
  Os  Os21  1  0.147775  0.139142  0.575115  1
  Pt  Pt22  1  0.148079  0.577415  0.134988  1
  Pt  Pt23  1  0.577415  0.148079  0.139520  1
