# generated using pymatgen
data_Tb6Co17ReP12
_symmetry_space_group_name_H-M   'P 1'
_cell_length_a   3.70262800
_cell_length_b   10.51650500
_cell_length_c   12.19571500
_cell_angle_alpha   90.00000000
_cell_angle_beta   90.00000000
_cell_angle_gamma   90.00000000
_symmetry_Int_Tables_number   1
_chemical_formula_structural   Tb6Co17ReP12
_chemical_formula_sum   'Tb6 Co17 Re1 P12'
_cell_volume   474.88535932
_cell_formula_units_Z   1
loop_
 _symmetry_equiv_pos_site_id
 _symmetry_equiv_pos_as_xyz
  1  'x, y, z'
loop_
 _atom_site_type_symbol
 _atom_site_label
 _atom_site_symmetry_multiplicity
 _atom_site_fract_x
 _atom_site_fract_y
 _atom_site_fract_z
 _atom_site_occupancy
  Tb  Tb0  1  0.000000  0.500000  0.523713  1
  Tb  Tb1  1  0.500000  0.000000  0.478264  1
  Tb  Tb2  1  0.500000  0.817828  0.206889  1
  Tb  Tb3  1  0.500000  0.182172  0.206889  1
  Tb  Tb4  1  0.000000  0.683062  0.795038  1
  Tb  Tb5  1  0.000000  0.316938  0.795038  1
  Co  Co6  1  0.000000  0.000000  0.840243  1
  Co  Co7  1  0.500000  0.500000  0.702782  1
  Co  Co8  1  0.000000  0.000000  0.296342  1
  Co  Co9  1  0.000000  0.500000  0.987934  1
  Co  Co10  1  0.500000  0.000000  0.014717  1
  Co  Co11  1  0.500000  0.332273  0.991444  1
  Co  Co12  1  0.500000  0.667727  0.991444  1
  Co  Co13  1  0.000000  0.166427  0.005524  1
  Co  Co14  1  0.000000  0.833573  0.005524  1
  Co  Co15  1  0.500000  0.296723  0.430507  1
  Co  Co16  1  0.500000  0.703277  0.430507  1
  Co  Co17  1  0.000000  0.203289  0.569195  1
  Co  Co18  1  0.000000  0.796711  0.569195  1
  Co  Co19  1  0.500000  0.879439  0.709189  1
  Co  Co20  1  0.500000  0.120561  0.709189  1
  Co  Co21  1  0.000000  0.620454  0.291005  1
  Co  Co22  1  0.000000  0.379546  0.291005  1
  Re  Re23  1  0.500000  0.500000  0.156412  1
  P  P24  1  0.500000  0.500000  0.881107  1
  P  P25  1  0.000000  0.000000  0.117125  1
  P  P26  1  0.500000  0.500000  0.349011  1
  P  P27  1  0.000000  0.000000  0.656634  1
  P  P28  1  0.500000  0.310527  0.615990  1
  P  P29  1  0.500000  0.689473  0.615990  1
  P  P30  1  0.000000  0.189019  0.384742  1
  P  P31  1  0.000000  0.810981  0.384742  1
  P  P32  1  0.500000  0.849916  0.892037  1
  P  P33  1  0.500000  0.150084  0.892037  1
  P  P34  1  0.000000  0.655965  0.106300  1
  P  P35  1  0.000000  0.344035  0.106300  1
