# generated using pymatgen
data_Ba3LaRhO6
_symmetry_space_group_name_H-M   'P 1'
_cell_length_a   7.26325332
_cell_length_b   7.26325334
_cell_length_c   7.26325413
_cell_angle_alpha   92.50171153
_cell_angle_beta   92.50171210
_cell_angle_gamma   92.50171376
_symmetry_Int_Tables_number   1
_chemical_formula_structural   Ba3LaRhO6
_chemical_formula_sum   'Ba6 La2 Rh2 O12'
_cell_volume   382.04328551
_cell_formula_units_Z   2
loop_
 _symmetry_equiv_pos_site_id
 _symmetry_equiv_pos_as_xyz
  1  'x, y, z'
loop_
 _atom_site_type_symbol
 _atom_site_label
 _atom_site_symmetry_multiplicity
 _atom_site_fract_x
 _atom_site_fract_y
 _atom_site_fract_z
 _atom_site_occupancy
  Ba  Ba0  1  0.250000  0.880119  0.619881  1
  Ba  Ba1  1  0.880119  0.619881  0.250000  1
  Ba  Ba2  1  0.750000  0.119881  0.380119  1
  Ba  Ba3  1  0.380119  0.750000  0.119881  1
  Ba  Ba4  1  0.119881  0.380119  0.750000  1
  Ba  Ba5  1  0.619881  0.250000  0.880119  1
  La  La6  1  0.750000  0.750000  0.750000  1
  La  La7  1  0.250000  0.250000  0.250000  1
  Rh  Rh8  1  0.500000  0.500000  0.500000  1
  Rh  Rh9  1  0.000000  0.000000  0.000000  1
  O  O10  1  0.586448  0.781390  0.455433  1
  O  O11  1  0.455433  0.586448  0.781390  1
  O  O12  1  0.781390  0.455433  0.586448  1
  O  O13  1  0.913552  0.044567  0.718610  1
  O  O14  1  0.718610  0.913552  0.044567  1
  O  O15  1  0.044567  0.718610  0.913552  1
  O  O16  1  0.413552  0.218610  0.544567  1
  O  O17  1  0.544567  0.413552  0.218610  1
  O  O18  1  0.218610  0.544567  0.413552  1
  O  O19  1  0.086448  0.955433  0.281390  1
  O  O20  1  0.955433  0.281390  0.086448  1
  O  O21  1  0.281390  0.086448  0.955433  1
