# generated using pymatgen
data_La3Bi5(MoO6)4
_symmetry_space_group_name_H-M   'P 1'
_cell_length_a   5.78246405
_cell_length_b   5.76745061
_cell_length_c   16.23829224
_cell_angle_alpha   90.21364789
_cell_angle_beta   89.84690132
_cell_angle_gamma   89.92674797
_symmetry_Int_Tables_number   1
_chemical_formula_structural   La3Bi5(MoO6)4
_chemical_formula_sum   'La3 Bi5 Mo4 O24'
_cell_volume   541.54212957
_cell_formula_units_Z   1
loop_
 _symmetry_equiv_pos_site_id
 _symmetry_equiv_pos_as_xyz
  1  'x, y, z'
loop_
 _atom_site_type_symbol
 _atom_site_label
 _atom_site_symmetry_multiplicity
 _atom_site_fract_x
 _atom_site_fract_y
 _atom_site_fract_z
 _atom_site_occupancy
  La  La0  1  0.500856  0.052139  0.415061  1
  La  La1  1  0.003410  0.046600  0.915708  1
  La  La2  1  0.504962  0.549233  0.582849  1
  Bi  Bi3  1  0.489257  0.544355  0.930974  1
  Bi  Bi4  1  0.985883  0.561984  0.076635  1
  Bi  Bi5  1  0.508657  0.059382  0.074777  1
  Bi  Bi6  1  0.010306  0.554362  0.430033  1
  Bi  Bi7  1  0.997618  0.052163  0.567741  1
  Mo  Mo8  1  0.502526  0.047962  0.750224  1
  Mo  Mo9  1  0.992974  0.042134  0.249393  1
  Mo  Mo10  1  0.495417  0.552001  0.249833  1
  Mo  Mo11  1  0.008892  0.546401  0.750291  1
  O  O12  1  0.831239  0.393647  0.676485  1
  O  O13  1  0.679726  0.743957  0.309567  1
  O  O14  1  0.688796  0.210144  0.818647  1
  O  O15  1  0.329670  0.891002  0.825329  1
  O  O16  1  0.251520  0.796390  0.500817  1
  O  O17  1  0.750156  0.296634  0.999924  1
  O  O18  1  0.763644  0.799975  0.497735  1
  O  O19  1  0.239043  0.298407  0.501671  1
  O  O20  1  0.172417  0.236690  0.192204  1
  O  O21  1  0.795784  0.219782  0.309056  1
  O  O22  1  0.341546  0.234399  0.681634  1
  O  O23  1  0.162361  0.369515  0.825491  1
  O  O24  1  0.156364  0.909387  0.333011  1
  O  O25  1  0.645415  0.398474  0.167165  1
  O  O26  1  0.263554  0.292298  0.001630  1
  O  O27  1  0.848307  0.889056  0.163850  1
  O  O28  1  0.844944  0.731793  0.818768  1
  O  O29  1  0.192328  0.712411  0.682542  1
  O  O30  1  0.302187  0.732543  0.191566  1
  O  O31  1  0.735016  0.790352  0.999986  1
  O  O32  1  0.753076  0.296550  0.498837  1
  O  O33  1  0.660118  0.873401  0.676286  1
  O  O34  1  0.241011  0.784356  0.000741  1
  O  O35  1  0.351022  0.400128  0.333537  1
