# generated using pymatgen
data_Er3Zr(Al8Pt3)3
_symmetry_space_group_name_H-M   'P 1'
_cell_length_a   7.50758540
_cell_length_b   7.50692359
_cell_length_c   13.09467083
_cell_angle_alpha   84.51852586
_cell_angle_beta   100.96624950
_cell_angle_gamma   119.86126168
_symmetry_Int_Tables_number   1
_chemical_formula_structural   Er3Zr(Al8Pt3)3
_chemical_formula_sum   'Er3 Zr1 Al24 Pt9'
_cell_volume   628.33171297
_cell_formula_units_Z   1
loop_
 _symmetry_equiv_pos_site_id
 _symmetry_equiv_pos_as_xyz
  1  'x, y, z'
loop_
 _atom_site_type_symbol
 _atom_site_label
 _atom_site_symmetry_multiplicity
 _atom_site_fract_x
 _atom_site_fract_y
 _atom_site_fract_z
 _atom_site_occupancy
  Er  Er0  1  0.267039  0.000952  0.807606  1
  Er  Er1  1  0.061982  0.668246  0.192309  1
  Er  Er2  1  0.937951  0.331755  0.807715  1
  Zr  Zr3  1  0.732238  0.999286  0.190913  1
  Al  Al4  1  0.807318  0.869033  0.815610  1
  Al  Al5  1  0.188153  0.130853  0.184769  1
  Al  Al6  1  0.982097  0.666240  0.944264  1
  Al  Al7  1  0.016046  0.331507  0.057916  1
  Al  Al8  1  0.398238  0.663898  0.816850  1
  Al  Al9  1  0.601829  0.331692  0.183669  1
  Al  Al10  1  0.883078  0.665243  0.671163  1
  Al  Al11  1  0.114923  0.332602  0.326973  1
  Al  Al12  1  0.602707  0.457396  0.816020  1
  Al  Al13  1  0.401691  0.546683  0.184104  1
  Al  Al14  1  0.230033  0.339625  0.669791  1
  Al  Al15  1  0.769099  0.662100  0.328329  1
  Al  Al16  1  0.852707  0.332829  0.558903  1
  Al  Al17  1  0.185833  0.999699  0.558887  1
  Al  Al18  1  0.813367  0.000359  0.439620  1
  Al  Al19  1  0.355229  0.998895  0.057922  1
  Al  Al20  1  0.648163  0.001243  0.945295  1
  Al  Al21  1  0.556380  0.993670  0.671294  1
  Al  Al22  1  0.445392  0.006966  0.326709  1
  Al  Al23  1  0.521308  0.667594  0.562002  1
  Al  Al24  1  0.478897  0.332607  0.437605  1
  Al  Al25  1  0.684259  0.670243  0.049354  1
  Al  Al26  1  0.316384  0.332057  0.952719  1
  Al  Al27  1  0.146967  0.666759  0.440950  1
  Pt  Pt28  1  0.328166  0.671599  0.000778  1
  Pt  Pt29  1  0.545776  0.324275  0.637281  1
  Pt  Pt30  1  0.453740  0.676048  0.362164  1
  Pt  Pt31  1  0.888210  0.008591  0.638811  1
  Pt  Pt32  1  0.111292  0.990265  0.360655  1
  Pt  Pt33  1  0.672203  0.328815  0.000560  1
  Pt  Pt34  1  0.204011  0.666866  0.639014  1
  Pt  Pt35  1  0.797084  0.334051  0.360597  1
  Pt  Pt36  1  0.000210  0.999455  0.000878  1
