# generated using pymatgen
data_Gd3Cd5Ru
_symmetry_space_group_name_H-M   'P 1'
_cell_length_a   8.13144100
_cell_length_b   8.13144084
_cell_length_c   3.77649800
_cell_angle_alpha   90.00000000
_cell_angle_beta   90.00000000
_cell_angle_gamma   120.00000473
_symmetry_Int_Tables_number   1
_chemical_formula_structural   Gd3Cd5Ru
_chemical_formula_sum   'Gd3 Cd5 Ru1'
_cell_volume   216.24939037
_cell_formula_units_Z   1
loop_
 _symmetry_equiv_pos_site_id
 _symmetry_equiv_pos_as_xyz
  1  'x, y, z'
loop_
 _atom_site_type_symbol
 _atom_site_label
 _atom_site_symmetry_multiplicity
 _atom_site_fract_x
 _atom_site_fract_y
 _atom_site_fract_z
 _atom_site_occupancy
  Gd  Gd0  1  0.617221  0.043425  0.000000  1
  Gd  Gd1  1  0.956575  0.573796  0.000000  1
  Gd  Gd2  1  0.426204  0.382779  0.000000  1
  Cd  Cd3  1  0.276351  0.996976  0.500000  1
  Cd  Cd4  1  0.003024  0.279375  0.500000  1
  Cd  Cd5  1  0.720625  0.723649  0.500000  1
  Cd  Cd6  1  0.333333  0.666667  0.500000  1
  Cd  Cd7  1  0.000000  0.000000  0.000000  1
  Ru  Ru8  1  0.666667  0.333333  0.500000  1
