# generated using pymatgen
data_NdSc5H18
_symmetry_space_group_name_H-M   'P 1'
_cell_length_a   5.98554500
_cell_length_b   6.01471645
_cell_length_c   6.24666623
_cell_angle_alpha   89.78742325
_cell_angle_beta   90.00000000
_cell_angle_gamma   119.83968668
_symmetry_Int_Tables_number   1
_chemical_formula_structural   NdSc5H18
_chemical_formula_sum   'Nd1 Sc5 H18'
_cell_volume   195.07118573
_cell_formula_units_Z   1
loop_
 _symmetry_equiv_pos_site_id
 _symmetry_equiv_pos_as_xyz
  1  'x, y, z'
loop_
 _atom_site_type_symbol
 _atom_site_label
 _atom_site_symmetry_multiplicity
 _atom_site_fract_x
 _atom_site_fract_y
 _atom_site_fract_z
 _atom_site_occupancy
  Nd  Nd0  1  0.336860  0.000000  0.250000  1
  Sc  Sc1  1  0.659901  0.000000  0.750000  1
  Sc  Sc2  1  0.340678  0.348945  0.748930  1
  Sc  Sc3  1  0.991733  0.651055  0.751070  1
  Sc  Sc4  1  0.673470  0.670424  0.250817  1
  Sc  Sc5  1  0.003047  0.329576  0.249183  1
  H  H6  1  0.327754  0.935929  0.892670  1
  H  H7  1  0.624684  0.669709  0.909018  1
  H  H8  1  0.044439  0.379325  0.910286  1
  H  H9  1  0.302931  0.336118  0.415516  1
  H  H10  1  0.000778  0.677246  0.420992  1
  H  H11  1  0.681752  0.975389  0.417109  1
  H  H12  1  0.706364  0.024611  0.082891  1
  H  H13  1  0.323533  0.322754  0.079008  1
  H  H14  1  0.966814  0.663882  0.084484  1
  H  H15  1  0.665115  0.620675  0.589714  1
  H  H16  1  0.954976  0.330291  0.590982  1
  H  H17  1  0.391827  0.064071  0.607330  1
  H  H18  1  0.003737  0.000000  0.750000  1
  H  H19  1  0.979472  0.000000  0.250000  1
  H  H20  1  0.661000  0.328618  0.830112  1
  H  H21  1  0.692800  0.358842  0.289464  1
  H  H22  1  0.333957  0.641158  0.210536  1
  H  H23  1  0.332382  0.671382  0.669888  1
