# generated using pymatgen
data_Zr16Co4Ir3Os
_symmetry_space_group_name_H-M   'P 1'
_cell_length_a   8.69792854
_cell_length_b   8.69394135
_cell_length_c   8.69598032
_cell_angle_alpha   59.98693827
_cell_angle_beta   60.01457711
_cell_angle_gamma   59.99964134
_symmetry_Int_Tables_number   1
_chemical_formula_structural   Zr16Co4Ir3Os
_chemical_formula_sum   'Zr16 Co4 Ir3 Os1'
_cell_volume   464.98595733
_cell_formula_units_Z   1
loop_
 _symmetry_equiv_pos_site_id
 _symmetry_equiv_pos_as_xyz
  1  'x, y, z'
loop_
 _atom_site_type_symbol
 _atom_site_label
 _atom_site_symmetry_multiplicity
 _atom_site_fract_x
 _atom_site_fract_y
 _atom_site_fract_z
 _atom_site_occupancy
  Zr  Zr0  1  0.059347  0.646804  0.646899  1
  Zr  Zr1  1  0.646901  0.059382  0.646967  1
  Zr  Zr2  1  0.646899  0.646853  0.059334  1
  Zr  Zr3  1  0.645507  0.645369  0.645528  1
  Zr  Zr4  1  0.802148  0.802153  0.197649  1
  Zr  Zr5  1  0.197928  0.198141  0.801262  1
  Zr  Zr6  1  0.802154  0.197711  0.802159  1
  Zr  Zr7  1  0.198052  0.801202  0.198046  1
  Zr  Zr8  1  0.197677  0.802146  0.802153  1
  Zr  Zr9  1  0.801287  0.198125  0.197922  1
  Zr  Zr10  1  0.436399  0.436293  0.067020  1
  Zr  Zr11  1  0.063942  0.063865  0.436394  1
  Zr  Zr12  1  0.436313  0.067038  0.436293  1
  Zr  Zr13  1  0.063924  0.436341  0.063891  1
  Zr  Zr14  1  0.067013  0.436320  0.436408  1
  Zr  Zr15  1  0.436438  0.063859  0.063912  1
  Co  Co16  1  0.425148  0.857586  0.857520  1
  Co  Co17  1  0.857536  0.425074  0.857576  1
  Co  Co18  1  0.857504  0.857612  0.425099  1
  Co  Co19  1  0.858747  0.858933  0.858813  1
  Ir  Ir20  1  0.749030  0.416248  0.416186  1
  Ir  Ir21  1  0.416219  0.748936  0.416257  1
  Ir  Ir22  1  0.416177  0.416273  0.749000  1
  Os  Os23  1  0.417708  0.417736  0.417712  1
