# generated using pymatgen
data_Tb2ErSiAg3Ge2
_symmetry_space_group_name_H-M   'P 1'
_cell_length_a   7.14780910
_cell_length_b   7.15032201
_cell_length_c   4.20828500
_cell_angle_alpha   90.00000000
_cell_angle_beta   90.00000000
_cell_angle_gamma   119.83769394
_symmetry_Int_Tables_number   1
_chemical_formula_structural   Tb2ErSiAg3Ge2
_chemical_formula_sum   'Tb2 Er1 Si1 Ag3 Ge2'
_cell_volume   186.57020569
_cell_formula_units_Z   1
loop_
 _symmetry_equiv_pos_site_id
 _symmetry_equiv_pos_as_xyz
  1  'x, y, z'
loop_
 _atom_site_type_symbol
 _atom_site_label
 _atom_site_symmetry_multiplicity
 _atom_site_fract_x
 _atom_site_fract_y
 _atom_site_fract_z
 _atom_site_occupancy
  Tb  Tb0  1  0.418735  0.002097  0.500000  1
  Tb  Tb1  1  0.998857  0.416971  0.500000  1
  Er  Er2  1  0.583832  0.582066  0.500000  1
  Si  Si3  1  0.665855  0.334785  0.000000  1
  Ag  Ag4  1  0.748749  0.004231  0.000000  1
  Ag  Ag5  1  0.994358  0.743701  0.000000  1
  Ag  Ag6  1  0.257000  0.252049  0.000000  1
  Ge  Ge7  1  0.334588  0.666012  0.000000  1
  Ge  Ge8  1  0.998025  0.998087  0.500000  1
