# generated using pymatgen
data_Pr2Tm(CdIr6)3
_symmetry_space_group_name_H-M   'P 1'
_cell_length_a   8.97648939
_cell_length_b   8.97648939
_cell_length_c   5.16043100
_cell_angle_alpha   90.00000000
_cell_angle_beta   90.00000000
_cell_angle_gamma   89.72747666
_symmetry_Int_Tables_number   1
_chemical_formula_structural   Pr2Tm(CdIr6)3
_chemical_formula_sum   'Pr2 Tm1 Cd3 Ir18'
_cell_volume   415.80921151
_cell_formula_units_Z   1
loop_
 _symmetry_equiv_pos_site_id
 _symmetry_equiv_pos_as_xyz
  1  'x, y, z'
loop_
 _atom_site_type_symbol
 _atom_site_label
 _atom_site_symmetry_multiplicity
 _atom_site_fract_x
 _atom_site_fract_y
 _atom_site_fract_z
 _atom_site_occupancy
  Pr  Pr0  1  0.505620  0.498680  0.000000  1
  Pr  Pr1  1  0.998680  0.005620  0.000000  1
  Tm  Tm2  1  0.115940  0.615940  0.000000  1
  Cd  Cd3  1  0.879288  0.379288  0.000000  1
  Cd  Cd4  1  0.383072  0.117133  0.000000  1
  Cd  Cd5  1  0.617133  0.883072  0.000000  1
  Ir  Ir6  1  0.319378  0.819378  0.758369  1
  Ir  Ir7  1  0.681543  0.181543  0.757947  1
  Ir  Ir8  1  0.182511  0.317734  0.758335  1
  Ir  Ir9  1  0.817734  0.682511  0.758335  1
  Ir  Ir10  1  0.681543  0.181543  0.242053  1
  Ir  Ir11  1  0.319378  0.819378  0.241631  1
  Ir  Ir12  1  0.817734  0.682511  0.241665  1
  Ir  Ir13  1  0.182511  0.317734  0.241665  1
  Ir  Ir14  1  0.554218  0.704086  0.500000  1
  Ir  Ir15  1  0.443600  0.296363  0.500000  1
  Ir  Ir16  1  0.944191  0.204347  0.500000  1
  Ir  Ir17  1  0.057207  0.794264  0.500000  1
  Ir  Ir18  1  0.704347  0.444191  0.500000  1
  Ir  Ir19  1  0.294264  0.557207  0.500000  1
  Ir  Ir20  1  0.204086  0.054218  0.500000  1
  Ir  Ir21  1  0.796363  0.943600  0.500000  1
  Ir  Ir22  1  0.998472  0.498472  0.500000  1
  Ir  Ir23  1  0.501187  0.001187  0.500000  1
