# generated using pymatgen
data_La3Nd3Ho2(CdNi)2
_symmetry_space_group_name_H-M   'P 1'
_cell_length_a   9.81015398
_cell_length_b   9.86064013
_cell_length_c   9.86064050
_cell_angle_alpha   59.66154315
_cell_angle_beta   60.16922622
_cell_angle_gamma   60.16922161
_symmetry_Int_Tables_number   1
_chemical_formula_structural   La3Nd3Ho2(CdNi)2
_chemical_formula_sum   'La6 Nd6 Ho4 Cd4 Ni4'
_cell_volume   674.44785349
_cell_formula_units_Z   2
loop_
 _symmetry_equiv_pos_site_id
 _symmetry_equiv_pos_as_xyz
  1  'x, y, z'
loop_
 _atom_site_type_symbol
 _atom_site_label
 _atom_site_symmetry_multiplicity
 _atom_site_fract_x
 _atom_site_fract_y
 _atom_site_fract_z
 _atom_site_occupancy
  La  La0  1  0.593679  0.601327  0.601327  1
  La  La1  1  0.601327  0.593679  0.203667  1
  La  La2  1  0.601327  0.203667  0.593679  1
  La  La3  1  0.203667  0.601327  0.601327  1
  La  La4  1  0.065846  0.434154  0.434154  1
  La  La5  1  0.434154  0.065846  0.065846  1
  Nd  Nd6  1  0.185190  0.814810  0.814810  1
  Nd  Nd7  1  0.814810  0.185190  0.185190  1
  Nd  Nd8  1  0.813493  0.186507  0.813493  1
  Nd  Nd9  1  0.186507  0.813493  0.186507  1
  Nd  Nd10  1  0.813493  0.813493  0.186507  1
  Nd  Nd11  1  0.186507  0.186507  0.813493  1
  Ho  Ho12  1  0.438366  0.061634  0.438366  1
  Ho  Ho13  1  0.061634  0.438366  0.061634  1
  Ho  Ho14  1  0.438366  0.438366  0.061634  1
  Ho  Ho15  1  0.061634  0.061634  0.438366  1
  Cd  Cd16  1  0.832551  0.829240  0.829240  1
  Cd  Cd17  1  0.829240  0.832551  0.508969  1
  Cd  Cd18  1  0.829240  0.508969  0.832551  1
  Cd  Cd19  1  0.508969  0.829240  0.829240  1
  Ni  Ni20  1  0.390191  0.389793  0.389793  1
  Ni  Ni21  1  0.389793  0.390191  0.830224  1
  Ni  Ni22  1  0.389793  0.830224  0.390191  1
  Ni  Ni23  1  0.830224  0.389793  0.389793  1
