# generated using pymatgen
data_Ho8Nb11Si16Au
_symmetry_space_group_name_H-M   'P 1'
_cell_length_a   7.07221337
_cell_length_b   7.07221437
_cell_length_c   13.00292679
_cell_angle_alpha   90.28118383
_cell_angle_beta   89.71881376
_cell_angle_gamma   89.74145969
_symmetry_Int_Tables_number   1
_chemical_formula_structural   Ho8Nb11Si16Au
_chemical_formula_sum   'Ho8 Nb11 Si16 Au1'
_cell_volume   650.33474787
_cell_formula_units_Z   1
loop_
 _symmetry_equiv_pos_site_id
 _symmetry_equiv_pos_as_xyz
  1  'x, y, z'
loop_
 _atom_site_type_symbol
 _atom_site_label
 _atom_site_symmetry_multiplicity
 _atom_site_fract_x
 _atom_site_fract_y
 _atom_site_fract_z
 _atom_site_occupancy
  Ho  Ho0  1  0.342389  0.001657  0.466902  1
  Ho  Ho1  1  0.496787  0.841833  0.717213  1
  Ho  Ho2  1  0.502662  0.157043  0.215672  1
  Ho  Ho3  1  0.841833  0.496787  0.282787  1
  Ho  Ho4  1  0.157043  0.502662  0.784328  1
  Ho  Ho5  1  0.654822  0.001709  0.967750  1
  Ho  Ho6  1  0.001657  0.342389  0.533098  1
  Ho  Ho7  1  0.001709  0.654822  0.032250  1
  Nb  Nb8  1  0.172063  0.825977  0.249593  1
  Nb  Nb9  1  0.825977  0.172063  0.750407  1
  Nb  Nb10  1  0.671479  0.671479  0.500000  1
  Nb  Nb11  1  0.150188  0.007403  0.876312  1
  Nb  Nb12  1  0.497685  0.651893  0.122214  1
  Nb  Nb13  1  0.504476  0.350272  0.624069  1
  Nb  Nb14  1  0.651893  0.497685  0.877786  1
  Nb  Nb15  1  0.350272  0.504476  0.375931  1
  Nb  Nb16  1  0.848421  0.991760  0.373103  1
  Nb  Nb17  1  0.007403  0.150188  0.123688  1
  Nb  Nb18  1  0.991760  0.848421  0.626897  1
  Si  Si19  1  0.201952  0.136545  0.683439  1
  Si  Si20  1  0.371389  0.719245  0.928339  1
  Si  Si21  1  0.635080  0.293843  0.431794  1
  Si  Si22  1  0.719245  0.371389  0.071661  1
  Si  Si23  1  0.293843  0.635080  0.568206  1
  Si  Si24  1  0.797101  0.864652  0.181500  1
  Si  Si25  1  0.136545  0.201952  0.316561  1
  Si  Si26  1  0.864652  0.797101  0.818500  1
  Si  Si27  1  0.288499  0.940155  0.064519  1
  Si  Si28  1  0.545527  0.793329  0.312377  1
  Si  Si29  1  0.453976  0.206407  0.810450  1
  Si  Si30  1  0.793329  0.545527  0.687623  1
  Si  Si31  1  0.206407  0.453976  0.189550  1
  Si  Si32  1  0.705637  0.046870  0.563373  1
  Si  Si33  1  0.940155  0.288499  0.935481  1
  Si  Si34  1  0.046870  0.705637  0.436627  1
  Au  Au35  1  0.329268  0.329268  0.000000  1
