# generated using pymatgen
data_RbHo2CuS4
_symmetry_space_group_name_H-M   'P 1'
_cell_length_a   3.97976400
_cell_length_b   7.13934966
_cell_length_c   13.74047700
_cell_angle_alpha   90.00000000
_cell_angle_beta   90.00000000
_cell_angle_gamma   73.81616262
_symmetry_Int_Tables_number   1
_chemical_formula_structural   RbHo2CuS4
_chemical_formula_sum   'Rb2 Ho4 Cu2 S8'
_cell_volume   374.93624752
_cell_formula_units_Z   2
loop_
 _symmetry_equiv_pos_site_id
 _symmetry_equiv_pos_as_xyz
  1  'x, y, z'
loop_
 _atom_site_type_symbol
 _atom_site_label
 _atom_site_symmetry_multiplicity
 _atom_site_fract_x
 _atom_site_fract_y
 _atom_site_fract_z
 _atom_site_occupancy
  Rb  Rb0  1  0.892057  0.215884  0.250000  1
  Rb  Rb1  1  0.107942  0.784116  0.750000  1
  Ho  Ho2  1  0.633808  0.732384  0.062561  1
  Ho  Ho3  1  0.633808  0.732384  0.437439  1
  Ho  Ho4  1  0.366192  0.267616  0.562561  1
  Ho  Ho5  1  0.366192  0.267616  0.937439  1
  Cu  Cu6  1  0.165105  0.669790  0.250000  1
  Cu  Cu7  1  0.834895  0.330209  0.750000  1
  S  S8  1  0.000000  0.000000  0.000000  1
  S  S9  1  0.258775  0.482450  0.107692  1
  S  S10  1  0.574499  0.850999  0.250000  1
  S  S11  1  0.258775  0.482450  0.392308  1
  S  S12  1  0.000000  0.000000  0.500000  1
  S  S13  1  0.741225  0.517549  0.607692  1
  S  S14  1  0.425499  0.149002  0.750000  1
  S  S15  1  0.741225  0.517549  0.892308  1
