# generated using pymatgen
data_LaTiHgSbO7
_symmetry_space_group_name_H-M   'P 1'
_cell_length_a   7.42147101
_cell_length_b   7.42147052
_cell_length_c   7.42147033
_cell_angle_alpha   120.91236802
_cell_angle_beta   117.79165139
_cell_angle_gamma   91.14689512
_symmetry_Int_Tables_number   1
_chemical_formula_structural   LaTiHgSbO7
_chemical_formula_sum   'La2 Ti2 Hg2 Sb2 O14'
_cell_volume   291.54162699
_cell_formula_units_Z   2
loop_
 _symmetry_equiv_pos_site_id
 _symmetry_equiv_pos_as_xyz
  1  'x, y, z'
loop_
 _atom_site_type_symbol
 _atom_site_label
 _atom_site_symmetry_multiplicity
 _atom_site_fract_x
 _atom_site_fract_y
 _atom_site_fract_z
 _atom_site_occupancy
  La  La0  1  0.500000  0.000000  0.500000  1
  La  La1  1  0.000000  0.000000  0.000000  1
  Ti  Ti2  1  0.000000  0.500000  0.000000  1
  Ti  Ti3  1  0.000000  0.000000  0.500000  1
  Hg  Hg4  1  0.500000  0.000000  0.000000  1
  Hg  Hg5  1  0.500000  0.500000  0.500000  1
  Sb  Sb6  1  0.000000  0.500000  0.500000  1
  Sb  Sb7  1  0.500000  0.500000  0.000000  1
  O  O8  1  0.928152  0.178152  0.750000  1
  O  O9  1  0.324014  0.574014  0.750000  1
  O  O10  1  0.941681  0.578336  0.763249  1
  O  O11  1  0.315086  0.178432  0.736751  1
  O  O12  1  0.941681  0.178432  0.363345  1
  O  O13  1  0.315086  0.578336  0.136655  1
  O  O14  1  0.071848  0.821848  0.250000  1
  O  O15  1  0.675986  0.425986  0.250000  1
  O  O16  1  0.058319  0.421664  0.236751  1
  O  O17  1  0.684914  0.821568  0.263249  1
  O  O18  1  0.058319  0.821568  0.636655  1
  O  O19  1  0.684914  0.421664  0.863345  1
  O  O20  1  0.615977  0.865977  0.750000  1
  O  O21  1  0.384023  0.134023  0.250000  1
