# generated using pymatgen
data_Tb12Sc3Re12W5N48
_symmetry_space_group_name_H-M   'P 1'
_cell_length_a   11.13137976
_cell_length_b   11.13138063
_cell_length_c   11.13137944
_cell_angle_alpha   109.59580616
_cell_angle_beta   109.59580676
_cell_angle_gamma   109.59580195
_symmetry_Int_Tables_number   1
_chemical_formula_structural   Tb12Sc3Re12W5N48
_chemical_formula_sum   'Tb12 Sc3 Re12 W5 N48'
_cell_volume   1056.83114989
_cell_formula_units_Z   1
loop_
 _symmetry_equiv_pos_site_id
 _symmetry_equiv_pos_as_xyz
  1  'x, y, z'
loop_
 _atom_site_type_symbol
 _atom_site_label
 _atom_site_symmetry_multiplicity
 _atom_site_fract_x
 _atom_site_fract_y
 _atom_site_fract_z
 _atom_site_occupancy
  Tb  Tb0  1  0.374219  0.750148  0.124330  1
  Tb  Tb1  1  0.248684  0.374313  0.126098  1
  Tb  Tb2  1  0.374313  0.126098  0.248684  1
  Tb  Tb3  1  0.875670  0.625781  0.249852  1
  Tb  Tb4  1  0.750148  0.124330  0.374219  1
  Tb  Tb5  1  0.126098  0.248684  0.374313  1
  Tb  Tb6  1  0.873902  0.751316  0.625687  1
  Tb  Tb7  1  0.249852  0.875670  0.625781  1
  Tb  Tb8  1  0.124330  0.374219  0.750148  1
  Tb  Tb9  1  0.625687  0.873902  0.751316  1
  Tb  Tb10  1  0.625781  0.249852  0.875670  1
  Tb  Tb11  1  0.751316  0.625687  0.873902  1
  Sc  Sc12  1  0.500000  0.500000  0.000000  1
  Sc  Sc13  1  0.500000  0.000000  0.500000  1
  Sc  Sc14  1  0.000000  0.500000  0.500000  1
  Re  Re15  1  0.876455  0.250746  0.126632  1
  Re  Re16  1  0.749254  0.873368  0.123545  1
  Re  Re17  1  0.626472  0.376840  0.249643  1
  Re  Re18  1  0.126632  0.876455  0.250746  1
  Re  Re19  1  0.249643  0.626472  0.376840  1
  Re  Re20  1  0.623160  0.750357  0.373528  1
  Re  Re21  1  0.376840  0.249643  0.626472  1
  Re  Re22  1  0.750357  0.373528  0.623160  1
  Re  Re23  1  0.873368  0.123545  0.749254  1
  Re  Re24  1  0.373528  0.623160  0.750357  1
  Re  Re25  1  0.250746  0.126632  0.876455  1
  Re  Re26  1  0.123545  0.749254  0.873368  1
  W  W27  1  0.000000  0.000000  0.000000  1
  W  W28  1  0.500000  0.000000  0.000000  1
  W  W29  1  0.000000  0.500000  0.000000  1
  W  W30  1  0.000000  0.000000  0.500000  1
  W  W31  1  0.500000  0.500000  0.500000  1
  N  N32  1  0.197844  0.114994  0.015491  1
  N  N33  1  0.316192  0.898295  0.012349  1
  N  N34  1  0.886311  0.402403  0.084320  1
  N  N35  1  0.714665  0.688675  0.088129  1
  N  N36  1  0.623611  0.409650  0.098956  1
  N  N37  1  0.987651  0.683808  0.101705  1
  N  N38  1  0.015491  0.197844  0.114994  1
  N  N39  1  0.597597  0.915681  0.113689  1
  N  N40  1  0.199902  0.584437  0.184112  1
  N  N41  1  0.474381  0.598755  0.189364  1
  N  N42  1  0.584437  0.184112  0.199902  1
  N  N43  1  0.114994  0.015491  0.197844  1
  N  N44  1  0.482993  0.384415  0.299344  1
  N  N45  1  0.311325  0.911872  0.285335  1
  N  N46  1  0.898295  0.012349  0.316192  1
  N  N47  1  0.911872  0.285335  0.311325  1
  N  N48  1  0.299344  0.482993  0.384415  1
  N  N49  1  0.590351  0.901044  0.376389  1
  N  N50  1  0.810636  0.525619  0.401245  1
  N  N51  1  0.084320  0.886311  0.402403  1
  N  N52  1  0.098956  0.623611  0.409650  1
  N  N53  1  0.815888  0.800098  0.415564  1
  N  N54  1  0.598755  0.189364  0.474381  1
  N  N55  1  0.384415  0.299344  0.482993  1
  N  N56  1  0.615585  0.700656  0.517007  1
  N  N57  1  0.401245  0.810636  0.525619  1
  N  N58  1  0.184112  0.199902  0.584437  1
  N  N59  1  0.901044  0.376389  0.590351  1
  N  N60  1  0.915681  0.113689  0.597597  1
  N  N61  1  0.189364  0.474381  0.598755  1
  N  N62  1  0.409650  0.098956  0.623611  1
  N  N63  1  0.700656  0.517007  0.615585  1
  N  N64  1  0.088129  0.714665  0.688675  1
  N  N65  1  0.101705  0.987651  0.683808  1
  N  N66  1  0.688675  0.088129  0.714665  1
  N  N67  1  0.517007  0.615585  0.700656  1
  N  N68  1  0.415564  0.815888  0.800098  1
  N  N69  1  0.885006  0.984509  0.802156  1
  N  N70  1  0.525619  0.401245  0.810636  1
  N  N71  1  0.800098  0.415564  0.815888  1
  N  N72  1  0.402403  0.084320  0.886311  1
  N  N73  1  0.984509  0.802156  0.885006  1
  N  N74  1  0.012349  0.316192  0.898295  1
  N  N75  1  0.376389  0.590351  0.901044  1
  N  N76  1  0.285335  0.311325  0.911872  1
  N  N77  1  0.113689  0.597597  0.915681  1
  N  N78  1  0.683808  0.101705  0.987651  1
  N  N79  1  0.802156  0.885006  0.984509  1
