# generated using pymatgen
data_NdSmZn(PRh2)6
_symmetry_space_group_name_H-M   'P 1'
_cell_length_a   9.71805300
_cell_length_b   9.71805358
_cell_length_c   3.90388900
_cell_angle_alpha   90.00000000
_cell_angle_beta   90.00000000
_cell_angle_gamma   120.00001504
_symmetry_Int_Tables_number   1
_chemical_formula_structural   NdSmZn(PRh2)6
_chemical_formula_sum   'Nd1 Sm1 Zn1 P6 Rh12'
_cell_volume   319.29092801
_cell_formula_units_Z   1
loop_
 _symmetry_equiv_pos_site_id
 _symmetry_equiv_pos_as_xyz
  1  'x, y, z'
loop_
 _atom_site_type_symbol
 _atom_site_label
 _atom_site_symmetry_multiplicity
 _atom_site_fract_x
 _atom_site_fract_y
 _atom_site_fract_z
 _atom_site_occupancy
  Nd  Nd0  1  0.666667  0.333333  0.246098  1
  Sm  Sm1  1  0.333333  0.666667  0.753970  1
  Zn  Zn2  1  0.000000  0.000000  0.500251  1
  P  P3  1  0.886396  0.600984  0.748380  1
  P  P4  1  0.399016  0.285413  0.748380  1
  P  P5  1  0.714587  0.113604  0.748380  1
  P  P6  1  0.114220  0.399883  0.251610  1
  P  P7  1  0.600117  0.714338  0.251610  1
  P  P8  1  0.285662  0.885780  0.251610  1
  Rh  Rh9  1  0.613963  0.551283  0.749246  1
  Rh  Rh10  1  0.448717  0.062682  0.749246  1
  Rh  Rh11  1  0.937318  0.386037  0.749246  1
  Rh  Rh12  1  0.385432  0.449833  0.250727  1
  Rh  Rh13  1  0.550167  0.935598  0.250727  1
  Rh  Rh14  1  0.064402  0.614568  0.250727  1
  Rh  Rh15  1  0.125096  0.842849  0.753490  1
  Rh  Rh16  1  0.157151  0.282246  0.753490  1
  Rh  Rh17  1  0.717754  0.874904  0.753490  1
  Rh  Rh18  1  0.875246  0.157053  0.246440  1
  Rh  Rh19  1  0.842947  0.718193  0.246440  1
  Rh  Rh20  1  0.281807  0.124754  0.246440  1
