# generated using pymatgen
data_Ti10CoSiSb4
_symmetry_space_group_name_H-M   'P 1'
_cell_length_a   5.09287573
_cell_length_b   7.80709229
_cell_length_c   7.80709327
_cell_angle_alpha   83.89293996
_cell_angle_beta   70.96354210
_cell_angle_gamma   70.96354312
_symmetry_Int_Tables_number   1
_chemical_formula_structural   Ti10CoSiSb4
_chemical_formula_sum   'Ti10 Co1 Si1 Sb4'
_cell_volume   277.39037665
_cell_formula_units_Z   1
loop_
 _symmetry_equiv_pos_site_id
 _symmetry_equiv_pos_as_xyz
  1  'x, y, z'
loop_
 _atom_site_type_symbol
 _atom_site_label
 _atom_site_symmetry_multiplicity
 _atom_site_fract_x
 _atom_site_fract_y
 _atom_site_fract_z
 _atom_site_occupancy
  Ti  Ti0  1  0.250000  0.500000  0.500000  1
  Ti  Ti1  1  0.750000  0.500000  0.500000  1
  Ti  Ti2  1  0.072898  0.134892  0.721282  1
  Ti  Ti3  1  0.929071  0.865108  0.278718  1
  Ti  Ti4  1  0.794180  0.278718  0.134892  1
  Ti  Ti5  1  0.427102  0.278718  0.865108  1
  Ti  Ti6  1  0.207789  0.721282  0.865108  1
  Ti  Ti7  1  0.570929  0.721282  0.134892  1
  Ti  Ti8  1  0.705820  0.865108  0.721282  1
  Ti  Ti9  1  0.292211  0.134892  0.278718  1
  Co  Co10  1  0.250000  0.000000  0.000000  1
  Si  Si11  1  0.750000  0.000000  0.000000  1
  Sb  Sb12  1  0.164433  0.500000  0.171132  1
  Sb  Sb13  1  0.835567  0.500000  0.828868  1
  Sb  Sb14  1  0.335567  0.828868  0.500000  1
  Sb  Sb15  1  0.664433  0.171132  0.500000  1
