# generated using pymatgen
data_Dy8Lu4ZnCo4Sn
_symmetry_space_group_name_H-M   'P 1'
_cell_length_a   8.24949871
_cell_length_b   8.24949807
_cell_length_c   8.24949807
_cell_angle_alpha   111.71898779
_cell_angle_beta   109.63727601
_cell_angle_gamma   107.09045033
_symmetry_Int_Tables_number   1
_chemical_formula_structural   Dy8Lu4ZnCo4Sn
_chemical_formula_sum   'Dy8 Lu4 Zn1 Co4 Sn1'
_cell_volume   431.47036186
_cell_formula_units_Z   1
loop_
 _symmetry_equiv_pos_site_id
 _symmetry_equiv_pos_as_xyz
  1  'x, y, z'
loop_
 _atom_site_type_symbol
 _atom_site_label
 _atom_site_symmetry_multiplicity
 _atom_site_fract_x
 _atom_site_fract_y
 _atom_site_fract_z
 _atom_site_occupancy
  Dy  Dy0  1  0.431125  0.227861  0.203262  1
  Dy  Dy1  1  0.568875  0.772139  0.796738  1
  Dy  Dy2  1  0.024599  0.227861  0.796738  1
  Dy  Dy3  1  0.975401  0.772139  0.203262  1
  Dy  Dy4  1  0.183185  0.283203  0.466389  1
  Dy  Dy5  1  0.816815  0.716797  0.533611  1
  Dy  Dy6  1  0.183185  0.716797  0.899982  1
  Dy  Dy7  1  0.816815  0.283203  0.100018  1
  Lu  Lu8  1  0.319965  0.629418  0.309453  1
  Lu  Lu9  1  0.680035  0.370582  0.690547  1
  Lu  Lu10  1  0.319965  0.010512  0.690547  1
  Lu  Lu11  1  0.680035  0.989488  0.309453  1
  Zn  Zn12  1  0.000000  0.000000  0.000000  1
  Co  Co13  1  0.365763  0.000000  0.365763  1
  Co  Co14  1  0.634237  0.000000  0.634237  1
  Co  Co15  1  0.114448  0.614448  0.500000  1
  Co  Co16  1  0.885552  0.385552  0.500000  1
  Sn  Sn17  1  0.500000  0.500000  0.000000  1
