# generated using pymatgen
data_CaTbAlO4
_symmetry_space_group_name_H-M   'P 1'
_cell_length_a   11.33664900
_cell_length_b   5.24726600
_cell_length_c   6.58181600
_cell_angle_alpha   89.99996724
_cell_angle_beta   90.00005054
_cell_angle_gamma   90.00001092
_symmetry_Int_Tables_number   1
_chemical_formula_structural   CaTbAlO4
_chemical_formula_sum   'Ca4 Tb4 Al4 O16'
_cell_volume   391.52862389
_cell_formula_units_Z   4
loop_
 _symmetry_equiv_pos_site_id
 _symmetry_equiv_pos_as_xyz
  1  'x, y, z'
loop_
 _atom_site_type_symbol
 _atom_site_label
 _atom_site_symmetry_multiplicity
 _atom_site_fract_x
 _atom_site_fract_y
 _atom_site_fract_z
 _atom_site_occupancy
  Ca  Ca0  1  0.499986  0.499990  0.487162  1
  Ca  Ca1  1  0.500014  0.500010  0.987162  1
  Ca  Ca2  1  0.000015  0.999991  0.987155  1
  Ca  Ca3  1  0.999986  0.000010  0.487159  1
  Tb  Tb4  1  0.221042  0.504566  0.237139  1
  Tb  Tb5  1  0.778957  0.495434  0.737139  1
  Tb  Tb6  1  0.278957  0.004566  0.737138  1
  Tb  Tb7  1  0.721044  0.995433  0.237139  1
  Al  Al8  1  0.402910  0.062602  0.237146  1
  Al  Al9  1  0.597090  0.937399  0.737146  1
  Al  Al10  1  0.097090  0.562602  0.737146  1
  Al  Al11  1  0.902910  0.437399  0.237146  1
  O  O12  1  0.399397  0.729115  0.237143  1
  O  O13  1  0.600602  0.270883  0.737143  1
  O  O14  1  0.100603  0.229115  0.737142  1
  O  O15  1  0.899398  0.770885  0.237142  1
  O  O16  1  0.168715  0.721119  0.527121  1
  O  O17  1  0.831285  0.278881  0.027121  1
  O  O18  1  0.331285  0.221118  0.027122  1
  O  O19  1  0.668715  0.778881  0.527122  1
  O  O20  1  0.331265  0.221105  0.447152  1
  O  O21  1  0.668735  0.778894  0.947152  1
  O  O22  1  0.168735  0.721106  0.947152  1
  O  O23  1  0.831265  0.278895  0.447152  1
  O  O24  1  0.547459  0.200957  0.237141  1
  O  O25  1  0.452540  0.799043  0.737141  1
  O  O26  1  0.952541  0.700957  0.737141  1
  O  O27  1  0.047460  0.299043  0.237141  1
