# generated using pymatgen
data_Mn4Si6Tc5Mo
_symmetry_space_group_name_H-M   'P 1'
_cell_length_a   6.99254075
_cell_length_b   6.97700066
_cell_length_c   4.83851400
_cell_angle_alpha   90.00000000
_cell_angle_beta   90.00000000
_cell_angle_gamma   119.92650629
_symmetry_Int_Tables_number   1
_chemical_formula_structural   Mn4Si6Tc5Mo
_chemical_formula_sum   'Mn4 Si6 Tc5 Mo1'
_cell_volume   204.58206291
_cell_formula_units_Z   1
loop_
 _symmetry_equiv_pos_site_id
 _symmetry_equiv_pos_as_xyz
  1  'x, y, z'
loop_
 _atom_site_type_symbol
 _atom_site_label
 _atom_site_symmetry_multiplicity
 _atom_site_fract_x
 _atom_site_fract_y
 _atom_site_fract_z
 _atom_site_occupancy
  Mn  Mn0  1  0.331237  0.667237  0.499621  1
  Mn  Mn1  1  0.668763  0.335999  0.000379  1
  Mn  Mn2  1  0.668763  0.335999  0.499621  1
  Mn  Mn3  1  0.331237  0.667237  0.000379  1
  Si  Si4  1  0.406190  0.003807  0.750000  1
  Si  Si5  1  0.400683  0.400463  0.250000  1
  Si  Si6  1  0.000000  0.596578  0.250000  1
  Si  Si7  1  0.000000  0.398211  0.750000  1
  Si  Si8  1  0.593810  0.597617  0.750000  1
  Si  Si9  1  0.599317  0.999780  0.250000  1
  Tc  Tc10  1  0.000000  0.239657  0.250000  1
  Tc  Tc11  1  0.755835  0.754960  0.250000  1
  Tc  Tc12  1  0.755837  0.999572  0.750000  1
  Tc  Tc13  1  0.244163  0.243735  0.750000  1
  Tc  Tc14  1  0.244165  0.999125  0.250000  1
  Mo  Mo15  1  0.000000  0.760022  0.750000  1
