# generated using pymatgen
data_Ce2HoIn3Ru2
_symmetry_space_group_name_H-M   'P 1'
_cell_length_a   8.36086482
_cell_length_b   8.36086421
_cell_length_c   4.96332242
_cell_angle_alpha   82.88354393
_cell_angle_beta   82.88354590
_cell_angle_gamma   33.99333278
_symmetry_Int_Tables_number   1
_chemical_formula_structural   Ce2HoIn3Ru2
_chemical_formula_sum   'Ce2 Ho1 In3 Ru2'
_cell_volume   192.34748981
_cell_formula_units_Z   1
loop_
 _symmetry_equiv_pos_site_id
 _symmetry_equiv_pos_as_xyz
  1  'x, y, z'
loop_
 _atom_site_type_symbol
 _atom_site_label
 _atom_site_symmetry_multiplicity
 _atom_site_fract_x
 _atom_site_fract_y
 _atom_site_fract_z
 _atom_site_occupancy
  Ce  Ce0  1  0.828816  0.828816  0.574593  1
  Ce  Ce1  1  0.171184  0.171184  0.425407  1
  Ho  Ho2  1  0.000000  0.000000  0.000000  1
  In  In3  1  0.370389  0.370389  0.046147  1
  In  In4  1  0.500000  0.500000  0.500000  1
  In  In5  1  0.629611  0.629611  0.953853  1
  Ru  Ru6  1  0.793357  0.793357  0.122452  1
  Ru  Ru7  1  0.206643  0.206643  0.877548  1
