# generated using pymatgen
data_Er3GaCo2Sn3
_symmetry_space_group_name_H-M   'P 1'
_cell_length_a   7.32036900
_cell_length_b   7.32036817
_cell_length_c   3.97048800
_cell_angle_alpha   90.00000000
_cell_angle_beta   90.00000000
_cell_angle_gamma   119.99998117
_symmetry_Int_Tables_number   1
_chemical_formula_structural   Er3GaCo2Sn3
_chemical_formula_sum   'Er3 Ga1 Co2 Sn3'
_cell_volume   184.26400182
_cell_formula_units_Z   1
loop_
 _symmetry_equiv_pos_site_id
 _symmetry_equiv_pos_as_xyz
  1  'x, y, z'
loop_
 _atom_site_type_symbol
 _atom_site_label
 _atom_site_symmetry_multiplicity
 _atom_site_fract_x
 _atom_site_fract_y
 _atom_site_fract_z
 _atom_site_occupancy
  Er  Er0  1  0.393096  0.409587  0.000000  1
  Er  Er1  1  0.016491  0.606904  0.000000  1
  Er  Er2  1  0.590413  0.983509  0.000000  1
  Ga  Ga3  1  0.666667  0.333333  0.500000  1
  Co  Co4  1  0.000000  0.000000  0.000000  1
  Co  Co5  1  0.333333  0.666667  0.500000  1
  Sn  Sn6  1  0.743007  0.751873  0.500000  1
  Sn  Sn7  1  0.008867  0.256993  0.500000  1
  Sn  Sn8  1  0.248127  0.991133  0.500000  1
