# generated using pymatgen
data_Pr2FeOsBr
_symmetry_space_group_name_H-M   'P 1'
_cell_length_a   4.16123200
_cell_length_b   4.16123283
_cell_length_c   17.17781000
_cell_angle_alpha   90.00000000
_cell_angle_beta   90.00000000
_cell_angle_gamma   120.00000933
_symmetry_Int_Tables_number   1
_chemical_formula_structural   Pr2FeOsBr
_chemical_formula_sum   'Pr4 Fe2 Os2 Br2'
_cell_volume   257.59790761
_cell_formula_units_Z   2
loop_
 _symmetry_equiv_pos_site_id
 _symmetry_equiv_pos_as_xyz
  1  'x, y, z'
loop_
 _atom_site_type_symbol
 _atom_site_label
 _atom_site_symmetry_multiplicity
 _atom_site_fract_x
 _atom_site_fract_y
 _atom_site_fract_z
 _atom_site_occupancy
  Pr  Pr0  1  0.000000  0.000000  0.110948  1
  Pr  Pr1  1  0.000000  0.000000  0.610948  1
  Pr  Pr2  1  0.000000  0.000000  0.888685  1
  Pr  Pr3  1  0.000000  0.000000  0.388685  1
  Fe  Fe4  1  0.333333  0.666667  0.005623  1
  Fe  Fe5  1  0.666667  0.333333  0.505623  1
  Os  Os6  1  0.666667  0.333333  0.995052  1
  Os  Os7  1  0.333333  0.666667  0.495052  1
  Br  Br8  1  0.666667  0.333333  0.249694  1
  Br  Br9  1  0.333333  0.666667  0.749694  1
