# generated using pymatgen
data_Tm5Mo2C7
_symmetry_space_group_name_H-M   'P 1'
_cell_length_a   8.31052735
_cell_length_b   8.31052675
_cell_length_c   3.38783700
_cell_angle_alpha   90.00000000
_cell_angle_beta   90.00000000
_cell_angle_gamma   122.07737573
_symmetry_Int_Tables_number   1
_chemical_formula_structural   Tm5Mo2C7
_chemical_formula_sum   'Tm5 Mo2 C7'
_cell_volume   198.25908143
_cell_formula_units_Z   1
loop_
 _symmetry_equiv_pos_site_id
 _symmetry_equiv_pos_as_xyz
  1  'x, y, z'
loop_
 _atom_site_type_symbol
 _atom_site_label
 _atom_site_symmetry_multiplicity
 _atom_site_fract_x
 _atom_site_fract_y
 _atom_site_fract_z
 _atom_site_occupancy
  Tm  Tm0  1  0.500000  0.500000  0.000000  1
  Tm  Tm1  1  0.076612  0.334318  0.500000  1
  Tm  Tm2  1  0.923388  0.665682  0.500000  1
  Tm  Tm3  1  0.665682  0.923388  0.500000  1
  Tm  Tm4  1  0.334318  0.076612  0.500000  1
  Mo  Mo5  1  0.712858  0.287142  0.000000  1
  Mo  Mo6  1  0.287142  0.712858  0.000000  1
  C  C7  1  0.622699  0.377301  0.500000  1
  C  C8  1  0.377301  0.622699  0.500000  1
  C  C9  1  0.000000  0.000000  0.000000  1
  C  C10  1  0.168328  0.168328  0.000000  1
  C  C11  1  0.831672  0.831672  0.000000  1
  C  C12  1  0.000000  0.500000  0.000000  1
  C  C13  1  0.500000  0.000000  0.000000  1
