# generated using pymatgen
data_Cs3Ta2Ag3Se8
_symmetry_space_group_name_H-M   'P 1'
_cell_length_a   13.68703850
_cell_length_b   13.68703767
_cell_length_c   15.99303401
_cell_angle_alpha   62.15233294
_cell_angle_beta   62.15233555
_cell_angle_gamma   26.27630915
_symmetry_Int_Tables_number   1
_chemical_formula_structural   Cs3Ta2Ag3Se8
_chemical_formula_sum   'Cs6 Ta4 Ag6 Se16'
_cell_volume   1163.80304013
_cell_formula_units_Z   2
loop_
 _symmetry_equiv_pos_site_id
 _symmetry_equiv_pos_as_xyz
  1  'x, y, z'
loop_
 _atom_site_type_symbol
 _atom_site_label
 _atom_site_symmetry_multiplicity
 _atom_site_fract_x
 _atom_site_fract_y
 _atom_site_fract_z
 _atom_site_occupancy
  Cs  Cs0  1  0.634631  0.753870  0.398109  1
  Cs  Cs1  1  0.000000  0.000000  0.000000  1
  Cs  Cs2  1  0.753870  0.634631  0.898109  1
  Cs  Cs3  1  0.000000  0.000000  0.500000  1
  Cs  Cs4  1  0.246130  0.365369  0.101891  1
  Cs  Cs5  1  0.365369  0.246130  0.601891  1
  Ta  Ta6  1  0.584317  0.166063  0.277815  1
  Ta  Ta7  1  0.166063  0.584317  0.777815  1
  Ta  Ta8  1  0.833937  0.415683  0.222185  1
  Ta  Ta9  1  0.415683  0.833937  0.722185  1
  Ag  Ag10  1  0.287994  0.712006  0.750000  1
  Ag  Ag11  1  0.333955  0.916641  0.216011  1
  Ag  Ag12  1  0.916641  0.333955  0.716011  1
  Ag  Ag13  1  0.083359  0.666045  0.283989  1
  Ag  Ag14  1  0.712006  0.287994  0.250000  1
  Ag  Ag15  1  0.666045  0.083359  0.783989  1
  Se  Se16  1  0.464453  0.442872  0.659973  1
  Se  Se17  1  0.219327  0.091921  0.812831  1
  Se  Se18  1  0.442872  0.464453  0.159973  1
  Se  Se19  1  0.780673  0.908079  0.187169  1
  Se  Se20  1  0.557128  0.535547  0.840027  1
  Se  Se21  1  0.299125  0.287143  0.881990  1
  Se  Se22  1  0.712857  0.700875  0.618010  1
  Se  Se23  1  0.287143  0.299125  0.381990  1
  Se  Se24  1  0.908079  0.780673  0.687169  1
  Se  Se25  1  0.176872  0.014430  0.622493  1
  Se  Se26  1  0.700875  0.712857  0.118010  1
  Se  Se27  1  0.535547  0.557128  0.340027  1
  Se  Se28  1  0.985570  0.823128  0.877507  1
  Se  Se29  1  0.091921  0.219327  0.312831  1
  Se  Se30  1  0.823128  0.985570  0.377507  1
  Se  Se31  1  0.014430  0.176872  0.122493  1
