# generated using pymatgen
data_PrSn6Ir3Ru
_symmetry_space_group_name_H-M   'P 1'
_cell_length_a   7.03869856
_cell_length_b   6.93270441
_cell_length_c   6.94864007
_cell_angle_alpha   90.33810207
_cell_angle_beta   119.38637574
_cell_angle_gamma   119.31152418
_symmetry_Int_Tables_number   1
_chemical_formula_structural   PrSn6Ir3Ru
_chemical_formula_sum   'Pr1 Sn6 Ir3 Ru1'
_cell_volume   243.72816336
_cell_formula_units_Z   1
loop_
 _symmetry_equiv_pos_site_id
 _symmetry_equiv_pos_as_xyz
  1  'x, y, z'
loop_
 _atom_site_type_symbol
 _atom_site_label
 _atom_site_symmetry_multiplicity
 _atom_site_fract_x
 _atom_site_fract_y
 _atom_site_fract_z
 _atom_site_occupancy
  Pr  Pr0  1  0.000000  0.000424  0.000199  1
  Sn  Sn1  1  0.660492  0.131222  0.126564  1
  Sn  Sn2  1  0.339508  0.470732  0.466074  1
  Sn  Sn3  1  0.000000  0.869214  0.530794  1
  Sn  Sn4  1  0.000000  0.533281  0.873038  1
  Sn  Sn5  1  0.504386  0.499925  0.998969  1
  Sn  Sn6  1  0.495614  0.995539  0.494583  1
  Ir  Ir7  1  0.368831  0.763920  0.765568  1
  Ir  Ir8  1  0.631169  0.395089  0.396737  1
  Ir  Ir9  1  0.000000  0.244175  0.600044  1
  Ru  Ru10  1  0.000000  0.596479  0.247432  1
