# generated using pymatgen
data_Tm12Fe2TcHg2
_symmetry_space_group_name_H-M   'P 1'
_cell_length_a   8.21962960
_cell_length_b   8.21962987
_cell_length_c   8.21963110
_cell_angle_alpha   108.53411179
_cell_angle_beta   108.53411858
_cell_angle_gamma   111.36215135
_symmetry_Int_Tables_number   1
_chemical_formula_structural   Tm12Fe2TcHg2
_chemical_formula_sum   'Tm12 Fe2 Tc1 Hg2'
_cell_volume   427.14827758
_cell_formula_units_Z   1
loop_
 _symmetry_equiv_pos_site_id
 _symmetry_equiv_pos_as_xyz
  1  'x, y, z'
loop_
 _atom_site_type_symbol
 _atom_site_label
 _atom_site_symmetry_multiplicity
 _atom_site_fract_x
 _atom_site_fract_y
 _atom_site_fract_z
 _atom_site_occupancy
  Tm  Tm0  1  0.192125  0.432925  0.240801  1
  Tm  Tm1  1  0.807875  0.567075  0.759199  1
  Tm  Tm2  1  0.192125  0.951325  0.759199  1
  Tm  Tm3  1  0.951325  0.192125  0.759199  1
  Tm  Tm4  1  0.807875  0.048675  0.240801  1
  Tm  Tm5  1  0.048675  0.807875  0.240801  1
  Tm  Tm6  1  0.432925  0.192125  0.240801  1
  Tm  Tm7  1  0.567075  0.807875  0.759199  1
  Tm  Tm8  1  0.307940  0.307940  0.615881  1
  Tm  Tm9  1  0.692060  0.692060  0.384119  1
  Tm  Tm10  1  0.692060  0.307940  0.000000  1
  Tm  Tm11  1  0.307940  0.692060  0.000000  1
  Fe  Fe12  1  0.382486  0.382486  0.000000  1
  Fe  Fe13  1  0.617514  0.617514  0.000000  1
  Tc  Tc14  1  0.000000  0.000000  0.000000  1
  Hg  Hg15  1  0.000000  0.500000  0.500000  1
  Hg  Hg16  1  0.500000  0.000000  0.500000  1
