# generated using pymatgen
data_TbCdCu3Pt
_symmetry_space_group_name_H-M   'P 1'
_cell_length_a   5.15957806
_cell_length_b   5.15957733
_cell_length_c   5.19407859
_cell_angle_alpha   60.21947883
_cell_angle_beta   60.21948783
_cell_angle_gamma   59.99998413
_symmetry_Int_Tables_number   1
_chemical_formula_structural   TbCdCu3Pt
_chemical_formula_sum   'Tb1 Cd1 Cu3 Pt1'
_cell_volume   98.09674775
_cell_formula_units_Z   1
loop_
 _symmetry_equiv_pos_site_id
 _symmetry_equiv_pos_as_xyz
  1  'x, y, z'
loop_
 _atom_site_type_symbol
 _atom_site_label
 _atom_site_symmetry_multiplicity
 _atom_site_fract_x
 _atom_site_fract_y
 _atom_site_fract_z
 _atom_site_occupancy
  Tb  Tb0  1  0.748610  0.748610  0.754172  1
  Cd  Cd1  1  0.999311  0.999311  0.002068  1
  Cu  Cu2  1  0.375143  0.876957  0.372757  1
  Cu  Cu3  1  0.375143  0.375143  0.372757  1
  Cu  Cu4  1  0.876957  0.375143  0.372757  1
  Pt  Pt5  1  0.374836  0.374836  0.875491  1
