# generated using pymatgen
data_U2BiO2
_symmetry_space_group_name_H-M   'P 1'
_cell_length_a   6.92036966
_cell_length_b   6.92037003
_cell_length_c   6.92037007
_cell_angle_alpha   146.88194150
_cell_angle_beta   146.88194590
_cell_angle_gamma   47.53861036
_symmetry_Int_Tables_number   1
_chemical_formula_structural   U2BiO2
_chemical_formula_sum   'U2 Bi1 O2'
_cell_volume   98.54878820
_cell_formula_units_Z   1
loop_
 _symmetry_equiv_pos_site_id
 _symmetry_equiv_pos_as_xyz
  1  'x, y, z'
loop_
 _atom_site_type_symbol
 _atom_site_label
 _atom_site_symmetry_multiplicity
 _atom_site_fract_x
 _atom_site_fract_y
 _atom_site_fract_z
 _atom_site_occupancy
  U  U0  1  0.346047  0.346047  0.000000  1
  U  U1  1  0.653953  0.653953  0.000000  1
  Bi  Bi2  1  0.000000  0.000000  0.000000  1
  O  O3  1  0.250000  0.750000  0.500000  1
  O  O4  1  0.750000  0.250000  0.500000  1
