# generated using pymatgen
data_Nd11In9Ir4
_symmetry_space_group_name_H-M   'P 1'
_cell_length_a   13.40597954
_cell_length_b   13.40552372
_cell_length_c   3.88161600
_cell_angle_alpha   90.00000000
_cell_angle_beta   90.00000000
_cell_angle_gamma   112.15770388
_symmetry_Int_Tables_number   1
_chemical_formula_structural   Nd11In9Ir4
_chemical_formula_sum   'Nd11 In9 Ir4'
_cell_volume   646.06451753
_cell_formula_units_Z   1
loop_
 _symmetry_equiv_pos_site_id
 _symmetry_equiv_pos_as_xyz
  1  'x, y, z'
loop_
 _atom_site_type_symbol
 _atom_site_label
 _atom_site_symmetry_multiplicity
 _atom_site_fract_x
 _atom_site_fract_y
 _atom_site_fract_z
 _atom_site_occupancy
  Nd  Nd0  1  0.079603  0.419366  0.000000  1
  Nd  Nd1  1  0.919569  0.580631  0.000000  1
  Nd  Nd2  1  0.419154  0.079570  0.000000  1
  Nd  Nd3  1  0.580820  0.920470  0.000000  1
  Nd  Nd4  1  0.626547  0.372860  0.000000  1
  Nd  Nd5  1  0.373472  0.626658  0.000000  1
  Nd  Nd6  1  0.839715  0.160596  0.000000  1
  Nd  Nd7  1  0.160202  0.839486  0.000000  1
  Nd  Nd8  1  0.999803  0.000254  0.000000  1
  Nd  Nd9  1  0.313887  0.313783  0.000000  1
  Nd  Nd10  1  0.686481  0.686662  0.000000  1
  In  In11  1  0.838589  0.365661  0.500000  1
  In  In12  1  0.161326  0.634271  0.500000  1
  In  In13  1  0.365774  0.838662  0.500000  1
  In  In14  1  0.634278  0.160718  0.500000  1
  In  In15  1  0.078792  0.220122  0.500000  1
  In  In16  1  0.921953  0.780408  0.500000  1
  In  In17  1  0.219754  0.078064  0.500000  1
  In  In18  1  0.780210  0.921821  0.500000  1
  In  In19  1  0.500234  0.500322  0.500000  1
  Ir  Ir20  1  0.751771  0.546267  0.500000  1
  Ir  Ir21  1  0.453509  0.247269  0.500000  1
  Ir  Ir22  1  0.547961  0.753645  0.500000  1
  Ir  Ir23  1  0.246599  0.452436  0.500000  1
