# generated using pymatgen
data_K10SrCa(TaAs4)2
_symmetry_space_group_name_H-M   'P 1'
_cell_length_a   10.45963031
_cell_length_b   10.41105838
_cell_length_c   7.90277334
_cell_angle_alpha   87.83786562
_cell_angle_beta   88.61802362
_cell_angle_gamma   120.50401740
_symmetry_Int_Tables_number   1
_chemical_formula_structural   K10SrCa(TaAs4)2
_chemical_formula_sum   'K10 Sr1 Ca1 Ta2 As8'
_cell_volume   740.00523756
_cell_formula_units_Z   1
loop_
 _symmetry_equiv_pos_site_id
 _symmetry_equiv_pos_as_xyz
  1  'x, y, z'
loop_
 _atom_site_type_symbol
 _atom_site_label
 _atom_site_symmetry_multiplicity
 _atom_site_fract_x
 _atom_site_fract_y
 _atom_site_fract_z
 _atom_site_occupancy
  K  K0  1  0.467322  0.527298  0.605314  1
  K  K1  1  0.059821  0.530739  0.607590  1
  K  K2  1  0.524822  0.465313  0.107020  1
  K  K3  1  0.528373  0.057056  0.111681  1
  K  K4  1  0.863612  0.143840  0.790955  1
  K  K5  1  0.295478  0.154309  0.829057  1
  K  K6  1  0.854694  0.718296  0.762773  1
  K  K7  1  0.142748  0.861557  0.288183  1
  K  K8  1  0.712887  0.854083  0.266727  1
  K  K9  1  0.153375  0.291455  0.331975  1
  Sr  Sr10  1  0.935779  0.463096  0.102340  1
  Ca  Ca11  1  0.462411  0.935564  0.603639  1
  Ta  Ta12  1  0.668947  0.326806  0.503250  1
  Ta  Ta13  1  0.331583  0.672899  0.997096  1
  As  As14  1  0.687539  0.341780  0.817904  1
  As  As15  1  0.342367  0.691195  0.313496  1
  As  As16  1  0.197672  0.798778  0.883932  1
  As  As17  1  0.588479  0.805461  0.861793  1
  As  As18  1  0.188788  0.402003  0.929506  1
  As  As19  1  0.793292  0.190606  0.396785  1
  As  As20  1  0.400359  0.180204  0.432888  1
  As  As21  1  0.799649  0.587660  0.370496  1
