# generated using pymatgen
data_Sr2Dy3Sn4
_symmetry_space_group_name_H-M   'P 1'
_cell_length_a   8.09701300
_cell_length_b   8.56941900
_cell_length_c   16.21909700
_cell_angle_alpha   90.00000000
_cell_angle_beta   90.00000000
_cell_angle_gamma   90.00000000
_symmetry_Int_Tables_number   1
_chemical_formula_structural   Sr2Dy3Sn4
_chemical_formula_sum   'Sr8 Dy12 Sn16'
_cell_volume   1125.38956989
_cell_formula_units_Z   4
loop_
 _symmetry_equiv_pos_site_id
 _symmetry_equiv_pos_as_xyz
  1  'x, y, z'
loop_
 _atom_site_type_symbol
 _atom_site_label
 _atom_site_symmetry_multiplicity
 _atom_site_fract_x
 _atom_site_fract_y
 _atom_site_fract_z
 _atom_site_occupancy
  Sr  Sr0  1  0.496417  0.323198  0.907376  1
  Sr  Sr1  1  0.996417  0.176802  0.592624  1
  Sr  Sr2  1  0.503583  0.676802  0.407376  1
  Sr  Sr3  1  0.003583  0.823198  0.092624  1
  Sr  Sr4  1  0.503583  0.676802  0.092624  1
  Sr  Sr5  1  0.003583  0.823198  0.407376  1
  Sr  Sr6  1  0.496417  0.323198  0.592624  1
  Sr  Sr7  1  0.996417  0.176802  0.907376  1
  Dy  Dy8  1  0.325607  0.835966  0.875739  1
  Dy  Dy9  1  0.825607  0.664034  0.624261  1
  Dy  Dy10  1  0.674393  0.164034  0.375739  1
  Dy  Dy11  1  0.174393  0.335966  0.124261  1
  Dy  Dy12  1  0.674393  0.164034  0.124261  1
  Dy  Dy13  1  0.174393  0.335966  0.375739  1
  Dy  Dy14  1  0.325607  0.835966  0.624261  1
  Dy  Dy15  1  0.825607  0.664034  0.875739  1
  Dy  Dy16  1  0.160548  0.492933  0.750000  1
  Dy  Dy17  1  0.660548  0.007067  0.750000  1
  Dy  Dy18  1  0.839452  0.507067  0.250000  1
  Dy  Dy19  1  0.339452  0.992933  0.250000  1
  Sn  Sn20  1  0.337770  0.040484  0.043259  1
  Sn  Sn21  1  0.837770  0.459516  0.456741  1
  Sn  Sn22  1  0.662230  0.959516  0.543259  1
  Sn  Sn23  1  0.162230  0.540484  0.956741  1
  Sn  Sn24  1  0.662230  0.959516  0.956741  1
  Sn  Sn25  1  0.162230  0.540484  0.543259  1
  Sn  Sn26  1  0.337770  0.040484  0.456741  1
  Sn  Sn27  1  0.837770  0.459516  0.043259  1
  Sn  Sn28  1  0.525038  0.634937  0.750000  1
  Sn  Sn29  1  0.025038  0.865063  0.750000  1
  Sn  Sn30  1  0.474962  0.365063  0.250000  1
  Sn  Sn31  1  0.974962  0.134937  0.250000  1
  Sn  Sn32  1  0.287648  0.132718  0.750000  1
  Sn  Sn33  1  0.787648  0.367282  0.750000  1
  Sn  Sn34  1  0.712352  0.867282  0.250000  1
  Sn  Sn35  1  0.212352  0.632718  0.250000  1
