# generated using pymatgen
data_Zr4Ti4Ga15Rh7
_symmetry_space_group_name_H-M   'P 1'
_cell_length_a   8.80791714
_cell_length_b   8.81404241
_cell_length_c   8.79900158
_cell_angle_alpha   120.56090925
_cell_angle_beta   119.78008350
_cell_angle_gamma   89.74365023
_symmetry_Int_Tables_number   1
_chemical_formula_structural   Zr4Ti4Ga15Rh7
_chemical_formula_sum   'Zr4 Ti4 Ga15 Rh7'
_cell_volume   481.58552660
_cell_formula_units_Z   1
loop_
 _symmetry_equiv_pos_site_id
 _symmetry_equiv_pos_as_xyz
  1  'x, y, z'
loop_
 _atom_site_type_symbol
 _atom_site_label
 _atom_site_symmetry_multiplicity
 _atom_site_fract_x
 _atom_site_fract_y
 _atom_site_fract_z
 _atom_site_occupancy
  Zr  Zr0  1  0.796137  0.284204  0.066490  1
  Zr  Zr1  1  0.214420  0.290306  0.491707  1
  Zr  Zr2  1  0.202866  0.699631  0.500135  1
  Zr  Zr3  1  0.221110  0.727204  0.934071  1
  Ti  Ti4  1  0.795021  0.726141  0.507620  1
  Ti  Ti5  1  0.779008  0.276547  0.500302  1
  Ti  Ti6  1  0.377463  0.125295  0.748972  1
  Ti  Ti7  1  0.383871  0.632518  0.256601  1
  Ga  Ga8  1  0.976748  0.490526  0.500324  1
  Ga  Ga9  1  0.160316  0.343173  0.180924  1
  Ga  Ga10  1  0.151449  0.966927  0.807776  1
  Ga  Ga11  1  0.149294  0.349011  0.802616  1
  Ga  Ga12  1  0.555950  0.355323  0.206231  1
  Ga  Ga13  1  0.845158  0.647126  0.796497  1
  Ga  Ga14  1  0.842215  0.039169  0.195132  1
  Ga  Ga15  1  0.841377  0.654659  0.192742  1
  Ga  Ga16  1  0.471699  0.657420  0.816644  1
  Ga  Ga17  1  0.384824  0.128914  0.257160  1
  Ga  Ga18  1  0.867712  0.120409  0.737729  1
  Ga  Ga19  1  0.623874  0.873361  0.258933  1
  Ga  Ga20  1  0.621199  0.368874  0.747059  1
  Ga  Ga21  1  0.614539  0.872687  0.734894  1
  Ga  Ga22  1  0.135634  0.873364  0.261712  1
  Rh  Rh23  1  0.001307  0.001794  0.502496  1
  Rh  Rh24  1  0.497983  0.004475  0.999398  1
  Rh  Rh25  1  0.495356  0.495428  0.000881  1
  Rh  Rh26  1  0.500674  0.500043  0.497648  1
  Rh  Rh27  1  0.999508  0.498965  0.998134  1
  Rh  Rh28  1  0.996869  0.997906  0.998014  1
  Rh  Rh29  1  0.496414  0.998599  0.501158  1
