# generated using pymatgen
data_CsZrAgF6
_symmetry_space_group_name_H-M   'P 1'
_cell_length_a   6.65422200
_cell_length_b   8.62121000
_cell_length_c   12.14815800
_cell_angle_alpha   90.00000000
_cell_angle_beta   90.00000000
_cell_angle_gamma   90.00000000
_symmetry_Int_Tables_number   1
_chemical_formula_structural   CsZrAgF6
_chemical_formula_sum   'Cs4 Zr4 Ag4 F24'
_cell_volume   696.90878894
_cell_formula_units_Z   4
loop_
 _symmetry_equiv_pos_site_id
 _symmetry_equiv_pos_as_xyz
  1  'x, y, z'
loop_
 _atom_site_type_symbol
 _atom_site_label
 _atom_site_symmetry_multiplicity
 _atom_site_fract_x
 _atom_site_fract_y
 _atom_site_fract_z
 _atom_site_occupancy
  Cs  Cs0  1  0.035490  0.735380  0.486017  1
  Cs  Cs1  1  0.535490  0.235380  0.013983  1
  Cs  Cs2  1  0.464510  0.735380  0.986017  1
  Cs  Cs3  1  0.964510  0.235380  0.513983  1
  Zr  Zr4  1  0.462350  0.002577  0.655481  1
  Zr  Zr5  1  0.037650  0.002577  0.155481  1
  Zr  Zr6  1  0.537650  0.502577  0.344519  1
  Zr  Zr7  1  0.962350  0.502577  0.844519  1
  Ag  Ag8  1  0.440877  0.496044  0.656562  1
  Ag  Ag9  1  0.559123  0.996044  0.343438  1
  Ag  Ag10  1  0.940877  0.996044  0.843438  1
  Ag  Ag11  1  0.059123  0.496044  0.156562  1
  F  F12  1  0.628692  0.277258  0.341182  1
  F  F13  1  0.189676  0.074828  0.712674  1
  F  F14  1  0.773243  0.948892  0.079703  1
  F  F15  1  0.454084  0.730462  0.354118  1
  F  F16  1  0.371308  0.777258  0.658818  1
  F  F17  1  0.545916  0.230462  0.645882  1
  F  F18  1  0.079469  0.484459  0.688433  1
  F  F19  1  0.273243  0.448892  0.420297  1
  F  F20  1  0.668332  0.520199  0.497786  1
  F  F21  1  0.689676  0.574828  0.787326  1
  F  F22  1  0.420531  0.484459  0.188433  1
  F  F23  1  0.920531  0.984459  0.311567  1
  F  F24  1  0.226757  0.448892  0.920297  1
  F  F25  1  0.726757  0.948892  0.579703  1
  F  F26  1  0.168332  0.020199  0.002214  1
  F  F27  1  0.954084  0.230462  0.145882  1
  F  F28  1  0.831668  0.520199  0.997786  1
  F  F29  1  0.810324  0.574828  0.287326  1
  F  F30  1  0.045916  0.730462  0.854118  1
  F  F31  1  0.310324  0.074828  0.212674  1
  F  F32  1  0.331668  0.020199  0.502214  1
  F  F33  1  0.871308  0.277258  0.841182  1
  F  F34  1  0.579469  0.984459  0.811567  1
  F  F35  1  0.128692  0.777258  0.158818  1
