# generated using pymatgen
data_Sc8Nb9Si16Mo3
_symmetry_space_group_name_H-M   'P 1'
_cell_length_a   6.64059800
_cell_length_b   6.88487100
_cell_length_c   13.11042500
_cell_angle_alpha   90.00000000
_cell_angle_beta   90.00000000
_cell_angle_gamma   90.00058432
_symmetry_Int_Tables_number   1
_chemical_formula_structural   Sc8Nb9Si16Mo3
_chemical_formula_sum   'Sc8 Nb9 Si16 Mo3'
_cell_volume   599.40418121
_cell_formula_units_Z   1
loop_
 _symmetry_equiv_pos_site_id
 _symmetry_equiv_pos_as_xyz
  1  'x, y, z'
loop_
 _atom_site_type_symbol
 _atom_site_label
 _atom_site_symmetry_multiplicity
 _atom_site_fract_x
 _atom_site_fract_y
 _atom_site_fract_z
 _atom_site_occupancy
  Sc  Sc0  1  0.500199  0.325724  0.093490  1
  Sc  Sc1  1  0.000108  0.174448  0.406389  1
  Sc  Sc2  1  0.499627  0.674458  0.593975  1
  Sc  Sc3  1  0.998408  0.826085  0.906293  1
  Sc  Sc4  1  0.499627  0.674458  0.906025  1
  Sc  Sc5  1  0.998408  0.826085  0.593707  1
  Sc  Sc6  1  0.500199  0.325724  0.406510  1
  Sc  Sc7  1  0.000108  0.174448  0.093611  1
  Nb  Nb8  1  0.834086  0.330042  0.625037  1
  Nb  Nb9  1  0.333707  0.170443  0.875317  1
  Nb  Nb10  1  0.166350  0.668966  0.125943  1
  Nb  Nb11  1  0.666937  0.830667  0.373581  1
  Nb  Nb12  1  0.166350  0.668966  0.374057  1
  Nb  Nb13  1  0.666937  0.830667  0.126419  1
  Nb  Nb14  1  0.834086  0.330042  0.874963  1
  Nb  Nb15  1  0.333707  0.170443  0.624683  1
  Nb  Nb16  1  0.659416  0.005187  0.750000  1
  Si  Si17  1  0.669003  0.033924  0.539822  1
  Si  Si18  1  0.168850  0.466000  0.958517  1
  Si  Si19  1  0.331292  0.965628  0.042067  1
  Si  Si20  1  0.831097  0.534400  0.458232  1
  Si  Si21  1  0.331292  0.965628  0.457933  1
  Si  Si22  1  0.831097  0.534400  0.041768  1
  Si  Si23  1  0.669003  0.033924  0.960178  1
  Si  Si24  1  0.168850  0.466000  0.541483  1
  Si  Si25  1  0.531491  0.390094  0.750000  1
  Si  Si26  1  0.036795  0.112987  0.750000  1
  Si  Si27  1  0.467668  0.610523  0.250000  1
  Si  Si28  1  0.968360  0.889767  0.250000  1
  Si  Si29  1  0.796598  0.638822  0.750000  1
  Si  Si30  1  0.290982  0.855611  0.750000  1
  Si  Si31  1  0.204210  0.356467  0.250000  1
  Si  Si32  1  0.704285  0.143700  0.250000  1
  Mo  Mo33  1  0.159271  0.495151  0.750000  1
  Mo  Mo34  1  0.340867  0.995895  0.250000  1
  Mo  Mo35  1  0.840732  0.504225  0.250000  1
