# generated using pymatgen
data_As3Pd5Ru
_symmetry_space_group_name_H-M   'P 1'
_cell_length_a   6.69682924
_cell_length_b   6.67289697
_cell_length_c   3.64536000
_cell_angle_alpha   90.00000000
_cell_angle_beta   90.00000000
_cell_angle_gamma   119.88185992
_symmetry_Int_Tables_number   1
_chemical_formula_structural   As3Pd5Ru
_chemical_formula_sum   'As3 Pd5 Ru1'
_cell_volume   141.24415324
_cell_formula_units_Z   1
loop_
 _symmetry_equiv_pos_site_id
 _symmetry_equiv_pos_as_xyz
  1  'x, y, z'
loop_
 _atom_site_type_symbol
 _atom_site_label
 _atom_site_symmetry_multiplicity
 _atom_site_fract_x
 _atom_site_fract_y
 _atom_site_fract_z
 _atom_site_occupancy
  As  As0  1  0.322581  0.669748  0.000000  1
  As  As1  1  0.677419  0.347167  0.000000  1
  As  As2  1  0.000000  0.983422  0.500000  1
  Pd  Pd3  1  0.268527  0.268613  0.000000  1
  Pd  Pd4  1  0.731473  0.000087  0.000000  1
  Pd  Pd5  1  0.000000  0.381930  0.500000  1
  Pd  Pd6  1  0.599365  0.607001  0.500000  1
  Pd  Pd7  1  0.400635  0.007636  0.500000  1
  Ru  Ru8  1  0.000000  0.734396  0.000000  1
