# generated using pymatgen
data_Sm8Te(OsO8)3
_symmetry_space_group_name_H-M   'P 1'
_cell_length_a   5.38488289
_cell_length_b   9.28758019
_cell_length_c   10.13169167
_cell_angle_alpha   89.72481612
_cell_angle_beta   89.80069044
_cell_angle_gamma   90.18026164
_symmetry_Int_Tables_number   1
_chemical_formula_structural   Sm8Te(OsO8)3
_chemical_formula_sum   'Sm8 Te1 Os3 O24'
_cell_volume   506.70010602
_cell_formula_units_Z   1
loop_
 _symmetry_equiv_pos_site_id
 _symmetry_equiv_pos_as_xyz
  1  'x, y, z'
loop_
 _atom_site_type_symbol
 _atom_site_label
 _atom_site_symmetry_multiplicity
 _atom_site_fract_x
 _atom_site_fract_y
 _atom_site_fract_z
 _atom_site_occupancy
  Sm  Sm0  1  0.021476  0.396862  0.035195  1
  Sm  Sm1  1  0.038494  0.280937  0.633060  1
  Sm  Sm2  1  0.465381  0.715491  0.131979  1
  Sm  Sm3  1  0.476543  0.603976  0.540992  1
  Sm  Sm4  1  0.523749  0.101015  0.962117  1
  Sm  Sm5  1  0.535075  0.216443  0.365813  1
  Sm  Sm6  1  0.965060  0.783885  0.869469  1
  Sm  Sm7  1  0.974213  0.899653  0.463006  1
  Te  Te8  1  0.958887  0.506004  0.353779  1
  Os  Os9  1  0.042163  0.002035  0.146433  1
  Os  Os10  1  0.457057  0.996950  0.646295  1
  Os  Os11  1  0.542498  0.496895  0.854605  1
  O  O12  1  0.076284  0.653371  0.475422  1
  O  O13  1  0.167652  0.554443  0.205759  1
  O  O14  1  0.183120  0.862827  0.260573  1
  O  O15  1  0.187869  0.862590  0.679286  1
  O  O16  1  0.227148  0.389216  0.432998  1
  O  O17  1  0.254590  0.908945  0.005420  1
  O  O18  1  0.246122  0.090027  0.505791  1
  O  O19  1  0.274026  0.610588  0.931381  1
  O  O20  1  0.312333  0.133861  0.177659  1
  O  O21  1  0.314033  0.136737  0.760881  1
  O  O22  1  0.332043  0.444329  0.710264  1
  O  O23  1  0.426217  0.346142  0.975160  1
  O  O24  1  0.573814  0.847985  0.525993  1
  O  O25  1  0.670200  0.945670  0.789585  1
  O  O26  1  0.685472  0.639008  0.741752  1
  O  O27  1  0.685402  0.639810  0.322464  1
  O  O28  1  0.723586  0.113681  0.566828  1
  O  O29  1  0.752305  0.590650  0.994906  1
  O  O30  1  0.751674  0.413509  0.493555  1
  O  O31  1  0.775157  0.889510  0.067190  1
  O  O32  1  0.810305  0.364010  0.819592  1
  O  O33  1  0.818773  0.360725  0.240085  1
  O  O34  1  0.825322  0.050230  0.290318  1
  O  O35  1  0.925956  0.151990  0.024396  1
