# generated using pymatgen
data_DyHo7Si12(IrRh)2
_symmetry_space_group_name_H-M   'P 1'
_cell_length_a   8.15795400
_cell_length_b   8.15795415
_cell_length_c   7.88116500
_cell_angle_alpha   90.00000000
_cell_angle_beta   90.00000000
_cell_angle_gamma   120.00000751
_symmetry_Int_Tables_number   1
_chemical_formula_structural   DyHo7Si12(IrRh)2
_chemical_formula_sum   'Dy1 Ho7 Si12 Ir2 Rh2'
_cell_volume   454.23807108
_cell_formula_units_Z   1
loop_
 _symmetry_equiv_pos_site_id
 _symmetry_equiv_pos_as_xyz
  1  'x, y, z'
loop_
 _atom_site_type_symbol
 _atom_site_label
 _atom_site_symmetry_multiplicity
 _atom_site_fract_x
 _atom_site_fract_y
 _atom_site_fract_z
 _atom_site_occupancy
  Dy  Dy0  1  0.000000  0.000000  0.248668  1
  Ho  Ho1  1  0.000000  0.000000  0.751376  1
  Ho  Ho2  1  0.509378  0.490622  0.250303  1
  Ho  Ho3  1  0.509378  0.018757  0.250303  1
  Ho  Ho4  1  0.981243  0.490622  0.250303  1
  Ho  Ho5  1  0.490624  0.509376  0.749698  1
  Ho  Ho6  1  0.490624  0.981248  0.749698  1
  Ho  Ho7  1  0.018752  0.509376  0.749698  1
  Si  Si8  1  0.166734  0.833266  0.499157  1
  Si  Si9  1  0.166734  0.333466  0.499157  1
  Si  Si10  1  0.666534  0.833266  0.499157  1
  Si  Si11  1  0.833262  0.166738  0.501020  1
  Si  Si12  1  0.833262  0.666526  0.501020  1
  Si  Si13  1  0.333474  0.166738  0.501020  1
  Si  Si14  1  0.833006  0.166994  0.999952  1
  Si  Si15  1  0.833006  0.666012  0.999952  1
  Si  Si16  1  0.333988  0.166994  0.999952  1
  Si  Si17  1  0.166985  0.833015  0.999851  1
  Si  Si18  1  0.166985  0.333968  0.999851  1
  Si  Si19  1  0.666032  0.833015  0.999851  1
  Ir  Ir20  1  0.333333  0.666667  0.468417  1
  Ir  Ir21  1  0.666667  0.333333  0.531673  1
  Rh  Rh22  1  0.666667  0.333333  0.963244  1
  Rh  Rh23  1  0.333333  0.666667  0.036678  1
