# generated using pymatgen
data_GdBe2B5O11
_symmetry_space_group_name_H-M   'P 1'
_cell_length_a   4.36660200
_cell_length_b   6.72502900
_cell_length_c   25.83481100
_cell_angle_alpha   90.00000000
_cell_angle_beta   90.00000000
_cell_angle_gamma   90.00000000
_symmetry_Int_Tables_number   1
_chemical_formula_structural   GdBe2B5O11
_chemical_formula_sum   'Gd4 Be8 B20 O44'
_cell_volume   758.65279040
_cell_formula_units_Z   4
loop_
 _symmetry_equiv_pos_site_id
 _symmetry_equiv_pos_as_xyz
  1  'x, y, z'
loop_
 _atom_site_type_symbol
 _atom_site_label
 _atom_site_symmetry_multiplicity
 _atom_site_fract_x
 _atom_site_fract_y
 _atom_site_fract_z
 _atom_site_occupancy
  Gd  Gd0  1  0.862179  0.369508  0.919055  1
  Gd  Gd1  1  0.137821  0.869508  0.080945  1
  Gd  Gd2  1  0.362179  0.869508  0.580945  1
  Gd  Gd3  1  0.637821  0.369508  0.419055  1
  Be  Be4  1  0.168864  0.452090  0.790324  1
  Be  Be5  1  0.831136  0.952090  0.209676  1
  Be  Be6  1  0.668864  0.952090  0.709676  1
  Be  Be7  1  0.331136  0.452090  0.290324  1
  Be  Be8  1  0.665538  0.228160  0.792731  1
  Be  Be9  1  0.334462  0.728160  0.207269  1
  Be  Be10  1  0.165538  0.728160  0.707269  1
  Be  Be11  1  0.834462  0.228160  0.292731  1
  B  B12  1  0.375612  0.039293  0.869268  1
  B  B13  1  0.624388  0.539293  0.130732  1
  B  B14  1  0.875612  0.539293  0.630732  1
  B  B15  1  0.124388  0.039293  0.369268  1
  B  B16  1  0.148645  0.710247  0.870097  1
  B  B17  1  0.851355  0.210247  0.129903  1
  B  B18  1  0.648645  0.210247  0.629903  1
  B  B19  1  0.351355  0.710247  0.370097  1
  B  B20  1  0.028670  0.938153  0.942880  1
  B  B21  1  0.971330  0.438153  0.057120  1
  B  B22  1  0.528670  0.438153  0.557120  1
  B  B23  1  0.471330  0.938153  0.442880  1
  B  B24  1  0.539603  0.958269  0.997261  1
  B  B25  1  0.460397  0.458269  0.002739  1
  B  B26  1  0.039603  0.458269  0.502739  1
  B  B27  1  0.960397  0.958269  0.497261  1
  B  B28  1  0.179953  0.087265  0.751805  1
  B  B29  1  0.820047  0.587265  0.248195  1
  B  B30  1  0.679953  0.587265  0.748195  1
  B  B31  1  0.320047  0.087265  0.251805  1
  O  O32  1  0.354882  0.846157  0.849427  1
  O  O33  1  0.645118  0.346157  0.150573  1
  O  O34  1  0.854882  0.346157  0.650573  1
  O  O35  1  0.145118  0.846157  0.349427  1
  O  O36  1  0.631817  0.928207  0.046649  1
  O  O37  1  0.368183  0.428207  0.953351  1
  O  O38  1  0.131817  0.428207  0.453351  1
  O  O39  1  0.868183  0.928207  0.546649  1
  O  O40  1  0.995624  0.745652  0.916521  1
  O  O41  1  0.004376  0.245652  0.083479  1
  O  O42  1  0.495624  0.245652  0.583479  1
  O  O43  1  0.504376  0.745652  0.416521  1
  O  O44  1  0.224101  0.926015  0.989801  1
  O  O45  1  0.775899  0.426015  0.010199  1
  O  O46  1  0.724101  0.426015  0.510199  1
  O  O47  1  0.275899  0.926015  0.489801  1
  O  O48  1  0.159940  0.086642  0.907283  1
  O  O49  1  0.840060  0.586642  0.092717  1
  O  O50  1  0.659940  0.586642  0.592717  1
  O  O51  1  0.340060  0.086642  0.407283  1
  O  O52  1  0.088833  0.529660  0.848573  1
  O  O53  1  0.911167  0.029660  0.151427  1
  O  O54  1  0.588833  0.029660  0.651427  1
  O  O55  1  0.411167  0.529660  0.348573  1
  O  O56  1  0.578689  0.178604  0.853119  1
  O  O57  1  0.421311  0.678604  0.146881  1
  O  O58  1  0.078689  0.678604  0.646881  1
  O  O59  1  0.921311  0.178604  0.353119  1
  O  O60  1  0.725338  0.017305  0.956559  1
  O  O61  1  0.274662  0.517305  0.043441  1
  O  O62  1  0.225338  0.517305  0.543441  1
  O  O63  1  0.774662  0.017305  0.456559  1
  O  O64  1  0.030358  0.223344  0.783054  1
  O  O65  1  0.969642  0.723344  0.216946  1
  O  O66  1  0.530358  0.723344  0.716946  1
  O  O67  1  0.469642  0.223344  0.283054  1
  O  O68  1  0.494398  0.085995  0.752100  1
  O  O69  1  0.505602  0.585995  0.247900  1
  O  O70  1  0.994398  0.585995  0.747900  1
  O  O71  1  0.005602  0.085995  0.252100  1
  O  O72  1  0.029673  0.953042  0.720950  1
  O  O73  1  0.970327  0.453042  0.279050  1
  O  O74  1  0.529673  0.453042  0.779050  1
  O  O75  1  0.470327  0.953042  0.220950  1
