# generated using pymatgen
data_BH5F8
_symmetry_space_group_name_H-M   'P 1'
_cell_length_a   4.17341718
_cell_length_b   6.44754007
_cell_length_c   7.22698825
_cell_angle_alpha   78.10050333
_cell_angle_beta   86.04388270
_cell_angle_gamma   67.06402011
_symmetry_Int_Tables_number   1
_chemical_formula_structural   BH5F8
_chemical_formula_sum   'B1 H5 F8'
_cell_volume   175.22902298
_cell_formula_units_Z   1
loop_
 _symmetry_equiv_pos_site_id
 _symmetry_equiv_pos_as_xyz
  1  'x, y, z'
loop_
 _atom_site_type_symbol
 _atom_site_label
 _atom_site_symmetry_multiplicity
 _atom_site_fract_x
 _atom_site_fract_y
 _atom_site_fract_z
 _atom_site_occupancy
  B  B0  1  0.738668  0.921796  0.103404  1
  H  H1  1  0.986065  0.075201  0.555423  1
  H  H2  1  0.472216  0.759367  0.568294  1
  H  H3  1  0.793403  0.434916  0.523069  1
  H  H4  1  0.691986  0.441366  0.023120  1
  H  H5  1  0.202895  0.436373  0.992582  1
  F  F6  1  0.256941  0.861122  0.622789  1
  F  F7  1  0.422976  0.429795  0.925186  1
  F  F8  1  0.792285  0.591936  0.516483  1
  F  F9  1  0.617354  0.929137  0.936485  1
  F  F10  1  0.076545  0.813894  0.143320  1
  F  F11  1  0.774941  0.220032  0.527659  1
  F  F12  1  0.895754  0.436510  0.092345  1
  F  F13  1  0.526352  0.027022  0.230258  1
