# generated using pymatgen
data_Lu3In4CoCu
_symmetry_space_group_name_H-M   'P 1'
_cell_length_a   7.85586200
_cell_length_b   7.85586135
_cell_length_c   3.59611400
_cell_angle_alpha   90.00000000
_cell_angle_beta   90.00000000
_cell_angle_gamma   120.00000725
_symmetry_Int_Tables_number   1
_chemical_formula_structural   Lu3In4CoCu
_chemical_formula_sum   'Lu3 In4 Co1 Cu1'
_cell_volume   192.19925787
_cell_formula_units_Z   1
loop_
 _symmetry_equiv_pos_site_id
 _symmetry_equiv_pos_as_xyz
  1  'x, y, z'
loop_
 _atom_site_type_symbol
 _atom_site_label
 _atom_site_symmetry_multiplicity
 _atom_site_fract_x
 _atom_site_fract_y
 _atom_site_fract_z
 _atom_site_occupancy
  Lu  Lu0  1  0.044937  0.285759  0.500000  1
  Lu  Lu1  1  0.714241  0.759178  0.500000  1
  Lu  Lu2  1  0.240822  0.955063  0.500000  1
  In  In3  1  0.666598  0.072652  0.000000  1
  In  In4  1  0.927348  0.593948  0.000000  1
  In  In5  1  0.406052  0.333402  0.000000  1
  In  In6  1  0.333333  0.666667  0.000000  1
  Co  Co7  1  0.000000  0.000000  0.000000  1
  Cu  Cu8  1  0.666667  0.333333  0.500000  1
