# generated using pymatgen
data_KSr2Hg2Sb3
_symmetry_space_group_name_H-M   'P 1'
_cell_length_a   4.89264000
_cell_length_b   12.95540300
_cell_length_c   16.68931100
_cell_angle_alpha   90.00000000
_cell_angle_beta   90.00000000
_cell_angle_gamma   90.00000000
_symmetry_Int_Tables_number   1
_chemical_formula_structural   KSr2Hg2Sb3
_chemical_formula_sum   'K4 Sr8 Hg8 Sb12'
_cell_volume   1057.87071873
_cell_formula_units_Z   4
loop_
 _symmetry_equiv_pos_site_id
 _symmetry_equiv_pos_as_xyz
  1  'x, y, z'
loop_
 _atom_site_type_symbol
 _atom_site_label
 _atom_site_symmetry_multiplicity
 _atom_site_fract_x
 _atom_site_fract_y
 _atom_site_fract_z
 _atom_site_occupancy
  K  K0  1  0.250000  0.399010  0.550722  1
  K  K1  1  0.750000  0.100990  0.050722  1
  K  K2  1  0.250000  0.899010  0.949278  1
  K  K3  1  0.750000  0.600990  0.449278  1
  Sr  Sr4  1  0.250000  0.359432  0.279087  1
  Sr  Sr5  1  0.750000  0.140568  0.779087  1
  Sr  Sr6  1  0.250000  0.859432  0.220913  1
  Sr  Sr7  1  0.750000  0.640568  0.720913  1
  Sr  Sr8  1  0.250000  0.100771  0.425323  1
  Sr  Sr9  1  0.750000  0.399229  0.925323  1
  Sr  Sr10  1  0.250000  0.600771  0.074677  1
  Sr  Sr11  1  0.750000  0.899229  0.574677  1
  Hg  Hg12  1  0.250000  0.305228  0.075633  1
  Hg  Hg13  1  0.750000  0.194772  0.575633  1
  Hg  Hg14  1  0.250000  0.805228  0.424367  1
  Hg  Hg15  1  0.750000  0.694772  0.924367  1
  Hg  Hg16  1  0.250000  0.361554  0.784171  1
  Hg  Hg17  1  0.750000  0.138446  0.284171  1
  Hg  Hg18  1  0.250000  0.861554  0.715829  1
  Hg  Hg19  1  0.750000  0.638446  0.215829  1
  Sb  Sb20  1  0.250000  0.118110  0.195323  1
  Sb  Sb21  1  0.750000  0.381890  0.695323  1
  Sb  Sb22  1  0.250000  0.618110  0.304677  1
  Sb  Sb23  1  0.750000  0.881890  0.804677  1
  Sb  Sb24  1  0.250000  0.705583  0.582986  1
  Sb  Sb25  1  0.750000  0.794417  0.082986  1
  Sb  Sb26  1  0.250000  0.205583  0.917014  1
  Sb  Sb27  1  0.750000  0.294417  0.417014  1
  Sb  Sb28  1  0.250000  0.080559  0.630990  1
  Sb  Sb29  1  0.750000  0.419441  0.130990  1
  Sb  Sb30  1  0.250000  0.580559  0.869010  1
  Sb  Sb31  1  0.750000  0.919441  0.369010  1
