# generated using pymatgen
data_Y6Er10Cd4Ni3Os
_symmetry_space_group_name_H-M   'P 1'
_cell_length_a   9.59322674
_cell_length_b   9.59322638
_cell_length_c   9.59322649
_cell_angle_alpha   59.48899135
_cell_angle_beta   59.48898600
_cell_angle_gamma   59.48899288
_symmetry_Int_Tables_number   1
_chemical_formula_structural   Y6Er10Cd4Ni3Os
_chemical_formula_sum   'Y6 Er10 Cd4 Ni3 Os1'
_cell_volume   617.02384467
_cell_formula_units_Z   1
loop_
 _symmetry_equiv_pos_site_id
 _symmetry_equiv_pos_as_xyz
  1  'x, y, z'
loop_
 _atom_site_type_symbol
 _atom_site_label
 _atom_site_symmetry_multiplicity
 _atom_site_fract_x
 _atom_site_fract_y
 _atom_site_fract_z
 _atom_site_occupancy
  Y  Y0  1  0.186863  0.814473  0.814473  1
  Y  Y1  1  0.806887  0.189712  0.189712  1
  Y  Y2  1  0.814473  0.186863  0.814473  1
  Y  Y3  1  0.189712  0.806887  0.189712  1
  Y  Y4  1  0.814473  0.814473  0.186863  1
  Y  Y5  1  0.189712  0.189712  0.806887  1
  Er  Er6  1  0.597266  0.597266  0.597266  1
  Er  Er7  1  0.600366  0.600366  0.205489  1
  Er  Er8  1  0.600366  0.205489  0.600366  1
  Er  Er9  1  0.205489  0.600366  0.600366  1
  Er  Er10  1  0.060764  0.437633  0.437633  1
  Er  Er11  1  0.435664  0.062018  0.062018  1
  Er  Er12  1  0.437633  0.060764  0.437633  1
  Er  Er13  1  0.062018  0.435664  0.062018  1
  Er  Er14  1  0.437633  0.437633  0.060764  1
  Er  Er15  1  0.062018  0.062018  0.435664  1
  Cd  Cd16  1  0.830034  0.830034  0.830034  1
  Cd  Cd17  1  0.830053  0.830053  0.506647  1
  Cd  Cd18  1  0.830053  0.506647  0.830053  1
  Cd  Cd19  1  0.506647  0.830053  0.830053  1
  Ni  Ni20  1  0.391882  0.391882  0.824872  1
  Ni  Ni21  1  0.391882  0.824872  0.391882  1
  Ni  Ni22  1  0.824872  0.391882  0.391882  1
  Os  Os23  1  0.393239  0.393239  0.393239  1
