# generated using pymatgen
data_Zr12Zn4Ir5Rh3N4
_symmetry_space_group_name_H-M   'P 1'
_cell_length_a   8.56620736
_cell_length_b   8.56620748
_cell_length_c   8.56399214
_cell_angle_alpha   59.99144374
_cell_angle_beta   59.99144079
_cell_angle_gamma   59.99999884
_symmetry_Int_Tables_number   1
_chemical_formula_structural   Zr12Zn4Ir5Rh3N4
_chemical_formula_sum   'Zr12 Zn4 Ir5 Rh3 N4'
_cell_volume   444.30606610
_cell_formula_units_Z   1
loop_
 _symmetry_equiv_pos_site_id
 _symmetry_equiv_pos_as_xyz
  1  'x, y, z'
loop_
 _atom_site_type_symbol
 _atom_site_label
 _atom_site_symmetry_multiplicity
 _atom_site_fract_x
 _atom_site_fract_y
 _atom_site_fract_z
 _atom_site_occupancy
  Zr  Zr0  1  0.807293  0.191309  0.194104  1
  Zr  Zr1  1  0.191309  0.807293  0.194104  1
  Zr  Zr2  1  0.807293  0.807293  0.194104  1
  Zr  Zr3  1  0.192480  0.807458  0.807582  1
  Zr  Zr4  1  0.807458  0.192480  0.807582  1
  Zr  Zr5  1  0.192480  0.192480  0.807582  1
  Zr  Zr6  1  0.441555  0.058382  0.058507  1
  Zr  Zr7  1  0.058382  0.441555  0.058507  1
  Zr  Zr8  1  0.441555  0.441555  0.058507  1
  Zr  Zr9  1  0.058176  0.442260  0.441389  1
  Zr  Zr10  1  0.442260  0.058176  0.441389  1
  Zr  Zr11  1  0.058176  0.058176  0.441389  1
  Zn  Zn12  1  0.625818  0.625818  0.122546  1
  Zn  Zn13  1  0.625237  0.625237  0.625938  1
  Zn  Zn14  1  0.123588  0.625237  0.625938  1
  Zn  Zn15  1  0.625237  0.123588  0.625938  1
  Ir  Ir16  1  0.414994  0.414994  0.755015  1
  Ir  Ir17  1  0.415019  0.415019  0.414857  1
  Ir  Ir18  1  0.755102  0.415019  0.414857  1
  Ir  Ir19  1  0.415019  0.755102  0.414857  1
  Ir  Ir20  1  0.835402  0.835402  0.493796  1
  Rh  Rh21  1  0.835603  0.835603  0.834518  1
  Rh  Rh22  1  0.494278  0.835603  0.834518  1
  Rh  Rh23  1  0.835603  0.494278  0.834518  1
  N  N24  1  0.124837  0.124837  0.625488  1
  N  N25  1  0.125081  0.125081  0.124157  1
  N  N26  1  0.625681  0.125081  0.124157  1
  N  N27  1  0.125081  0.625681  0.124157  1
