# generated using pymatgen
data_TbYb2(YRh)2
_symmetry_space_group_name_H-M   'P 1'
_cell_length_a   6.55212184
_cell_length_b   7.28603228
_cell_length_c   8.53683200
_cell_angle_alpha   97.00245632
_cell_angle_beta   112.56652279
_cell_angle_gamma   89.99999507
_symmetry_Int_Tables_number   1
_chemical_formula_structural   TbYb2(YRh)2
_chemical_formula_sum   'Tb2 Yb4 Y4 Rh4'
_cell_volume   373.04209417
_cell_formula_units_Z   2
loop_
 _symmetry_equiv_pos_site_id
 _symmetry_equiv_pos_as_xyz
  1  'x, y, z'
loop_
 _atom_site_type_symbol
 _atom_site_label
 _atom_site_symmetry_multiplicity
 _atom_site_fract_x
 _atom_site_fract_y
 _atom_site_fract_z
 _atom_site_occupancy
  Tb  Tb0  1  0.428306  0.750000  0.000000  1
  Tb  Tb1  1  0.571694  0.250000  0.000000  1
  Yb  Yb2  1  0.978775  0.918306  0.185778  1
  Yb  Yb3  1  0.792997  0.581694  0.814222  1
  Yb  Yb4  1  0.021225  0.081694  0.814222  1
  Yb  Yb5  1  0.207003  0.418306  0.185778  1
  Y  Y6  1  0.650548  0.815984  0.438852  1
  Y  Y7  1  0.211695  0.684016  0.561148  1
  Y  Y8  1  0.349452  0.184016  0.561148  1
  Y  Y9  1  0.788305  0.315984  0.438852  1
  Rh  Rh10  1  0.817791  0.571982  0.223891  1
  Rh  Rh11  1  0.593901  0.928018  0.776109  1
  Rh  Rh12  1  0.182209  0.428018  0.776109  1
  Rh  Rh13  1  0.406099  0.071982  0.223891  1
