# generated using pymatgen
data_Er(S8Br)3
_symmetry_space_group_name_H-M   'P 1'
_cell_length_a   15.38938422
_cell_length_b   15.38938387
_cell_length_c   15.38938482
_cell_angle_alpha   119.24567565
_cell_angle_beta   119.24567810
_cell_angle_gamma   119.24567341
_symmetry_Int_Tables_number   1
_chemical_formula_structural   Er(S8Br)3
_chemical_formula_sum   'Er1 S24 Br3'
_cell_volume   820.81300009
_cell_formula_units_Z   1
loop_
 _symmetry_equiv_pos_site_id
 _symmetry_equiv_pos_as_xyz
  1  'x, y, z'
loop_
 _atom_site_type_symbol
 _atom_site_label
 _atom_site_symmetry_multiplicity
 _atom_site_fract_x
 _atom_site_fract_y
 _atom_site_fract_z
 _atom_site_occupancy
  Er  Er0  1  0.450762  0.450762  0.450762  1
  S  S1  1  0.995443  0.588075  0.588075  1
  S  S2  1  0.588075  0.588075  0.995443  1
  S  S3  1  0.588075  0.995443  0.588075  1
  S  S4  1  0.258581  0.865491  0.738772  1
  S  S5  1  0.865491  0.738772  0.258581  1
  S  S6  1  0.738772  0.258581  0.865491  1
  S  S7  1  0.865491  0.258581  0.738772  1
  S  S8  1  0.258581  0.738772  0.865491  1
  S  S9  1  0.738772  0.865491  0.258581  1
  S  S10  1  0.079110  0.603861  0.424646  1
  S  S11  1  0.603861  0.424646  0.079110  1
  S  S12  1  0.424646  0.079110  0.603861  1
  S  S13  1  0.603861  0.079110  0.424646  1
  S  S14  1  0.079110  0.424646  0.603861  1
  S  S15  1  0.424646  0.603861  0.079110  1
  S  S16  1  0.379958  0.766598  0.638409  1
  S  S17  1  0.766598  0.638409  0.379958  1
  S  S18  1  0.638409  0.379958  0.766598  1
  S  S19  1  0.766598  0.379958  0.638409  1
  S  S20  1  0.379958  0.638409  0.766598  1
  S  S21  1  0.638409  0.766598  0.379958  1
  S  S22  1  0.169784  0.448133  0.448133  1
  S  S23  1  0.448133  0.448133  0.169784  1
  S  S24  1  0.448133  0.169784  0.448133  1
  Br  Br25  1  0.038960  0.904442  0.904442  1
  Br  Br26  1  0.904442  0.904442  0.038960  1
  Br  Br27  1  0.904442  0.038960  0.904442  1
