# generated using pymatgen
data_Nd3HoIn2Ir3
_symmetry_space_group_name_H-M   'P 1'
_cell_length_a   7.69315640
_cell_length_b   7.58977239
_cell_length_c   4.19378400
_cell_angle_alpha   90.00000000
_cell_angle_beta   90.00000000
_cell_angle_gamma   119.55644141
_symmetry_Int_Tables_number   1
_chemical_formula_structural   Nd3HoIn2Ir3
_chemical_formula_sum   'Nd3 Ho1 In2 Ir3'
_cell_volume   213.00697339
_cell_formula_units_Z   1
loop_
 _symmetry_equiv_pos_site_id
 _symmetry_equiv_pos_as_xyz
  1  'x, y, z'
loop_
 _atom_site_type_symbol
 _atom_site_label
 _atom_site_symmetry_multiplicity
 _atom_site_fract_x
 _atom_site_fract_y
 _atom_site_fract_z
 _atom_site_occupancy
  Nd  Nd0  1  0.433089  0.412905  0.000000  1
  Nd  Nd1  1  0.566911  0.979816  0.000000  1
  Nd  Nd2  1  0.000000  0.613387  0.000000  1
  Ho  Ho3  1  0.000000  0.243362  0.500000  1
  In  In4  1  0.744122  0.750844  0.500000  1
  In  In5  1  0.255878  0.006721  0.500000  1
  Ir  Ir6  1  0.000000  0.998504  0.000000  1
  Ir  Ir7  1  0.327683  0.661072  0.500000  1
  Ir  Ir8  1  0.672317  0.333389  0.500000  1
