# generated using pymatgen
data_Hf2Pd3
_symmetry_space_group_name_H-M   'P 1'
_cell_length_a   7.80922509
_cell_length_b   7.80922566
_cell_length_c   4.85593600
_cell_angle_alpha   90.00000000
_cell_angle_beta   90.00000000
_cell_angle_gamma   143.38505443
_symmetry_Int_Tables_number   1
_chemical_formula_structural   Hf2Pd3
_chemical_formula_sum   'Hf4 Pd6'
_cell_volume   176.62470783
_cell_formula_units_Z   2
loop_
 _symmetry_equiv_pos_site_id
 _symmetry_equiv_pos_as_xyz
  1  'x, y, z'
loop_
 _atom_site_type_symbol
 _atom_site_label
 _atom_site_symmetry_multiplicity
 _atom_site_fract_x
 _atom_site_fract_y
 _atom_site_fract_z
 _atom_site_occupancy
  Hf  Hf0  1  0.126898  0.345356  0.250000  1
  Hf  Hf1  1  0.873102  0.654644  0.750000  1
  Hf  Hf2  1  0.345356  0.126898  0.250000  1
  Hf  Hf3  1  0.654644  0.873102  0.750000  1
  Pd  Pd4  1  0.471018  0.078517  0.750000  1
  Pd  Pd5  1  0.528982  0.921483  0.250000  1
  Pd  Pd6  1  0.921483  0.528982  0.250000  1
  Pd  Pd7  1  0.078517  0.471018  0.750000  1
  Pd  Pd8  1  0.708033  0.708033  0.250000  1
  Pd  Pd9  1  0.291967  0.291967  0.750000  1
