# generated using pymatgen
data_Zr10CdPb7
_symmetry_space_group_name_H-M   'P 1'
_cell_length_a   6.03871200
_cell_length_b   8.97569222
_cell_length_c   8.97598001
_cell_angle_alpha   119.99809119
_cell_angle_beta   90.00021062
_cell_angle_gamma   89.99907190
_symmetry_Int_Tables_number   1
_chemical_formula_structural   Zr10CdPb7
_chemical_formula_sum   'Zr10 Cd1 Pb7'
_cell_volume   421.34042705
_cell_formula_units_Z   1
loop_
 _symmetry_equiv_pos_site_id
 _symmetry_equiv_pos_as_xyz
  1  'x, y, z'
loop_
 _atom_site_type_symbol
 _atom_site_label
 _atom_site_symmetry_multiplicity
 _atom_site_fract_x
 _atom_site_fract_y
 _atom_site_fract_z
 _atom_site_occupancy
  Zr  Zr0  1  0.500000  0.333335  0.666666  1
  Zr  Zr1  1  0.500001  0.666665  0.333330  1
  Zr  Zr2  1  0.999999  0.666666  0.333334  1
  Zr  Zr3  1  0.000002  0.333335  0.666666  1
  Zr  Zr4  1  0.751648  0.281839  0.000005  1
  Zr  Zr5  1  0.751657  0.718166  0.718161  1
  Zr  Zr6  1  0.751658  0.000005  0.281839  1
  Zr  Zr7  1  0.248348  0.718170  0.000004  1
  Zr  Zr8  1  0.248343  0.281830  0.281838  1
  Zr  Zr9  1  0.248345  0.999993  0.718160  1
  Cd  Cd10  1  0.500000  0.999998  0.999996  1
  Pb  Pb11  1  0.748636  0.618105  0.999998  1
  Pb  Pb12  1  0.748633  0.381896  0.381893  1
  Pb  Pb13  1  0.748634  0.000004  0.618112  1
  Pb  Pb14  1  0.251362  0.381890  0.999998  1
  Pb  Pb15  1  0.251367  0.618107  0.618110  1
  Pb  Pb16  1  0.251367  0.999998  0.381896  1
  Pb  Pb17  1  0.000000  0.999999  0.999996  1
