# generated using pymatgen
data_Sc8Ga4TcAu3
_symmetry_space_group_name_H-M   'P 1'
_cell_length_a   6.70765001
_cell_length_b   6.77959700
_cell_length_c   6.70670401
_cell_angle_alpha   90.00000000
_cell_angle_beta   89.99248264
_cell_angle_gamma   90.00000000
_symmetry_Int_Tables_number   1
_chemical_formula_structural   Sc8Ga4TcAu3
_chemical_formula_sum   'Sc8 Ga4 Tc1 Au3'
_cell_volume   304.98846176
_cell_formula_units_Z   1
loop_
 _symmetry_equiv_pos_site_id
 _symmetry_equiv_pos_as_xyz
  1  'x, y, z'
loop_
 _atom_site_type_symbol
 _atom_site_label
 _atom_site_symmetry_multiplicity
 _atom_site_fract_x
 _atom_site_fract_y
 _atom_site_fract_z
 _atom_site_occupancy
  Sc  Sc0  1  0.754447  0.496524  0.254658  1
  Sc  Sc1  1  0.754447  0.003476  0.254658  1
  Sc  Sc2  1  0.245528  0.006420  0.254199  1
  Sc  Sc3  1  0.245528  0.493580  0.254199  1
  Sc  Sc4  1  0.754412  0.496476  0.745378  1
  Sc  Sc5  1  0.754412  0.003524  0.745378  1
  Sc  Sc6  1  0.245469  0.006369  0.745735  1
  Sc  Sc7  1  0.245469  0.493631  0.745735  1
  Ga  Ga8  1  0.997240  0.250000  0.999995  1
  Ga  Ga9  1  0.002491  0.750000  0.999994  1
  Ga  Ga10  1  0.502300  0.250000  0.499999  1
  Ga  Ga11  1  0.497781  0.750000  0.500022  1
  Tc  Tc12  1  0.997691  0.250000  0.500062  1
  Au  Au13  1  0.502752  0.250000  0.999999  1
  Au  Au14  1  0.497011  0.750000  0.999998  1
  Au  Au15  1  0.003025  0.750000  0.499991  1
