# generated using pymatgen
data_DyY(Si2Ni9)2
_symmetry_space_group_name_H-M   'P 1'
_cell_length_a   7.55013608
_cell_length_b   7.55180821
_cell_length_c   7.55330000
_cell_angle_alpha   99.59708685
_cell_angle_beta   99.57627462
_cell_angle_gamma   131.80025083
_symmetry_Int_Tables_number   1
_chemical_formula_structural   DyY(Si2Ni9)2
_chemical_formula_sum   'Dy1 Y1 Si4 Ni18'
_cell_volume   293.13457140
_cell_formula_units_Z   1
loop_
 _symmetry_equiv_pos_site_id
 _symmetry_equiv_pos_as_xyz
  1  'x, y, z'
loop_
 _atom_site_type_symbol
 _atom_site_label
 _atom_site_symmetry_multiplicity
 _atom_site_fract_x
 _atom_site_fract_y
 _atom_site_fract_z
 _atom_site_occupancy
  Dy  Dy0  1  0.500016  0.500138  0.000105  1
  Y  Y1  1  0.749984  0.249862  0.499895  1
  Si  Si2  1  0.625000  0.875000  0.750000  1
  Si  Si3  1  0.125000  0.375000  0.250000  1
  Si  Si4  1  0.125000  0.875000  0.750000  1
  Si  Si5  1  0.125000  0.875000  0.250000  1
  Ni  Ni6  1  0.250039  0.750033  0.500002  1
  Ni  Ni7  1  0.999961  0.999967  0.999998  1
  Ni  Ni8  1  0.686210  0.012580  0.078778  1
  Ni  Ni9  1  0.686171  0.607462  0.673501  1
  Ni  Ni10  1  0.262394  0.436117  0.578757  1
  Ni  Ni11  1  0.262638  0.683836  0.826435  1
  Ni  Ni12  1  0.933789  0.012604  0.326474  1
  Ni  Ni13  1  0.933782  0.607401  0.921277  1
  Ni  Ni14  1  0.857388  0.436193  0.173576  1
  Ni  Ni15  1  0.857438  0.683757  0.421179  1
  Ni  Ni16  1  0.563790  0.737420  0.421222  1
  Ni  Ni17  1  0.563829  0.142538  0.826499  1
  Ni  Ni18  1  0.987606  0.313883  0.921243  1
  Ni  Ni19  1  0.987362  0.066164  0.673565  1
  Ni  Ni20  1  0.316211  0.737396  0.173526  1
  Ni  Ni21  1  0.316218  0.142599  0.578723  1
  Ni  Ni22  1  0.392612  0.313807  0.326424  1
  Ni  Ni23  1  0.392562  0.066243  0.078821  1
