# generated using pymatgen
data_Ba20Si10SnBi
_symmetry_space_group_name_H-M   'P 1'
_cell_length_a   8.52956200
_cell_length_b   8.52956200
_cell_length_c   17.09750600
_cell_angle_alpha   90.00000000
_cell_angle_beta   90.00000000
_cell_angle_gamma   90.00000000
_symmetry_Int_Tables_number   1
_chemical_formula_structural   Ba20Si10SnBi
_chemical_formula_sum   'Ba20 Si10 Sn1 Bi1'
_cell_volume   1243.90217024
_cell_formula_units_Z   1
loop_
 _symmetry_equiv_pos_site_id
 _symmetry_equiv_pos_as_xyz
  1  'x, y, z'
loop_
 _atom_site_type_symbol
 _atom_site_label
 _atom_site_symmetry_multiplicity
 _atom_site_fract_x
 _atom_site_fract_y
 _atom_site_fract_z
 _atom_site_occupancy
  Ba  Ba0  1  0.309917  0.668227  0.113885  1
  Ba  Ba1  1  0.168227  0.190083  0.113885  1
  Ba  Ba2  1  0.500000  0.000000  0.719297  1
  Ba  Ba3  1  0.329716  0.689384  0.395485  1
  Ba  Ba4  1  0.670860  0.687150  0.885947  1
  Ba  Ba5  1  0.189384  0.170284  0.395485  1
  Ba  Ba6  1  0.670284  0.310616  0.395485  1
  Ba  Ba7  1  0.170137  0.810453  0.604678  1
  Ba  Ba8  1  0.329140  0.312850  0.885947  1
  Ba  Ba9  1  0.187150  0.829140  0.885947  1
  Ba  Ba10  1  0.500000  0.000000  0.240962  1
  Ba  Ba11  1  0.829863  0.189547  0.604678  1
  Ba  Ba12  1  0.310453  0.329863  0.604678  1
  Ba  Ba13  1  0.810616  0.829716  0.395485  1
  Ba  Ba14  1  0.812850  0.170860  0.885947  1
  Ba  Ba15  1  0.831773  0.809917  0.113885  1
  Ba  Ba16  1  0.000000  0.500000  0.280193  1
  Ba  Ba17  1  0.000000  0.500000  0.760458  1
  Ba  Ba18  1  0.690083  0.331773  0.113885  1
  Ba  Ba19  1  0.689547  0.670137  0.604678  1
  Si  Si20  1  0.100797  0.101739  0.746636  1
  Si  Si21  1  0.398261  0.600797  0.746636  1
  Si  Si22  1  0.600777  0.601764  0.253196  1
  Si  Si23  1  0.101764  0.899223  0.253196  1
  Si  Si24  1  0.601739  0.399203  0.746636  1
  Si  Si25  1  0.899203  0.898261  0.746636  1
  Si  Si26  1  0.399223  0.398236  0.253196  1
  Si  Si27  1  0.898236  0.100777  0.253196  1
  Si  Si28  1  0.500000  0.000000  0.510930  1
  Si  Si29  1  0.000000  0.500000  0.488618  1
  Sn  Sn30  1  0.000000  0.500000  0.987047  1
  Bi  Bi31  1  0.500000  0.000000  0.013187  1
