# generated using pymatgen
data_SmEr7(Si4W3)4
_symmetry_space_group_name_H-M   'P 1'
_cell_length_a   6.76291316
_cell_length_b   6.92850216
_cell_length_c   12.88736638
_cell_angle_alpha   89.94445662
_cell_angle_beta   90.00747655
_cell_angle_gamma   89.95809034
_symmetry_Int_Tables_number   1
_chemical_formula_structural   SmEr7(Si4W3)4
_chemical_formula_sum   'Sm1 Er7 Si16 W12'
_cell_volume   603.86105099
_cell_formula_units_Z   1
loop_
 _symmetry_equiv_pos_site_id
 _symmetry_equiv_pos_as_xyz
  1  'x, y, z'
loop_
 _atom_site_type_symbol
 _atom_site_label
 _atom_site_symmetry_multiplicity
 _atom_site_fract_x
 _atom_site_fract_y
 _atom_site_fract_z
 _atom_site_occupancy
  Sm  Sm0  1  0.996297  0.832845  0.592523  1
  Er  Er1  1  0.495145  0.667814  0.593311  1
  Er  Er2  1  0.995341  0.831987  0.906622  1
  Er  Er3  1  0.505009  0.331803  0.093431  1
  Er  Er4  1  0.005196  0.168162  0.406105  1
  Er  Er5  1  0.505022  0.332424  0.406330  1
  Er  Er6  1  0.004733  0.168184  0.093346  1
  Er  Er7  1  0.495103  0.668007  0.907239  1
  Si  Si8  1  0.661195  0.958583  0.452174  1
  Si  Si9  1  0.162461  0.541662  0.046878  1
  Si  Si10  1  0.337491  0.041606  0.953654  1
  Si  Si11  1  0.836644  0.455547  0.546365  1
  Si  Si12  1  0.340604  0.043546  0.546251  1
  Si  Si13  1  0.837632  0.458634  0.953442  1
  Si  Si14  1  0.662366  0.958327  0.046947  1
  Si  Si15  1  0.162670  0.540394  0.452157  1
  Si  Si16  1  0.463934  0.371766  0.750559  1
  Si  Si17  1  0.963555  0.130507  0.750929  1
  Si  Si18  1  0.535588  0.628448  0.249486  1
  Si  Si19  1  0.035693  0.871225  0.249984  1
  Si  Si20  1  0.695273  0.865763  0.751062  1
  Si  Si21  1  0.198556  0.632867  0.751140  1
  Si  Si22  1  0.303085  0.134587  0.249778  1
  Si  Si23  1  0.802744  0.365057  0.249625  1
  W  W24  1  0.666561  0.164565  0.626140  1
  W  W25  1  0.168176  0.336540  0.874980  1
  W  W26  1  0.331428  0.836642  0.125249  1
  W  W27  1  0.830960  0.662228  0.373799  1
  W  W28  1  0.332493  0.836332  0.373954  1
  W  W29  1  0.832003  0.663276  0.125337  1
  W  W30  1  0.668055  0.163579  0.875204  1
  W  W31  1  0.168501  0.336690  0.625363  1
  W  W32  1  0.833279  0.499691  0.750488  1
  W  W33  1  0.334253  0.000697  0.750576  1
  W  W34  1  0.166375  0.499485  0.249755  1
  W  W35  1  0.666582  0.000532  0.249816  1
