# generated using pymatgen
data_LaZnIn3Ir
_symmetry_space_group_name_H-M   'P 1'
_cell_length_a   4.36854600
_cell_length_b   7.57959400
_cell_length_c   8.22951200
_cell_angle_alpha   90.00000000
_cell_angle_beta   90.00000000
_cell_angle_gamma   90.00000000
_symmetry_Int_Tables_number   1
_chemical_formula_structural   LaZnIn3Ir
_chemical_formula_sum   'La2 Zn2 In6 Ir2'
_cell_volume   272.49399700
_cell_formula_units_Z   2
loop_
 _symmetry_equiv_pos_site_id
 _symmetry_equiv_pos_as_xyz
  1  'x, y, z'
loop_
 _atom_site_type_symbol
 _atom_site_label
 _atom_site_symmetry_multiplicity
 _atom_site_fract_x
 _atom_site_fract_y
 _atom_site_fract_z
 _atom_site_occupancy
  La  La0  1  0.000000  0.608689  0.750000  1
  La  La1  1  0.000000  0.391311  0.250000  1
  Zn  Zn2  1  0.000000  0.000000  0.500000  1
  Zn  Zn3  1  0.000000  0.000000  0.000000  1
  In  In4  1  0.500000  0.693686  0.441159  1
  In  In5  1  0.500000  0.055798  0.250000  1
  In  In6  1  0.500000  0.306314  0.941159  1
  In  In7  1  0.500000  0.306314  0.558841  1
  In  In8  1  0.500000  0.944202  0.750000  1
  In  In9  1  0.500000  0.693686  0.058841  1
  Ir  Ir10  1  0.000000  0.806727  0.250000  1
  Ir  Ir11  1  0.000000  0.193273  0.750000  1
