# generated using pymatgen
data_Li3La2Er(WO6)2
_symmetry_space_group_name_H-M   'P 1'
_cell_length_a   10.94724104
_cell_length_b   10.88416542
_cell_length_c   10.92108846
_cell_angle_alpha   109.42659247
_cell_angle_beta   109.66002861
_cell_angle_gamma   109.30747941
_symmetry_Int_Tables_number   1
_chemical_formula_structural   Li3La2Er(WO6)2
_chemical_formula_sum   'Li12 La8 Er4 W8 O48'
_cell_volume   1001.94863096
_cell_formula_units_Z   4
loop_
 _symmetry_equiv_pos_site_id
 _symmetry_equiv_pos_as_xyz
  1  'x, y, z'
loop_
 _atom_site_type_symbol
 _atom_site_label
 _atom_site_symmetry_multiplicity
 _atom_site_fract_x
 _atom_site_fract_y
 _atom_site_fract_z
 _atom_site_occupancy
  Li  Li0  1  0.748554  0.374639  0.125294  1
  Li  Li1  1  0.876743  0.750660  0.125300  1
  Li  Li2  1  0.126110  0.375099  0.249688  1
  Li  Li3  1  0.623574  0.874593  0.249681  1
  Li  Li4  1  0.622578  0.249253  0.371700  1
  Li  Li5  1  0.249115  0.122448  0.371700  1
  Li  Li6  1  0.375157  0.750619  0.624042  1
  Li  Li7  1  0.748889  0.873419  0.624049  1
  Li  Li8  1  0.375083  0.124615  0.751321  1
  Li  Li9  1  0.876236  0.626710  0.751324  1
  Li  Li10  1  0.127823  0.250625  0.877953  1
  Li  Li11  1  0.250129  0.627323  0.877949  1
  La  La12  1  0.127119  0.749675  0.372666  1
  La  La13  1  0.745548  0.622984  0.372661  1
  La  La14  1  0.874544  0.248364  0.621750  1
  La  La15  1  0.247214  0.373389  0.621755  1
  La  La16  1  0.624583  0.374580  0.749164  1
  La  La17  1  0.127290  0.877290  0.754578  1
  La  La18  1  0.625885  0.752246  0.878691  1
  La  La19  1  0.752811  0.126451  0.878694  1
  Er  Er20  1  0.253594  0.876326  0.127297  1
  Er  Er21  1  0.373706  0.250979  0.127293  1
  Er  Er22  1  0.875880  0.125877  0.251762  1
  Er  Er23  1  0.373609  0.623603  0.247206  1
  W  W24  1  0.006080  0.002664  0.008666  1
  W  W25  1  0.502573  0.005992  0.008653  1
  W  W26  1  0.495180  0.496988  0.001348  1
  W  W27  1  0.006173  0.504363  0.001350  1
  W  W28  1  0.498698  0.995386  0.494088  1
  W  W29  1  0.997121  0.496765  0.495968  1
  W  W30  1  0.998846  0.999209  0.495973  1
  W  W31  1  0.495384  0.498695  0.494082  1
  O  O32  1  0.327501  0.406465  0.030946  1
  O  O33  1  0.203453  0.624489  0.030951  1
  O  O34  1  0.887571  0.912835  0.087465  1
  O  O35  1  0.699888  0.174628  0.087458  1
  O  O36  1  0.624164  0.929738  0.100606  1
  O  O37  1  0.976448  0.170876  0.100617  1
  O  O38  1  0.028822  0.701171  0.114044  1
  O  O39  1  0.585216  0.412875  0.114038  1
  O  O40  1  0.204423  0.079270  0.173732  1
  O  O41  1  0.469308  0.094459  0.173724  1
  O  O42  1  0.125480  0.527023  0.196287  1
  O  O43  1  0.570808  0.669265  0.196287  1
  O  O44  1  0.326828  0.420353  0.295712  1
  O  O45  1  0.468885  0.875361  0.295714  1
  O  O46  1  0.917889  0.803499  0.325700  1
  O  O47  1  0.907807  0.522198  0.325698  1
  O  O48  1  0.570602  0.401867  0.374686  1
  O  O49  1  0.304087  0.972819  0.374687  1
  O  O50  1  0.829312  0.026134  0.401118  1
  O  O51  1  0.071807  0.374987  0.401122  1
  O  O52  1  0.086952  0.113825  0.412543  1
  O  O53  1  0.825591  0.298715  0.412539  1
  O  O54  1  0.585052  0.672240  0.471160  1
  O  O55  1  0.386104  0.798915  0.471162  1
  O  O56  1  0.612537  0.191753  0.518531  1
  O  O57  1  0.405991  0.326774  0.518527  1
  O  O58  1  0.171808  0.690989  0.579080  1
  O  O59  1  0.907275  0.888094  0.579080  1
  O  O60  1  0.172496  0.978962  0.590180  1
  O  O61  1  0.917679  0.611217  0.590177  1
  O  O62  1  0.417915  0.591425  0.611433  1
  O  O63  1  0.693513  0.020005  0.611432  1
  O  O64  1  0.080408  0.193802  0.671152  1
  O  O65  1  0.090744  0.477353  0.671155  1
  O  O66  1  0.670771  0.579059  0.688321  1
  O  O67  1  0.517549  0.109259  0.688321  1
  O  O68  1  0.888039  0.479344  0.806117  1
  O  O69  1  0.418076  0.326769  0.806113  1
  O  O70  1  0.517869  0.909016  0.831070  1
  O  O71  1  0.813201  0.922057  0.831079  1
  O  O72  1  0.981226  0.307680  0.887516  1
  O  O73  1  0.406292  0.579834  0.887519  1
  O  O74  1  0.388059  0.087550  0.915760  1
  O  O75  1  0.027704  0.828209  0.915766  1
  O  O76  1  0.123673  0.099469  0.931972  1
  O  O77  1  0.308294  0.832498  0.931965  1
  O  O78  1  0.812401  0.390974  0.983049  1
  O  O79  1  0.670644  0.592071  0.983047  1
