# generated using pymatgen
data_DyErU2(ReB6)2
_symmetry_space_group_name_H-M   'P 1'
_cell_length_a   3.63258000
_cell_length_b   9.29226453
_cell_length_c   11.41101165
_cell_angle_alpha   89.96143802
_cell_angle_beta   90.00000000
_cell_angle_gamma   90.00000000
_symmetry_Int_Tables_number   1
_chemical_formula_structural   DyErU2(ReB6)2
_chemical_formula_sum   'Dy2 Er2 U4 Re4 B24'
_cell_volume   385.17740442
_cell_formula_units_Z   2
loop_
 _symmetry_equiv_pos_site_id
 _symmetry_equiv_pos_as_xyz
  1  'x, y, z'
loop_
 _atom_site_type_symbol
 _atom_site_label
 _atom_site_symmetry_multiplicity
 _atom_site_fract_x
 _atom_site_fract_y
 _atom_site_fract_z
 _atom_site_occupancy
  Dy  Dy0  1  0.000000  0.836560  0.092381  1
  Dy  Dy1  1  0.000000  0.163440  0.907619  1
  Er  Er2  1  0.000000  0.336666  0.407728  1
  Er  Er3  1  0.000000  0.663334  0.592272  1
  U  U4  1  0.000000  0.956246  0.396123  1
  U  U5  1  0.000000  0.043754  0.603877  1
  U  U6  1  0.000000  0.456263  0.103918  1
  U  U7  1  0.000000  0.543737  0.896082  1
  Re  Re8  1  0.000000  0.644920  0.318894  1
  Re  Re9  1  0.000000  0.355080  0.681106  1
  Re  Re10  1  0.000000  0.145732  0.181837  1
  Re  Re11  1  0.000000  0.854268  0.818163  1
  B  B12  1  0.500000  0.551195  0.431352  1
  B  B13  1  0.500000  0.448805  0.568648  1
  B  B14  1  0.500000  0.051733  0.069073  1
  B  B15  1  0.500000  0.948267  0.930927  1
  B  B16  1  0.500000  0.742610  0.423374  1
  B  B17  1  0.500000  0.257390  0.576626  1
  B  B18  1  0.500000  0.242964  0.077015  1
  B  B19  1  0.500000  0.757036  0.922985  1
  B  B20  1  0.500000  0.801739  0.275228  1
  B  B21  1  0.500000  0.198261  0.724772  1
  B  B22  1  0.500000  0.301993  0.225152  1
  B  B23  1  0.500000  0.698007  0.774848  1
  B  B24  1  0.500000  0.643813  0.188662  1
  B  B25  1  0.500000  0.356187  0.811338  1
  B  B26  1  0.500000  0.144210  0.311646  1
  B  B27  1  0.500000  0.855790  0.688354  1
  B  B28  1  0.500000  0.988838  0.219606  1
  B  B29  1  0.500000  0.011162  0.780394  1
  B  B30  1  0.500000  0.488350  0.280752  1
  B  B31  1  0.500000  0.511650  0.719248  1
  B  B32  1  0.500000  0.639840  0.038784  1
  B  B33  1  0.500000  0.360160  0.961216  1
  B  B34  1  0.500000  0.140633  0.461039  1
  B  B35  1  0.500000  0.859367  0.538961  1
