# generated using pymatgen
data_Tl5Hg13
_symmetry_space_group_name_H-M   'P 1'
_cell_length_a   16.70755654
_cell_length_b   16.70755588
_cell_length_c   7.48569800
_cell_angle_alpha   95.06599326
_cell_angle_beta   95.06599306
_cell_angle_gamma   14.34502674
_symmetry_Int_Tables_number   1
_chemical_formula_structural   Tl5Hg13
_chemical_formula_sum   'Tl5 Hg13'
_cell_volume   515.65982162
_cell_formula_units_Z   1
loop_
 _symmetry_equiv_pos_site_id
 _symmetry_equiv_pos_as_xyz
  1  'x, y, z'
loop_
 _atom_site_type_symbol
 _atom_site_label
 _atom_site_symmetry_multiplicity
 _atom_site_fract_x
 _atom_site_fract_y
 _atom_site_fract_z
 _atom_site_occupancy
  Tl  Tl0  1  0.000000  0.000000  0.000000  1
  Tl  Tl1  1  0.669098  0.669098  0.334785  1
  Tl  Tl2  1  0.892427  0.892427  0.417769  1
  Tl  Tl3  1  0.107573  0.107573  0.582232  1
  Tl  Tl4  1  0.330902  0.330902  0.665215  1
  Hg  Hg5  1  0.111020  0.111020  0.067948  1
  Hg  Hg6  1  0.224451  0.224451  0.102591  1
  Hg  Hg7  1  0.332202  0.332202  0.150800  1
  Hg  Hg8  1  0.442432  0.442432  0.196526  1
  Hg  Hg9  1  0.554683  0.554683  0.294987  1
  Hg  Hg10  1  0.776537  0.776537  0.380380  1
  Hg  Hg11  1  0.000000  0.000000  0.500000  1
  Hg  Hg12  1  0.223463  0.223463  0.619621  1
  Hg  Hg13  1  0.445317  0.445317  0.705013  1
  Hg  Hg14  1  0.557568  0.557568  0.803473  1
  Hg  Hg15  1  0.667797  0.667797  0.849200  1
  Hg  Hg16  1  0.775548  0.775548  0.897408  1
  Hg  Hg17  1  0.888981  0.888981  0.932053  1
