# generated using pymatgen
data_LiLu16In3Rh4
_symmetry_space_group_name_H-M   'P 1'
_cell_length_a   9.48278933
_cell_length_b   9.48279030
_cell_length_c   9.48279068
_cell_angle_alpha   59.59287557
_cell_angle_beta   59.59287150
_cell_angle_gamma   59.59287270
_symmetry_Int_Tables_number   1
_chemical_formula_structural   LiLu16In3Rh4
_chemical_formula_sum   'Li1 Lu16 In3 Rh4'
_cell_volume   597.38701483
_cell_formula_units_Z   1
loop_
 _symmetry_equiv_pos_site_id
 _symmetry_equiv_pos_as_xyz
  1  'x, y, z'
loop_
 _atom_site_type_symbol
 _atom_site_label
 _atom_site_symmetry_multiplicity
 _atom_site_fract_x
 _atom_site_fract_y
 _atom_site_fract_z
 _atom_site_occupancy
  Li  Li0  1  0.822687  0.822687  0.822687  1
  Lu  Lu1  1  0.599247  0.599247  0.599247  1
  Lu  Lu2  1  0.600214  0.600214  0.201911  1
  Lu  Lu3  1  0.600214  0.201911  0.600214  1
  Lu  Lu4  1  0.201911  0.600214  0.600214  1
  Lu  Lu5  1  0.058777  0.440991  0.440991  1
  Lu  Lu6  1  0.437761  0.062562  0.062562  1
  Lu  Lu7  1  0.440991  0.058777  0.440991  1
  Lu  Lu8  1  0.062562  0.437761  0.062562  1
  Lu  Lu9  1  0.440991  0.440991  0.058777  1
  Lu  Lu10  1  0.062562  0.062562  0.437761  1
  Lu  Lu11  1  0.185472  0.813242  0.813242  1
  Lu  Lu12  1  0.812741  0.187813  0.187813  1
  Lu  Lu13  1  0.813242  0.185472  0.813242  1
  Lu  Lu14  1  0.187813  0.812741  0.187813  1
  Lu  Lu15  1  0.813242  0.813242  0.185472  1
  Lu  Lu16  1  0.187813  0.187813  0.812741  1
  In  In17  1  0.833648  0.833648  0.502827  1
  In  In18  1  0.833648  0.502827  0.833648  1
  In  In19  1  0.502827  0.833648  0.833648  1
  Rh  Rh20  1  0.393283  0.393283  0.393283  1
  Rh  Rh21  1  0.392293  0.392293  0.823772  1
  Rh  Rh22  1  0.392293  0.823772  0.392293  1
  Rh  Rh23  1  0.823772  0.392293  0.392293  1
