# generated using pymatgen
data_Zr3Sc7(Bi3S)2
_symmetry_space_group_name_H-M   'P 1'
_cell_length_a   8.76575400
_cell_length_b   8.76575381
_cell_length_c   6.25664500
_cell_angle_alpha   90.00000000
_cell_angle_beta   90.00000000
_cell_angle_gamma   119.99999319
_symmetry_Int_Tables_number   1
_chemical_formula_structural   Zr3Sc7(Bi3S)2
_chemical_formula_sum   'Zr3 Sc7 Bi6 S2'
_cell_volume   416.34247819
_cell_formula_units_Z   1
loop_
 _symmetry_equiv_pos_site_id
 _symmetry_equiv_pos_as_xyz
  1  'x, y, z'
loop_
 _atom_site_type_symbol
 _atom_site_label
 _atom_site_symmetry_multiplicity
 _atom_site_fract_x
 _atom_site_fract_y
 _atom_site_fract_z
 _atom_site_occupancy
  Zr  Zr0  1  0.333333  0.666667  0.500000  1
  Zr  Zr1  1  0.333333  0.666667  0.000000  1
  Zr  Zr2  1  0.666667  0.333333  0.000000  1
  Sc  Sc3  1  0.751368  0.754015  0.247981  1
  Sc  Sc4  1  0.245985  0.997353  0.247981  1
  Sc  Sc5  1  0.002647  0.248632  0.247981  1
  Sc  Sc6  1  0.245985  0.248632  0.752019  1
  Sc  Sc7  1  0.751368  0.997353  0.752019  1
  Sc  Sc8  1  0.002647  0.754015  0.752019  1
  Sc  Sc9  1  0.666667  0.333333  0.500000  1
  Bi  Bi10  1  0.397590  0.395604  0.250873  1
  Bi  Bi11  1  0.604396  0.001985  0.250873  1
  Bi  Bi12  1  0.998015  0.602410  0.250873  1
  Bi  Bi13  1  0.604396  0.602410  0.749127  1
  Bi  Bi14  1  0.397590  0.001985  0.749127  1
  Bi  Bi15  1  0.998015  0.395604  0.749127  1
  S  S16  1  0.000000  0.000000  0.500000  1
  S  S17  1  0.000000  0.000000  0.000000  1
