# generated using pymatgen
data_Ta2Ti4NbAs4
_symmetry_space_group_name_H-M   'P 1'
_cell_length_a   3.49116500
_cell_length_b   7.84490556
_cell_length_c   14.23571316
_cell_angle_alpha   104.17187688
_cell_angle_beta   90.00000000
_cell_angle_gamma   102.85659814
_symmetry_Int_Tables_number   1
_chemical_formula_structural   Ta2Ti4NbAs4
_chemical_formula_sum   'Ta4 Ti8 Nb2 As8'
_cell_volume   367.93027412
_cell_formula_units_Z   2
loop_
 _symmetry_equiv_pos_site_id
 _symmetry_equiv_pos_as_xyz
  1  'x, y, z'
loop_
 _atom_site_type_symbol
 _atom_site_label
 _atom_site_symmetry_multiplicity
 _atom_site_fract_x
 _atom_site_fract_y
 _atom_site_fract_z
 _atom_site_occupancy
  Ta  Ta0  1  0.427397  0.854795  0.831176  1
  Ta  Ta1  1  0.572603  0.145205  0.168824  1
  Ta  Ta2  1  0.195408  0.390816  0.306606  1
  Ta  Ta3  1  0.804592  0.609184  0.693394  1
  Ti  Ti4  1  0.209323  0.418646  0.794695  1
  Ti  Ti5  1  0.790677  0.581354  0.205305  1
  Ti  Ti6  1  0.338732  0.677462  0.032745  1
  Ti  Ti7  1  0.661268  0.322538  0.967255  1
  Ti  Ti8  1  0.001228  0.002455  0.661168  1
  Ti  Ti9  1  0.998772  0.997545  0.338832  1
  Ti  Ti10  1  0.181025  0.362047  0.546731  1
  Ti  Ti11  1  0.818975  0.637953  0.453269  1
  Nb  Nb12  1  0.000000  0.000000  0.000000  1
  Nb  Nb13  1  0.500000  0.000000  0.500000  1
  As  As14  1  0.182293  0.364585  0.104864  1
  As  As15  1  0.817707  0.635415  0.895136  1
  As  As16  1  0.371314  0.742631  0.596451  1
  As  As17  1  0.628686  0.257369  0.403549  1
  As  As18  1  0.371439  0.742877  0.336737  1
  As  As19  1  0.628561  0.257123  0.663263  1
  As  As20  1  0.064075  0.128151  0.845239  1
  As  As21  1  0.935925  0.871849  0.154761  1
