# generated using pymatgen
data_SnBi6(AsO8)2
_symmetry_space_group_name_H-M   'P 1'
_cell_length_a   8.62863471
_cell_length_b   8.62863462
_cell_length_c   11.79858575
_cell_angle_alpha   48.69161488
_cell_angle_beta   48.69161457
_cell_angle_gamma   38.10808045
_symmetry_Int_Tables_number   1
_chemical_formula_structural   SnBi6(AsO8)2
_chemical_formula_sum   'Sn1 Bi6 As2 O16'
_cell_volume   388.01919433
_cell_formula_units_Z   1
loop_
 _symmetry_equiv_pos_site_id
 _symmetry_equiv_pos_as_xyz
  1  'x, y, z'
loop_
 _atom_site_type_symbol
 _atom_site_label
 _atom_site_symmetry_multiplicity
 _atom_site_fract_x
 _atom_site_fract_y
 _atom_site_fract_z
 _atom_site_occupancy
  Sn  Sn0  1  0.795329  0.204671  0.500000  1
  Bi  Bi1  1  0.347232  0.977618  0.518893  1
  Bi  Bi2  1  0.022382  0.652768  0.481107  1
  Bi  Bi3  1  0.738608  0.289327  0.824172  1
  Bi  Bi4  1  0.710673  0.261392  0.175828  1
  Bi  Bi5  1  0.068952  0.616849  0.158115  1
  Bi  Bi6  1  0.383151  0.931048  0.841885  1
  As  As7  1  0.152252  0.547678  0.779681  1
  As  As8  1  0.452322  0.847748  0.220319  1
  O  O9  1  0.249066  0.644497  0.796141  1
  O  O10  1  0.355503  0.750934  0.203859  1
  O  O11  1  0.659068  0.686183  0.673562  1
  O  O12  1  0.313817  0.340932  0.326438  1
  O  O13  1  0.472927  0.527073  0.000000  1
  O  O14  1  0.668543  0.580707  0.335280  1
  O  O15  1  0.419293  0.331457  0.664720  1
  O  O16  1  0.031368  0.385572  0.946616  1
  O  O17  1  0.614428  0.968632  0.053384  1
  O  O18  1  0.749069  0.097900  0.423366  1
  O  O19  1  0.902100  0.250931  0.576634  1
  O  O20  1  0.931835  0.809658  0.668189  1
  O  O21  1  0.190342  0.068165  0.331811  1
  O  O22  1  0.161334  0.173990  0.680190  1
  O  O23  1  0.826010  0.838666  0.319810  1
  O  O24  1  0.986596  0.013404  0.000000  1
