# generated using pymatgen
data_Y9Th3(RuRh)2
_symmetry_space_group_name_H-M   'P 1'
_cell_length_a   6.39901985
_cell_length_b   7.20594734
_cell_length_c   9.67072700
_cell_angle_alpha   90.00000000
_cell_angle_beta   90.00000000
_cell_angle_gamma   89.27141802
_symmetry_Int_Tables_number   1
_chemical_formula_structural   Y9Th3(RuRh)2
_chemical_formula_sum   'Y9 Th3 Ru2 Rh2'
_cell_volume   445.89084051
_cell_formula_units_Z   1
loop_
 _symmetry_equiv_pos_site_id
 _symmetry_equiv_pos_as_xyz
  1  'x, y, z'
loop_
 _atom_site_type_symbol
 _atom_site_label
 _atom_site_symmetry_multiplicity
 _atom_site_fract_x
 _atom_site_fract_y
 _atom_site_fract_z
 _atom_site_occupancy
  Y  Y0  1  0.857901  0.535196  0.250000  1
  Y  Y1  1  0.168855  0.174930  0.064003  1
  Y  Y2  1  0.829513  0.823519  0.933575  1
  Y  Y3  1  0.669773  0.324816  0.933225  1
  Y  Y4  1  0.829513  0.823519  0.566425  1
  Y  Y5  1  0.331102  0.676440  0.067045  1
  Y  Y6  1  0.168855  0.174930  0.435997  1
  Y  Y7  1  0.331102  0.676440  0.432955  1
  Y  Y8  1  0.669773  0.324816  0.566775  1
  Th  Th9  1  0.656220  0.046950  0.250000  1
  Th  Th10  1  0.345280  0.952309  0.750000  1
  Th  Th11  1  0.151518  0.453383  0.750000  1
  Ru  Ru12  1  0.525774  0.629841  0.750000  1
  Ru  Ru13  1  0.972481  0.131038  0.750000  1
  Rh  Rh14  1  0.451465  0.369000  0.250000  1
  Rh  Rh15  1  0.040878  0.882872  0.250000  1
