# generated using pymatgen
data_TmThCdNi2
_symmetry_space_group_name_H-M   'P 1'
_cell_length_a   7.50778501
_cell_length_b   7.50778591
_cell_length_c   3.64253400
_cell_angle_alpha   90.00000000
_cell_angle_beta   90.00000000
_cell_angle_gamma   92.92616730
_symmetry_Int_Tables_number   1
_chemical_formula_structural   TmThCdNi2
_chemical_formula_sum   'Tm2 Th2 Cd2 Ni4'
_cell_volume   205.05043554
_cell_formula_units_Z   2
loop_
 _symmetry_equiv_pos_site_id
 _symmetry_equiv_pos_as_xyz
  1  'x, y, z'
loop_
 _atom_site_type_symbol
 _atom_site_label
 _atom_site_symmetry_multiplicity
 _atom_site_fract_x
 _atom_site_fract_y
 _atom_site_fract_z
 _atom_site_occupancy
  Tm  Tm0  1  0.171633  0.328367  0.500000  1
  Tm  Tm1  1  0.828367  0.671633  0.500000  1
  Th  Th2  1  0.675596  0.175596  0.500000  1
  Th  Th3  1  0.324404  0.824404  0.500000  1
  Cd  Cd4  1  0.000000  0.000000  0.000000  1
  Cd  Cd5  1  0.500000  0.500000  0.000000  1
  Ni  Ni6  1  0.121252  0.621252  0.000000  1
  Ni  Ni7  1  0.878748  0.378748  0.000000  1
  Ni  Ni8  1  0.620208  0.879792  0.000000  1
  Ni  Ni9  1  0.379792  0.120208  0.000000  1
