# generated using pymatgen
data_YbRh2F12
_symmetry_space_group_name_H-M   'P 1'
_cell_length_a   7.18865662
_cell_length_b   7.18865545
_cell_length_c   10.27979567
_cell_angle_alpha   69.00026947
_cell_angle_beta   69.00026148
_cell_angle_gamma   78.17198961
_symmetry_Int_Tables_number   1
_chemical_formula_structural   YbRh2F12
_chemical_formula_sum   'Yb2 Rh4 F24'
_cell_volume   461.21490743
_cell_formula_units_Z   2
loop_
 _symmetry_equiv_pos_site_id
 _symmetry_equiv_pos_as_xyz
  1  'x, y, z'
loop_
 _atom_site_type_symbol
 _atom_site_label
 _atom_site_symmetry_multiplicity
 _atom_site_fract_x
 _atom_site_fract_y
 _atom_site_fract_z
 _atom_site_occupancy
  Yb  Yb0  1  0.172164  0.827836  0.750000  1
  Yb  Yb1  1  0.827836  0.172164  0.250000  1
  Rh  Rh2  1  0.247430  0.256690  0.373779  1
  Rh  Rh3  1  0.256690  0.247430  0.873779  1
  Rh  Rh4  1  0.752570  0.743310  0.626221  1
  Rh  Rh5  1  0.743310  0.752570  0.126221  1
  F  F6  1  0.857324  0.872223  0.219999  1
  F  F7  1  0.142676  0.127777  0.780001  1
  F  F8  1  0.281817  0.991261  0.508881  1
  F  F9  1  0.991814  0.290215  0.504729  1
  F  F10  1  0.290215  0.991814  0.004729  1
  F  F11  1  0.367081  0.359183  0.465780  1
  F  F12  1  0.359183  0.367081  0.965780  1
  F  F13  1  0.872223  0.857324  0.719999  1
  F  F14  1  0.790885  0.486583  0.256212  1
  F  F15  1  0.008739  0.718183  0.991119  1
  F  F16  1  0.718183  0.008739  0.491119  1
  F  F17  1  0.991261  0.281817  0.008881  1
  F  F18  1  0.508003  0.215230  0.740972  1
  F  F19  1  0.632919  0.640817  0.534220  1
  F  F20  1  0.209115  0.513417  0.743788  1
  F  F21  1  0.640817  0.632919  0.034220  1
  F  F22  1  0.486583  0.790885  0.756212  1
  F  F23  1  0.784770  0.491997  0.759028  1
  F  F24  1  0.513417  0.209115  0.243788  1
  F  F25  1  0.491997  0.784770  0.259028  1
  F  F26  1  0.215230  0.508003  0.240972  1
  F  F27  1  0.709785  0.008186  0.995271  1
  F  F28  1  0.127777  0.142676  0.280001  1
  F  F29  1  0.008186  0.709785  0.495271  1
