# generated using pymatgen
data_Dy4Ho2Si24Os3Ru5
_symmetry_space_group_name_H-M   'P 1'
_cell_length_a   10.12025900
_cell_length_b   10.12024393
_cell_length_c   8.14805100
_cell_angle_alpha   90.00090964
_cell_angle_beta   90.00054444
_cell_angle_gamma   132.51829228
_symmetry_Int_Tables_number   1
_chemical_formula_structural   Dy4Ho2Si24Os3Ru5
_chemical_formula_sum   'Dy4 Ho2 Si24 Os3 Ru5'
_cell_volume   615.09208396
_cell_formula_units_Z   1
loop_
 _symmetry_equiv_pos_site_id
 _symmetry_equiv_pos_as_xyz
  1  'x, y, z'
loop_
 _atom_site_type_symbol
 _atom_site_label
 _atom_site_symmetry_multiplicity
 _atom_site_fract_x
 _atom_site_fract_y
 _atom_site_fract_z
 _atom_site_occupancy
  Dy  Dy0  1  0.502298  0.002358  0.750204  1
  Dy  Dy1  1  0.997642  0.497704  0.249793  1
  Dy  Dy2  1  0.497798  0.997564  0.249653  1
  Dy  Dy3  1  0.002435  0.502200  0.750344  1
  Ho  Ho4  1  0.500007  0.499985  0.500000  1
  Ho  Ho5  1  0.999984  0.000025  0.000004  1
  Si  Si6  1  0.795974  0.204029  0.499999  1
  Si  Si7  1  0.295877  0.704125  0.000000  1
  Si  Si8  1  0.204116  0.795881  0.500000  1
  Si  Si9  1  0.704740  0.295257  0.000000  1
  Si  Si10  1  0.332439  0.332198  0.833531  1
  Si  Si11  1  0.667803  0.667561  0.166465  1
  Si  Si12  1  0.166652  0.166804  0.332471  1
  Si  Si13  1  0.833196  0.833346  0.667529  1
  Si  Si14  1  0.121496  0.888358  0.728370  1
  Si  Si15  1  0.111641  0.878503  0.271628  1
  Si  Si16  1  0.612465  0.378700  0.227334  1
  Si  Si17  1  0.621300  0.387537  0.772663  1
  Si  Si18  1  0.877960  0.111559  0.270561  1
  Si  Si19  1  0.888440  0.122038  0.729438  1
  Si  Si20  1  0.388315  0.621966  0.772267  1
  Si  Si21  1  0.378035  0.611686  0.227733  1
  Si  Si22  1  0.344821  0.111720  0.505537  1
  Si  Si23  1  0.888278  0.655178  0.494461  1
  Si  Si24  1  0.388415  0.155555  0.004443  1
  Si  Si25  1  0.844441  0.611584  0.995560  1
  Si  Si26  1  0.655394  0.888448  0.494223  1
  Si  Si27  1  0.111549  0.344604  0.505779  1
  Si  Si28  1  0.612995  0.846225  0.994777  1
  Si  Si29  1  0.153775  0.387005  0.005223  1
  Os  Os30  1  0.669739  0.330260  0.500005  1
  Os  Os31  1  0.169739  0.830265  0.000000  1
  Os  Os32  1  0.330254  0.669755  0.499998  1
  Ru  Ru33  1  0.830143  0.169851  0.999997  1
  Ru  Ru34  1  0.127929  0.127801  0.626868  1
  Ru  Ru35  1  0.872204  0.872071  0.373138  1
  Ru  Ru36  1  0.373554  0.373843  0.128143  1
  Ru  Ru37  1  0.626160  0.626447  0.871859  1
