# generated using pymatgen
data_Dy9Tm(CoSb2)2
_symmetry_space_group_name_H-M   'P 1'
_cell_length_a   7.89830702
_cell_length_b   8.75764111
_cell_length_c   12.20899500
_cell_angle_alpha   90.00000000
_cell_angle_beta   90.00000000
_cell_angle_gamma   90.05796377
_symmetry_Int_Tables_number   1
_chemical_formula_structural   Dy9Tm(CoSb2)2
_chemical_formula_sum   'Dy18 Tm2 Co4 Sb8'
_cell_volume   844.50232356
_cell_formula_units_Z   2
loop_
 _symmetry_equiv_pos_site_id
 _symmetry_equiv_pos_as_xyz
  1  'x, y, z'
loop_
 _atom_site_type_symbol
 _atom_site_label
 _atom_site_symmetry_multiplicity
 _atom_site_fract_x
 _atom_site_fract_y
 _atom_site_fract_z
 _atom_site_occupancy
  Dy  Dy0  1  0.154772  0.749709  0.203049  1
  Dy  Dy1  1  0.345228  0.750291  0.703049  1
  Dy  Dy2  1  0.844835  0.250100  0.796886  1
  Dy  Dy3  1  0.655165  0.249900  0.296886  1
  Dy  Dy4  1  0.454586  0.749722  0.998223  1
  Dy  Dy5  1  0.045414  0.750278  0.498223  1
  Dy  Dy6  1  0.547364  0.250517  0.001815  1
  Dy  Dy7  1  0.952636  0.249483  0.501815  1
  Dy  Dy8  1  0.621629  0.750644  0.307024  1
  Dy  Dy9  1  0.878371  0.749356  0.807024  1
  Dy  Dy10  1  0.379582  0.249652  0.692837  1
  Dy  Dy11  1  0.120418  0.250348  0.192837  1
  Dy  Dy12  1  0.178563  0.035417  0.934971  1
  Dy  Dy13  1  0.321437  0.464583  0.434971  1
  Dy  Dy14  1  0.178145  0.464483  0.935072  1
  Dy  Dy15  1  0.321855  0.035517  0.435072  1
  Dy  Dy16  1  0.821428  0.964149  0.065280  1
  Dy  Dy17  1  0.678572  0.535851  0.565280  1
  Tm  Tm18  1  0.823901  0.536149  0.065106  1
  Tm  Tm19  1  0.676099  0.963851  0.565106  1
  Co  Co20  1  0.435224  0.750751  0.491005  1
  Co  Co21  1  0.064776  0.749249  0.991005  1
  Co  Co22  1  0.566988  0.249515  0.509334  1
  Co  Co23  1  0.933012  0.250485  0.009334  1
  Sb  Sb24  1  0.928052  0.508857  0.326634  1
  Sb  Sb25  1  0.571948  0.991143  0.826634  1
  Sb  Sb26  1  0.070511  0.008500  0.672965  1
  Sb  Sb27  1  0.429489  0.491500  0.172965  1
  Sb  Sb28  1  0.071831  0.491213  0.672964  1
  Sb  Sb29  1  0.428169  0.008787  0.172964  1
  Sb  Sb30  1  0.928727  0.991209  0.326833  1
  Sb  Sb31  1  0.571273  0.508791  0.826833  1
