# generated using pymatgen
data_AcTb2(InHg2)3
_symmetry_space_group_name_H-M   'P 1'
_cell_length_a   5.12797400
_cell_length_b   7.47111400
_cell_length_c   15.76678200
_cell_angle_alpha   89.99995399
_cell_angle_beta   90.00079330
_cell_angle_gamma   89.99953219
_symmetry_Int_Tables_number   1
_chemical_formula_structural   AcTb2(InHg2)3
_chemical_formula_sum   'Ac2 Tb4 In6 Hg12'
_cell_volume   604.05188049
_cell_formula_units_Z   2
loop_
 _symmetry_equiv_pos_site_id
 _symmetry_equiv_pos_as_xyz
  1  'x, y, z'
loop_
 _atom_site_type_symbol
 _atom_site_label
 _atom_site_symmetry_multiplicity
 _atom_site_fract_x
 _atom_site_fract_y
 _atom_site_fract_z
 _atom_site_occupancy
  Ac  Ac0  1  0.001052  0.499560  0.998831  1
  Ac  Ac1  1  0.498670  0.000677  0.167751  1
  Tb  Tb2  1  0.001270  0.500278  0.340122  1
  Tb  Tb3  1  0.500381  0.999285  0.502156  1
  Tb  Tb4  1  0.999352  0.499788  0.664328  1
  Tb  Tb5  1  0.499769  0.999941  0.826852  1
  In  In6  1  0.000550  0.999605  0.996308  1
  In  In7  1  0.499816  0.500676  0.170554  1
  In  In8  1  0.000023  0.999863  0.339039  1
  In  In9  1  0.501908  0.500506  0.503556  1
  In  In10  1  0.997964  0.000023  0.663213  1
  In  In11  1  0.498923  0.500099  0.827226  1
  Hg  Hg12  1  0.502008  0.236191  0.991037  1
  Hg  Hg13  1  0.501901  0.763136  0.991371  1
  Hg  Hg14  1  0.997972  0.264119  0.175797  1
  Hg  Hg15  1  0.997900  0.736991  0.175333  1
  Hg  Hg16  1  0.501570  0.255416  0.341557  1
  Hg  Hg17  1  0.501313  0.744522  0.340837  1
  Hg  Hg18  1  0.000440  0.249552  0.501386  1
  Hg  Hg19  1  0.000436  0.750097  0.501496  1
  Hg  Hg20  1  0.499538  0.249699  0.664911  1
  Hg  Hg21  1  0.499261  0.750145  0.665408  1
  Hg  Hg22  1  0.998818  0.244456  0.825352  1
  Hg  Hg23  1  0.999165  0.755373  0.825576  1
