# generated using pymatgen
data_Pu4Al17GeIr6
_symmetry_space_group_name_H-M   'P 1'
_cell_length_a   7.57182748
_cell_length_b   7.57182689
_cell_length_c   9.51735700
_cell_angle_alpha   90.00000000
_cell_angle_beta   90.00000000
_cell_angle_gamma   119.54752933
_symmetry_Int_Tables_number   1
_chemical_formula_structural   Pu4Al17GeIr6
_chemical_formula_sum   'Pu4 Al17 Ge1 Ir6'
_cell_volume   474.69045239
_cell_formula_units_Z   1
loop_
 _symmetry_equiv_pos_site_id
 _symmetry_equiv_pos_as_xyz
  1  'x, y, z'
loop_
 _atom_site_type_symbol
 _atom_site_label
 _atom_site_symmetry_multiplicity
 _atom_site_fract_x
 _atom_site_fract_y
 _atom_site_fract_z
 _atom_site_occupancy
  Pu  Pu0  1  0.994501  0.678892  0.250000  1
  Pu  Pu1  1  0.001620  0.329075  0.750000  1
  Pu  Pu2  1  0.678892  0.994501  0.250000  1
  Pu  Pu3  1  0.329075  0.001620  0.750000  1
  Al  Al4  1  0.872362  0.872362  0.750000  1
  Al  Al5  1  0.999773  0.339496  0.074155  1
  Al  Al6  1  0.998247  0.664560  0.926643  1
  Al  Al7  1  0.998247  0.664560  0.573357  1
  Al  Al8  1  0.339496  0.999773  0.425845  1
  Al  Al9  1  0.999773  0.339496  0.425845  1
  Al  Al10  1  0.664560  0.998247  0.573357  1
  Al  Al11  1  0.664560  0.998247  0.926643  1
  Al  Al12  1  0.339496  0.999773  0.074155  1
  Al  Al13  1  0.331852  0.331852  0.558664  1
  Al  Al14  1  0.662828  0.662828  0.448880  1
  Al  Al15  1  0.662828  0.662828  0.051120  1
  Al  Al16  1  0.331852  0.331852  0.941336  1
  Al  Al17  1  0.336357  0.554301  0.250000  1
  Al  Al18  1  0.661336  0.453167  0.750000  1
  Al  Al19  1  0.554301  0.336357  0.250000  1
  Al  Al20  1  0.453167  0.661336  0.750000  1
  Ge  Ge21  1  0.135792  0.135792  0.250000  1
  Ir  Ir22  1  0.668139  0.327702  0.999424  1
  Ir  Ir23  1  0.327702  0.668139  0.999424  1
  Ir  Ir24  1  0.327702  0.668139  0.500576  1
  Ir  Ir25  1  0.668139  0.327702  0.500576  1
  Ir  Ir26  1  0.998700  0.998700  0.001209  1
  Ir  Ir27  1  0.998700  0.998700  0.498791  1
