# generated using pymatgen
data_Dy2ErSc3CoBi2
_symmetry_space_group_name_H-M   'P 1'
_cell_length_a   8.00628952
_cell_length_b   8.00629019
_cell_length_c   4.11287600
_cell_angle_alpha   90.00000000
_cell_angle_beta   90.00000000
_cell_angle_gamma   120.25945238
_symmetry_Int_Tables_number   1
_chemical_formula_structural   Dy2ErSc3CoBi2
_chemical_formula_sum   'Dy2 Er1 Sc3 Co1 Bi2'
_cell_volume   227.71806909
_cell_formula_units_Z   1
loop_
 _symmetry_equiv_pos_site_id
 _symmetry_equiv_pos_as_xyz
  1  'x, y, z'
loop_
 _atom_site_type_symbol
 _atom_site_label
 _atom_site_symmetry_multiplicity
 _atom_site_fract_x
 _atom_site_fract_y
 _atom_site_fract_z
 _atom_site_occupancy
  Dy  Dy0  1  0.614111  0.000282  0.000000  1
  Dy  Dy1  1  0.000282  0.614111  0.000000  1
  Er  Er2  1  0.382807  0.382807  0.000000  1
  Sc  Sc3  1  0.221261  0.998906  0.500000  1
  Sc  Sc4  1  0.998906  0.221261  0.500000  1
  Sc  Sc5  1  0.776996  0.776996  0.500000  1
  Co  Co6  1  0.007284  0.007284  0.000000  1
  Bi  Bi7  1  0.333240  0.665114  0.500000  1
  Bi  Bi8  1  0.665114  0.333240  0.500000  1
