# generated using pymatgen
data_TcP6PbO18
_symmetry_space_group_name_H-M   'P 1'
_cell_length_a   6.89976900
_cell_length_b   6.89976905
_cell_length_c   10.59892800
_cell_angle_alpha   90.00000000
_cell_angle_beta   90.00000000
_cell_angle_gamma   120.00000457
_symmetry_Int_Tables_number   1
_chemical_formula_structural   TcP6PbO18
_chemical_formula_sum   'Tc1 P6 Pb1 O18'
_cell_volume   436.98009902
_cell_formula_units_Z   1
loop_
 _symmetry_equiv_pos_site_id
 _symmetry_equiv_pos_as_xyz
  1  'x, y, z'
loop_
 _atom_site_type_symbol
 _atom_site_label
 _atom_site_symmetry_multiplicity
 _atom_site_fract_x
 _atom_site_fract_y
 _atom_site_fract_z
 _atom_site_occupancy
  Tc  Tc0  1  0.000000  0.000000  0.000000  1
  P  P1  1  0.729053  0.124537  0.782646  1
  P  P2  1  0.875463  0.270947  0.217354  1
  P  P3  1  0.729053  0.604517  0.217354  1
  P  P4  1  0.875463  0.604517  0.782646  1
  P  P5  1  0.395483  0.270947  0.782646  1
  P  P6  1  0.395483  0.124537  0.217354  1
  Pb  Pb7  1  0.000000  0.000000  0.500000  1
  O  O8  1  0.899447  0.511995  0.191032  1
  O  O9  1  0.899447  0.387452  0.808968  1
  O  O10  1  0.488005  0.100553  0.808968  1
  O  O11  1  0.612548  0.100553  0.191032  1
  O  O12  1  0.746827  0.056474  0.652623  1
  O  O13  1  0.758498  0.997710  0.892239  1
  O  O14  1  0.488005  0.387452  0.191032  1
  O  O15  1  0.746827  0.690354  0.347377  1
  O  O16  1  0.758498  0.760789  0.107761  1
  O  O17  1  0.612548  0.511995  0.808968  1
  O  O18  1  0.943526  0.253173  0.347377  1
  O  O19  1  0.002290  0.241502  0.107761  1
  O  O20  1  0.239211  0.241502  0.892239  1
  O  O21  1  0.309646  0.253173  0.652623  1
  O  O22  1  0.002290  0.760789  0.892239  1
  O  O23  1  0.943526  0.690354  0.652623  1
  O  O24  1  0.239211  0.997710  0.107761  1
  O  O25  1  0.309646  0.056474  0.347377  1
