# generated using pymatgen
data_Ho3BeP2Ru3
_symmetry_space_group_name_H-M   'P 1'
_cell_length_a   6.83433200
_cell_length_b   6.83433239
_cell_length_c   3.70197100
_cell_angle_alpha   90.00000000
_cell_angle_beta   90.00000000
_cell_angle_gamma   120.00000780
_symmetry_Int_Tables_number   1
_chemical_formula_structural   Ho3BeP2Ru3
_chemical_formula_sum   'Ho3 Be1 P2 Ru3'
_cell_volume   149.74618915
_cell_formula_units_Z   1
loop_
 _symmetry_equiv_pos_site_id
 _symmetry_equiv_pos_as_xyz
  1  'x, y, z'
loop_
 _atom_site_type_symbol
 _atom_site_label
 _atom_site_symmetry_multiplicity
 _atom_site_fract_x
 _atom_site_fract_y
 _atom_site_fract_z
 _atom_site_occupancy
  Ho  Ho0  1  0.399807  0.399807  0.500000  1
  Ho  Ho1  1  0.600193  0.000000  0.500000  1
  Ho  Ho2  1  0.000000  0.600193  0.500000  1
  Be  Be3  1  0.000000  0.000000  0.500000  1
  P  P4  1  0.666667  0.333333  0.000000  1
  P  P5  1  0.333333  0.666667  0.000000  1
  Ru  Ru6  1  0.762061  0.762061  0.000000  1
  Ru  Ru7  1  0.237939  0.000000  0.000000  1
  Ru  Ru8  1  0.000000  0.237939  0.000000  1
