# generated using pymatgen
data_Y6Ho2Cd2PdPt
_symmetry_space_group_name_H-M   'P 1'
_cell_length_a   9.70540373
_cell_length_b   9.70542879
_cell_length_c   9.70897800
_cell_angle_alpha   59.98814417
_cell_angle_beta   59.98781524
_cell_angle_gamma   59.99331187
_symmetry_Int_Tables_number   1
_chemical_formula_structural   Y6Ho2Cd2PdPt
_chemical_formula_sum   'Y12 Ho4 Cd4 Pd2 Pt2'
_cell_volume   646.52597071
_cell_formula_units_Z   2
loop_
 _symmetry_equiv_pos_site_id
 _symmetry_equiv_pos_as_xyz
  1  'x, y, z'
loop_
 _atom_site_type_symbol
 _atom_site_label
 _atom_site_symmetry_multiplicity
 _atom_site_fract_x
 _atom_site_fract_y
 _atom_site_fract_z
 _atom_site_occupancy
  Y  Y0  1  0.811569  0.189700  0.190237  1
  Y  Y1  1  0.189693  0.811571  0.808504  1
  Y  Y2  1  0.189690  0.811584  0.190225  1
  Y  Y3  1  0.811575  0.189687  0.808506  1
  Y  Y4  1  0.190541  0.190542  0.809457  1
  Y  Y5  1  0.810805  0.810806  0.189196  1
  Y  Y6  1  0.935864  0.563294  0.564988  1
  Y  Y7  1  0.563294  0.935861  0.935855  1
  Y  Y8  1  0.563283  0.935880  0.564989  1
  Y  Y9  1  0.935866  0.563283  0.935856  1
  Y  Y10  1  0.565172  0.565184  0.934812  1
  Y  Y11  1  0.936887  0.936873  0.563122  1
  Ho  Ho12  1  0.352499  0.352500  0.353150  1
  Ho  Ho13  1  0.352505  0.352495  0.941845  1
  Ho  Ho14  1  0.353150  0.939555  0.353654  1
  Ho  Ho15  1  0.939558  0.353140  0.353653  1
  Cd  Cd16  1  0.581533  0.581535  0.582203  1
  Cd  Cd17  1  0.581533  0.581532  0.254726  1
  Cd  Cd18  1  0.581751  0.254001  0.582124  1
  Cd  Cd19  1  0.254005  0.581746  0.582125  1
  Pd  Pd20  1  0.144667  0.564618  0.145358  1
  Pd  Pd21  1  0.564619  0.144667  0.145359  1
  Pt  Pt22  1  0.144970  0.144975  0.145617  1
  Pt  Pt23  1  0.144972  0.144972  0.564437  1
