# generated using pymatgen
data_LiNb12Ga8Cu3C4
_symmetry_space_group_name_H-M   'P 1'
_cell_length_a   8.31164597
_cell_length_b   8.32324952
_cell_length_c   8.32324800
_cell_angle_alpha   60.00000604
_cell_angle_beta   59.95381402
_cell_angle_gamma   59.95381463
_symmetry_Int_Tables_number   1
_chemical_formula_structural   LiNb12Ga8Cu3C4
_chemical_formula_sum   'Li1 Nb12 Ga8 Cu3 C4'
_cell_volume   406.86869437
_cell_formula_units_Z   1
loop_
 _symmetry_equiv_pos_site_id
 _symmetry_equiv_pos_as_xyz
  1  'x, y, z'
loop_
 _atom_site_type_symbol
 _atom_site_label
 _atom_site_symmetry_multiplicity
 _atom_site_fract_x
 _atom_site_fract_y
 _atom_site_fract_z
 _atom_site_occupancy
  Li  Li0  1  0.625000  0.125000  0.125000  1
  Nb  Nb1  1  0.684371  0.314737  0.686156  1
  Nb  Nb2  1  0.933931  0.566171  0.566171  1
  Nb  Nb3  1  0.565629  0.935263  0.935263  1
  Nb  Nb4  1  0.933931  0.566171  0.933728  1
  Nb  Nb5  1  0.565629  0.563844  0.935263  1
  Nb  Nb6  1  0.933931  0.933728  0.566171  1
  Nb  Nb7  1  0.684371  0.686156  0.314737  1
  Nb  Nb8  1  0.316069  0.683829  0.683829  1
  Nb  Nb9  1  0.684371  0.314737  0.314737  1
  Nb  Nb10  1  0.316069  0.316272  0.683829  1
  Nb  Nb11  1  0.565629  0.935263  0.563844  1
  Nb  Nb12  1  0.316069  0.683829  0.316272  1
  Ga  Ga13  1  0.336905  0.333546  0.333546  1
  Ga  Ga14  1  0.255719  0.914760  0.914760  1
  Ga  Ga15  1  0.913095  0.253997  0.916454  1
  Ga  Ga16  1  0.913095  0.916454  0.253997  1
  Ga  Ga17  1  0.336905  0.996003  0.333546  1
  Ga  Ga18  1  0.336905  0.333546  0.996003  1
  Ga  Ga19  1  0.994281  0.335240  0.335240  1
  Ga  Ga20  1  0.913095  0.916454  0.916454  1
  Cu  Cu21  1  0.125000  0.125000  0.125000  1
  Cu  Cu22  1  0.125000  0.625000  0.125000  1
  Cu  Cu23  1  0.125000  0.125000  0.625000  1
  C  C24  1  0.625000  0.625000  0.625000  1
  C  C25  1  0.125000  0.625000  0.625000  1
  C  C26  1  0.625000  0.125000  0.625000  1
  C  C27  1  0.625000  0.625000  0.125000  1
