# generated using pymatgen
data_Nd7CBr12
_symmetry_space_group_name_H-M   'P 1'
_cell_length_a   9.31134118
_cell_length_b   9.31134115
_cell_length_c   9.31134111
_cell_angle_alpha   107.51093001
_cell_angle_beta   107.51093589
_cell_angle_gamma   107.51093625
_symmetry_Int_Tables_number   1
_chemical_formula_structural   Nd7CBr12
_chemical_formula_sum   'Nd7 C1 Br12'
_cell_volume   662.73589238
_cell_formula_units_Z   1
loop_
 _symmetry_equiv_pos_site_id
 _symmetry_equiv_pos_as_xyz
  1  'x, y, z'
loop_
 _atom_site_type_symbol
 _atom_site_label
 _atom_site_symmetry_multiplicity
 _atom_site_fract_x
 _atom_site_fract_y
 _atom_site_fract_z
 _atom_site_occupancy
  Nd  Nd0  1  0.475047  0.475047  0.475047  1
  Nd  Nd1  1  0.905082  0.978197  0.699636  1
  Nd  Nd2  1  0.978197  0.699636  0.905082  1
  Nd  Nd3  1  0.699636  0.905082  0.978197  1
  Nd  Nd4  1  0.040534  0.308376  0.111498  1
  Nd  Nd5  1  0.308376  0.111498  0.040534  1
  Nd  Nd6  1  0.111498  0.040534  0.308376  1
  C  C7  1  0.995682  0.995682  0.995682  1
  Br  Br8  1  0.230780  0.077923  0.691607  1
  Br  Br9  1  0.077923  0.691607  0.230780  1
  Br  Br10  1  0.691607  0.230780  0.077923  1
  Br  Br11  1  0.540768  0.837612  0.617690  1
  Br  Br12  1  0.837612  0.617690  0.540768  1
  Br  Br13  1  0.617690  0.540768  0.837612  1
  Br  Br14  1  0.924730  0.316801  0.780414  1
  Br  Br15  1  0.316801  0.780414  0.924730  1
  Br  Br16  1  0.780414  0.924730  0.316801  1
  Br  Br17  1  0.389979  0.474901  0.146945  1
  Br  Br18  1  0.474901  0.146945  0.389979  1
  Br  Br19  1  0.146945  0.389979  0.474901  1
