# generated using pymatgen
data_Y8Ga(Si4Pt)3
_symmetry_space_group_name_H-M   'P 1'
_cell_length_a   8.13988800
_cell_length_b   8.13988868
_cell_length_c   8.20023600
_cell_angle_alpha   90.00000000
_cell_angle_beta   90.00000000
_cell_angle_gamma   120.00000536
_symmetry_Int_Tables_number   1
_chemical_formula_structural   Y8Ga(Si4Pt)3
_chemical_formula_sum   'Y8 Ga1 Si12 Pt3'
_cell_volume   470.53708157
_cell_formula_units_Z   1
loop_
 _symmetry_equiv_pos_site_id
 _symmetry_equiv_pos_as_xyz
  1  'x, y, z'
loop_
 _atom_site_type_symbol
 _atom_site_label
 _atom_site_symmetry_multiplicity
 _atom_site_fract_x
 _atom_site_fract_y
 _atom_site_fract_z
 _atom_site_occupancy
  Y  Y0  1  0.000000  0.000000  0.250280  1
  Y  Y1  1  0.000000  0.000000  0.749792  1
  Y  Y2  1  0.001772  0.500885  0.249592  1
  Y  Y3  1  0.499115  0.500885  0.249592  1
  Y  Y4  1  0.499780  0.999560  0.750292  1
  Y  Y5  1  0.499115  0.998228  0.249592  1
  Y  Y6  1  0.499780  0.500220  0.750292  1
  Y  Y7  1  0.000440  0.500220  0.750292  1
  Ga  Ga8  1  0.666667  0.333333  0.497624  1
  Si  Si9  1  0.166082  0.332166  0.000833  1
  Si  Si10  1  0.667834  0.833918  0.000833  1
  Si  Si11  1  0.167416  0.334832  0.499763  1
  Si  Si12  1  0.331786  0.165893  0.999047  1
  Si  Si13  1  0.166082  0.833918  0.000833  1
  Si  Si14  1  0.665168  0.832584  0.499763  1
  Si  Si15  1  0.834107  0.668214  0.999047  1
  Si  Si16  1  0.326368  0.163184  0.500443  1
  Si  Si17  1  0.167416  0.832584  0.499763  1
  Si  Si18  1  0.836816  0.673632  0.500443  1
  Si  Si19  1  0.834107  0.165893  0.999047  1
  Si  Si20  1  0.836816  0.163184  0.500443  1
  Pt  Pt21  1  0.333333  0.666667  0.999236  1
  Pt  Pt22  1  0.333333  0.666667  0.501850  1
  Pt  Pt23  1  0.666667  0.333333  0.001311  1
