# generated using pymatgen
data_Pr20Si15Ir
_symmetry_space_group_name_H-M   'P 1'
_cell_length_a   7.93689272
_cell_length_b   7.94182540
_cell_length_c   15.30505306
_cell_angle_alpha   90.07572667
_cell_angle_beta   89.83886120
_cell_angle_gamma   90.11015881
_symmetry_Int_Tables_number   1
_chemical_formula_structural   Pr20Si15Ir
_chemical_formula_sum   'Pr20 Si15 Ir1'
_cell_volume   964.72334471
_cell_formula_units_Z   1
loop_
 _symmetry_equiv_pos_site_id
 _symmetry_equiv_pos_as_xyz
  1  'x, y, z'
loop_
 _atom_site_type_symbol
 _atom_site_label
 _atom_site_symmetry_multiplicity
 _atom_site_fract_x
 _atom_site_fract_y
 _atom_site_fract_z
 _atom_site_occupancy
  Pr  Pr0  1  0.305499  0.306547  0.998726  1
  Pr  Pr1  1  0.191081  0.809071  0.249787  1
  Pr  Pr2  1  0.821471  0.188341  0.749818  1
  Pr  Pr3  1  0.692994  0.688200  0.500886  1
  Pr  Pr4  1  0.373533  0.011078  0.449198  1
  Pr  Pr5  1  0.488536  0.877456  0.697972  1
  Pr  Pr6  1  0.510420  0.123625  0.198125  1
  Pr  Pr7  1  0.875829  0.488650  0.300289  1
  Pr  Pr8  1  0.124921  0.507447  0.800069  1
  Pr  Pr9  1  0.625731  0.988277  0.948406  1
  Pr  Pr10  1  0.007141  0.374244  0.552586  1
  Pr  Pr11  1  0.988410  0.625179  0.051363  1
  Pr  Pr12  1  0.133587  0.986110  0.873362  1
  Pr  Pr13  1  0.516382  0.630350  0.125955  1
  Pr  Pr14  1  0.473934  0.361246  0.628150  1
  Pr  Pr15  1  0.627067  0.515702  0.873635  1
  Pr  Pr16  1  0.373539  0.483721  0.373580  1
  Pr  Pr17  1  0.872389  0.019866  0.376161  1
  Pr  Pr18  1  0.982377  0.126968  0.124641  1
  Pr  Pr19  1  0.025405  0.879857  0.625317  1
  Si  Si20  1  0.333326  0.695776  0.950693  1
  Si  Si21  1  0.665033  0.303201  0.451608  1
  Si  Si22  1  0.697344  0.334931  0.049898  1
  Si  Si23  1  0.304581  0.668186  0.547918  1
  Si  Si24  1  0.804702  0.832407  0.202241  1
  Si  Si25  1  0.167844  0.197688  0.298577  1
  Si  Si26  1  0.833011  0.802228  0.799414  1
  Si  Si27  1  0.288603  0.922289  0.058556  1
  Si  Si28  1  0.579243  0.787571  0.310020  1
  Si  Si29  1  0.426111  0.207606  0.811755  1
  Si  Si30  1  0.783286  0.581499  0.690558  1
  Si  Si31  1  0.212275  0.421997  0.190474  1
  Si  Si32  1  0.704945  0.074163  0.558162  1
  Si  Si33  1  0.919490  0.288665  0.941994  1
  Si  Si34  1  0.079092  0.714815  0.441347  1
  Ir  Ir35  1  0.190865  0.175044  0.698760  1
