# generated using pymatgen
data_Eu6Ag2Ru
_symmetry_space_group_name_H-M   'P 1'
_cell_length_a   8.57177900
_cell_length_b   8.57177943
_cell_length_c   4.41994200
_cell_angle_alpha   90.00000000
_cell_angle_beta   90.00000000
_cell_angle_gamma   120.00000992
_symmetry_Int_Tables_number   1
_chemical_formula_structural   Eu6Ag2Ru
_chemical_formula_sum   'Eu6 Ag2 Ru1'
_cell_volume   281.24778534
_cell_formula_units_Z   1
loop_
 _symmetry_equiv_pos_site_id
 _symmetry_equiv_pos_as_xyz
  1  'x, y, z'
loop_
 _atom_site_type_symbol
 _atom_site_label
 _atom_site_symmetry_multiplicity
 _atom_site_fract_x
 _atom_site_fract_y
 _atom_site_fract_z
 _atom_site_occupancy
  Eu  Eu0  1  0.759236  0.000000  0.000000  1
  Eu  Eu1  1  0.240765  0.240764  0.000000  1
  Eu  Eu2  1  0.000000  0.759236  0.000000  1
  Eu  Eu3  1  0.398364  0.000000  0.500001  1
  Eu  Eu4  1  0.000000  0.398364  0.500001  1
  Eu  Eu5  1  0.601636  0.601636  0.500001  1
  Ag  Ag6  1  0.666667  0.333333  0.000000  1
  Ag  Ag7  1  0.333333  0.666666  0.000000  1
  Ru  Ru8  1  0.000000  0.000000  0.500001  1
