# generated using pymatgen
data_CaAcAlIr2
_symmetry_space_group_name_H-M   'P 1'
_cell_length_a   5.87543175
_cell_length_b   5.87543206
_cell_length_c   5.87543087
_cell_angle_alpha   139.24509442
_cell_angle_beta   119.20380338
_cell_angle_gamma   75.79293889
_symmetry_Int_Tables_number   1
_chemical_formula_structural   CaAcAlIr2
_chemical_formula_sum   'Ca1 Ac1 Al1 Ir2'
_cell_volume   112.80051397
_cell_formula_units_Z   1
loop_
 _symmetry_equiv_pos_site_id
 _symmetry_equiv_pos_as_xyz
  1  'x, y, z'
loop_
 _atom_site_type_symbol
 _atom_site_label
 _atom_site_symmetry_multiplicity
 _atom_site_fract_x
 _atom_site_fract_y
 _atom_site_fract_z
 _atom_site_occupancy
  Ca  Ca0  1  0.299146  0.799145  0.499999  1
  Ac  Ac1  1  0.699191  0.199191  0.500000  1
  Al  Al2  1  0.002488  0.002488  0.000000  1
  Ir  Ir3  1  0.739574  0.499587  0.239987  1
  Ir  Ir4  1  0.259600  0.499586  0.760013  1
