# generated using pymatgen
data_LaY(CoB)8
_symmetry_space_group_name_H-M   'P 1'
_cell_length_a   7.04313300
_cell_length_b   7.04313300
_cell_length_c   3.80143300
_cell_angle_alpha   90.00000000
_cell_angle_beta   90.00000000
_cell_angle_gamma   90.00000000
_symmetry_Int_Tables_number   1
_chemical_formula_structural   LaY(CoB)8
_chemical_formula_sum   'La1 Y1 Co8 B8'
_cell_volume   188.57283033
_cell_formula_units_Z   1
loop_
 _symmetry_equiv_pos_site_id
 _symmetry_equiv_pos_as_xyz
  1  'x, y, z'
loop_
 _atom_site_type_symbol
 _atom_site_label
 _atom_site_symmetry_multiplicity
 _atom_site_fract_x
 _atom_site_fract_y
 _atom_site_fract_z
 _atom_site_occupancy
  La  La0  1  0.500000  0.500000  0.500000  1
  Y  Y1  1  0.000000  0.000000  0.000000  1
  Co  Co2  1  0.381641  0.137756  0.891154  1
  Co  Co3  1  0.618359  0.862244  0.891154  1
  Co  Co4  1  0.353653  0.884782  0.394209  1
  Co  Co5  1  0.646347  0.115218  0.394209  1
  Co  Co6  1  0.115218  0.353653  0.605791  1
  Co  Co7  1  0.884782  0.646347  0.605791  1
  Co  Co8  1  0.137756  0.618359  0.108846  1
  Co  Co9  1  0.862244  0.381641  0.108846  1
  B  B10  1  0.803098  0.664879  0.101574  1
  B  B11  1  0.196902  0.335121  0.101574  1
  B  B12  1  0.841128  0.290864  0.607270  1
  B  B13  1  0.158872  0.709136  0.607270  1
  B  B14  1  0.709136  0.841128  0.392730  1
  B  B15  1  0.290864  0.158872  0.392730  1
  B  B16  1  0.664879  0.196902  0.898426  1
  B  B17  1  0.335121  0.803098  0.898426  1
