# generated using pymatgen
data_Cd3BiIr3RhO14
_symmetry_space_group_name_H-M   'P 1'
_cell_length_a   7.32133433
_cell_length_b   7.32133523
_cell_length_c   7.31188798
_cell_angle_alpha   59.19131376
_cell_angle_beta   59.19130927
_cell_angle_gamma   59.24268288
_symmetry_Int_Tables_number   1
_chemical_formula_structural   Cd3BiIr3RhO14
_chemical_formula_sum   'Cd3 Bi1 Ir3 Rh1 O14'
_cell_volume   272.13935624
_cell_formula_units_Z   1
loop_
 _symmetry_equiv_pos_site_id
 _symmetry_equiv_pos_as_xyz
  1  'x, y, z'
loop_
 _atom_site_type_symbol
 _atom_site_label
 _atom_site_symmetry_multiplicity
 _atom_site_fract_x
 _atom_site_fract_y
 _atom_site_fract_z
 _atom_site_occupancy
  Cd  Cd0  1  0.125000  0.625000  0.125000  1
  Cd  Cd1  1  0.625000  0.125000  0.125000  1
  Cd  Cd2  1  0.125000  0.125000  0.625000  1
  Bi  Bi3  1  0.125000  0.125000  0.125000  1
  Ir  Ir4  1  0.625000  0.625000  0.625000  1
  Ir  Ir5  1  0.125000  0.625000  0.625000  1
  Ir  Ir6  1  0.625000  0.125000  0.625000  1
  Rh  Rh7  1  0.625000  0.625000  0.125000  1
  O  O8  1  0.250920  0.250920  0.252778  1
  O  O9  1  0.290357  0.712338  0.294977  1
  O  O10  1  0.953099  0.953099  0.541143  1
  O  O11  1  0.547001  0.947034  0.562981  1
  O  O12  1  0.701934  0.701934  0.300699  1
  O  O13  1  0.947034  0.547001  0.562981  1
  O  O14  1  0.702999  0.302966  0.687019  1
  O  O15  1  0.296901  0.296901  0.708857  1
  O  O16  1  0.712338  0.290357  0.294977  1
  O  O17  1  0.302966  0.702999  0.687019  1
  O  O18  1  0.959643  0.537662  0.955023  1
  O  O19  1  0.548066  0.548066  0.949301  1
  O  O20  1  0.999080  0.999080  0.997222  1
  O  O21  1  0.537662  0.959643  0.955023  1
