# generated using pymatgen
data_Dy3YFe16(ReP3)4
_symmetry_space_group_name_H-M   'P 1'
_cell_length_a   3.72723600
_cell_length_b   10.39580903
_cell_length_c   11.81567203
_cell_angle_alpha   89.99151321
_cell_angle_beta   90.00000000
_cell_angle_gamma   90.00000000
_symmetry_Int_Tables_number   1
_chemical_formula_structural   Dy3YFe16(ReP3)4
_chemical_formula_sum   'Dy3 Y1 Fe16 Re4 P12'
_cell_volume   457.82932634
_cell_formula_units_Z   1
loop_
 _symmetry_equiv_pos_site_id
 _symmetry_equiv_pos_as_xyz
  1  'x, y, z'
loop_
 _atom_site_type_symbol
 _atom_site_label
 _atom_site_symmetry_multiplicity
 _atom_site_fract_x
 _atom_site_fract_y
 _atom_site_fract_z
 _atom_site_occupancy
  Dy  Dy0  1  0.250000  0.917871  0.204133  1
  Dy  Dy1  1  0.750000  0.417729  0.295871  1
  Dy  Dy2  1  0.750000  0.082227  0.795852  1
  Y  Y3  1  0.250000  0.582270  0.704215  1
  Fe  Fe4  1  0.250000  0.404764  0.490029  1
  Fe  Fe5  1  0.250000  0.095208  0.990049  1
  Fe  Fe6  1  0.750000  0.595195  0.509783  1
  Fe  Fe7  1  0.750000  0.904817  0.009898  1
  Fe  Fe8  1  0.250000  0.216988  0.177834  1
  Fe  Fe9  1  0.250000  0.282896  0.677826  1
  Fe  Fe10  1  0.750000  0.783033  0.822218  1
  Fe  Fe11  1  0.750000  0.716956  0.322180  1
  Fe  Fe12  1  0.250000  0.877563  0.702074  1
  Fe  Fe13  1  0.250000  0.622531  0.202043  1
  Fe  Fe14  1  0.750000  0.122569  0.297917  1
  Fe  Fe15  1  0.750000  0.377353  0.798020  1
  Fe  Fe16  1  0.250000  0.462928  0.933762  1
  Fe  Fe17  1  0.250000  0.037037  0.433691  1
  Fe  Fe18  1  0.750000  0.536983  0.066314  1
  Fe  Fe19  1  0.750000  0.963027  0.566311  1
  Re  Re20  1  0.250000  0.705262  0.986969  1
  Re  Re21  1  0.250000  0.794829  0.486975  1
  Re  Re22  1  0.750000  0.294732  0.013040  1
  Re  Re23  1  0.750000  0.205181  0.512986  1
  P  P24  1  0.250000  0.422617  0.114621  1
  P  P25  1  0.250000  0.077378  0.614629  1
  P  P26  1  0.750000  0.577379  0.885580  1
  P  P27  1  0.750000  0.922689  0.385392  1
  P  P28  1  0.250000  0.265508  0.870066  1
  P  P29  1  0.250000  0.234505  0.370118  1
  P  P30  1  0.750000  0.734513  0.129857  1
  P  P31  1  0.750000  0.765699  0.629827  1
  P  P32  1  0.250000  0.594654  0.394977  1
  P  P33  1  0.250000  0.905287  0.894922  1
  P  P34  1  0.750000  0.405097  0.604992  1
  P  P35  1  0.750000  0.094722  0.105028  1
