# generated using pymatgen
data_ErZr5Zn23As
_symmetry_space_group_name_H-M   'P 1'
_cell_length_a   8.82379780
_cell_length_b   8.82549446
_cell_length_c   8.82549416
_cell_angle_alpha   59.98728464
_cell_angle_beta   60.00635542
_cell_angle_gamma   60.00635751
_symmetry_Int_Tables_number   1
_chemical_formula_structural   ErZr5Zn23As
_chemical_formula_sum   'Er1 Zr5 Zn23 As1'
_cell_volume   485.98021467
_cell_formula_units_Z   1
loop_
 _symmetry_equiv_pos_site_id
 _symmetry_equiv_pos_as_xyz
  1  'x, y, z'
loop_
 _atom_site_type_symbol
 _atom_site_label
 _atom_site_symmetry_multiplicity
 _atom_site_fract_x
 _atom_site_fract_y
 _atom_site_fract_z
 _atom_site_occupancy
  Er  Er0  1  0.715627  0.284373  0.284373  1
  Zr  Zr1  1  0.285056  0.714944  0.714944  1
  Zr  Zr2  1  0.285952  0.714048  0.289111  1
  Zr  Zr3  1  0.710889  0.289111  0.714048  1
  Zr  Zr4  1  0.285952  0.289111  0.714048  1
  Zr  Zr5  1  0.710889  0.714048  0.289111  1
  Zn  Zn6  1  0.127727  0.121317  0.121317  1
  Zn  Zn7  1  0.877168  0.876544  0.876544  1
  Zn  Zn8  1  0.123456  0.122832  0.630258  1
  Zn  Zn9  1  0.123456  0.630258  0.122832  1
  Zn  Zn10  1  0.878683  0.872273  0.370360  1
  Zn  Zn11  1  0.878683  0.370360  0.872273  1
  Zn  Zn12  1  0.629640  0.121317  0.121317  1
  Zn  Zn13  1  0.369742  0.876544  0.876544  1
  Zn  Zn14  1  0.499744  0.000256  0.000256  1
  Zn  Zn15  1  0.999744  0.500256  0.500256  1
  Zn  Zn16  1  0.000770  0.500821  0.999230  1
  Zn  Zn17  1  0.499179  0.999230  0.500821  1
  Zn  Zn18  1  0.000770  0.999230  0.500821  1
  Zn  Zn19  1  0.499179  0.500821  0.999230  1
  Zn  Zn20  1  0.332172  0.334598  0.334598  1
  Zn  Zn21  1  0.664470  0.665336  0.665336  1
  Zn  Zn22  1  0.334664  0.335530  0.995145  1
  Zn  Zn23  1  0.334664  0.995145  0.335530  1
  Zn  Zn24  1  0.665402  0.667828  0.001366  1
  Zn  Zn25  1  0.665402  0.001366  0.667828  1
  Zn  Zn26  1  0.998634  0.334598  0.334598  1
  Zn  Zn27  1  0.004855  0.665336  0.665336  1
  Zn  Zn28  1  0.000228  0.999772  0.999772  1
  As  As29  1  0.497205  0.502795  0.502795  1
