# generated using pymatgen
data_K2Ca(TcO3)2
_symmetry_space_group_name_H-M   'P 1'
_cell_length_a   6.23873322
_cell_length_b   6.23873324
_cell_length_c   6.99420097
_cell_angle_alpha   63.51309519
_cell_angle_beta   116.48689472
_cell_angle_gamma   119.99999685
_symmetry_Int_Tables_number   1
_chemical_formula_structural   K2Ca(TcO3)2
_chemical_formula_sum   'K2 Ca1 Tc2 O6'
_cell_volume   202.08880057
_cell_formula_units_Z   1
loop_
 _symmetry_equiv_pos_site_id
 _symmetry_equiv_pos_as_xyz
  1  'x, y, z'
loop_
 _atom_site_type_symbol
 _atom_site_label
 _atom_site_symmetry_multiplicity
 _atom_site_fract_x
 _atom_site_fract_y
 _atom_site_fract_z
 _atom_site_occupancy
  K  K0  1  0.791206  0.208795  0.373616  1
  K  K1  1  0.208795  0.791205  0.626384  1
  Ca  Ca2  1  0.000000  0.000000  0.000000  1
  Tc  Tc3  1  0.437268  0.562732  0.311804  1
  Tc  Tc4  1  0.562732  0.437268  0.688196  1
  O  O5  1  0.250217  0.255201  0.245232  1
  O  O6  1  0.744799  0.749783  0.245232  1
  O  O7  1  0.250217  0.749784  0.245232  1
  O  O8  1  0.749784  0.250215  0.754768  1
  O  O9  1  0.255202  0.250216  0.754768  1
  O  O10  1  0.749784  0.744799  0.754768  1
