# generated using pymatgen
data_KPrB12
_symmetry_space_group_name_H-M   'P 1'
_cell_length_a   5.91751584
_cell_length_b   5.91751642
_cell_length_c   5.91751600
_cell_angle_alpha   60.00000235
_cell_angle_beta   59.99999911
_cell_angle_gamma   59.99999942
_symmetry_Int_Tables_number   1
_chemical_formula_structural   KPrB12
_chemical_formula_sum   'K1 Pr1 B12'
_cell_volume   146.52217164
_cell_formula_units_Z   1
loop_
 _symmetry_equiv_pos_site_id
 _symmetry_equiv_pos_as_xyz
  1  'x, y, z'
loop_
 _atom_site_type_symbol
 _atom_site_label
 _atom_site_symmetry_multiplicity
 _atom_site_fract_x
 _atom_site_fract_y
 _atom_site_fract_z
 _atom_site_occupancy
  K  K0  1  0.500000  0.500000  0.500000  1
  Pr  Pr1  1  0.000000  0.000000  0.000000  1
  B  B2  1  0.898641  0.601359  0.601359  1
  B  B3  1  0.398641  0.101359  0.101359  1
  B  B4  1  0.898641  0.898641  0.601359  1
  B  B5  1  0.398641  0.398641  0.101359  1
  B  B6  1  0.601359  0.898641  0.601359  1
  B  B7  1  0.101359  0.398641  0.101359  1
  B  B8  1  0.601359  0.601359  0.898641  1
  B  B9  1  0.101359  0.101359  0.398641  1
  B  B10  1  0.898641  0.601359  0.898641  1
  B  B11  1  0.398641  0.101359  0.398641  1
  B  B12  1  0.601359  0.898641  0.898641  1
  B  B13  1  0.101359  0.398641  0.398641  1
