# generated using pymatgen
data_Hf3Mo2P3Os
_symmetry_space_group_name_H-M   'P 1'
_cell_length_a   6.76233500
_cell_length_b   6.83309316
_cell_length_c   3.49052400
_cell_angle_alpha   90.00000000
_cell_angle_beta   90.00000000
_cell_angle_gamma   119.65805381
_symmetry_Int_Tables_number   1
_chemical_formula_structural   Hf3Mo2P3Os
_chemical_formula_sum   'Hf3 Mo2 P3 Os1'
_cell_volume   140.15914280
_cell_formula_units_Z   1
loop_
 _symmetry_equiv_pos_site_id
 _symmetry_equiv_pos_as_xyz
  1  'x, y, z'
loop_
 _atom_site_type_symbol
 _atom_site_label
 _atom_site_symmetry_multiplicity
 _atom_site_fract_x
 _atom_site_fract_y
 _atom_site_fract_z
 _atom_site_occupancy
  Hf  Hf0  1  0.998440  0.592861  0.500000  1
  Hf  Hf1  1  0.405579  0.407139  0.500000  1
  Hf  Hf2  1  0.593306  0.000000  0.500000  1
  Mo  Mo3  1  0.750431  0.749913  0.000000  1
  Mo  Mo4  1  0.000518  0.250087  0.000000  1
  P  P5  1  0.664628  0.332339  0.000000  1
  P  P6  1  0.332288  0.667661  0.000000  1
  P  P7  1  0.005843  0.000000  0.500000  1
  Os  Os8  1  0.248967  0.000000  0.000000  1
