# generated using pymatgen
data_Hf2ScRe2Si3Os
_symmetry_space_group_name_H-M   'P 1'
_cell_length_a   6.96289026
_cell_length_b   6.96288977
_cell_length_c   3.39548400
_cell_angle_alpha   90.00000000
_cell_angle_beta   90.00000000
_cell_angle_gamma   120.32356875
_symmetry_Int_Tables_number   1
_chemical_formula_structural   Hf2ScRe2Si3Os
_chemical_formula_sum   'Hf2 Sc1 Re2 Si3 Os1'
_cell_volume   142.09739687
_cell_formula_units_Z   1
loop_
 _symmetry_equiv_pos_site_id
 _symmetry_equiv_pos_as_xyz
  1  'x, y, z'
loop_
 _atom_site_type_symbol
 _atom_site_label
 _atom_site_symmetry_multiplicity
 _atom_site_fract_x
 _atom_site_fract_y
 _atom_site_fract_z
 _atom_site_occupancy
  Hf  Hf0  1  0.596340  0.004083  0.500000  1
  Hf  Hf1  1  0.004083  0.596340  0.500000  1
  Sc  Sc2  1  0.401003  0.401003  0.500000  1
  Re  Re3  1  0.255270  0.996760  0.000000  1
  Re  Re4  1  0.996760  0.255270  0.000000  1
  Si  Si5  1  0.664223  0.335627  0.000000  1
  Si  Si6  1  0.335627  0.664223  0.000000  1
  Si  Si7  1  0.001210  0.001210  0.500000  1
  Os  Os8  1  0.745482  0.745482  0.000000  1
