# generated using pymatgen
data_La12InNi6
_symmetry_space_group_name_H-M   'P 1'
_cell_length_a   8.85427022
_cell_length_b   8.85426815
_cell_length_c   8.85427022
_cell_angle_alpha   109.51878967
_cell_angle_beta   109.46219954
_cell_angle_gamma   109.43268764
_symmetry_Int_Tables_number   1
_chemical_formula_structural   La12InNi6
_chemical_formula_sum   'La12 In1 Ni6'
_cell_volume   534.36259884
_cell_formula_units_Z   1
loop_
 _symmetry_equiv_pos_site_id
 _symmetry_equiv_pos_as_xyz
  1  'x, y, z'
loop_
 _atom_site_type_symbol
 _atom_site_label
 _atom_site_symmetry_multiplicity
 _atom_site_fract_x
 _atom_site_fract_y
 _atom_site_fract_z
 _atom_site_occupancy
  La  La0  1  0.817360  0.689406  0.506765  1
  La  La1  1  0.182640  0.310594  0.493235  1
  La  La2  1  0.182640  0.689406  0.872046  1
  La  La3  1  0.817360  0.310594  0.127954  1
  La  La4  1  0.689462  0.506715  0.817253  1
  La  La5  1  0.310538  0.493285  0.182747  1
  La  La6  1  0.689462  0.872209  0.182747  1
  La  La7  1  0.310538  0.127791  0.817253  1
  La  La8  1  0.507279  0.817499  0.689780  1
  La  La9  1  0.492721  0.182501  0.310220  1
  La  La10  1  0.127720  0.817499  0.310220  1
  La  La11  1  0.872280  0.182501  0.689780  1
  In  In12  1  0.000000  0.000000  0.000000  1
  Ni  Ni13  1  0.874552  0.374552  0.500000  1
  Ni  Ni14  1  0.125448  0.625448  0.500000  1
  Ni  Ni15  1  0.375195  0.500000  0.875195  1
  Ni  Ni16  1  0.624805  0.500000  0.124805  1
  Ni  Ni17  1  0.500000  0.875227  0.375227  1
  Ni  Ni18  1  0.500000  0.124773  0.624773  1
