# generated using pymatgen
data_TbDy4Mg3(Cu4P3)4
_symmetry_space_group_name_H-M   'P 1'
_cell_length_a   12.77989000
_cell_length_b   12.77989052
_cell_length_c   3.81716700
_cell_angle_alpha   90.00000000
_cell_angle_beta   90.00000000
_cell_angle_gamma   119.99999865
_symmetry_Int_Tables_number   1
_chemical_formula_structural   TbDy4Mg3(Cu4P3)4
_chemical_formula_sum   'Tb1 Dy4 Mg3 Cu16 P12'
_cell_volume   539.91581328
_cell_formula_units_Z   1
loop_
 _symmetry_equiv_pos_site_id
 _symmetry_equiv_pos_as_xyz
  1  'x, y, z'
loop_
 _atom_site_type_symbol
 _atom_site_label
 _atom_site_symmetry_multiplicity
 _atom_site_fract_x
 _atom_site_fract_y
 _atom_site_fract_z
 _atom_site_occupancy
  Tb  Tb0  1  0.333333  0.666667  0.500000  1
  Dy  Dy1  1  0.666667  0.333333  0.500000  1
  Dy  Dy2  1  0.999983  0.821417  0.000000  1
  Dy  Dy3  1  0.178583  0.178567  0.000000  1
  Dy  Dy4  1  0.821433  0.000017  0.000000  1
  Mg  Mg5  1  0.000053  0.444806  0.500000  1
  Mg  Mg6  1  0.555194  0.555247  0.500000  1
  Mg  Mg7  1  0.444753  0.999947  0.500000  1
  Cu  Cu8  1  0.527981  0.879398  0.000000  1
  Cu  Cu9  1  0.120602  0.648584  0.000000  1
  Cu  Cu10  1  0.351416  0.472019  0.000000  1
  Cu  Cu11  1  0.472854  0.351971  0.000000  1
  Cu  Cu12  1  0.879117  0.527146  0.000000  1
  Cu  Cu13  1  0.648029  0.120883  0.000000  1
  Cu  Cu14  1  0.999408  0.283333  0.000000  1
  Cu  Cu15  1  0.716667  0.716075  0.000000  1
  Cu  Cu16  1  0.283925  0.000592  0.000000  1
  Cu  Cu17  1  0.624106  0.802386  0.500000  1
  Cu  Cu18  1  0.197614  0.821719  0.500000  1
  Cu  Cu19  1  0.178281  0.375894  0.500000  1
  Cu  Cu20  1  0.377198  0.179587  0.500000  1
  Cu  Cu21  1  0.802389  0.622802  0.500000  1
  Cu  Cu22  1  0.820413  0.197611  0.500000  1
  Cu  Cu23  1  0.000000  0.000000  0.500000  1
  P  P24  1  0.000129  0.647491  0.500000  1
  P  P25  1  0.352509  0.352637  0.500000  1
  P  P26  1  0.647363  0.999871  0.500000  1
  P  P27  1  0.510343  0.680657  0.000000  1
  P  P28  1  0.319343  0.829686  0.000000  1
  P  P29  1  0.170314  0.489657  0.000000  1
  P  P30  1  0.490229  0.170877  0.000000  1
  P  P31  1  0.680648  0.509771  0.000000  1
  P  P32  1  0.829123  0.319352  0.000000  1
  P  P33  1  0.999650  0.175158  0.500000  1
  P  P34  1  0.824842  0.824491  0.500000  1
  P  P35  1  0.175509  0.000350  0.500000  1
