# generated using pymatgen
data_Zr2AlSbTe2
_symmetry_space_group_name_H-M   'P 1'
_cell_length_a   3.99757700
_cell_length_b   3.99757700
_cell_length_c   8.79252200
_cell_angle_alpha   90.00000000
_cell_angle_beta   90.00000000
_cell_angle_gamma   90.00000000
_symmetry_Int_Tables_number   1
_chemical_formula_structural   Zr2AlSbTe2
_chemical_formula_sum   'Zr2 Al1 Sb1 Te2'
_cell_volume   140.50996937
_cell_formula_units_Z   1
loop_
 _symmetry_equiv_pos_site_id
 _symmetry_equiv_pos_as_xyz
  1  'x, y, z'
loop_
 _atom_site_type_symbol
 _atom_site_label
 _atom_site_symmetry_multiplicity
 _atom_site_fract_x
 _atom_site_fract_y
 _atom_site_fract_z
 _atom_site_occupancy
  Zr  Zr0  1  0.500000  0.000000  0.258458  1
  Zr  Zr1  1  0.000000  0.500000  0.741542  1
  Al  Al2  1  0.000000  0.000000  0.000000  1
  Sb  Sb3  1  0.500000  0.500000  0.000000  1
  Te  Te4  1  0.500000  0.000000  0.620172  1
  Te  Te5  1  0.000000  0.500000  0.379828  1
