# generated using pymatgen
data_La18Yb2(Ga3Sb)3
_symmetry_space_group_name_H-M   'P 1'
_cell_length_a   8.24034600
_cell_length_b   8.24034600
_cell_length_c   14.31914100
_cell_angle_alpha   90.00000000
_cell_angle_beta   90.00000000
_cell_angle_gamma   90.00000000
_symmetry_Int_Tables_number   1
_chemical_formula_structural   La18Yb2(Ga3Sb)3
_chemical_formula_sum   'La18 Yb2 Ga9 Sb3'
_cell_volume   972.31695856
_cell_formula_units_Z   1
loop_
 _symmetry_equiv_pos_site_id
 _symmetry_equiv_pos_as_xyz
  1  'x, y, z'
loop_
 _atom_site_type_symbol
 _atom_site_label
 _atom_site_symmetry_multiplicity
 _atom_site_fract_x
 _atom_site_fract_y
 _atom_site_fract_z
 _atom_site_occupancy
  La  La0  1  0.334920  0.327826  0.104346  1
  La  La1  1  0.835332  0.825220  0.894018  1
  La  La2  1  0.838691  0.177486  0.398649  1
  La  La3  1  0.164668  0.174780  0.894018  1
  La  La4  1  0.665080  0.672174  0.104346  1
  La  La5  1  0.000000  0.500000  0.708220  1
  La  La6  1  0.832836  0.834905  0.605281  1
  La  La7  1  0.322514  0.338691  0.398649  1
  La  La8  1  0.172174  0.834920  0.104346  1
  La  La9  1  0.167164  0.165095  0.605281  1
  La  La10  1  0.827826  0.165080  0.104346  1
  La  La11  1  0.334905  0.667164  0.605281  1
  La  La12  1  0.500000  0.000000  0.277984  1
  La  La13  1  0.674780  0.335332  0.894018  1
  La  La14  1  0.665095  0.332836  0.605281  1
  La  La15  1  0.325220  0.664668  0.894018  1
  La  La16  1  0.161309  0.822514  0.398649  1
  La  La17  1  0.677486  0.661309  0.398649  1
  Yb  Yb18  1  0.500000  0.000000  0.753607  1
  Yb  Yb19  1  0.000000  0.500000  0.248656  1
  Ga  Ga20  1  0.619947  0.377704  0.247959  1
  Ga  Ga21  1  0.877271  0.123829  0.752584  1
  Ga  Ga22  1  0.877704  0.880053  0.247959  1
  Ga  Ga23  1  0.122729  0.876171  0.752584  1
  Ga  Ga24  1  0.376171  0.377271  0.752584  1
  Ga  Ga25  1  0.122296  0.119947  0.247959  1
  Ga  Ga26  1  0.380053  0.622296  0.247959  1
  Ga  Ga27  1  0.623829  0.622729  0.752584  1
  Ga  Ga28  1  0.000000  0.500000  0.491141  1
  Sb  Sb29  1  0.500000  0.000000  0.506825  1
  Sb  Sb30  1  0.000000  0.500000  0.007185  1
  Sb  Sb31  1  0.500000  0.000000  0.995034  1
