# generated using pymatgen
data_Sm6Ti4Al12Rh7
_symmetry_space_group_name_H-M   'P 1'
_cell_length_a   9.00744818
_cell_length_b   9.00744862
_cell_length_c   9.00744900
_cell_angle_alpha   60.00000230
_cell_angle_beta   60.00000066
_cell_angle_gamma   59.99999783
_symmetry_Int_Tables_number   1
_chemical_formula_structural   Sm6Ti4Al12Rh7
_chemical_formula_sum   'Sm6 Ti4 Al12 Rh7'
_cell_volume   516.76177665
_cell_formula_units_Z   1
loop_
 _symmetry_equiv_pos_site_id
 _symmetry_equiv_pos_as_xyz
  1  'x, y, z'
loop_
 _atom_site_type_symbol
 _atom_site_label
 _atom_site_symmetry_multiplicity
 _atom_site_fract_x
 _atom_site_fract_y
 _atom_site_fract_z
 _atom_site_occupancy
  Sm  Sm0  1  0.702589  0.297411  0.297411  1
  Sm  Sm1  1  0.702589  0.297411  0.702589  1
  Sm  Sm2  1  0.702589  0.702589  0.297411  1
  Sm  Sm3  1  0.297411  0.702589  0.702589  1
  Sm  Sm4  1  0.297411  0.702589  0.297411  1
  Sm  Sm5  1  0.297411  0.297411  0.702589  1
  Ti  Ti6  1  0.643108  0.118964  0.118964  1
  Ti  Ti7  1  0.118964  0.643108  0.118964  1
  Ti  Ti8  1  0.118964  0.118964  0.643108  1
  Ti  Ti9  1  0.118964  0.118964  0.118964  1
  Al  Al10  1  0.356905  0.881032  0.881032  1
  Al  Al11  1  0.881032  0.356905  0.881032  1
  Al  Al12  1  0.881032  0.881032  0.356905  1
  Al  Al13  1  0.881032  0.881032  0.881032  1
  Al  Al14  1  0.014362  0.328547  0.328547  1
  Al  Al15  1  0.328547  0.014362  0.328547  1
  Al  Al16  1  0.328547  0.328547  0.014362  1
  Al  Al17  1  0.328547  0.328547  0.328547  1
  Al  Al18  1  0.981568  0.672811  0.672811  1
  Al  Al19  1  0.672811  0.981568  0.672811  1
  Al  Al20  1  0.672811  0.672811  0.981568  1
  Al  Al21  1  0.672811  0.672811  0.672811  1
  Rh  Rh22  1  0.000000  0.000000  0.000000  1
  Rh  Rh23  1  0.498603  0.001397  0.001397  1
  Rh  Rh24  1  0.498603  0.001397  0.498603  1
  Rh  Rh25  1  0.498603  0.498603  0.001397  1
  Rh  Rh26  1  0.001397  0.498603  0.498603  1
  Rh  Rh27  1  0.001397  0.498603  0.001397  1
  Rh  Rh28  1  0.001397  0.001397  0.498603  1
