# generated using pymatgen
data_Gd4Dy8Co6Sb
_symmetry_space_group_name_H-M   'P 1'
_cell_length_a   8.39657736
_cell_length_b   8.39657773
_cell_length_c   8.39657800
_cell_angle_alpha   109.41224289
_cell_angle_beta   109.60612764
_cell_angle_gamma   109.39537979
_symmetry_Int_Tables_number   1
_chemical_formula_structural   Gd4Dy8Co6Sb
_chemical_formula_sum   'Gd4 Dy8 Co6 Sb1'
_cell_volume   455.70438408
_cell_formula_units_Z   1
loop_
 _symmetry_equiv_pos_site_id
 _symmetry_equiv_pos_as_xyz
  1  'x, y, z'
loop_
 _atom_site_type_symbol
 _atom_site_label
 _atom_site_symmetry_multiplicity
 _atom_site_fract_x
 _atom_site_fract_y
 _atom_site_fract_z
 _atom_site_occupancy
  Gd  Gd0  1  0.500365  0.804441  0.695924  1
  Gd  Gd1  1  0.499635  0.195559  0.304076  1
  Gd  Gd2  1  0.108518  0.804441  0.304076  1
  Gd  Gd3  1  0.891482  0.195559  0.695924  1
  Dy  Dy4  1  0.805767  0.695417  0.501184  1
  Dy  Dy5  1  0.194233  0.304583  0.498816  1
  Dy  Dy6  1  0.194233  0.695417  0.889649  1
  Dy  Dy7  1  0.805767  0.304583  0.110351  1
  Dy  Dy8  1  0.694407  0.500362  0.805955  1
  Dy  Dy9  1  0.305593  0.499638  0.194045  1
  Dy  Dy10  1  0.694407  0.888452  0.194045  1
  Dy  Dy11  1  0.305593  0.111548  0.805955  1
  Co  Co12  1  0.886263  0.386263  0.500000  1
  Co  Co13  1  0.113737  0.613737  0.500000  1
  Co  Co14  1  0.386632  0.500000  0.886632  1
  Co  Co15  1  0.613368  0.500000  0.113368  1
  Co  Co16  1  0.500000  0.886262  0.386262  1
  Co  Co17  1  0.500000  0.113738  0.613738  1
  Sb  Sb18  1  0.000000  0.000000  0.000000  1
