# generated using pymatgen
data_HoLuZrFe9
_symmetry_space_group_name_H-M   'P 1'
_cell_length_a   8.51662145
_cell_length_b   8.51662118
_cell_length_c   8.51662278
_cell_angle_alpha   34.31943877
_cell_angle_beta   34.31944310
_cell_angle_gamma   34.31943728
_symmetry_Int_Tables_number   1
_chemical_formula_structural   HoLuZrFe9
_chemical_formula_sum   'Ho1 Lu1 Zr1 Fe9'
_cell_volume   175.12768562
_cell_formula_units_Z   1
loop_
 _symmetry_equiv_pos_site_id
 _symmetry_equiv_pos_as_xyz
  1  'x, y, z'
loop_
 _atom_site_type_symbol
 _atom_site_label
 _atom_site_symmetry_multiplicity
 _atom_site_fract_x
 _atom_site_fract_y
 _atom_site_fract_z
 _atom_site_occupancy
  Ho  Ho0  1  0.999681  0.999681  0.999681  1
  Lu  Lu1  1  0.142196  0.142196  0.142196  1
  Zr  Zr2  1  0.857684  0.857684  0.857684  1
  Fe  Fe3  1  0.500186  0.500186  0.500186  1
  Fe  Fe4  1  0.332448  0.332448  0.332448  1
  Fe  Fe5  1  0.667267  0.667267  0.667267  1
  Fe  Fe6  1  0.082620  0.584049  0.584049  1
  Fe  Fe7  1  0.584049  0.584049  0.082620  1
  Fe  Fe8  1  0.584049  0.082620  0.584049  1
  Fe  Fe9  1  0.416080  0.917661  0.416080  1
  Fe  Fe10  1  0.917661  0.416080  0.416080  1
  Fe  Fe11  1  0.416080  0.416080  0.917661  1
