# generated using pymatgen
data_Lu4Sn5GeIr7
_symmetry_space_group_name_H-M   'P 1'
_cell_length_a   7.48962426
_cell_length_b   7.48962394
_cell_length_c   7.48962508
_cell_angle_alpha   109.43616197
_cell_angle_beta   109.48876068
_cell_angle_gamma   109.48874736
_symmetry_Int_Tables_number   1
_chemical_formula_structural   Lu4Sn5GeIr7
_chemical_formula_sum   'Lu4 Sn5 Ge1 Ir7'
_cell_volume   323.41346308
_cell_formula_units_Z   1
loop_
 _symmetry_equiv_pos_site_id
 _symmetry_equiv_pos_as_xyz
  1  'x, y, z'
loop_
 _atom_site_type_symbol
 _atom_site_label
 _atom_site_symmetry_multiplicity
 _atom_site_fract_x
 _atom_site_fract_y
 _atom_site_fract_z
 _atom_site_occupancy
  Lu  Lu0  1  0.000000  0.989909  0.525318  1
  Lu  Lu1  1  0.000000  0.525318  0.989909  1
  Lu  Lu2  1  0.464590  0.989909  0.989909  1
  Lu  Lu3  1  0.535410  0.525318  0.525318  1
  Sn  Sn4  1  0.688421  0.700315  0.011894  1
  Sn  Sn5  1  0.311579  0.011894  0.323473  1
  Sn  Sn6  1  0.000000  0.293243  0.293243  1
  Sn  Sn7  1  0.311579  0.323473  0.011894  1
  Sn  Sn8  1  0.688421  0.011894  0.700315  1
  Ge  Ge9  1  0.000000  0.662617  0.662617  1
  Ir  Ir10  1  0.754056  0.250125  0.496069  1
  Ir  Ir11  1  0.754056  0.496069  0.250125  1
  Ir  Ir12  1  0.500000  0.258006  0.758006  1
  Ir  Ir13  1  0.245944  0.496069  0.742013  1
  Ir  Ir14  1  0.245944  0.742013  0.496069  1
  Ir  Ir15  1  0.500000  0.758006  0.258006  1
  Ir  Ir16  1  0.000000  0.965824  0.965824  1
