# generated using pymatgen
data_Yb3VFeC6
_symmetry_space_group_name_H-M   'P 1'
_cell_length_a   8.09846100
_cell_length_b   8.09846115
_cell_length_c   5.01047400
_cell_angle_alpha   90.00000000
_cell_angle_beta   90.00000000
_cell_angle_gamma   119.99998712
_symmetry_Int_Tables_number   1
_chemical_formula_structural   Yb3VFeC6
_chemical_formula_sum   'Yb6 V2 Fe2 C12'
_cell_volume   284.58663419
_cell_formula_units_Z   2
loop_
 _symmetry_equiv_pos_site_id
 _symmetry_equiv_pos_as_xyz
  1  'x, y, z'
loop_
 _atom_site_type_symbol
 _atom_site_label
 _atom_site_symmetry_multiplicity
 _atom_site_fract_x
 _atom_site_fract_y
 _atom_site_fract_z
 _atom_site_occupancy
  Yb  Yb0  1  0.608035  0.681400  0.750000  1
  Yb  Yb1  1  0.926635  0.608035  0.250000  1
  Yb  Yb2  1  0.681400  0.073365  0.250000  1
  Yb  Yb3  1  0.318600  0.926635  0.750000  1
  Yb  Yb4  1  0.073365  0.391965  0.750000  1
  Yb  Yb5  1  0.391965  0.318600  0.250000  1
  V  V6  1  0.000000  0.000000  0.500000  1
  V  V7  1  0.000000  0.000000  0.000000  1
  Fe  Fe8  1  0.666667  0.333333  0.750000  1
  Fe  Fe9  1  0.333333  0.666667  0.250000  1
  C  C10  1  0.951974  0.765325  0.750000  1
  C  C11  1  0.186648  0.951974  0.250000  1
  C  C12  1  0.765325  0.813352  0.250000  1
  C  C13  1  0.234675  0.186648  0.750000  1
  C  C14  1  0.813352  0.048026  0.750000  1
  C  C15  1  0.048026  0.234675  0.250000  1
  C  C16  1  0.856119  0.574324  0.750000  1
  C  C17  1  0.281794  0.856119  0.250000  1
  C  C18  1  0.574324  0.718206  0.250000  1
  C  C19  1  0.425676  0.281794  0.750000  1
  C  C20  1  0.143881  0.425676  0.250000  1
  C  C21  1  0.718206  0.143881  0.750000  1
