# generated using pymatgen
data_Tm8TiSi16Tc11
_symmetry_space_group_name_H-M   'P 1'
_cell_length_a   6.77443309
_cell_length_b   6.78882762
_cell_length_c   12.60473530
_cell_angle_alpha   90.09929110
_cell_angle_beta   90.31018455
_cell_angle_gamma   90.18457398
_symmetry_Int_Tables_number   1
_chemical_formula_structural   Tm8TiSi16Tc11
_chemical_formula_sum   'Tm8 Ti1 Si16 Tc11'
_cell_volume   579.68516440
_cell_formula_units_Z   1
loop_
 _symmetry_equiv_pos_site_id
 _symmetry_equiv_pos_as_xyz
  1  'x, y, z'
loop_
 _atom_site_type_symbol
 _atom_site_label
 _atom_site_symmetry_multiplicity
 _atom_site_fract_x
 _atom_site_fract_y
 _atom_site_fract_z
 _atom_site_occupancy
  Tm  Tm0  1  0.335499  0.995188  0.468072  1
  Tm  Tm1  1  0.500532  0.835898  0.720602  1
  Tm  Tm2  1  0.495391  0.159520  0.218972  1
  Tm  Tm3  1  0.837784  0.500264  0.278957  1
  Tm  Tm4  1  0.160109  0.493140  0.782011  1
  Tm  Tm5  1  0.660437  0.001314  0.970653  1
  Tm  Tm6  1  0.998909  0.339490  0.529928  1
  Tm  Tm7  1  0.002337  0.658854  0.030469  1
  Ti  Ti8  1  0.996362  0.830241  0.621624  1
  Si  Si9  1  0.200775  0.120897  0.684660  1
  Si  Si10  1  0.383070  0.690834  0.937597  1
  Si  Si11  1  0.617428  0.309239  0.438034  1
  Si  Si12  1  0.690545  0.383516  0.063984  1
  Si  Si13  1  0.308251  0.619677  0.562496  1
  Si  Si14  1  0.808479  0.882608  0.187493  1
  Si  Si15  1  0.119815  0.195324  0.314022  1
  Si  Si16  1  0.883545  0.801878  0.815772  1
  Si  Si17  1  0.270327  0.979012  0.062239  1
  Si  Si18  1  0.527604  0.778573  0.314285  1
  Si  Si19  1  0.474116  0.217898  0.814604  1
  Si  Si20  1  0.781575  0.524385  0.687739  1
  Si  Si21  1  0.224550  0.476615  0.185859  1
  Si  Si22  1  0.707939  0.041240  0.564540  1
  Si  Si23  1  0.977972  0.267995  0.937462  1
  Si  Si24  1  0.031594  0.720861  0.429202  1
  Tc  Tc25  1  0.330266  0.333087  0.001314  1
  Tc  Tc26  1  0.167924  0.831286  0.248266  1
  Tc  Tc27  1  0.835809  0.162135  0.749435  1
  Tc  Tc28  1  0.672629  0.667029  0.501214  1
  Tc  Tc29  1  0.187621  0.973179  0.869103  1
  Tc  Tc30  1  0.522230  0.683290  0.122717  1
  Tc  Tc31  1  0.490584  0.324332  0.624916  1
  Tc  Tc32  1  0.676522  0.510751  0.878416  1
  Tc  Tc33  1  0.323307  0.480723  0.376022  1
  Tc  Tc34  1  0.825207  0.025380  0.375556  1
  Tc  Tc35  1  0.972953  0.184349  0.131762  1
