# generated using pymatgen
data_Zr6Al6HgPt5
_symmetry_space_group_name_H-M   'P 1'
_cell_length_a   6.86191200
_cell_length_b   6.86191240
_cell_length_c   8.09998100
_cell_angle_alpha   90.00000000
_cell_angle_beta   90.00000000
_cell_angle_gamma   119.99999934
_symmetry_Int_Tables_number   1
_chemical_formula_structural   Zr6Al6HgPt5
_chemical_formula_sum   'Zr6 Al6 Hg1 Pt5'
_cell_volume   330.29724304
_cell_formula_units_Z   1
loop_
 _symmetry_equiv_pos_site_id
 _symmetry_equiv_pos_as_xyz
  1  'x, y, z'
loop_
 _atom_site_type_symbol
 _atom_site_label
 _atom_site_symmetry_multiplicity
 _atom_site_fract_x
 _atom_site_fract_y
 _atom_site_fract_z
 _atom_site_occupancy
  Zr  Zr0  1  0.993802  0.583118  0.758567  1
  Zr  Zr1  1  0.992744  0.582545  0.240831  1
  Zr  Zr2  1  0.589801  0.007256  0.240831  1
  Zr  Zr3  1  0.589315  0.006198  0.758567  1
  Zr  Zr4  1  0.417455  0.410199  0.240831  1
  Zr  Zr5  1  0.416882  0.410685  0.758567  1
  Al  Al6  1  0.982914  0.234918  0.500438  1
  Al  Al7  1  0.751191  0.754915  0.000140  1
  Al  Al8  1  0.003724  0.248809  0.000140  1
  Al  Al9  1  0.252003  0.017086  0.500438  1
  Al  Al10  1  0.245085  0.996276  0.000140  1
  Al  Al11  1  0.765082  0.747997  0.500438  1
  Hg  Hg12  1  0.333333  0.666667  0.499200  1
  Pt  Pt13  1  0.666667  0.333333  0.500640  1
  Pt  Pt14  1  0.666667  0.333333  0.998956  1
  Pt  Pt15  1  0.000000  0.000000  0.250140  1
  Pt  Pt16  1  0.000000  0.000000  0.750657  1
  Pt  Pt17  1  0.333333  0.666667  0.000476  1
