# generated using pymatgen
data_Tm2FeCo(Ni4P3)2
_symmetry_space_group_name_H-M   'P 1'
_cell_length_a   3.67602000
_cell_length_b   10.28852000
_cell_length_c   11.79632100
_cell_angle_alpha   90.00000000
_cell_angle_beta   90.00000000
_cell_angle_gamma   90.00000000
_symmetry_Int_Tables_number   1
_chemical_formula_structural   Tm2FeCo(Ni4P3)2
_chemical_formula_sum   'Tm4 Fe2 Co2 Ni16 P12'
_cell_volume   446.14635968
_cell_formula_units_Z   2
loop_
 _symmetry_equiv_pos_site_id
 _symmetry_equiv_pos_as_xyz
  1  'x, y, z'
loop_
 _atom_site_type_symbol
 _atom_site_label
 _atom_site_symmetry_multiplicity
 _atom_site_fract_x
 _atom_site_fract_y
 _atom_site_fract_z
 _atom_site_occupancy
  Tm  Tm0  1  0.250000  0.579415  0.704014  1
  Tm  Tm1  1  0.250000  0.920585  0.204014  1
  Tm  Tm2  1  0.750000  0.420380  0.295876  1
  Tm  Tm3  1  0.750000  0.079620  0.795876  1
  Fe  Fe4  1  0.750000  0.534941  0.067571  1
  Fe  Fe5  1  0.750000  0.965059  0.567571  1
  Co  Co6  1  0.250000  0.465225  0.931084  1
  Co  Co7  1  0.250000  0.034775  0.431084  1
  Ni  Ni8  1  0.250000  0.713077  0.992977  1
  Ni  Ni9  1  0.250000  0.786923  0.492977  1
  Ni  Ni10  1  0.750000  0.285685  0.005916  1
  Ni  Ni11  1  0.750000  0.214315  0.505916  1
  Ni  Ni12  1  0.250000  0.405814  0.487241  1
  Ni  Ni13  1  0.250000  0.094186  0.987241  1
  Ni  Ni14  1  0.750000  0.594254  0.513208  1
  Ni  Ni15  1  0.750000  0.905746  0.013208  1
  Ni  Ni16  1  0.250000  0.225636  0.177376  1
  Ni  Ni17  1  0.250000  0.274364  0.677376  1
  Ni  Ni18  1  0.750000  0.774504  0.822729  1
  Ni  Ni19  1  0.750000  0.725496  0.322729  1
  Ni  Ni20  1  0.250000  0.878307  0.701365  1
  Ni  Ni21  1  0.250000  0.621693  0.201365  1
  Ni  Ni22  1  0.750000  0.120940  0.299486  1
  Ni  Ni23  1  0.750000  0.379060  0.799486  1
  P  P24  1  0.250000  0.425061  0.113407  1
  P  P25  1  0.250000  0.074939  0.613407  1
  P  P26  1  0.750000  0.576036  0.887405  1
  P  P27  1  0.750000  0.923964  0.387405  1
  P  P28  1  0.250000  0.267504  0.869205  1
  P  P29  1  0.250000  0.232496  0.369205  1
  P  P30  1  0.750000  0.731664  0.130706  1
  P  P31  1  0.750000  0.768336  0.630706  1
  P  P32  1  0.250000  0.601971  0.393171  1
  P  P33  1  0.250000  0.898029  0.893171  1
  P  P34  1  0.750000  0.397982  0.607262  1
  P  P35  1  0.750000  0.102018  0.107262  1
