# generated using pymatgen
data_DyTa7(NbN6)2
_symmetry_space_group_name_H-M   'P 1'
_cell_length_a   5.28685547
_cell_length_b   5.29017940
_cell_length_c   10.52619499
_cell_angle_alpha   89.95037748
_cell_angle_beta   90.02482704
_cell_angle_gamma   120.02081702
_symmetry_Int_Tables_number   1
_chemical_formula_structural   DyTa7(NbN6)2
_chemical_formula_sum   'Dy1 Ta7 Nb2 N12'
_cell_volume   254.90513179
_cell_formula_units_Z   1
loop_
 _symmetry_equiv_pos_site_id
 _symmetry_equiv_pos_as_xyz
  1  'x, y, z'
loop_
 _atom_site_type_symbol
 _atom_site_label
 _atom_site_symmetry_multiplicity
 _atom_site_fract_x
 _atom_site_fract_y
 _atom_site_fract_z
 _atom_site_occupancy
  Dy  Dy0  1  0.332679  0.666340  0.500000  1
  Ta  Ta1  1  0.664561  0.332280  0.000000  1
  Ta  Ta2  1  0.664882  0.332440  0.500000  1
  Ta  Ta3  1  0.333692  0.666846  0.000000  1
  Ta  Ta4  1  0.675655  0.997962  0.754870  1
  Ta  Ta5  1  0.675655  0.677693  0.245130  1
  Ta  Ta6  1  0.002277  0.324827  0.245170  1
  Ta  Ta7  1  0.002277  0.677450  0.754830  1
  Nb  Nb8  1  0.323781  0.325576  0.755748  1
  Nb  Nb9  1  0.323781  0.998205  0.244252  1
  N  N10  1  0.351567  0.336370  0.369171  1
  N  N11  1  0.671558  0.018781  0.369729  1
  N  N12  1  0.976889  0.643174  0.369235  1
  N  N13  1  0.996139  0.342084  0.882471  1
  N  N14  1  0.663113  0.000231  0.116932  1
  N  N15  1  0.663113  0.662881  0.883068  1
  N  N16  1  0.341115  0.996335  0.882665  1
  N  N17  1  0.671558  0.652777  0.630271  1
  N  N18  1  0.976889  0.333714  0.630765  1
  N  N19  1  0.996139  0.654054  0.117529  1
  N  N20  1  0.351567  0.015197  0.630829  1
  N  N21  1  0.341115  0.344780  0.117335  1
