# generated using pymatgen
data_Nd4LuSn3
_symmetry_space_group_name_H-M   'P 1'
_cell_length_a   9.19325400
_cell_length_b   9.19325406
_cell_length_c   6.73527200
_cell_angle_alpha   90.00000000
_cell_angle_beta   90.00000000
_cell_angle_gamma   120.00000698
_symmetry_Int_Tables_number   1
_chemical_formula_structural   Nd4LuSn3
_chemical_formula_sum   'Nd8 Lu2 Sn6'
_cell_volume   492.97428062
_cell_formula_units_Z   2
loop_
 _symmetry_equiv_pos_site_id
 _symmetry_equiv_pos_as_xyz
  1  'x, y, z'
loop_
 _atom_site_type_symbol
 _atom_site_label
 _atom_site_symmetry_multiplicity
 _atom_site_fract_x
 _atom_site_fract_y
 _atom_site_fract_z
 _atom_site_occupancy
  Nd  Nd0  1  0.666667  0.333333  0.000000  1
  Nd  Nd1  1  0.333333  0.666667  0.000000  1
  Nd  Nd2  1  0.758165  0.758165  0.747483  1
  Nd  Nd3  1  0.241835  0.000000  0.747483  1
  Nd  Nd4  1  0.000000  0.241835  0.747483  1
  Nd  Nd5  1  0.241835  0.241835  0.252517  1
  Nd  Nd6  1  0.758165  0.000000  0.252517  1
  Nd  Nd7  1  0.000000  0.758165  0.252517  1
  Lu  Lu8  1  0.333333  0.666667  0.500000  1
  Lu  Lu9  1  0.666667  0.333333  0.500000  1
  Sn  Sn10  1  0.397070  0.397070  0.741924  1
  Sn  Sn11  1  0.602930  0.000000  0.741924  1
  Sn  Sn12  1  0.000000  0.602930  0.741924  1
  Sn  Sn13  1  0.602930  0.602930  0.258076  1
  Sn  Sn14  1  0.397070  0.000000  0.258076  1
  Sn  Sn15  1  0.000000  0.397070  0.258076  1
