# generated using pymatgen
data_Tb3Pr16ErPb16
_symmetry_space_group_name_H-M   'P 1'
_cell_length_a   8.40179085
_cell_length_b   16.25266000
_cell_length_c   8.52520400
_cell_angle_alpha   90.00000000
_cell_angle_beta   90.03805948
_cell_angle_gamma   90.00000000
_symmetry_Int_Tables_number   1
_chemical_formula_structural   Tb3Pr16ErPb16
_chemical_formula_sum   'Tb3 Pr16 Er1 Pb16'
_cell_volume   1164.12871206
_cell_formula_units_Z   1
loop_
 _symmetry_equiv_pos_site_id
 _symmetry_equiv_pos_as_xyz
  1  'x, y, z'
loop_
 _atom_site_type_symbol
 _atom_site_label
 _atom_site_symmetry_multiplicity
 _atom_site_fract_x
 _atom_site_fract_y
 _atom_site_fract_z
 _atom_site_occupancy
  Tb  Tb0  1  0.293415  0.750000  0.003614  1
  Tb  Tb1  1  0.206826  0.250000  0.503690  1
  Tb  Tb2  1  0.706709  0.250000  0.996339  1
  Pr  Pr3  1  0.624888  0.619149  0.157494  1
  Pr  Pr4  1  0.124470  0.880608  0.342645  1
  Pr  Pr5  1  0.375246  0.119160  0.842423  1
  Pr  Pr6  1  0.875335  0.380728  0.657405  1
  Pr  Pr7  1  0.375246  0.380840  0.842423  1
  Pr  Pr8  1  0.875335  0.119272  0.657405  1
  Pr  Pr9  1  0.624888  0.880851  0.157494  1
  Pr  Pr10  1  0.124470  0.619392  0.342645  1
  Pr  Pr11  1  0.468216  0.600253  0.678318  1
  Pr  Pr12  1  0.968780  0.899817  0.821865  1
  Pr  Pr13  1  0.531464  0.100131  0.321832  1
  Pr  Pr14  1  0.031413  0.399701  0.178104  1
  Pr  Pr15  1  0.531464  0.399869  0.321832  1
  Pr  Pr16  1  0.031413  0.100299  0.178104  1
  Pr  Pr17  1  0.468216  0.899747  0.678318  1
  Pr  Pr18  1  0.968780  0.600183  0.821865  1
  Er  Er19  1  0.792661  0.750000  0.495742  1
  Pb  Pb20  1  0.718013  0.453453  0.968178  1
  Pb  Pb21  1  0.217717  0.046225  0.531325  1
  Pb  Pb22  1  0.282294  0.954113  0.031891  1
  Pb  Pb23  1  0.781823  0.546108  0.468684  1
  Pb  Pb24  1  0.282294  0.545887  0.031891  1
  Pb  Pb25  1  0.781823  0.953892  0.468684  1
  Pb  Pb26  1  0.718013  0.046547  0.968178  1
  Pb  Pb27  1  0.217717  0.453775  0.531325  1
  Pb  Pb28  1  0.431147  0.750000  0.375788  1
  Pb  Pb29  1  0.930883  0.750000  0.124994  1
  Pb  Pb30  1  0.569461  0.250000  0.624943  1
  Pb  Pb31  1  0.069318  0.250000  0.875129  1
  Pb  Pb32  1  0.659262  0.750000  0.846258  1
  Pb  Pb33  1  0.158413  0.750000  0.653259  1
  Pb  Pb34  1  0.340910  0.250000  0.153123  1
  Pb  Pb35  1  0.841682  0.250000  0.346788  1
