# generated using pymatgen
data_TbPu6NbF30
_symmetry_space_group_name_H-M   'P 1'
_cell_length_a   8.45675989
_cell_length_b   8.45170092
_cell_length_c   8.45676200
_cell_angle_alpha   100.25970952
_cell_angle_beta   100.54302688
_cell_angle_gamma   100.25972582
_symmetry_Int_Tables_number   1
_chemical_formula_structural   TbPu6NbF30
_chemical_formula_sum   'Tb1 Pu6 Nb1 F30'
_cell_volume   570.69535195
_cell_formula_units_Z   1
loop_
 _symmetry_equiv_pos_site_id
 _symmetry_equiv_pos_as_xyz
  1  'x, y, z'
loop_
 _atom_site_type_symbol
 _atom_site_label
 _atom_site_symmetry_multiplicity
 _atom_site_fract_x
 _atom_site_fract_y
 _atom_site_fract_z
 _atom_site_occupancy
  Tb  Tb0  1  0.821116  0.250000  0.678884  1
  Pu  Pu1  1  0.180156  0.750000  0.319844  1
  Pu  Pu2  1  0.248975  0.678978  0.817468  1
  Pu  Pu3  1  0.682532  0.821022  0.251025  1
  Pu  Pu4  1  0.752399  0.750000  0.747601  1
  Pu  Pu5  1  0.323810  0.177551  0.746608  1
  Pu  Pu6  1  0.753392  0.322449  0.176190  1
  Nb  Nb7  1  0.251190  0.250000  0.248810  1
  F  F8  1  0.964405  0.537193  0.247992  1
  F  F9  1  0.808319  0.345514  0.445675  1
  F  F10  1  0.487947  0.725382  0.706179  1
  F  F11  1  0.356070  0.452503  0.821195  1
  F  F12  1  0.016102  0.796081  0.771063  1
  F  F13  1  0.751331  0.031189  0.466611  1
  F  F14  1  0.960272  0.860584  0.330064  1
  F  F15  1  0.212499  0.229629  0.013743  1
  F  F16  1  0.773593  0.009902  0.787672  1
  F  F17  1  0.328913  0.957756  0.859800  1
  F  F18  1  0.268215  0.287703  0.486026  1
  F  F19  1  0.453837  0.813226  0.359786  1
  F  F20  1  0.527482  0.250000  0.972518  1
  F  F21  1  0.283070  0.486383  0.266316  1
  F  F22  1  0.140214  0.686774  0.046163  1
  F  F23  1  0.853014  0.321431  0.953527  1
  F  F24  1  0.712328  0.490098  0.726407  1
  F  F25  1  0.457007  0.750000  0.042993  1
  F  F26  1  0.546473  0.178569  0.646986  1
  F  F27  1  0.728937  0.703919  0.483898  1
  F  F28  1  0.678805  0.047497  0.143930  1
  F  F29  1  0.233684  0.013617  0.216930  1
  F  F30  1  0.793821  0.774618  0.012053  1
  F  F31  1  0.054325  0.154486  0.691681  1
  F  F32  1  0.252008  0.962807  0.535595  1
  F  F33  1  0.013974  0.212297  0.231785  1
  F  F34  1  0.640200  0.542244  0.171087  1
  F  F35  1  0.486257  0.270371  0.287501  1
  F  F36  1  0.169936  0.639416  0.539728  1
  F  F37  1  0.033389  0.468811  0.748669  1
