# generated using pymatgen
data_Ca(Eu3Rh2)3
_symmetry_space_group_name_H-M   'P 1'
_cell_length_a   8.98134363
_cell_length_b   8.98134329
_cell_length_c   8.98134387
_cell_angle_alpha   129.70346655
_cell_angle_beta   129.70347101
_cell_angle_gamma   73.88127025
_symmetry_Int_Tables_number   1
_chemical_formula_structural   Ca(Eu3Rh2)3
_chemical_formula_sum   'Ca1 Eu9 Rh6'
_cell_volume   418.28442550
_cell_formula_units_Z   1
loop_
 _symmetry_equiv_pos_site_id
 _symmetry_equiv_pos_as_xyz
  1  'x, y, z'
loop_
 _atom_site_type_symbol
 _atom_site_label
 _atom_site_symmetry_multiplicity
 _atom_site_fract_x
 _atom_site_fract_y
 _atom_site_fract_z
 _atom_site_occupancy
  Ca  Ca0  1  0.000000  0.000000  0.000000  1
  Eu  Eu1  1  0.819315  0.316616  0.850046  1
  Eu  Eu2  1  0.180685  0.683384  0.149954  1
  Eu  Eu3  1  0.466570  0.969269  0.149954  1
  Eu  Eu4  1  0.316616  0.466570  0.497301  1
  Eu  Eu5  1  0.030731  0.180685  0.497301  1
  Eu  Eu6  1  0.533430  0.030731  0.850046  1
  Eu  Eu7  1  0.683384  0.533430  0.502699  1
  Eu  Eu8  1  0.969269  0.819315  0.502699  1
  Eu  Eu9  1  0.500000  0.500000  0.000000  1
  Rh  Rh10  1  0.125973  0.621852  0.747827  1
  Rh  Rh11  1  0.874027  0.378148  0.252173  1
  Rh  Rh12  1  0.621852  0.874027  0.495880  1
  Rh  Rh13  1  0.378148  0.125973  0.504120  1
  Rh  Rh14  1  0.251342  0.251342  0.000000  1
  Rh  Rh15  1  0.748658  0.748658  0.000000  1
