# generated using pymatgen
data_Tb4ThTcBi2
_symmetry_space_group_name_H-M   'P 1'
_cell_length_a   8.18798534
_cell_length_b   8.95467977
_cell_length_c   12.56019560
_cell_angle_alpha   90.26880243
_cell_angle_beta   89.98924056
_cell_angle_gamma   90.06433824
_symmetry_Int_Tables_number   1
_chemical_formula_structural   Tb4ThTcBi2
_chemical_formula_sum   'Tb16 Th4 Tc4 Bi8'
_cell_volume   920.91269075
_cell_formula_units_Z   4
loop_
 _symmetry_equiv_pos_site_id
 _symmetry_equiv_pos_as_xyz
  1  'x, y, z'
loop_
 _atom_site_type_symbol
 _atom_site_label
 _atom_site_symmetry_multiplicity
 _atom_site_fract_x
 _atom_site_fract_y
 _atom_site_fract_z
 _atom_site_occupancy
  Tb  Tb0  1  0.838355  0.748356  0.791306  1
  Tb  Tb1  1  0.161170  0.249375  0.206389  1
  Tb  Tb2  1  0.334152  0.251710  0.709920  1
  Tb  Tb3  1  0.665856  0.749969  0.289402  1
  Tb  Tb4  1  0.375194  0.751717  0.702078  1
  Tb  Tb5  1  0.627201  0.251899  0.298965  1
  Tb  Tb6  1  0.874799  0.248089  0.801791  1
  Tb  Tb7  1  0.123468  0.746274  0.197963  1
  Tb  Tb8  1  0.951507  0.748674  0.501112  1
  Tb  Tb9  1  0.044053  0.248035  0.498807  1
  Tb  Tb10  1  0.449147  0.250420  0.997819  1
  Tb  Tb11  1  0.554238  0.752038  0.002054  1
  Tb  Tb12  1  0.819647  0.045351  0.065278  1
  Tb  Tb13  1  0.678232  0.455549  0.566877  1
  Tb  Tb14  1  0.828886  0.459241  0.060262  1
  Tb  Tb15  1  0.176253  0.541624  0.937355  1
  Th  Th16  1  0.676658  0.040279  0.563303  1
  Th  Th17  1  0.320336  0.960595  0.435953  1
  Th  Th18  1  0.168513  0.959806  0.942572  1
  Th  Th19  1  0.325243  0.539042  0.439373  1
  Tc  Tc20  1  0.577481  0.767071  0.515511  1
  Tc  Tc21  1  0.415884  0.244791  0.481453  1
  Tc  Tc22  1  0.086360  0.236222  0.980588  1
  Tc  Tc23  1  0.923544  0.755643  0.014270  1
  Bi  Bi24  1  0.570814  0.490900  0.827807  1
  Bi  Bi25  1  0.430984  0.509734  0.171788  1
  Bi  Bi26  1  0.070536  0.509285  0.673335  1
  Bi  Bi27  1  0.430248  0.990085  0.173322  1
  Bi  Bi28  1  0.927539  0.488878  0.326928  1
  Bi  Bi29  1  0.573259  0.011133  0.828148  1
  Bi  Bi30  1  0.927018  0.010049  0.324546  1
  Bi  Bi31  1  0.073426  0.988165  0.673724  1
