# generated using pymatgen
data_Ho4Tm4Tl3Ir
_symmetry_space_group_name_H-M   'P 1'
_cell_length_a   10.20875600
_cell_length_b   10.20875510
_cell_length_c   7.17340900
_cell_angle_alpha   90.00000000
_cell_angle_beta   90.00000000
_cell_angle_gamma   120.00000291
_symmetry_Int_Tables_number   1
_chemical_formula_structural   Ho4Tm4Tl3Ir
_chemical_formula_sum   'Ho8 Tm8 Tl6 Ir2'
_cell_volume   647.44342045
_cell_formula_units_Z   2
loop_
 _symmetry_equiv_pos_site_id
 _symmetry_equiv_pos_as_xyz
  1  'x, y, z'
loop_
 _atom_site_type_symbol
 _atom_site_label
 _atom_site_symmetry_multiplicity
 _atom_site_fract_x
 _atom_site_fract_y
 _atom_site_fract_z
 _atom_site_occupancy
  Ho  Ho0  1  0.464565  0.535435  0.210949  1
  Ho  Ho1  1  0.070870  0.535435  0.210949  1
  Ho  Ho2  1  0.464565  0.929130  0.210949  1
  Ho  Ho3  1  0.535435  0.464565  0.710949  1
  Ho  Ho4  1  0.929130  0.464565  0.710949  1
  Ho  Ho5  1  0.535435  0.070870  0.710949  1
  Ho  Ho6  1  0.000000  0.000000  0.231433  1
  Ho  Ho7  1  0.000000  0.000000  0.731433  1
  Tm  Tm8  1  0.175931  0.824069  0.510264  1
  Tm  Tm9  1  0.648136  0.824069  0.510264  1
  Tm  Tm10  1  0.175931  0.351864  0.510264  1
  Tm  Tm11  1  0.824069  0.175931  0.010264  1
  Tm  Tm12  1  0.351864  0.175931  0.010264  1
  Tm  Tm13  1  0.824069  0.648136  0.010264  1
  Tm  Tm14  1  0.333333  0.666667  0.827440  1
  Tm  Tm15  1  0.666667  0.333333  0.327440  1
  Tl  Tl16  1  0.164044  0.835956  0.957002  1
  Tl  Tl17  1  0.671911  0.835956  0.957002  1
  Tl  Tl18  1  0.164044  0.328089  0.957002  1
  Tl  Tl19  1  0.835956  0.164044  0.457002  1
  Tl  Tl20  1  0.328089  0.164044  0.457002  1
  Tl  Tl21  1  0.835956  0.671911  0.457002  1
  Ir  Ir22  1  0.333333  0.666667  0.443507  1
  Ir  Ir23  1  0.666667  0.333333  0.943507  1
