# generated using pymatgen
data_DyEr15TlIn5Co2
_symmetry_space_group_name_H-M   'P 1'
_cell_length_a   10.29551600
_cell_length_b   10.30594016
_cell_length_c   6.97039001
_cell_angle_alpha   90.00014103
_cell_angle_beta   89.99990062
_cell_angle_gamma   119.96581893
_symmetry_Int_Tables_number   1
_chemical_formula_structural   DyEr15TlIn5Co2
_chemical_formula_sum   'Dy1 Er15 Tl1 In5 Co2'
_cell_volume   640.72685361
_cell_formula_units_Z   1
loop_
 _symmetry_equiv_pos_site_id
 _symmetry_equiv_pos_as_xyz
  1  'x, y, z'
loop_
 _atom_site_type_symbol
 _atom_site_label
 _atom_site_symmetry_multiplicity
 _atom_site_fract_x
 _atom_site_fract_y
 _atom_site_fract_z
 _atom_site_occupancy
  Dy  Dy0  1  0.534493  0.068980  0.791181  1
  Er  Er1  1  0.930385  0.465168  0.791280  1
  Er  Er2  1  0.534777  0.465164  0.791292  1
  Er  Er3  1  0.465059  0.930118  0.291619  1
  Er  Er4  1  0.070439  0.534485  0.292756  1
  Er  Er5  1  0.464049  0.534480  0.292761  1
  Er  Er6  1  0.821536  0.643058  0.497786  1
  Er  Er7  1  0.356498  0.178477  0.498868  1
  Er  Er8  1  0.821983  0.178472  0.498855  1
  Er  Er9  1  0.178361  0.356716  0.999384  1
  Er  Er10  1  0.643759  0.821385  0.999446  1
  Er  Er11  1  0.177624  0.821388  0.999433  1
  Er  Er12  1  0.666728  0.333469  0.182471  1
  Er  Er13  1  0.333132  0.666254  0.681981  1
  Er  Er14  1  0.000494  0.000994  0.778365  1
  Er  Er15  1  0.000506  0.001025  0.280505  1
  Tl  Tl16  1  0.836830  0.673662  0.039834  1
  In  In17  1  0.325352  0.162868  0.038560  1
  In  In18  1  0.837517  0.162869  0.038560  1
  In  In19  1  0.162791  0.325586  0.538408  1
  In  In20  1  0.674254  0.837136  0.538303  1
  In  In21  1  0.162879  0.837129  0.538311  1
  Co  Co22  1  0.667259  0.334514  0.567825  1
  Co  Co23  1  0.333300  0.666604  0.068123  1
