# generated using pymatgen
data_Dy3Sn2Hg3
_symmetry_space_group_name_H-M   'P 1'
_cell_length_a   6.33195490
_cell_length_b   6.33195445
_cell_length_c   10.39835800
_cell_angle_alpha   90.00000000
_cell_angle_beta   90.00000000
_cell_angle_gamma   100.81946015
_symmetry_Int_Tables_number   1
_chemical_formula_structural   Dy3Sn2Hg3
_chemical_formula_sum   'Dy6 Sn4 Hg6'
_cell_volume   409.49698026
_cell_formula_units_Z   2
loop_
 _symmetry_equiv_pos_site_id
 _symmetry_equiv_pos_as_xyz
  1  'x, y, z'
loop_
 _atom_site_type_symbol
 _atom_site_label
 _atom_site_symmetry_multiplicity
 _atom_site_fract_x
 _atom_site_fract_y
 _atom_site_fract_z
 _atom_site_occupancy
  Dy  Dy0  1  0.797736  0.202264  0.000000  1
  Dy  Dy1  1  0.202264  0.797736  0.000000  1
  Dy  Dy2  1  0.202264  0.797736  0.500000  1
  Dy  Dy3  1  0.797736  0.202264  0.500000  1
  Dy  Dy4  1  0.620836  0.620836  0.250000  1
  Dy  Dy5  1  0.379164  0.379164  0.750000  1
  Sn  Sn6  1  0.309268  0.309268  0.044584  1
  Sn  Sn7  1  0.690732  0.690732  0.955416  1
  Sn  Sn8  1  0.690732  0.690732  0.544584  1
  Sn  Sn9  1  0.309268  0.309268  0.455416  1
  Hg  Hg10  1  0.067969  0.506527  0.250000  1
  Hg  Hg11  1  0.932031  0.493473  0.750000  1
  Hg  Hg12  1  0.506527  0.067969  0.250000  1
  Hg  Hg13  1  0.493473  0.932031  0.750000  1
  Hg  Hg14  1  0.003337  0.003337  0.250000  1
  Hg  Hg15  1  0.996663  0.996663  0.750000  1
