# generated using pymatgen
data_KLiHgTe2
_symmetry_space_group_name_H-M   'P 1'
_cell_length_a   8.24419155
_cell_length_b   8.24419150
_cell_length_c   8.24419100
_cell_angle_alpha   147.88454020
_cell_angle_beta   147.88453962
_cell_angle_gamma   46.05583584
_symmetry_Int_Tables_number   1
_chemical_formula_structural   KLiHgTe2
_chemical_formula_sum   'K1 Li1 Hg1 Te2'
_cell_volume   157.82028644
_cell_formula_units_Z   1
loop_
 _symmetry_equiv_pos_site_id
 _symmetry_equiv_pos_as_xyz
  1  'x, y, z'
loop_
 _atom_site_type_symbol
 _atom_site_label
 _atom_site_symmetry_multiplicity
 _atom_site_fract_x
 _atom_site_fract_y
 _atom_site_fract_z
 _atom_site_occupancy
  K  K0  1  0.500000  0.500000  0.000000  1
  Li  Li1  1  0.750000  0.250000  0.500000  1
  Hg  Hg2  1  0.250000  0.750000  0.500000  1
  Te  Te3  1  0.132472  0.132472  0.000000  1
  Te  Te4  1  0.867528  0.867528  0.000000  1
