# generated using pymatgen
data_TbYFe3Co9P7
_symmetry_space_group_name_H-M   'P 1'
_cell_length_a   3.61859000
_cell_length_b   8.99710293
_cell_length_c   8.99947609
_cell_angle_alpha   120.00058306
_cell_angle_beta   90.00000000
_cell_angle_gamma   90.00000000
_symmetry_Int_Tables_number   1
_chemical_formula_structural   TbYFe3Co9P7
_chemical_formula_sum   'Tb1 Y1 Fe3 Co9 P7'
_cell_volume   253.73908844
_cell_formula_units_Z   1
loop_
 _symmetry_equiv_pos_site_id
 _symmetry_equiv_pos_as_xyz
  1  'x, y, z'
loop_
 _atom_site_type_symbol
 _atom_site_label
 _atom_site_symmetry_multiplicity
 _atom_site_fract_x
 _atom_site_fract_y
 _atom_site_fract_z
 _atom_site_occupancy
  Tb  Tb0  1  0.000000  0.666618  0.333338  1
  Y  Y1  1  0.500000  0.333342  0.666666  1
  Fe  Fe2  1  0.500000  0.123285  0.906225  1
  Fe  Fe3  1  0.500000  0.093780  0.217048  1
  Fe  Fe4  1  0.500000  0.782981  0.876752  1
  Co  Co5  1  0.000000  0.371058  0.940100  1
  Co  Co6  1  0.000000  0.059958  0.430981  1
  Co  Co7  1  0.000000  0.568998  0.628903  1
  Co  Co8  1  0.000000  0.882705  0.726010  1
  Co  Co9  1  0.000000  0.273881  0.156573  1
  Co  Co10  1  0.000000  0.843456  0.117410  1
  Co  Co11  1  0.500000  0.950814  0.566519  1
  Co  Co12  1  0.500000  0.433463  0.384274  1
  Co  Co13  1  0.500000  0.615671  0.049227  1
  P  P14  1  0.000000  0.112614  0.703507  1
  P  P15  1  0.000000  0.296536  0.409104  1
  P  P16  1  0.000000  0.590821  0.887401  1
  P  P17  1  0.500000  0.709960  0.598624  1
  P  P18  1  0.500000  0.401310  0.111270  1
  P  P19  1  0.500000  0.888722  0.290027  1
  P  P20  1  0.000000  0.000032  0.000040  1
