# generated using pymatgen
data_Yb(PrRh)2
_symmetry_space_group_name_H-M   'P 1'
_cell_length_a   7.55926143
_cell_length_b   7.55926202
_cell_length_c   7.55926127
_cell_angle_alpha   71.37919190
_cell_angle_beta   71.37918957
_cell_angle_gamma   71.37917569
_symmetry_Int_Tables_number   1
_chemical_formula_structural   Yb(PrRh)2
_chemical_formula_sum   'Yb3 Pr6 Rh6'
_cell_volume   376.38213983
_cell_formula_units_Z   3
loop_
 _symmetry_equiv_pos_site_id
 _symmetry_equiv_pos_as_xyz
  1  'x, y, z'
loop_
 _atom_site_type_symbol
 _atom_site_label
 _atom_site_symmetry_multiplicity
 _atom_site_fract_x
 _atom_site_fract_y
 _atom_site_fract_z
 _atom_site_occupancy
  Yb  Yb0  1  0.000000  0.000000  0.000000  1
  Yb  Yb1  1  0.801056  0.801056  0.801056  1
  Yb  Yb2  1  0.198944  0.198944  0.198944  1
  Pr  Pr3  1  0.153827  0.393233  0.672806  1
  Pr  Pr4  1  0.672806  0.153827  0.393233  1
  Pr  Pr5  1  0.393233  0.672806  0.153827  1
  Pr  Pr6  1  0.846173  0.606767  0.327194  1
  Pr  Pr7  1  0.327194  0.846173  0.606767  1
  Pr  Pr8  1  0.606767  0.327194  0.846173  1
  Rh  Rh9  1  0.957232  0.166817  0.583727  1
  Rh  Rh10  1  0.583727  0.957232  0.166817  1
  Rh  Rh11  1  0.166817  0.583727  0.957232  1
  Rh  Rh12  1  0.042768  0.833183  0.416273  1
  Rh  Rh13  1  0.416273  0.042768  0.833183  1
  Rh  Rh14  1  0.833183  0.416273  0.042768  1
