# generated using pymatgen
data_Dy2Mg2Co5(P2Rh)3
_symmetry_space_group_name_H-M   'P 1'
_cell_length_a   3.75426700
_cell_length_b   10.62380900
_cell_length_c   12.48768500
_cell_angle_alpha   90.00000000
_cell_angle_beta   90.00000000
_cell_angle_gamma   90.00000000
_symmetry_Int_Tables_number   1
_chemical_formula_structural   Dy2Mg2Co5(P2Rh)3
_chemical_formula_sum   'Dy4 Mg4 Co10 P12 Rh6'
_cell_volume   498.06651525
_cell_formula_units_Z   2
loop_
 _symmetry_equiv_pos_site_id
 _symmetry_equiv_pos_as_xyz
  1  'x, y, z'
loop_
 _atom_site_type_symbol
 _atom_site_label
 _atom_site_symmetry_multiplicity
 _atom_site_fract_x
 _atom_site_fract_y
 _atom_site_fract_z
 _atom_site_occupancy
  Dy  Dy0  1  0.250000  0.583741  0.712002  1
  Dy  Dy1  1  0.250000  0.916259  0.212002  1
  Dy  Dy2  1  0.750000  0.421429  0.288802  1
  Dy  Dy3  1  0.750000  0.078571  0.788802  1
  Mg  Mg4  1  0.250000  0.706617  0.992020  1
  Mg  Mg5  1  0.250000  0.793383  0.492020  1
  Mg  Mg6  1  0.750000  0.293905  0.010805  1
  Mg  Mg7  1  0.750000  0.206095  0.510805  1
  Co  Co8  1  0.750000  0.781412  0.823213  1
  Co  Co9  1  0.750000  0.718588  0.323213  1
  Co  Co10  1  0.250000  0.880077  0.696512  1
  Co  Co11  1  0.250000  0.619923  0.196512  1
  Co  Co12  1  0.750000  0.113827  0.306195  1
  Co  Co13  1  0.750000  0.386173  0.806195  1
  Co  Co14  1  0.250000  0.469446  0.934186  1
  Co  Co15  1  0.250000  0.030554  0.434186  1
  Co  Co16  1  0.750000  0.536739  0.065235  1
  Co  Co17  1  0.750000  0.963261  0.565235  1
  P  P18  1  0.250000  0.432742  0.113783  1
  P  P19  1  0.250000  0.067258  0.613783  1
  P  P20  1  0.750000  0.577300  0.883956  1
  P  P21  1  0.750000  0.922700  0.383956  1
  P  P22  1  0.250000  0.276525  0.860414  1
  P  P23  1  0.250000  0.223475  0.360414  1
  P  P24  1  0.750000  0.724627  0.145839  1
  P  P25  1  0.750000  0.775373  0.645839  1
  P  P26  1  0.250000  0.600230  0.375987  1
  P  P27  1  0.250000  0.899770  0.875987  1
  P  P28  1  0.750000  0.409711  0.620155  1
  P  P29  1  0.750000  0.090289  0.120155  1
  Rh  Rh30  1  0.250000  0.404022  0.475128  1
  Rh  Rh31  1  0.250000  0.095978  0.975128  1
  Rh  Rh32  1  0.750000  0.602337  0.520798  1
  Rh  Rh33  1  0.750000  0.897663  0.020798  1
  Rh  Rh34  1  0.250000  0.219612  0.174971  1
  Rh  Rh35  1  0.250000  0.280388  0.674971  1
