# generated using pymatgen
data_Tb2Dy3Tm3Au4
_symmetry_space_group_name_H-M   'P 1'
_cell_length_a   4.91994900
_cell_length_b   7.13423350
_cell_length_c   8.91754348
_cell_angle_alpha   90.20711423
_cell_angle_beta   90.00000000
_cell_angle_gamma   90.00000000
_symmetry_Int_Tables_number   1
_chemical_formula_structural   Tb2Dy3Tm3Au4
_chemical_formula_sum   'Tb2 Dy3 Tm3 Au4'
_cell_volume   313.00431076
_cell_formula_units_Z   1
loop_
 _symmetry_equiv_pos_site_id
 _symmetry_equiv_pos_as_xyz
  1  'x, y, z'
loop_
 _atom_site_type_symbol
 _atom_site_label
 _atom_site_symmetry_multiplicity
 _atom_site_fract_x
 _atom_site_fract_y
 _atom_site_fract_z
 _atom_site_occupancy
  Tb  Tb0  1  0.250000  0.484951  0.176606  1
  Tb  Tb1  1  0.250000  0.987532  0.323162  1
  Dy  Dy2  1  0.750000  0.647806  0.419473  1
  Dy  Dy3  1  0.750000  0.514224  0.823450  1
  Dy  Dy4  1  0.750000  0.015246  0.677576  1
  Tm  Tm5  1  0.250000  0.852543  0.920560  1
  Tm  Tm6  1  0.250000  0.352465  0.580961  1
  Tm  Tm7  1  0.750000  0.147749  0.078873  1
  Au  Au8  1  0.250000  0.252817  0.899809  1
  Au  Au9  1  0.250000  0.754233  0.602818  1
  Au  Au10  1  0.750000  0.747409  0.096872  1
  Au  Au11  1  0.750000  0.243023  0.399838  1
