# generated using pymatgen
data_Sr5Pr(CoO3)4
_symmetry_space_group_name_H-M   'P 1'
_cell_length_a   6.62039102
_cell_length_b   6.59491183
_cell_length_c   6.62073550
_cell_angle_alpha   92.44398030
_cell_angle_beta   92.11084963
_cell_angle_gamma   92.20568973
_symmetry_Int_Tables_number   1
_chemical_formula_structural   Sr5Pr(CoO3)4
_chemical_formula_sum   'Sr5 Pr1 Co4 O12'
_cell_volume   288.37594435
_cell_formula_units_Z   1
loop_
 _symmetry_equiv_pos_site_id
 _symmetry_equiv_pos_as_xyz
  1  'x, y, z'
loop_
 _atom_site_type_symbol
 _atom_site_label
 _atom_site_symmetry_multiplicity
 _atom_site_fract_x
 _atom_site_fract_y
 _atom_site_fract_z
 _atom_site_occupancy
  Sr  Sr0  1  0.889096  0.245286  0.616852  1
  Sr  Sr1  1  0.247107  0.618808  0.885947  1
  Sr  Sr2  1  0.613979  0.885720  0.246252  1
  Sr  Sr3  1  0.381293  0.111886  0.752259  1
  Sr  Sr4  1  0.114716  0.756720  0.383830  1
  Pr  Pr5  1  0.755935  0.383372  0.111558  1
  Co  Co6  1  0.995657  0.001197  0.002486  1
  Co  Co7  1  0.749962  0.755399  0.749681  1
  Co  Co8  1  0.502933  0.497032  0.499813  1
  Co  Co9  1  0.254039  0.247856  0.243206  1
  O  O10  1  0.231920  0.416067  0.539790  1
  O  O11  1  0.420108  0.534208  0.219522  1
  O  O12  1  0.546091  0.223921  0.407921  1
  O  O13  1  0.903462  0.713177  0.045796  1
  O  O14  1  0.714535  0.049048  0.916977  1
  O  O15  1  0.033571  0.904576  0.720705  1
  O  O16  1  0.777056  0.575055  0.451557  1
  O  O17  1  0.592088  0.457265  0.782639  1
  O  O18  1  0.466597  0.774952  0.589951  1
  O  O19  1  0.080655  0.284914  0.960838  1
  O  O20  1  0.276346  0.963226  0.093960  1
  O  O21  1  0.952855  0.100317  0.278460  1
