# generated using pymatgen
data_Dy16CdNi3Hg3Ru
_symmetry_space_group_name_H-M   'P 1'
_cell_length_a   9.52212347
_cell_length_b   9.53377765
_cell_length_c   9.53377617
_cell_angle_alpha   59.74844373
_cell_angle_beta   59.73841416
_cell_angle_gamma   59.73841163
_symmetry_Int_Tables_number   1
_chemical_formula_structural   Dy16CdNi3Hg3Ru
_chemical_formula_sum   'Dy16 Cd1 Ni3 Hg3 Ru1'
_cell_volume   608.40723581
_cell_formula_units_Z   1
loop_
 _symmetry_equiv_pos_site_id
 _symmetry_equiv_pos_as_xyz
  1  'x, y, z'
loop_
 _atom_site_type_symbol
 _atom_site_label
 _atom_site_symmetry_multiplicity
 _atom_site_fract_x
 _atom_site_fract_y
 _atom_site_fract_z
 _atom_site_occupancy
  Dy  Dy0  1  0.598380  0.598146  0.598146  1
  Dy  Dy1  1  0.601802  0.601370  0.201408  1
  Dy  Dy2  1  0.601802  0.201408  0.601370  1
  Dy  Dy3  1  0.199297  0.602205  0.602205  1
  Dy  Dy4  1  0.059535  0.439065  0.439065  1
  Dy  Dy5  1  0.436312  0.061096  0.061096  1
  Dy  Dy6  1  0.437699  0.060411  0.438735  1
  Dy  Dy7  1  0.060244  0.437602  0.060414  1
  Dy  Dy8  1  0.437699  0.438735  0.060411  1
  Dy  Dy9  1  0.060244  0.060414  0.437602  1
  Dy  Dy10  1  0.185489  0.815429  0.815429  1
  Dy  Dy11  1  0.808548  0.188073  0.188073  1
  Dy  Dy12  1  0.814435  0.187046  0.815283  1
  Dy  Dy13  1  0.186817  0.809191  0.188130  1
  Dy  Dy14  1  0.814435  0.815283  0.187046  1
  Dy  Dy15  1  0.186817  0.188130  0.809191  1
  Cd  Cd16  1  0.507928  0.829563  0.829563  1
  Ni  Ni17  1  0.392629  0.392850  0.824144  1
  Ni  Ni18  1  0.392629  0.824144  0.392850  1
  Ni  Ni19  1  0.824336  0.392749  0.392749  1
  Hg  Hg20  1  0.833362  0.834430  0.834430  1
  Hg  Hg21  1  0.833356  0.834994  0.493933  1
  Hg  Hg22  1  0.833356  0.493933  0.834994  1
  Ru  Ru23  1  0.392849  0.393735  0.393735  1
