# generated using pymatgen
data_Ba6Pu2MgO12
_symmetry_space_group_name_H-M   'P 1'
_cell_length_a   9.51220058
_cell_length_b   9.51220204
_cell_length_c   7.55061300
_cell_angle_alpha   67.89781695
_cell_angle_beta   67.89781988
_cell_angle_gamma   36.99105589
_symmetry_Int_Tables_number   1
_chemical_formula_structural   Ba6Pu2MgO12
_chemical_formula_sum   'Ba6 Pu2 Mg1 O12'
_cell_volume   377.33303423
_cell_formula_units_Z   1
loop_
 _symmetry_equiv_pos_site_id
 _symmetry_equiv_pos_as_xyz
  1  'x, y, z'
loop_
 _atom_site_type_symbol
 _atom_site_label
 _atom_site_symmetry_multiplicity
 _atom_site_fract_x
 _atom_site_fract_y
 _atom_site_fract_z
 _atom_site_occupancy
  Ba  Ba0  1  0.200401  0.200401  0.705497  1
  Ba  Ba1  1  0.893804  0.893804  0.705095  1
  Ba  Ba2  1  0.547879  0.547879  0.712882  1
  Ba  Ba3  1  0.799599  0.799599  0.294503  1
  Ba  Ba4  1  0.452121  0.452121  0.287118  1
  Ba  Ba5  1  0.106196  0.106196  0.294905  1
  Pu  Pu6  1  0.665048  0.665048  0.000661  1
  Pu  Pu7  1  0.334952  0.334952  0.999339  1
  Mg  Mg8  1  0.000000  0.000000  0.000000  1
  O  O9  1  0.284543  0.284543  0.310045  1
  O  O10  1  0.944765  0.944765  0.328704  1
  O  O11  1  0.611527  0.611527  0.308841  1
  O  O12  1  0.715457  0.715457  0.689955  1
  O  O13  1  0.388473  0.388473  0.691159  1
  O  O14  1  0.055235  0.055235  0.671296  1
  O  O15  1  0.000000  0.500000  0.000000  1
  O  O16  1  0.666267  0.167970  0.001714  1
  O  O17  1  0.333733  0.832030  0.998286  1
  O  O18  1  0.500000  0.000000  0.000000  1
  O  O19  1  0.167970  0.666267  0.001714  1
  O  O20  1  0.832030  0.333733  0.998286  1
