# generated using pymatgen
data_Sc3Al2Ga3Pt
_symmetry_space_group_name_H-M   'P 1'
_cell_length_a   6.71360944
_cell_length_b   6.71360906
_cell_length_c   4.12958300
_cell_angle_alpha   90.00000000
_cell_angle_beta   90.00000000
_cell_angle_gamma   119.72848303
_symmetry_Int_Tables_number   1
_chemical_formula_structural   Sc3Al2Ga3Pt
_chemical_formula_sum   'Sc3 Al2 Ga3 Pt1'
_cell_volume   161.63324249
_cell_formula_units_Z   1
loop_
 _symmetry_equiv_pos_site_id
 _symmetry_equiv_pos_as_xyz
  1  'x, y, z'
loop_
 _atom_site_type_symbol
 _atom_site_label
 _atom_site_symmetry_multiplicity
 _atom_site_fract_x
 _atom_site_fract_y
 _atom_site_fract_z
 _atom_site_occupancy
  Sc  Sc0  1  0.582888  0.999596  0.000000  1
  Sc  Sc1  1  0.999596  0.582888  0.000000  1
  Sc  Sc2  1  0.418862  0.418862  0.000000  1
  Al  Al3  1  0.241108  0.001096  0.500000  1
  Al  Al4  1  0.001096  0.241108  0.500000  1
  Ga  Ga5  1  0.751288  0.751288  0.500000  1
  Ga  Ga6  1  0.330860  0.666826  0.500000  1
  Ga  Ga7  1  0.666826  0.330860  0.500000  1
  Pt  Pt8  1  0.007477  0.007477  0.000000  1
