# generated using pymatgen
data_Rb2Cu3RhF12
_symmetry_space_group_name_H-M   'P 1'
_cell_length_a   7.76016750
_cell_length_b   7.76016745
_cell_length_c   7.76016694
_cell_angle_alpha   54.87029370
_cell_angle_beta   54.87029377
_cell_angle_gamma   54.87029360
_symmetry_Int_Tables_number   1
_chemical_formula_structural   Rb2Cu3RhF12
_chemical_formula_sum   'Rb2 Cu3 Rh1 F12'
_cell_volume   290.98402732
_cell_formula_units_Z   1
loop_
 _symmetry_equiv_pos_site_id
 _symmetry_equiv_pos_as_xyz
  1  'x, y, z'
loop_
 _atom_site_type_symbol
 _atom_site_label
 _atom_site_symmetry_multiplicity
 _atom_site_fract_x
 _atom_site_fract_y
 _atom_site_fract_z
 _atom_site_occupancy
  Rb  Rb0  1  0.890409  0.890409  0.890409  1
  Rb  Rb1  1  0.109591  0.109591  0.109591  1
  Cu  Cu2  1  0.500000  0.500000  0.000000  1
  Cu  Cu3  1  0.000000  0.500000  0.500000  1
  Cu  Cu4  1  0.500000  0.000000  0.500000  1
  Rh  Rh5  1  0.500000  0.500000  0.500000  1
  F  F6  1  0.819739  0.420638  0.819739  1
  F  F7  1  0.819739  0.819739  0.420638  1
  F  F8  1  0.420638  0.819739  0.819739  1
  F  F9  1  0.180261  0.579362  0.180261  1
  F  F10  1  0.180261  0.180261  0.579362  1
  F  F11  1  0.579362  0.180261  0.180261  1
  F  F12  1  0.421270  0.821576  0.421270  1
  F  F13  1  0.421270  0.421270  0.821576  1
  F  F14  1  0.821576  0.421270  0.421270  1
  F  F15  1  0.578730  0.178424  0.578730  1
  F  F16  1  0.578730  0.578730  0.178424  1
  F  F17  1  0.178424  0.578730  0.578730  1
