# generated using pymatgen
data_Rb2Np(CuTe2)2
_symmetry_space_group_name_H-M   'P 1'
_cell_length_a   8.31756707
_cell_length_b   8.31756823
_cell_length_c   8.50820600
_cell_angle_alpha   71.08517672
_cell_angle_beta   71.08517397
_cell_angle_gamma   30.98193217
_symmetry_Int_Tables_number   1
_chemical_formula_structural   Rb2Np(CuTe2)2
_chemical_formula_sum   'Rb2 Np1 Cu2 Te4'
_cell_volume   285.34244698
_cell_formula_units_Z   1
loop_
 _symmetry_equiv_pos_site_id
 _symmetry_equiv_pos_as_xyz
  1  'x, y, z'
loop_
 _atom_site_type_symbol
 _atom_site_label
 _atom_site_symmetry_multiplicity
 _atom_site_fract_x
 _atom_site_fract_y
 _atom_site_fract_z
 _atom_site_occupancy
  Rb  Rb0  1  0.864514  0.864514  0.564833  1
  Rb  Rb1  1  0.135486  0.135486  0.435167  1
  Np  Np2  1  0.000000  0.000000  0.000000  1
  Cu  Cu3  1  0.319857  0.319857  0.987172  1
  Cu  Cu4  1  0.680143  0.680143  0.012828  1
  Te  Te5  1  0.800006  0.800005  0.173794  1
  Te  Te6  1  0.199994  0.199995  0.826206  1
  Te  Te7  1  0.481052  0.481052  0.764591  1
  Te  Te8  1  0.518948  0.518948  0.235409  1
