# generated using pymatgen
data_Ca2Tm2(Ga8Pt3)3
_symmetry_space_group_name_H-M   'P 1'
_cell_length_a   7.61638475
_cell_length_b   7.62857071
_cell_length_c   13.32015500
_cell_angle_alpha   84.54228380
_cell_angle_beta   101.11083725
_cell_angle_gamma   119.90903560
_symmetry_Int_Tables_number   1
_chemical_formula_structural   Ca2Tm2(Ga8Pt3)3
_chemical_formula_sum   'Ca2 Tm2 Ga24 Pt9'
_cell_volume   658.28120400
_cell_formula_units_Z   1
loop_
 _symmetry_equiv_pos_site_id
 _symmetry_equiv_pos_as_xyz
  1  'x, y, z'
loop_
 _atom_site_type_symbol
 _atom_site_label
 _atom_site_symmetry_multiplicity
 _atom_site_fract_x
 _atom_site_fract_y
 _atom_site_fract_z
 _atom_site_occupancy
  Ca  Ca0  1  0.435725  0.832447  0.808095  1
  Ca  Ca1  1  0.564275  0.167553  0.191905  1
  Tm  Tm2  1  0.767848  0.500454  0.807500  1
  Tm  Tm3  1  0.232152  0.499546  0.192500  1
  Ga  Ga4  1  0.479572  0.166784  0.938893  1
  Ga  Ga5  1  0.520428  0.833216  0.061107  1
  Ga  Ga6  1  0.021460  0.168661  0.560277  1
  Ga  Ga7  1  0.978540  0.831339  0.439723  1
  Ga  Ga8  1  0.353799  0.833695  0.557115  1
  Ga  Ga9  1  0.646201  0.166305  0.442885  1
  Ga  Ga10  1  0.614159  0.835267  0.325427  1
  Ga  Ga11  1  0.385841  0.164733  0.674573  1
  Ga  Ga12  1  0.058154  0.495403  0.672860  1
  Ga  Ga13  1  0.941846  0.504597  0.327140  1
  Ga  Ga14  1  0.730515  0.837919  0.672078  1
  Ga  Ga15  1  0.269485  0.162081  0.327922  1
  Ga  Ga16  1  0.143177  0.503499  0.940255  1
  Ga  Ga17  1  0.856823  0.496501  0.059745  1
  Ga  Ga18  1  0.811413  0.829475  0.945737  1
  Ga  Ga19  1  0.188587  0.170525  0.054263  1
  Ga  Ga20  1  0.314677  0.501122  0.441980  1
  Ga  Ga21  1  0.685323  0.498878  0.558020  1
  Ga  Ga22  1  0.098668  0.831233  0.181828  1
  Ga  Ga23  1  0.901332  0.168767  0.818172  1
  Ga  Ga24  1  0.308675  0.367755  0.816773  1
  Ga  Ga25  1  0.691325  0.632245  0.183227  1
  Ga  Ga26  1  0.097394  0.957218  0.816108  1
  Ga  Ga27  1  0.902606  0.042782  0.183892  1
  Pt  Pt28  1  0.388617  0.505619  0.639200  1
  Pt  Pt29  1  0.611383  0.494381  0.360800  1
  Pt  Pt30  1  0.170570  0.831464  0.999361  1
  Pt  Pt31  1  0.829430  0.168536  0.000639  1
  Pt  Pt32  1  0.293310  0.833344  0.360536  1
  Pt  Pt33  1  0.706690  0.166656  0.639464  1
  Pt  Pt34  1  0.046907  0.826693  0.636805  1
  Pt  Pt35  1  0.953093  0.173307  0.363195  1
  Pt  Pt36  1  0.500000  0.500000  0.000000  1
