# generated using pymatgen
data_Ca7Pr8Nd5Pb16
_symmetry_space_group_name_H-M   'P 1'
_cell_length_a   8.21562904
_cell_length_b   8.65679576
_cell_length_c   16.35257069
_cell_angle_alpha   90.00470502
_cell_angle_beta   90.03331276
_cell_angle_gamma   90.04735744
_symmetry_Int_Tables_number   1
_chemical_formula_structural   Ca7Pr8Nd5Pb16
_chemical_formula_sum   'Ca7 Pr8 Nd5 Pb16'
_cell_volume   1163.01095297
_cell_formula_units_Z   1
loop_
 _symmetry_equiv_pos_site_id
 _symmetry_equiv_pos_as_xyz
  1  'x, y, z'
loop_
 _atom_site_type_symbol
 _atom_site_label
 _atom_site_symmetry_multiplicity
 _atom_site_fract_x
 _atom_site_fract_y
 _atom_site_fract_z
 _atom_site_occupancy
  Ca  Ca0  1  0.834172  0.665691  0.122731  1
  Ca  Ca1  1  0.665096  0.166272  0.877543  1
  Ca  Ca2  1  0.164993  0.333554  0.622485  1
  Ca  Ca3  1  0.832879  0.499190  0.750018  1
  Ca  Ca4  1  0.332498  0.000822  0.750003  1
  Ca  Ca5  1  0.167134  0.499061  0.249495  1
  Ca  Ca6  1  0.668010  0.000188  0.249059  1
  Pr  Pr7  1  0.502540  0.685858  0.595282  1
  Pr  Pr8  1  0.001327  0.814430  0.905725  1
  Pr  Pr9  1  0.499931  0.315438  0.094720  1
  Pr  Pr10  1  0.997631  0.185360  0.405445  1
  Pr  Pr11  1  0.497317  0.314880  0.405214  1
  Pr  Pr12  1  0.995498  0.185878  0.094621  1
  Pr  Pr13  1  0.503377  0.686165  0.904982  1
  Pr  Pr14  1  0.003104  0.814701  0.594692  1
  Nd  Nd15  1  0.662217  0.169320  0.624038  1
  Nd  Nd16  1  0.161862  0.330940  0.876117  1
  Nd  Nd17  1  0.337352  0.831712  0.123910  1
  Nd  Nd18  1  0.836928  0.668291  0.376315  1
  Nd  Nd19  1  0.336736  0.831550  0.376919  1
  Pb  Pb20  1  0.682892  0.962008  0.460797  1
  Pb  Pb21  1  0.181412  0.537821  0.039385  1
  Pb  Pb22  1  0.318478  0.038261  0.960519  1
  Pb  Pb23  1  0.817991  0.462050  0.539523  1
  Pb  Pb24  1  0.317024  0.037676  0.540020  1
  Pb  Pb25  1  0.818678  0.462829  0.959378  1
  Pb  Pb26  1  0.680658  0.963149  0.040353  1
  Pb  Pb27  1  0.181386  0.536871  0.459858  1
  Pb  Pb28  1  0.466540  0.392267  0.750449  1
  Pb  Pb29  1  0.966166  0.108096  0.749616  1
  Pb  Pb30  1  0.532874  0.609508  0.249968  1
  Pb  Pb31  1  0.032845  0.892638  0.250449  1
  Pb  Pb32  1  0.700964  0.852461  0.749435  1
  Pb  Pb33  1  0.201252  0.647191  0.750292  1
  Pb  Pb34  1  0.299813  0.146413  0.250053  1
  Pb  Pb35  1  0.800424  0.351460  0.250588  1
