# generated using pymatgen
data_Ho7Pa(TcB6)4
_symmetry_space_group_name_H-M   'P 1'
_cell_length_a   3.68682100
_cell_length_b   9.13931045
_cell_length_c   11.50798242
_cell_angle_alpha   90.14647502
_cell_angle_beta   90.00000000
_cell_angle_gamma   90.00000000
_symmetry_Int_Tables_number   1
_chemical_formula_structural   Ho7Pa(TcB6)4
_chemical_formula_sum   'Ho7 Pa1 Tc4 B24'
_cell_volume   387.76022007
_cell_formula_units_Z   1
loop_
 _symmetry_equiv_pos_site_id
 _symmetry_equiv_pos_as_xyz
  1  'x, y, z'
loop_
 _atom_site_type_symbol
 _atom_site_label
 _atom_site_symmetry_multiplicity
 _atom_site_fract_x
 _atom_site_fract_y
 _atom_site_fract_z
 _atom_site_occupancy
  Ho  Ho0  1  0.000000  0.678864  0.586681  1
  Ho  Ho1  1  0.000000  0.823657  0.084894  1
  Ho  Ho2  1  0.000000  0.175366  0.913833  1
  Ho  Ho3  1  0.000000  0.942181  0.370756  1
  Ho  Ho4  1  0.000000  0.055747  0.630032  1
  Ho  Ho5  1  0.000000  0.443052  0.128439  1
  Ho  Ho6  1  0.000000  0.557620  0.869652  1
  Pa  Pa7  1  0.000000  0.323705  0.414334  1
  Tc  Tc8  1  0.000000  0.636158  0.321819  1
  Tc  Tc9  1  0.000000  0.361832  0.676455  1
  Tc  Tc10  1  0.000000  0.140605  0.181758  1
  Tc  Tc11  1  0.000000  0.861617  0.820747  1
  B  B12  1  0.500000  0.553062  0.432424  1
  B  B13  1  0.500000  0.445958  0.567065  1
  B  B14  1  0.500000  0.053865  0.067348  1
  B  B15  1  0.500000  0.946967  0.933627  1
  B  B16  1  0.500000  0.748799  0.418553  1
  B  B17  1  0.500000  0.250944  0.581124  1
  B  B18  1  0.500000  0.248617  0.080760  1
  B  B19  1  0.500000  0.751196  0.919002  1
  B  B20  1  0.500000  0.791387  0.265515  1
  B  B21  1  0.500000  0.208306  0.735023  1
  B  B22  1  0.500000  0.291568  0.234832  1
  B  B23  1  0.500000  0.708299  0.765211  1
  B  B24  1  0.500000  0.631088  0.184877  1
  B  B25  1  0.500000  0.369480  0.814224  1
  B  B26  1  0.500000  0.131691  0.315016  1
  B  B27  1  0.500000  0.868843  0.685743  1
  B  B28  1  0.500000  0.982542  0.211961  1
  B  B29  1  0.500000  0.017723  0.788405  1
  B  B30  1  0.500000  0.482850  0.287817  1
  B  B31  1  0.500000  0.517670  0.712438  1
  B  B32  1  0.500000  0.602036  0.027970  1
  B  B33  1  0.500000  0.398035  0.971032  1
  B  B34  1  0.500000  0.104002  0.471288  1
  B  B35  1  0.500000  0.894669  0.529349  1
