# generated using pymatgen
data_Y3ErZnCo
_symmetry_space_group_name_H-M   'P 1'
_cell_length_a   9.36576352
_cell_length_b   9.36576372
_cell_length_c   9.36576300
_cell_angle_alpha   59.99999899
_cell_angle_beta   59.99999832
_cell_angle_gamma   59.99999956
_symmetry_Int_Tables_number   1
_chemical_formula_structural   Y3ErZnCo
_chemical_formula_sum   'Y12 Er4 Zn4 Co4'
_cell_volume   580.91760840
_cell_formula_units_Z   4
loop_
 _symmetry_equiv_pos_site_id
 _symmetry_equiv_pos_as_xyz
  1  'x, y, z'
loop_
 _atom_site_type_symbol
 _atom_site_label
 _atom_site_symmetry_multiplicity
 _atom_site_fract_x
 _atom_site_fract_y
 _atom_site_fract_z
 _atom_site_occupancy
  Y  Y0  1  0.058752  0.441248  0.441248  1
  Y  Y1  1  0.441248  0.058752  0.058752  1
  Y  Y2  1  0.441248  0.058752  0.441248  1
  Y  Y3  1  0.058752  0.441248  0.058752  1
  Y  Y4  1  0.441248  0.441248  0.058752  1
  Y  Y5  1  0.058752  0.058752  0.441248  1
  Y  Y6  1  0.188405  0.811595  0.811595  1
  Y  Y7  1  0.811595  0.188405  0.188405  1
  Y  Y8  1  0.811595  0.188405  0.811595  1
  Y  Y9  1  0.188405  0.811595  0.188405  1
  Y  Y10  1  0.811595  0.811595  0.188405  1
  Y  Y11  1  0.188405  0.188405  0.811595  1
  Er  Er12  1  0.599081  0.599081  0.599081  1
  Er  Er13  1  0.599081  0.599081  0.202757  1
  Er  Er14  1  0.599081  0.202757  0.599081  1
  Er  Er15  1  0.202757  0.599081  0.599081  1
  Zn  Zn16  1  0.827680  0.827680  0.827680  1
  Zn  Zn17  1  0.827680  0.827680  0.516959  1
  Zn  Zn18  1  0.827680  0.516959  0.827680  1
  Zn  Zn19  1  0.516959  0.827680  0.827680  1
  Co  Co20  1  0.392937  0.392937  0.392937  1
  Co  Co21  1  0.392937  0.392937  0.821190  1
  Co  Co22  1  0.392937  0.821190  0.392937  1
  Co  Co23  1  0.821190  0.392937  0.392937  1
