# generated using pymatgen
data_Gd2Hf4Sn5
_symmetry_space_group_name_H-M   'P 1'
_cell_length_a   11.11832538
_cell_length_b   11.11832446
_cell_length_c   11.11832500
_cell_angle_alpha   148.93070913
_cell_angle_beta   131.87820388
_cell_angle_gamma   58.39278540
_symmetry_Int_Tables_number   1
_chemical_formula_structural   Gd2Hf4Sn5
_chemical_formula_sum   'Gd4 Hf8 Sn10'
_cell_volume   524.03714596
_cell_formula_units_Z   2
loop_
 _symmetry_equiv_pos_site_id
 _symmetry_equiv_pos_as_xyz
  1  'x, y, z'
loop_
 _atom_site_type_symbol
 _atom_site_label
 _atom_site_symmetry_multiplicity
 _atom_site_fract_x
 _atom_site_fract_y
 _atom_site_fract_z
 _atom_site_occupancy
  Gd  Gd0  1  0.256689  0.143310  0.113379  1
  Gd  Gd1  1  0.743311  0.856690  0.886621  1
  Gd  Gd2  1  0.029931  0.643310  0.386621  1
  Gd  Gd3  1  0.970069  0.356690  0.613379  1
  Hf  Hf4  1  0.311252  0.561252  0.250000  1
  Hf  Hf5  1  0.688748  0.438748  0.750000  1
  Hf  Hf6  1  0.688748  0.938748  0.250000  1
  Hf  Hf7  1  0.311252  0.061252  0.750000  1
  Hf  Hf8  1  0.674197  0.435796  0.238402  1
  Hf  Hf9  1  0.325803  0.564204  0.761598  1
  Hf  Hf10  1  0.197395  0.935796  0.261598  1
  Hf  Hf11  1  0.802605  0.064204  0.738402  1
  Sn  Sn12  1  0.587145  0.289042  0.298102  1
  Sn  Sn13  1  0.412855  0.710958  0.701898  1
  Sn  Sn14  1  0.990941  0.789042  0.201898  1
  Sn  Sn15  1  0.009059  0.210958  0.798102  1
  Sn  Sn16  1  0.000000  0.250000  0.250000  1
  Sn  Sn17  1  0.000000  0.750000  0.750000  1
  Sn  Sn18  1  0.468893  0.066718  0.402173  1
  Sn  Sn19  1  0.531107  0.933282  0.597827  1
  Sn  Sn20  1  0.664546  0.566718  0.097827  1
  Sn  Sn21  1  0.335454  0.433282  0.902173  1
