# generated using pymatgen
data_Sc4Co9SiB4
_symmetry_space_group_name_H-M   'P 1'
_cell_length_a   4.97404000
_cell_length_b   4.97404000
_cell_length_c   19.14109600
_cell_angle_alpha   90.00000000
_cell_angle_beta   90.00000000
_cell_angle_gamma   120.00000000
_symmetry_Int_Tables_number   1
_chemical_formula_structural   Sc4Co9SiB4
_chemical_formula_sum   'Sc8 Co18 Si2 B8'
_cell_volume   410.12475131
_cell_formula_units_Z   2
loop_
 _symmetry_equiv_pos_site_id
 _symmetry_equiv_pos_as_xyz
  1  'x, y, z'
loop_
 _atom_site_type_symbol
 _atom_site_label
 _atom_site_symmetry_multiplicity
 _atom_site_fract_x
 _atom_site_fract_y
 _atom_site_fract_z
 _atom_site_occupancy
  Sc  Sc0  1  0.666667  0.333333  0.825230  1
  Sc  Sc1  1  0.666667  0.333333  0.975743  1
  Sc  Sc2  1  0.333333  0.666667  0.475743  1
  Sc  Sc3  1  0.333333  0.666667  0.024257  1
  Sc  Sc4  1  0.333333  0.666667  0.174770  1
  Sc  Sc5  1  0.666667  0.333333  0.524257  1
  Sc  Sc6  1  0.666667  0.333333  0.674770  1
  Sc  Sc7  1  0.333333  0.666667  0.325230  1
  Co  Co8  1  0.166038  0.332077  0.899060  1
  Co  Co9  1  0.166038  0.833962  0.600940  1
  Co  Co10  1  0.833962  0.166038  0.399060  1
  Co  Co11  1  0.333767  0.166884  0.250000  1
  Co  Co12  1  0.332077  0.166038  0.399060  1
  Co  Co13  1  0.833962  0.667923  0.100940  1
  Co  Co14  1  0.833962  0.667923  0.399060  1
  Co  Co15  1  0.833116  0.666233  0.250000  1
  Co  Co16  1  0.667923  0.833962  0.600940  1
  Co  Co17  1  0.666233  0.833116  0.750000  1
  Co  Co18  1  0.833962  0.166038  0.100940  1
  Co  Co19  1  0.667923  0.833962  0.899060  1
  Co  Co20  1  0.166884  0.333767  0.750000  1
  Co  Co21  1  0.166884  0.833116  0.750000  1
  Co  Co22  1  0.833116  0.166884  0.250000  1
  Co  Co23  1  0.332077  0.166038  0.100940  1
  Co  Co24  1  0.166038  0.833962  0.899060  1
  Co  Co25  1  0.166038  0.332077  0.600940  1
  Si  Si26  1  0.000000  0.000000  0.000000  1
  Si  Si27  1  0.000000  0.000000  0.500000  1
  B  B28  1  0.333333  0.666667  0.826586  1
  B  B29  1  0.333333  0.666667  0.673414  1
  B  B30  1  0.666667  0.333333  0.326586  1
  B  B31  1  0.000000  0.000000  0.825984  1
  B  B32  1  0.666667  0.333333  0.173414  1
  B  B33  1  0.000000  0.000000  0.674016  1
  B  B34  1  0.000000  0.000000  0.325984  1
  B  B35  1  0.000000  0.000000  0.174016  1
