# generated using pymatgen
data_LaPr11(ThPt3)2
_symmetry_space_group_name_H-M   'P 1'
_cell_length_a   6.54697000
_cell_length_b   10.27418218
_cell_length_c   10.27418153
_cell_angle_alpha   120.07131962
_cell_angle_beta   89.99659189
_cell_angle_gamma   90.00340354
_symmetry_Int_Tables_number   1
_chemical_formula_structural   LaPr11(ThPt3)2
_chemical_formula_sum   'La1 Pr11 Th2 Pt6'
_cell_volume   598.07123976
_cell_formula_units_Z   1
loop_
 _symmetry_equiv_pos_site_id
 _symmetry_equiv_pos_as_xyz
  1  'x, y, z'
loop_
 _atom_site_type_symbol
 _atom_site_label
 _atom_site_symmetry_multiplicity
 _atom_site_fract_x
 _atom_site_fract_y
 _atom_site_fract_z
 _atom_site_occupancy
  La  La0  1  0.247906  0.128309  0.871691  1
  Pr  Pr1  1  0.247572  0.743337  0.871891  1
  Pr  Pr2  1  0.247572  0.128109  0.256663  1
  Pr  Pr3  1  0.747545  0.871701  0.128299  1
  Pr  Pr4  1  0.747434  0.256453  0.128589  1
  Pr  Pr5  1  0.747434  0.871411  0.743547  1
  Pr  Pr6  1  0.446670  0.538065  0.461935  1
  Pr  Pr7  1  0.446694  0.923574  0.461632  1
  Pr  Pr8  1  0.446694  0.538368  0.076426  1
  Pr  Pr9  1  0.946366  0.461794  0.538206  1
  Pr  Pr10  1  0.946257  0.076117  0.537791  1
  Pr  Pr11  1  0.946257  0.462209  0.923883  1
  Th  Th12  1  0.467677  0.333605  0.666395  1
  Th  Th13  1  0.967378  0.666762  0.333238  1
  Pt  Pt14  1  0.181184  0.808387  0.191613  1
  Pt  Pt15  1  0.181180  0.382771  0.191080  1
  Pt  Pt16  1  0.181180  0.808920  0.617229  1
  Pt  Pt17  1  0.680836  0.191581  0.808419  1
  Pt  Pt18  1  0.681080  0.616883  0.808356  1
  Pt  Pt19  1  0.681080  0.191644  0.383117  1
