# generated using pymatgen
data_Nb8FeCuSe16
_symmetry_space_group_name_H-M   'P 1'
_cell_length_a   7.00521700
_cell_length_b   7.00521735
_cell_length_c   12.55148400
_cell_angle_alpha   90.00000000
_cell_angle_beta   90.00000000
_cell_angle_gamma   120.00000306
_symmetry_Int_Tables_number   1
_chemical_formula_structural   Nb8FeCuSe16
_chemical_formula_sum   'Nb8 Fe1 Cu1 Se16'
_cell_volume   533.41951832
_cell_formula_units_Z   1
loop_
 _symmetry_equiv_pos_site_id
 _symmetry_equiv_pos_as_xyz
  1  'x, y, z'
loop_
 _atom_site_type_symbol
 _atom_site_label
 _atom_site_symmetry_multiplicity
 _atom_site_fract_x
 _atom_site_fract_y
 _atom_site_fract_z
 _atom_site_occupancy
  Nb  Nb0  1  0.000000  0.000000  0.249346  1
  Nb  Nb1  1  0.000000  0.000000  0.750654  1
  Nb  Nb2  1  0.509113  0.018226  0.243835  1
  Nb  Nb3  1  0.981774  0.490887  0.243835  1
  Nb  Nb4  1  0.509113  0.490887  0.243835  1
  Nb  Nb5  1  0.490887  0.981774  0.756165  1
  Nb  Nb6  1  0.018226  0.509113  0.756165  1
  Nb  Nb7  1  0.490887  0.509113  0.756165  1
  Fe  Fe8  1  0.000000  0.000000  0.000000  1
  Cu  Cu9  1  0.000000  0.000000  0.500000  1
  Se  Se10  1  0.333333  0.666667  0.895501  1
  Se  Se11  1  0.666667  0.333333  0.104499  1
  Se  Se12  1  0.666667  0.333333  0.382605  1
  Se  Se13  1  0.333333  0.666667  0.617395  1
  Se  Se14  1  0.171363  0.828637  0.377035  1
  Se  Se15  1  0.171363  0.342724  0.377035  1
  Se  Se16  1  0.657276  0.828637  0.377035  1
  Se  Se17  1  0.828637  0.171363  0.622965  1
  Se  Se18  1  0.828637  0.657276  0.622965  1
  Se  Se19  1  0.342724  0.171363  0.622965  1
  Se  Se20  1  0.836298  0.163702  0.885869  1
  Se  Se21  1  0.836298  0.672596  0.885869  1
  Se  Se22  1  0.327404  0.163702  0.885869  1
  Se  Se23  1  0.163702  0.836298  0.114131  1
  Se  Se24  1  0.163702  0.327404  0.114131  1
  Se  Se25  1  0.672596  0.836298  0.114131  1
