# generated using pymatgen
data_Lu3In2GaCuPt2
_symmetry_space_group_name_H-M   'P 1'
_cell_length_a   7.46884867
_cell_length_b   7.45030664
_cell_length_c   3.75509700
_cell_angle_alpha   90.00000000
_cell_angle_beta   90.00000000
_cell_angle_gamma   119.91790655
_symmetry_Int_Tables_number   1
_chemical_formula_structural   Lu3In2GaCuPt2
_chemical_formula_sum   'Lu3 In2 Ga1 Cu1 Pt2'
_cell_volume   181.10826321
_cell_formula_units_Z   1
loop_
 _symmetry_equiv_pos_site_id
 _symmetry_equiv_pos_as_xyz
  1  'x, y, z'
loop_
 _atom_site_type_symbol
 _atom_site_label
 _atom_site_symmetry_multiplicity
 _atom_site_fract_x
 _atom_site_fract_y
 _atom_site_fract_z
 _atom_site_occupancy
  Lu  Lu0  1  0.000000  0.573950  0.500000  1
  Lu  Lu1  1  0.595575  0.003760  0.500000  1
  Lu  Lu2  1  0.404425  0.408185  0.500000  1
  In  In3  1  0.247095  0.996073  0.000000  1
  In  In4  1  0.752905  0.748978  0.000000  1
  Ga  Ga5  1  0.000000  0.255570  0.000000  1
  Cu  Cu6  1  0.000000  0.026099  0.500000  1
  Pt  Pt7  1  0.670643  0.329014  0.000000  1
  Pt  Pt8  1  0.329357  0.658372  0.000000  1
