# generated using pymatgen
data_Th2Al16Pd5Pt4
_symmetry_space_group_name_H-M   'P 1'
_cell_length_a   11.18612604
_cell_length_b   11.18205928
_cell_length_c   11.18205914
_cell_angle_alpha   158.57445651
_cell_angle_beta   114.94228047
_cell_angle_gamma   69.35215236
_symmetry_Int_Tables_number   1
_chemical_formula_structural   Th2Al16Pd5Pt4
_chemical_formula_sum   'Th2 Al16 Pd5 Pt4'
_cell_volume   459.89877595
_cell_formula_units_Z   1
loop_
 _symmetry_equiv_pos_site_id
 _symmetry_equiv_pos_as_xyz
  1  'x, y, z'
loop_
 _atom_site_type_symbol
 _atom_site_label
 _atom_site_symmetry_multiplicity
 _atom_site_fract_x
 _atom_site_fract_y
 _atom_site_fract_z
 _atom_site_occupancy
  Th  Th0  1  0.227739  0.227930  0.999810  1
  Th  Th1  1  0.770861  0.772011  0.998850  1
  Al  Al2  1  0.272174  0.391983  0.880191  1
  Al  Al3  1  0.093294  0.920584  0.172711  1
  Al  Al4  1  0.508672  0.202890  0.305783  1
  Al  Al5  1  0.251549  0.079619  0.171930  1
  Al  Al6  1  0.914450  0.415044  0.499406  1
  Al  Al7  1  0.727708  0.607623  0.120085  1
  Al  Al8  1  0.896661  0.203019  0.693642  1
  Al  Al9  1  0.490710  0.797023  0.693687  1
  Al  Al10  1  0.386434  0.999749  0.386685  1
  Al  Al11  1  0.613154  0.000008  0.613145  1
  Al  Al12  1  0.487727  0.607842  0.879884  1
  Al  Al13  1  0.104215  0.797211  0.307005  1
  Al  Al14  1  0.907730  0.079523  0.828206  1
  Al  Al15  1  0.748585  0.920687  0.827897  1
  Al  Al16  1  0.512017  0.392192  0.119824  1
  Al  Al17  1  0.084908  0.585053  0.499855  1
  Pd  Pd18  1  0.751214  0.499899  0.251315  1
  Pd  Pd19  1  0.023894  0.339974  0.683919  1
  Pd  Pd20  1  0.627105  0.127162  0.499943  1
  Pd  Pd21  1  0.247825  0.499618  0.748208  1
  Pd  Pd22  1  0.373439  0.872795  0.500644  1
  Pt  Pt23  1  0.000435  0.000063  0.000372  1
  Pt  Pt24  1  0.656147  0.339394  0.316752  1
  Pt  Pt25  1  0.343637  0.660510  0.683128  1
  Pt  Pt26  1  0.977715  0.660594  0.317122  1
