# generated using pymatgen
data_Tb3Dy2In3Cl
_symmetry_space_group_name_H-M   'P 1'
_cell_length_a   9.19169000
_cell_length_b   9.19168910
_cell_length_c   6.64005300
_cell_angle_alpha   90.00000000
_cell_angle_beta   90.00000000
_cell_angle_gamma   120.00000325
_symmetry_Int_Tables_number   1
_chemical_formula_structural   Tb3Dy2In3Cl
_chemical_formula_sum   'Tb6 Dy4 In6 Cl2'
_cell_volume   485.83954159
_cell_formula_units_Z   2
loop_
 _symmetry_equiv_pos_site_id
 _symmetry_equiv_pos_as_xyz
  1  'x, y, z'
loop_
 _atom_site_type_symbol
 _atom_site_label
 _atom_site_symmetry_multiplicity
 _atom_site_fract_x
 _atom_site_fract_y
 _atom_site_fract_z
 _atom_site_occupancy
  Tb  Tb0  1  0.741422  0.741422  0.250000  1
  Tb  Tb1  1  0.000000  0.741422  0.750000  1
  Tb  Tb2  1  0.741422  0.000000  0.750000  1
  Tb  Tb3  1  0.258578  0.258578  0.750000  1
  Tb  Tb4  1  0.000000  0.258578  0.250000  1
  Tb  Tb5  1  0.258578  0.000000  0.250000  1
  Dy  Dy6  1  0.333333  0.666667  0.500000  1
  Dy  Dy7  1  0.666667  0.333333  0.500000  1
  Dy  Dy8  1  0.333333  0.666667  0.000000  1
  Dy  Dy9  1  0.666667  0.333333  0.000000  1
  In  In10  1  0.394581  0.000000  0.750000  1
  In  In11  1  0.000000  0.605419  0.250000  1
  In  In12  1  0.605419  0.000000  0.250000  1
  In  In13  1  0.000000  0.394581  0.750000  1
  In  In14  1  0.394581  0.394581  0.250000  1
  In  In15  1  0.605419  0.605419  0.750000  1
  Cl  Cl16  1  0.000000  0.000000  0.500000  1
  Cl  Cl17  1  0.000000  0.000000  0.000000  1
