# generated using pymatgen
data_Yb2YTm17Pt16
_symmetry_space_group_name_H-M   'P 1'
_cell_length_a   7.42199361
_cell_length_b   7.50996034
_cell_length_c   14.58470815
_cell_angle_alpha   89.99090705
_cell_angle_beta   89.99811401
_cell_angle_gamma   90.23787070
_symmetry_Int_Tables_number   1
_chemical_formula_structural   Yb2YTm17Pt16
_chemical_formula_sum   'Yb2 Y1 Tm17 Pt16'
_cell_volume   812.92824634
_cell_formula_units_Z   1
loop_
 _symmetry_equiv_pos_site_id
 _symmetry_equiv_pos_as_xyz
  1  'x, y, z'
loop_
 _atom_site_type_symbol
 _atom_site_label
 _atom_site_symmetry_multiplicity
 _atom_site_fract_x
 _atom_site_fract_y
 _atom_site_fract_z
 _atom_site_occupancy
  Yb  Yb0  1  0.498836  0.320726  0.907338  1
  Yb  Yb1  1  0.500880  0.679369  0.407720  1
  Y  Y2  1  0.999158  0.820875  0.092491  1
  Tm  Tm3  1  0.680496  0.990038  0.250726  1
  Tm  Tm4  1  0.182182  0.509987  0.250969  1
  Tm  Tm5  1  0.817712  0.489931  0.750391  1
  Tm  Tm6  1  0.319497  0.010135  0.750273  1
  Tm  Tm7  1  0.655343  0.833420  0.621880  1
  Tm  Tm8  1  0.155233  0.665859  0.877032  1
  Tm  Tm9  1  0.845419  0.333640  0.377714  1
  Tm  Tm10  1  0.345426  0.167173  0.122086  1
  Tm  Tm11  1  0.345360  0.166621  0.377473  1
  Tm  Tm12  1  0.845257  0.332400  0.122315  1
  Tm  Tm13  1  0.154814  0.667661  0.622197  1
  Tm  Tm14  1  0.654803  0.833047  0.877162  1
  Tm  Tm15  1  0.998539  0.819905  0.406680  1
  Tm  Tm16  1  0.498384  0.681869  0.094074  1
  Tm  Tm17  1  0.501444  0.317885  0.594107  1
  Tm  Tm18  1  0.001781  0.181342  0.906523  1
  Tm  Tm19  1  0.001919  0.180415  0.592918  1
  Pt  Pt20  1  0.817570  0.642117  0.250029  1
  Pt  Pt21  1  0.315507  0.859394  0.247408  1
  Pt  Pt22  1  0.685268  0.140637  0.746682  1
  Pt  Pt23  1  0.180745  0.356574  0.748311  1
  Pt  Pt24  1  0.547217  0.383854  0.248321  1
  Pt  Pt25  1  0.046146  0.115643  0.250876  1
  Pt  Pt26  1  0.954300  0.885366  0.750126  1
  Pt  Pt27  1  0.452716  0.615682  0.748021  1
  Pt  Pt28  1  0.819139  0.529986  0.544781  1
  Pt  Pt29  1  0.313724  0.964094  0.957985  1
  Pt  Pt30  1  0.686952  0.036501  0.458639  1
  Pt  Pt31  1  0.181596  0.467444  0.043895  1
  Pt  Pt32  1  0.178162  0.462386  0.458619  1
  Pt  Pt33  1  0.682867  0.030141  0.042895  1
  Pt  Pt34  1  0.313925  0.971914  0.543493  1
  Pt  Pt35  1  0.821684  0.535971  0.957854  1
