# generated using pymatgen
data_AlGa2(Ni10B3)2
_symmetry_space_group_name_H-M   'P 1'
_cell_length_a   7.42172664
_cell_length_b   7.42172697
_cell_length_c   7.42172600
_cell_angle_alpha   60.00000431
_cell_angle_beta   60.00000287
_cell_angle_gamma   60.00000335
_symmetry_Int_Tables_number   1
_chemical_formula_structural   AlGa2(Ni10B3)2
_chemical_formula_sum   'Al1 Ga2 Ni20 B6'
_cell_volume   289.06790921
_cell_formula_units_Z   1
loop_
 _symmetry_equiv_pos_site_id
 _symmetry_equiv_pos_as_xyz
  1  'x, y, z'
loop_
 _atom_site_type_symbol
 _atom_site_label
 _atom_site_symmetry_multiplicity
 _atom_site_fract_x
 _atom_site_fract_y
 _atom_site_fract_z
 _atom_site_occupancy
  Al  Al0  1  0.000000  0.000000  0.000000  1
  Ga  Ga1  1  0.750000  0.750000  0.750000  1
  Ga  Ga2  1  0.250000  0.250000  0.250000  1
  Ni  Ni3  1  0.000000  0.337219  0.662781  1
  Ni  Ni4  1  0.000000  0.000000  0.662781  1
  Ni  Ni5  1  0.662781  0.337219  0.000000  1
  Ni  Ni6  1  0.000000  0.337219  0.000000  1
  Ni  Ni7  1  0.337219  0.000000  0.662781  1
  Ni  Ni8  1  0.337219  0.000000  0.000000  1
  Ni  Ni9  1  0.662781  0.000000  0.000000  1
  Ni  Ni10  1  0.337219  0.662781  0.000000  1
  Ni  Ni11  1  0.662781  0.000000  0.337219  1
  Ni  Ni12  1  0.000000  0.000000  0.337219  1
  Ni  Ni13  1  0.000000  0.662781  0.000000  1
  Ni  Ni14  1  0.000000  0.662781  0.337219  1
  Ni  Ni15  1  0.617392  0.147822  0.617392  1
  Ni  Ni16  1  0.382608  0.382608  0.852178  1
  Ni  Ni17  1  0.852178  0.382608  0.382608  1
  Ni  Ni18  1  0.382608  0.382608  0.382608  1
  Ni  Ni19  1  0.147822  0.617392  0.617392  1
  Ni  Ni20  1  0.617392  0.617392  0.617392  1
  Ni  Ni21  1  0.617392  0.617392  0.147822  1
  Ni  Ni22  1  0.382608  0.852178  0.382608  1
  B  B23  1  0.726294  0.273706  0.726294  1
  B  B24  1  0.726294  0.273706  0.273706  1
  B  B25  1  0.273706  0.726294  0.726294  1
  B  B26  1  0.273706  0.273706  0.726294  1
  B  B27  1  0.726294  0.726294  0.273706  1
  B  B28  1  0.273706  0.726294  0.273706  1
