# generated using pymatgen
data_Nb3CrCo2N
_symmetry_space_group_name_H-M   'P 1'
_cell_length_a   8.02533732
_cell_length_b   8.02561948
_cell_length_c   8.02584002
_cell_angle_alpha   59.99681355
_cell_angle_beta   60.00381234
_cell_angle_gamma   60.00285161
_symmetry_Int_Tables_number   1
_chemical_formula_structural   Nb3CrCo2N
_chemical_formula_sum   'Nb12 Cr4 Co8 N4'
_cell_volume   365.53483487
_cell_formula_units_Z   4
loop_
 _symmetry_equiv_pos_site_id
 _symmetry_equiv_pos_as_xyz
  1  'x, y, z'
loop_
 _atom_site_type_symbol
 _atom_site_label
 _atom_site_symmetry_multiplicity
 _atom_site_fract_x
 _atom_site_fract_y
 _atom_site_fract_z
 _atom_site_occupancy
  Nb  Nb0  1  0.803602  0.803610  0.196382  1
  Nb  Nb1  1  0.196385  0.196401  0.803605  1
  Nb  Nb2  1  0.803632  0.196389  0.803608  1
  Nb  Nb3  1  0.196394  0.803631  0.196370  1
  Nb  Nb4  1  0.196399  0.803607  0.803592  1
  Nb  Nb5  1  0.803636  0.196379  0.196354  1
  Nb  Nb6  1  0.446398  0.446390  0.053618  1
  Nb  Nb7  1  0.053615  0.053599  0.446395  1
  Nb  Nb8  1  0.446368  0.053611  0.446392  1
  Nb  Nb9  1  0.053606  0.446369  0.053630  1
  Nb  Nb10  1  0.053601  0.446393  0.446408  1
  Nb  Nb11  1  0.446364  0.053621  0.053646  1
  Cr  Cr12  1  0.125000  0.625000  0.625000  1
  Cr  Cr13  1  0.625000  0.125000  0.625000  1
  Cr  Cr14  1  0.625000  0.625000  0.125000  1
  Cr  Cr15  1  0.625000  0.625000  0.625000  1
  Co  Co16  1  0.726916  0.424371  0.424324  1
  Co  Co17  1  0.424364  0.726914  0.424353  1
  Co  Co18  1  0.424364  0.424392  0.726876  1
  Co  Co19  1  0.424383  0.424368  0.424323  1
  Co  Co20  1  0.523084  0.825629  0.825676  1
  Co  Co21  1  0.825636  0.523086  0.825647  1
  Co  Co22  1  0.825636  0.825608  0.523124  1
  Co  Co23  1  0.825617  0.825632  0.825677  1
  N  N24  1  0.625000  0.125000  0.125000  1
  N  N25  1  0.125000  0.625000  0.125000  1
  N  N26  1  0.125000  0.125000  0.625000  1
  N  N27  1  0.125000  0.125000  0.125000  1
