# generated using pymatgen
data_La8TbHo(In3Br)2
_symmetry_space_group_name_H-M   'P 1'
_cell_length_a   9.72238100
_cell_length_b   9.72238131
_cell_length_c   6.89791800
_cell_angle_alpha   90.00000000
_cell_angle_beta   90.00000000
_cell_angle_gamma   120.00000235
_symmetry_Int_Tables_number   1
_chemical_formula_structural   La8TbHo(In3Br)2
_chemical_formula_sum   'La8 Tb1 Ho1 In6 Br2'
_cell_volume   564.66898575
_cell_formula_units_Z   1
loop_
 _symmetry_equiv_pos_site_id
 _symmetry_equiv_pos_as_xyz
  1  'x, y, z'
loop_
 _atom_site_type_symbol
 _atom_site_label
 _atom_site_symmetry_multiplicity
 _atom_site_fract_x
 _atom_site_fract_y
 _atom_site_fract_z
 _atom_site_occupancy
  La  La0  1  0.733015  0.732680  0.253263  1
  La  La1  1  0.999665  0.732680  0.746737  1
  La  La2  1  0.733015  0.000335  0.746737  1
  La  La3  1  0.267320  0.266985  0.746737  1
  La  La4  1  0.999665  0.266985  0.253263  1
  La  La5  1  0.267320  0.000335  0.253263  1
  La  La6  1  0.333333  0.666667  0.000000  1
  La  La7  1  0.666667  0.333333  0.000000  1
  Tb  Tb8  1  0.333333  0.666667  0.500000  1
  Ho  Ho9  1  0.666667  0.333333  0.500000  1
  In  In10  1  0.393167  0.000458  0.743618  1
  In  In11  1  0.999542  0.606833  0.256382  1
  In  In12  1  0.607291  0.000458  0.256382  1
  In  In13  1  0.999542  0.392709  0.743618  1
  In  In14  1  0.393167  0.392709  0.256382  1
  In  In15  1  0.607291  0.606833  0.743618  1
  Br  Br16  1  0.000000  0.000000  0.500000  1
  Br  Br17  1  0.000000  0.000000  0.000000  1
