# generated using pymatgen
data_BaV(Sb4Os)3
_symmetry_space_group_name_H-M   'P 1'
_cell_length_a   8.21861627
_cell_length_b   8.24547217
_cell_length_c   8.24547246
_cell_angle_alpha   109.53710497
_cell_angle_beta   109.40525047
_cell_angle_gamma   109.40525563
_symmetry_Int_Tables_number   1
_chemical_formula_structural   BaV(Sb4Os)3
_chemical_formula_sum   'Ba1 V1 Sb12 Os3'
_cell_volume   430.48777893
_cell_formula_units_Z   1
loop_
 _symmetry_equiv_pos_site_id
 _symmetry_equiv_pos_as_xyz
  1  'x, y, z'
loop_
 _atom_site_type_symbol
 _atom_site_label
 _atom_site_symmetry_multiplicity
 _atom_site_fract_x
 _atom_site_fract_y
 _atom_site_fract_z
 _atom_site_occupancy
  Ba  Ba0  1  0.000000  0.000000  0.000000  1
  V  V1  1  0.500000  0.000000  0.000000  1
  Sb  Sb2  1  0.339995  0.186286  0.838843  1
  Sb  Sb3  1  0.660005  0.813714  0.161157  1
  Sb  Sb4  1  0.659154  0.500641  0.841008  1
  Sb  Sb5  1  0.340846  0.499359  0.158992  1
  Sb  Sb6  1  0.181854  0.841008  0.340366  1
  Sb  Sb7  1  0.818146  0.158992  0.659634  1
  Sb  Sb8  1  0.498847  0.838843  0.652557  1
  Sb  Sb9  1  0.501153  0.161157  0.347443  1
  Sb  Sb10  1  0.846291  0.347443  0.186286  1
  Sb  Sb11  1  0.153709  0.652557  0.813714  1
  Sb  Sb12  1  0.841488  0.659634  0.500641  1
  Sb  Sb13  1  0.158512  0.340366  0.499359  1
  Os  Os14  1  0.000000  0.000000  0.500000  1
  Os  Os15  1  0.000000  0.500000  0.000000  1
  Os  Os16  1  0.500000  0.500000  0.500000  1
