# generated using pymatgen
data_TbTh7VS17
_symmetry_space_group_name_H-M   'P 1'
_cell_length_a   8.06406133
_cell_length_b   8.06000893
_cell_length_c   10.66955254
_cell_angle_alpha   80.65166877
_cell_angle_beta   80.70005893
_cell_angle_gamma   64.98771847
_symmetry_Int_Tables_number   1
_chemical_formula_structural   TbTh7VS17
_chemical_formula_sum   'Tb1 Th7 V1 S17'
_cell_volume   616.74207469
_cell_formula_units_Z   1
loop_
 _symmetry_equiv_pos_site_id
 _symmetry_equiv_pos_as_xyz
  1  'x, y, z'
loop_
 _atom_site_type_symbol
 _atom_site_label
 _atom_site_symmetry_multiplicity
 _atom_site_fract_x
 _atom_site_fract_y
 _atom_site_fract_z
 _atom_site_occupancy
  Tb  Tb0  1  0.812555  0.303255  0.296315  1
  Th  Th1  1  0.300705  0.813902  0.293509  1
  Th  Th2  1  0.186036  0.698662  0.704446  1
  Th  Th3  1  0.699437  0.187168  0.703134  1
  Th  Th4  1  0.205856  0.205434  0.542830  1
  Th  Th5  1  0.794296  0.795797  0.452884  1
  Th  Th6  1  0.683982  0.677832  0.979590  1
  Th  Th7  1  0.316837  0.317823  0.025217  1
  V  V8  1  0.000117  0.001565  0.001471  1
  S  S9  1  0.825130  0.428869  0.530643  1
  S  S10  1  0.430936  0.822615  0.531263  1
  S  S11  1  0.177052  0.569394  0.468030  1
  S  S12  1  0.571975  0.176104  0.468976  1
  S  S13  1  0.943618  0.319223  0.029900  1
  S  S14  1  0.320725  0.944870  0.027339  1
  S  S15  1  0.055693  0.680147  0.971243  1
  S  S16  1  0.679853  0.056420  0.970855  1
  S  S17  1  0.206397  0.206589  0.278886  1
  S  S18  1  0.791925  0.791280  0.721724  1
  S  S19  1  0.060157  0.058650  0.776748  1
  S  S20  1  0.938743  0.946603  0.224145  1
  S  S21  1  0.303391  0.303572  0.755979  1
  S  S22  1  0.694738  0.696165  0.243851  1
  S  S23  1  0.519402  0.520653  0.831682  1
  S  S24  1  0.478358  0.481731  0.166157  1
  S  S25  1  0.002084  0.995680  0.503185  1
