# generated using pymatgen
data_Ba3SmRhO6
_symmetry_space_group_name_H-M   'P 1'
_cell_length_a   7.21431822
_cell_length_b   7.21431666
_cell_length_c   7.21431846
_cell_angle_alpha   92.96378104
_cell_angle_beta   92.96378216
_cell_angle_gamma   92.96378019
_symmetry_Int_Tables_number   1
_chemical_formula_structural   Ba3SmRhO6
_chemical_formula_sum   'Ba6 Sm2 Rh2 O12'
_cell_volume   373.91829345
_cell_formula_units_Z   2
loop_
 _symmetry_equiv_pos_site_id
 _symmetry_equiv_pos_as_xyz
  1  'x, y, z'
loop_
 _atom_site_type_symbol
 _atom_site_label
 _atom_site_symmetry_multiplicity
 _atom_site_fract_x
 _atom_site_fract_y
 _atom_site_fract_z
 _atom_site_occupancy
  Ba  Ba0  1  0.250000  0.881145  0.618855  1
  Ba  Ba1  1  0.881145  0.618855  0.250000  1
  Ba  Ba2  1  0.750000  0.118855  0.381145  1
  Ba  Ba3  1  0.381145  0.750000  0.118855  1
  Ba  Ba4  1  0.118855  0.381145  0.750000  1
  Ba  Ba5  1  0.618855  0.250000  0.881145  1
  Sm  Sm6  1  0.750000  0.750000  0.750000  1
  Sm  Sm7  1  0.250000  0.250000  0.250000  1
  Rh  Rh8  1  0.500000  0.500000  0.500000  1
  Rh  Rh9  1  0.000000  0.000000  0.000000  1
  O  O10  1  0.590974  0.782970  0.460756  1
  O  O11  1  0.460756  0.590974  0.782970  1
  O  O12  1  0.782970  0.460756  0.590974  1
  O  O13  1  0.909026  0.039244  0.717030  1
  O  O14  1  0.717030  0.909026  0.039244  1
  O  O15  1  0.039244  0.717030  0.909026  1
  O  O16  1  0.409026  0.217030  0.539244  1
  O  O17  1  0.539244  0.409026  0.217030  1
  O  O18  1  0.217030  0.539244  0.409026  1
  O  O19  1  0.090974  0.960756  0.282970  1
  O  O20  1  0.960756  0.282970  0.090974  1
  O  O21  1  0.282970  0.090974  0.960756  1
