# generated using pymatgen
data_Tb6TiMn(CrC6)2
_symmetry_space_group_name_H-M   'P 1'
_cell_length_a   8.21647000
_cell_length_b   8.21647058
_cell_length_c   5.01011900
_cell_angle_alpha   90.00000000
_cell_angle_beta   90.00000000
_cell_angle_gamma   119.99999657
_symmetry_Int_Tables_number   1
_chemical_formula_structural   Tb6TiMn(CrC6)2
_chemical_formula_sum   'Tb6 Ti1 Mn1 Cr2 C12'
_cell_volume   292.92016265
_cell_formula_units_Z   1
loop_
 _symmetry_equiv_pos_site_id
 _symmetry_equiv_pos_as_xyz
  1  'x, y, z'
loop_
 _atom_site_type_symbol
 _atom_site_label
 _atom_site_symmetry_multiplicity
 _atom_site_fract_x
 _atom_site_fract_y
 _atom_site_fract_z
 _atom_site_occupancy
  Tb  Tb0  1  0.621357  0.683266  0.748132  1
  Tb  Tb1  1  0.935895  0.618817  0.252735  1
  Tb  Tb2  1  0.682921  0.064105  0.252735  1
  Tb  Tb3  1  0.316734  0.938091  0.748132  1
  Tb  Tb4  1  0.061909  0.378643  0.748132  1
  Tb  Tb5  1  0.381183  0.317079  0.252735  1
  Ti  Ti6  1  0.000000  0.000000  0.501061  1
  Mn  Mn7  1  0.333333  0.666667  0.247913  1
  Cr  Cr8  1  0.000000  0.000000  0.999206  1
  Cr  Cr9  1  0.666667  0.333333  0.753467  1
  C  C10  1  0.963672  0.769306  0.753701  1
  C  C11  1  0.197633  0.962091  0.243816  1
  C  C12  1  0.764460  0.802367  0.243816  1
  C  C13  1  0.230694  0.194368  0.753701  1
  C  C14  1  0.805632  0.036328  0.753701  1
  C  C15  1  0.037909  0.235540  0.243816  1
  C  C16  1  0.863744  0.575840  0.757119  1
  C  C17  1  0.288238  0.860874  0.243947  1
  C  C18  1  0.572636  0.711762  0.243947  1
  C  C19  1  0.424160  0.287904  0.757119  1
  C  C20  1  0.139126  0.427364  0.243947  1
  C  C21  1  0.712096  0.136256  0.757119  1
