# generated using pymatgen
data_EuEr5(SbO7)2
_symmetry_space_group_name_H-M   'P 1'
_cell_length_a   6.44292504
_cell_length_b   6.44292453
_cell_length_c   7.50869964
_cell_angle_alpha   90.03901207
_cell_angle_beta   89.96098680
_cell_angle_gamma   109.04791231
_symmetry_Int_Tables_number   1
_chemical_formula_structural   EuEr5(SbO7)2
_chemical_formula_sum   'Eu1 Er5 Sb2 O14'
_cell_volume   294.62903919
_cell_formula_units_Z   1
loop_
 _symmetry_equiv_pos_site_id
 _symmetry_equiv_pos_as_xyz
  1  'x, y, z'
loop_
 _atom_site_type_symbol
 _atom_site_label
 _atom_site_symmetry_multiplicity
 _atom_site_fract_x
 _atom_site_fract_y
 _atom_site_fract_z
 _atom_site_occupancy
  Eu  Eu0  1  0.500000  0.500000  0.000000  1
  Er  Er1  1  0.500000  0.500000  0.500000  1
  Er  Er2  1  0.531251  0.000308  0.748534  1
  Er  Er3  1  0.000308  0.531251  0.251466  1
  Er  Er4  1  0.468749  0.999692  0.251466  1
  Er  Er5  1  0.999692  0.468749  0.748534  1
  Sb  Sb6  1  0.000000  0.000000  0.500000  1
  Sb  Sb7  1  0.000000  0.000000  0.000000  1
  O  O8  1  0.676874  0.928045  0.470079  1
  O  O9  1  0.928045  0.676874  0.529921  1
  O  O10  1  0.677116  0.932767  0.030294  1
  O  O11  1  0.932767  0.677116  0.969706  1
  O  O12  1  0.323126  0.071955  0.529921  1
  O  O13  1  0.071955  0.323126  0.470079  1
  O  O14  1  0.322884  0.067233  0.969706  1
  O  O15  1  0.067233  0.322884  0.030294  1
  O  O16  1  0.928886  0.071114  0.749862  1
  O  O17  1  0.071114  0.928886  0.250138  1
  O  O18  1  0.367294  0.632706  0.741492  1
  O  O19  1  0.632706  0.367294  0.258508  1
  O  O20  1  0.639182  0.360818  0.743338  1
  O  O21  1  0.360818  0.639182  0.256662  1
