# generated using pymatgen
data_Ti3Si2Mo2PRu
_symmetry_space_group_name_H-M   'P 1'
_cell_length_a   6.80611591
_cell_length_b   6.79310522
_cell_length_c   3.29003600
_cell_angle_alpha   90.00000000
_cell_angle_beta   90.00000000
_cell_angle_gamma   120.45198070
_symmetry_Int_Tables_number   1
_chemical_formula_structural   Ti3Si2Mo2PRu
_chemical_formula_sum   'Ti3 Si2 Mo2 P1 Ru1'
_cell_volume   131.13025830
_cell_formula_units_Z   1
loop_
 _symmetry_equiv_pos_site_id
 _symmetry_equiv_pos_as_xyz
  1  'x, y, z'
loop_
 _atom_site_type_symbol
 _atom_site_label
 _atom_site_symmetry_multiplicity
 _atom_site_fract_x
 _atom_site_fract_y
 _atom_site_fract_z
 _atom_site_occupancy
  Ti  Ti0  1  0.391343  0.398362  0.500000  1
  Ti  Ti1  1  0.593374  0.004966  0.500000  1
  Ti  Ti2  1  0.020079  0.599443  0.500000  1
  Si  Si3  1  0.989826  0.989392  0.500000  1
  Si  Si4  1  0.669379  0.342245  0.000000  1
  Mo  Mo5  1  0.003425  0.262720  0.000000  1
  Mo  Mo6  1  0.259047  0.996158  0.000000  1
  P  P7  1  0.340778  0.669444  0.000000  1
  Ru  Ru8  1  0.732750  0.737273  0.000000  1
