# generated using pymatgen
data_DyEr4Mg3(P3Ir4)4
_symmetry_space_group_name_H-M   'P 1'
_cell_length_a   12.78992300
_cell_length_b   12.78992255
_cell_length_c   3.97459300
_cell_angle_alpha   90.00000000
_cell_angle_beta   90.00000000
_cell_angle_gamma   119.99999858
_symmetry_Int_Tables_number   1
_chemical_formula_structural   DyEr4Mg3(P3Ir4)4
_chemical_formula_sum   'Dy1 Er4 Mg3 P12 Ir16'
_cell_volume   563.06579504
_cell_formula_units_Z   1
loop_
 _symmetry_equiv_pos_site_id
 _symmetry_equiv_pos_as_xyz
  1  'x, y, z'
loop_
 _atom_site_type_symbol
 _atom_site_label
 _atom_site_symmetry_multiplicity
 _atom_site_fract_x
 _atom_site_fract_y
 _atom_site_fract_z
 _atom_site_occupancy
  Dy  Dy0  1  0.666667  0.333333  0.500000  1
  Er  Er1  1  0.333333  0.666667  0.500000  1
  Er  Er2  1  0.999957  0.809641  0.000000  1
  Er  Er3  1  0.190359  0.190316  0.000000  1
  Er  Er4  1  0.809684  0.000043  0.000000  1
  Mg  Mg5  1  0.000005  0.445134  0.500000  1
  Mg  Mg6  1  0.554866  0.554871  0.500000  1
  Mg  Mg7  1  0.445129  0.999995  0.500000  1
  P  P8  1  0.999935  0.641842  0.500000  1
  P  P9  1  0.358158  0.358094  0.500000  1
  P  P10  1  0.641906  0.000065  0.500000  1
  P  P11  1  0.515746  0.688147  0.000000  1
  P  P12  1  0.311853  0.827600  0.000000  1
  P  P13  1  0.172400  0.484254  0.000000  1
  P  P14  1  0.483895  0.172054  0.000000  1
  P  P15  1  0.688160  0.516105  0.000000  1
  P  P16  1  0.827946  0.311840  0.000000  1
  P  P17  1  0.000027  0.177014  0.500000  1
  P  P18  1  0.822986  0.823014  0.500000  1
  P  P19  1  0.176986  0.999973  0.500000  1
  Ir  Ir20  1  0.508428  0.867615  0.000000  1
  Ir  Ir21  1  0.132385  0.640814  0.000000  1
  Ir  Ir22  1  0.359186  0.491572  0.000000  1
  Ir  Ir23  1  0.491044  0.359257  0.000000  1
  Ir  Ir24  1  0.868214  0.508956  0.000000  1
  Ir  Ir25  1  0.640743  0.131786  0.000000  1
  Ir  Ir26  1  0.000055  0.279085  0.000000  1
  Ir  Ir27  1  0.720915  0.720970  0.000000  1
  Ir  Ir28  1  0.279030  0.999945  0.000000  1
  Ir  Ir29  1  0.628284  0.806797  0.500000  1
  Ir  Ir30  1  0.193203  0.821487  0.500000  1
  Ir  Ir31  1  0.178513  0.371716  0.500000  1
  Ir  Ir32  1  0.371596  0.178410  0.500000  1
  Ir  Ir33  1  0.806815  0.628404  0.500000  1
  Ir  Ir34  1  0.821590  0.193185  0.500000  1
  Ir  Ir35  1  0.000000  0.000000  0.500000  1
