# generated using pymatgen
data_Ho8Mg3Sc9Si15Pt
_symmetry_space_group_name_H-M   'P 1'
_cell_length_a   7.01265866
_cell_length_b   7.42464949
_cell_length_c   13.91479500
_cell_angle_alpha   90.00000000
_cell_angle_beta   90.00000000
_cell_angle_gamma   90.29502302
_symmetry_Int_Tables_number   1
_chemical_formula_structural   Ho8Mg3Sc9Si15Pt
_chemical_formula_sum   'Ho8 Mg3 Sc9 Si15 Pt1'
_cell_volume   724.48552283
_cell_formula_units_Z   1
loop_
 _symmetry_equiv_pos_site_id
 _symmetry_equiv_pos_as_xyz
  1  'x, y, z'
loop_
 _atom_site_type_symbol
 _atom_site_label
 _atom_site_symmetry_multiplicity
 _atom_site_fract_x
 _atom_site_fract_y
 _atom_site_fract_z
 _atom_site_occupancy
  Ho  Ho0  1  0.011037  0.179795  0.094901  1
  Ho  Ho1  1  0.988373  0.822363  0.901497  1
  Ho  Ho2  1  0.486003  0.680151  0.903095  1
  Ho  Ho3  1  0.988373  0.822363  0.598503  1
  Ho  Ho4  1  0.514080  0.324995  0.096407  1
  Ho  Ho5  1  0.011037  0.179795  0.405099  1
  Ho  Ho6  1  0.514080  0.324995  0.403593  1
  Ho  Ho7  1  0.486003  0.680151  0.596905  1
  Mg  Mg8  1  0.155977  0.499316  0.750000  1
  Mg  Mg9  1  0.840664  0.492872  0.250000  1
  Mg  Mg10  1  0.661113  0.993394  0.750000  1
  Sc  Sc11  1  0.340135  0.006094  0.250000  1
  Sc  Sc12  1  0.324776  0.175030  0.626120  1
  Sc  Sc13  1  0.674152  0.819269  0.374383  1
  Sc  Sc14  1  0.166882  0.677809  0.374247  1
  Sc  Sc15  1  0.674152  0.819269  0.125617  1
  Sc  Sc16  1  0.829838  0.318967  0.628643  1
  Sc  Sc17  1  0.324776  0.175030  0.873880  1
  Sc  Sc18  1  0.829838  0.318967  0.871357  1
  Sc  Sc19  1  0.166882  0.677809  0.125753  1
  Si  Si20  1  0.970452  0.899286  0.250000  1
  Si  Si21  1  0.463722  0.614033  0.250000  1
  Si  Si22  1  0.528976  0.393566  0.750000  1
  Si  Si23  1  0.286342  0.870250  0.750000  1
  Si  Si24  1  0.712568  0.120981  0.250000  1
  Si  Si25  1  0.221790  0.372542  0.250000  1
  Si  Si26  1  0.775987  0.621416  0.750000  1
  Si  Si27  1  0.160504  0.465024  0.535119  1
  Si  Si28  1  0.842219  0.536973  0.466684  1
  Si  Si29  1  0.345333  0.968066  0.459342  1
  Si  Si30  1  0.842219  0.536973  0.033316  1
  Si  Si31  1  0.661390  0.035022  0.535105  1
  Si  Si32  1  0.160504  0.465024  0.964881  1
  Si  Si33  1  0.661390  0.035022  0.964895  1
  Si  Si34  1  0.345333  0.968066  0.040658  1
  Pt  Pt35  1  0.033102  0.109320  0.750000  1
