# generated using pymatgen
data_Er19Tm(Bi2P)4
_symmetry_space_group_name_H-M   'P 1'
_cell_length_a   7.90564104
_cell_length_b   8.94532001
_cell_length_c   12.00277607
_cell_angle_alpha   90.00408631
_cell_angle_beta   90.01162911
_cell_angle_gamma   90.00000148
_symmetry_Int_Tables_number   1
_chemical_formula_structural   Er19Tm(Bi2P)4
_chemical_formula_sum   'Er19 Tm1 Bi8 P4'
_cell_volume   848.81816730
_cell_formula_units_Z   1
loop_
 _symmetry_equiv_pos_site_id
 _symmetry_equiv_pos_as_xyz
  1  'x, y, z'
loop_
 _atom_site_type_symbol
 _atom_site_label
 _atom_site_symmetry_multiplicity
 _atom_site_fract_x
 _atom_site_fract_y
 _atom_site_fract_z
 _atom_site_occupancy
  Er  Er0  1  0.649095  0.749906  0.706278  1
  Er  Er1  1  0.350997  0.250202  0.293941  1
  Er  Er2  1  0.149375  0.250199  0.793803  1
  Er  Er3  1  0.851011  0.750201  0.206080  1
  Er  Er4  1  0.123772  0.750126  0.797912  1
  Er  Er5  1  0.876533  0.250006  0.202043  1
  Er  Er6  1  0.623755  0.250367  0.702309  1
  Er  Er7  1  0.376397  0.750080  0.297646  1
  Er  Er8  1  0.542642  0.749906  0.998383  1
  Er  Er9  1  0.457500  0.250148  0.001565  1
  Er  Er10  1  0.042541  0.250181  0.501699  1
  Er  Er11  1  0.957449  0.750003  0.498563  1
  Er  Er12  1  0.181922  0.553393  0.062550  1
  Er  Er13  1  0.318092  0.553581  0.562408  1
  Er  Er14  1  0.181411  0.946337  0.062461  1
  Er  Er15  1  0.681941  0.446685  0.437431  1
  Er  Er16  1  0.818424  0.053291  0.937904  1
  Er  Er17  1  0.681790  0.053503  0.437536  1
  Er  Er18  1  0.318119  0.946482  0.562348  1
  Tm  Tm19  1  0.818626  0.445369  0.937406  1
  Bi  Bi20  1  0.922033  0.010159  0.673489  1
  Bi  Bi21  1  0.078012  0.990089  0.326705  1
  Bi  Bi22  1  0.422283  0.990211  0.826717  1
  Bi  Bi23  1  0.077906  0.510148  0.326611  1
  Bi  Bi24  1  0.578127  0.010274  0.173240  1
  Bi  Bi25  1  0.922000  0.490058  0.673551  1
  Bi  Bi26  1  0.578178  0.489964  0.173244  1
  Bi  Bi27  1  0.422184  0.510096  0.826767  1
  P  P28  1  0.919422  0.748183  0.984093  1
  P  P29  1  0.078676  0.250762  0.015286  1
  P  P30  1  0.420526  0.250110  0.515499  1
  P  P31  1  0.579261  0.749982  0.484533  1
