# generated using pymatgen
data_Ca11Pr9(SnPb3)4
_symmetry_space_group_name_H-M   'P 1'
_cell_length_a   8.10232007
_cell_length_b   8.69650483
_cell_length_c   16.30710807
_cell_angle_alpha   89.96713674
_cell_angle_beta   89.99643726
_cell_angle_gamma   90.12347495
_symmetry_Int_Tables_number   1
_chemical_formula_structural   Ca11Pr9(SnPb3)4
_chemical_formula_sum   'Ca11 Pr9 Sn4 Pb12'
_cell_volume   1149.02639808
_cell_formula_units_Z   1
loop_
 _symmetry_equiv_pos_site_id
 _symmetry_equiv_pos_as_xyz
  1  'x, y, z'
loop_
 _atom_site_type_symbol
 _atom_site_label
 _atom_site_symmetry_multiplicity
 _atom_site_fract_x
 _atom_site_fract_y
 _atom_site_fract_z
 _atom_site_occupancy
  Ca  Ca0  1  0.331569  0.830441  0.878070  1
  Ca  Ca1  1  0.831685  0.668856  0.622265  1
  Ca  Ca2  1  0.668437  0.168628  0.376882  1
  Ca  Ca3  1  0.170321  0.331392  0.123789  1
  Ca  Ca4  1  0.667419  0.169048  0.123889  1
  Ca  Ca5  1  0.168395  0.331323  0.376919  1
  Ca  Ca6  1  0.330953  0.830566  0.622337  1
  Ca  Ca7  1  0.160358  0.496243  0.748649  1
  Ca  Ca8  1  0.658635  0.002713  0.748287  1
  Ca  Ca9  1  0.840277  0.501043  0.250204  1
  Ca  Ca10  1  0.339748  0.999942  0.250505  1
  Pr  Pr11  1  0.834128  0.671855  0.875534  1
  Pr  Pr12  1  0.492970  0.310465  0.904109  1
  Pr  Pr13  1  0.993985  0.187593  0.596849  1
  Pr  Pr14  1  0.505985  0.688774  0.402149  1
  Pr  Pr15  1  0.008506  0.811952  0.099543  1
  Pr  Pr16  1  0.506005  0.688055  0.099199  1
  Pr  Pr17  1  0.005729  0.811312  0.401736  1
  Pr  Pr18  1  0.492676  0.311954  0.595272  1
  Pr  Pr19  1  0.994387  0.185499  0.902208  1
  Sn  Sn20  1  0.289831  0.144450  0.749650  1
  Sn  Sn21  1  0.787757  0.356507  0.750907  1
  Sn  Sn22  1  0.710907  0.856264  0.249804  1
  Sn  Sn23  1  0.211972  0.644677  0.250072  1
  Pb  Pb24  1  0.322603  0.036713  0.040374  1
  Pb  Pb25  1  0.823540  0.464276  0.459662  1
  Pb  Pb26  1  0.676447  0.964010  0.539664  1
  Pb  Pb27  1  0.175928  0.533786  0.959597  1
  Pb  Pb28  1  0.676762  0.964339  0.960787  1
  Pb  Pb29  1  0.175179  0.535266  0.539734  1
  Pb  Pb30  1  0.322882  0.036025  0.460004  1
  Pb  Pb31  1  0.823156  0.463555  0.040135  1
  Pb  Pb32  1  0.529841  0.603963  0.750656  1
  Pb  Pb33  1  0.031297  0.897099  0.749726  1
  Pb  Pb34  1  0.469960  0.397130  0.250855  1
  Pb  Pb35  1  0.969768  0.104283  0.249975  1
