# generated using pymatgen
data_Pr8Sc12Ga2Si13Ag
_symmetry_space_group_name_H-M   'P 1'
_cell_length_a   7.31795181
_cell_length_b   7.55364552
_cell_length_c   14.42099580
_cell_angle_alpha   90.01382932
_cell_angle_beta   89.83923514
_cell_angle_gamma   90.20978527
_symmetry_Int_Tables_number   1
_chemical_formula_structural   Pr8Sc12Ga2Si13Ag
_chemical_formula_sum   'Pr8 Sc12 Ga2 Si13 Ag1'
_cell_volume   797.14396800
_cell_formula_units_Z   1
loop_
 _symmetry_equiv_pos_site_id
 _symmetry_equiv_pos_as_xyz
  1  'x, y, z'
loop_
 _atom_site_type_symbol
 _atom_site_label
 _atom_site_symmetry_multiplicity
 _atom_site_fract_x
 _atom_site_fract_y
 _atom_site_fract_z
 _atom_site_occupancy
  Pr  Pr0  1  0.010043  0.170697  0.400425  1
  Pr  Pr1  1  0.514969  0.327048  0.400639  1
  Pr  Pr2  1  0.487504  0.672314  0.899908  1
  Pr  Pr3  1  0.492357  0.674989  0.600238  1
  Pr  Pr4  1  0.987818  0.832234  0.597076  1
  Pr  Pr5  1  0.987479  0.828927  0.899976  1
  Pr  Pr6  1  0.510969  0.326485  0.099039  1
  Pr  Pr7  1  0.010918  0.173455  0.099276  1
  Sc  Sc8  1  0.339326  0.171311  0.627288  1
  Sc  Sc9  1  0.668993  0.823836  0.374790  1
  Sc  Sc10  1  0.663489  0.001095  0.750500  1
  Sc  Sc11  1  0.169369  0.676662  0.372656  1
  Sc  Sc12  1  0.829903  0.322143  0.873529  1
  Sc  Sc13  1  0.823287  0.325114  0.624960  1
  Sc  Sc14  1  0.838123  0.502142  0.253128  1
  Sc  Sc15  1  0.339418  0.996501  0.251499  1
  Sc  Sc16  1  0.329463  0.175759  0.873647  1
  Sc  Sc17  1  0.170584  0.673104  0.126724  1
  Sc  Sc18  1  0.670643  0.826952  0.126361  1
  Sc  Sc19  1  0.160963  0.495381  0.752923  1
  Ga  Ga20  1  0.845942  0.541069  0.039069  1
  Ga  Ga21  1  0.345104  0.959187  0.039045  1
  Si  Si22  1  0.287274  0.882722  0.749337  1
  Si  Si23  1  0.465958  0.624706  0.249719  1
  Si  Si24  1  0.034809  0.126951  0.749132  1
  Si  Si25  1  0.535229  0.377054  0.750349  1
  Si  Si26  1  0.966278  0.875907  0.250653  1
  Si  Si27  1  0.710580  0.117836  0.250254  1
  Si  Si28  1  0.151462  0.461241  0.959500  1
  Si  Si29  1  0.651214  0.037324  0.538812  1
  Si  Si30  1  0.347604  0.960898  0.461115  1
  Si  Si31  1  0.842509  0.541706  0.458259  1
  Si  Si32  1  0.790636  0.617534  0.749765  1
  Si  Si33  1  0.212168  0.382274  0.250882  1
  Si  Si34  1  0.652145  0.039418  0.959189  1
  Ag  Ag35  1  0.155469  0.458024  0.540338  1
