# generated using pymatgen
data_SmHo3Ru4F28
_symmetry_space_group_name_H-M   'P 1'
_cell_length_a   5.57089209
_cell_length_b   8.93615732
_cell_length_c   11.98042178
_cell_angle_alpha   63.41937527
_cell_angle_beta   89.92943737
_cell_angle_gamma   90.13833418
_symmetry_Int_Tables_number   1
_chemical_formula_structural   SmHo3Ru4F28
_chemical_formula_sum   'Sm1 Ho3 Ru4 F28'
_cell_volume   533.37283564
_cell_formula_units_Z   1
loop_
 _symmetry_equiv_pos_site_id
 _symmetry_equiv_pos_as_xyz
  1  'x, y, z'
loop_
 _atom_site_type_symbol
 _atom_site_label
 _atom_site_symmetry_multiplicity
 _atom_site_fract_x
 _atom_site_fract_y
 _atom_site_fract_z
 _atom_site_occupancy
  Sm  Sm0  1  0.741578  0.811720  0.269011  1
  Ho  Ho1  1  0.757385  0.811717  0.769370  1
  Ho  Ho2  1  0.258608  0.189348  0.730476  1
  Ho  Ho3  1  0.241639  0.194693  0.228892  1
  Ru  Ru4  1  0.755754  0.274419  0.953709  1
  Ru  Ru5  1  0.253973  0.726313  0.548330  1
  Ru  Ru6  1  0.246701  0.726911  0.041708  1
  Ru  Ru7  1  0.745727  0.270209  0.456203  1
  F  F8  1  0.451007  0.704503  0.916349  1
  F  F9  1  0.952768  0.294313  0.580132  1
  F  F10  1  0.548177  0.296261  0.078676  1
  F  F11  1  0.051905  0.703736  0.422518  1
  F  F12  1  0.454777  0.281228  0.547944  1
  F  F13  1  0.952757  0.717181  0.952079  1
  F  F14  1  0.544337  0.714891  0.458109  1
  F  F15  1  0.045374  0.285203  0.045637  1
  F  F16  1  0.765874  0.512326  0.858435  1
  F  F17  1  0.263938  0.487405  0.643219  1
  F  F18  1  0.234819  0.488348  0.138870  1
  F  F19  1  0.732698  0.508129  0.360273  1
  F  F20  1  0.755853  0.037054  0.046619  1
  F  F21  1  0.254747  0.962619  0.455412  1
  F  F22  1  0.246525  0.964094  0.949883  1
  F  F23  1  0.745555  0.033224  0.548846  1
  F  F24  1  0.968707  0.731533  0.644077  1
  F  F25  1  0.473096  0.267003  0.857176  1
  F  F26  1  0.030588  0.268652  0.358755  1
  F  F27  1  0.532697  0.730213  0.136066  1
  F  F28  1  0.049791  0.746907  0.171273  1
  F  F29  1  0.541385  0.247577  0.329174  1
  F  F30  1  0.960424  0.249871  0.827647  1
  F  F31  1  0.456240  0.749841  0.674874  1
  F  F32  1  0.416320  0.977632  0.233181  1
  F  F33  1  0.926825  0.033951  0.267428  1
  F  F34  1  0.570727  0.025228  0.765705  1
  F  F35  1  0.070726  0.975750  0.733946  1
