# generated using pymatgen
data_Ca6TcSbO12
_symmetry_space_group_name_H-M   'P 1'
_cell_length_a   6.60249859
_cell_length_b   6.60249773
_cell_length_c   6.60249900
_cell_angle_alpha   91.96576388
_cell_angle_beta   91.96577231
_cell_angle_gamma   91.96577434
_symmetry_Int_Tables_number   1
_chemical_formula_structural   Ca6TcSbO12
_chemical_formula_sum   'Ca6 Tc1 Sb1 O12'
_cell_volume   287.30253000
_cell_formula_units_Z   1
loop_
 _symmetry_equiv_pos_site_id
 _symmetry_equiv_pos_as_xyz
  1  'x, y, z'
loop_
 _atom_site_type_symbol
 _atom_site_label
 _atom_site_symmetry_multiplicity
 _atom_site_fract_x
 _atom_site_fract_y
 _atom_site_fract_z
 _atom_site_occupancy
  Ca  Ca0  1  0.933832  0.434449  0.751207  1
  Ca  Ca1  1  0.751207  0.933832  0.434449  1
  Ca  Ca2  1  0.565551  0.248793  0.066168  1
  Ca  Ca3  1  0.434449  0.751207  0.933832  1
  Ca  Ca4  1  0.248793  0.066168  0.565551  1
  Ca  Ca5  1  0.066168  0.565551  0.248793  1
  Tc  Tc6  1  0.500000  0.500000  0.500000  1
  Sb  Sb7  1  0.000000  0.000000  0.000000  1
  O  O8  1  0.930240  0.290987  0.071293  1
  O  O9  1  0.928707  0.069760  0.709013  1
  O  O10  1  0.776166  0.573814  0.453438  1
  O  O11  1  0.709013  0.928707  0.069760  1
  O  O12  1  0.573814  0.453438  0.776166  1
  O  O13  1  0.546562  0.223834  0.426186  1
  O  O14  1  0.453438  0.776166  0.573814  1
  O  O15  1  0.426186  0.546562  0.223834  1
  O  O16  1  0.290987  0.071293  0.930240  1
  O  O17  1  0.223834  0.426186  0.546562  1
  O  O18  1  0.071293  0.930240  0.290987  1
  O  O19  1  0.069760  0.709013  0.928707  1
