# generated using pymatgen
data_TbY19(Bi2Os)4
_symmetry_space_group_name_H-M   'P 1'
_cell_length_a   7.98193430
_cell_length_b   9.08945092
_cell_length_c   12.51364317
_cell_angle_alpha   89.96041662
_cell_angle_beta   90.00752051
_cell_angle_gamma   90.00895024
_symmetry_Int_Tables_number   1
_chemical_formula_structural   TbY19(Bi2Os)4
_chemical_formula_sum   'Tb1 Y19 Bi8 Os4'
_cell_volume   907.88209606
_cell_formula_units_Z   1
loop_
 _symmetry_equiv_pos_site_id
 _symmetry_equiv_pos_as_xyz
  1  'x, y, z'
loop_
 _atom_site_type_symbol
 _atom_site_label
 _atom_site_symmetry_multiplicity
 _atom_site_fract_x
 _atom_site_fract_y
 _atom_site_fract_z
 _atom_site_occupancy
  Tb  Tb0  1  0.174222  0.540545  0.936355  1
  Y  Y1  1  0.841414  0.749908  0.791303  1
  Y  Y2  1  0.158488  0.250015  0.208263  1
  Y  Y3  1  0.341545  0.250029  0.708322  1
  Y  Y4  1  0.658497  0.750043  0.291621  1
  Y  Y5  1  0.374539  0.749774  0.692884  1
  Y  Y6  1  0.625402  0.249850  0.307308  1
  Y  Y7  1  0.874240  0.249913  0.806876  1
  Y  Y8  1  0.125218  0.750266  0.193073  1
  Y  Y9  1  0.943966  0.749999  0.504098  1
  Y  Y10  1  0.055911  0.249983  0.495802  1
  Y  Y11  1  0.444285  0.250357  0.995840  1
  Y  Y12  1  0.556360  0.749732  0.004019  1
  Y  Y13  1  0.674862  0.040675  0.564800  1
  Y  Y14  1  0.325224  0.959151  0.435170  1
  Y  Y15  1  0.174837  0.959487  0.935352  1
  Y  Y16  1  0.325100  0.540805  0.435250  1
  Y  Y17  1  0.825327  0.041073  0.064576  1
  Y  Y18  1  0.675025  0.459253  0.564641  1
  Y  Y19  1  0.824501  0.458940  0.065001  1
  Bi  Bi20  1  0.568907  0.493093  0.827749  1
  Bi  Bi21  1  0.431692  0.506842  0.172249  1
  Bi  Bi22  1  0.068414  0.506685  0.671866  1
  Bi  Bi23  1  0.431882  0.993316  0.171824  1
  Bi  Bi24  1  0.931691  0.493181  0.328078  1
  Bi  Bi25  1  0.568160  0.006646  0.828090  1
  Bi  Bi26  1  0.931716  0.006825  0.328032  1
  Bi  Bi27  1  0.068481  0.993202  0.671927  1
  Os  Os28  1  0.574254  0.749963  0.510074  1
  Os  Os29  1  0.425852  0.249973  0.490073  1
  Os  Os30  1  0.074293  0.250786  0.989565  1
  Os  Os31  1  0.925696  0.749689  0.009919  1
