# generated using pymatgen
data_Th8GaSi11Rh4
_symmetry_space_group_name_H-M   'P 1'
_cell_length_a   8.33577001
_cell_length_b   8.33576921
_cell_length_c   8.45726500
_cell_angle_alpha   89.99660450
_cell_angle_beta   90.00338863
_cell_angle_gamma   119.91939798
_symmetry_Int_Tables_number   1
_chemical_formula_structural   Th8GaSi11Rh4
_chemical_formula_sum   'Th8 Ga1 Si11 Rh4'
_cell_volume   509.33572199
_cell_formula_units_Z   1
loop_
 _symmetry_equiv_pos_site_id
 _symmetry_equiv_pos_as_xyz
  1  'x, y, z'
loop_
 _atom_site_type_symbol
 _atom_site_label
 _atom_site_symmetry_multiplicity
 _atom_site_fract_x
 _atom_site_fract_y
 _atom_site_fract_z
 _atom_site_occupancy
  Th  Th0  1  0.001753  0.998247  0.748583  1
  Th  Th1  1  0.001691  0.998309  0.251398  1
  Th  Th2  1  0.500021  0.499979  0.751046  1
  Th  Th3  1  0.498628  0.998936  0.750359  1
  Th  Th4  1  0.001064  0.501372  0.750359  1
  Th  Th5  1  0.501061  0.498939  0.248872  1
  Th  Th6  1  0.999052  0.500423  0.249670  1
  Th  Th7  1  0.499577  0.000948  0.249670  1
  Ga  Ga8  1  0.833616  0.166384  0.999847  1
  Si  Si9  1  0.834494  0.668257  0.999883  1
  Si  Si10  1  0.331743  0.165506  0.999883  1
  Si  Si11  1  0.833598  0.166402  0.500272  1
  Si  Si12  1  0.833563  0.666345  0.500298  1
  Si  Si13  1  0.333655  0.166437  0.500298  1
  Si  Si14  1  0.167210  0.832790  0.499632  1
  Si  Si15  1  0.666887  0.833397  0.499600  1
  Si  Si16  1  0.166603  0.333113  0.499600  1
  Si  Si17  1  0.166613  0.833387  0.000157  1
  Si  Si18  1  0.666154  0.830468  0.000177  1
  Si  Si19  1  0.169532  0.333846  0.000177  1
  Rh  Rh20  1  0.660420  0.339580  0.998372  1
  Rh  Rh21  1  0.666517  0.333483  0.501202  1
  Rh  Rh22  1  0.333760  0.666240  0.499179  1
  Rh  Rh23  1  0.332788  0.667212  0.001472  1
