# generated using pymatgen
data_Bi14RuO24
_symmetry_space_group_name_H-M   'P 1'
_cell_length_a   8.88505298
_cell_length_b   8.88459146
_cell_length_c   10.62121986
_cell_angle_alpha   114.38853772
_cell_angle_beta   114.38024423
_cell_angle_gamma   90.17222584
_symmetry_Int_Tables_number   1
_chemical_formula_structural   Bi14RuO24
_chemical_formula_sum   'Bi14 Ru1 O24'
_cell_volume   680.15276220
_cell_formula_units_Z   1
loop_
 _symmetry_equiv_pos_site_id
 _symmetry_equiv_pos_as_xyz
  1  'x, y, z'
loop_
 _atom_site_type_symbol
 _atom_site_label
 _atom_site_symmetry_multiplicity
 _atom_site_fract_x
 _atom_site_fract_y
 _atom_site_fract_z
 _atom_site_occupancy
  Bi  Bi0  1  0.128092  0.942577  0.660598  1
  Bi  Bi1  1  0.050337  0.469216  0.333441  1
  Bi  Bi2  1  0.341652  0.342338  0.680168  1
  Bi  Bi3  1  0.268349  0.867437  0.329133  1
  Bi  Bi4  1  0.212564  0.442206  0.995026  1
  Bi  Bi5  1  0.523043  0.719284  0.652645  1
  Bi  Bi6  1  0.464797  0.278476  0.331283  1
  Bi  Bi7  1  0.439724  0.785907  0.995865  1
  Bi  Bi8  1  0.715043  0.132979  0.659317  1
  Bi  Bi9  1  0.651022  0.659846  0.317261  1
  Bi  Bi10  1  0.557752  0.218537  0.998541  1
  Bi  Bi11  1  0.934634  0.529982  0.654748  1
  Bi  Bi12  1  0.864705  0.058815  0.333423  1
  Bi  Bi13  1  0.784437  0.563702  0.000711  1
  Ru  Ru14  1  0.979083  0.987966  0.972627  1
  O  O15  1  0.191587  0.082201  0.033054  1
  O  O16  1  0.996877  0.330689  0.495095  1
  O  O17  1  0.235295  0.544734  0.839038  1
  O  O18  1  0.295476  0.241633  0.837511  1
  O  O19  1  0.168756  0.004540  0.499697  1
  O  O20  1  0.107202  0.620318  0.230172  1
  O  O21  1  0.379363  0.883335  0.760444  1
  O  O22  1  0.323930  0.499488  0.497046  1
  O  O23  1  0.539490  0.606240  0.839142  1
  O  O24  1  0.596032  0.303692  0.838470  1
  O  O25  1  0.487862  0.819804  0.483195  1
  O  O26  1  0.496412  0.179407  0.504318  1
  O  O27  1  0.390129  0.700266  0.152766  1
  O  O28  1  0.454855  0.403173  0.157689  1
  O  O29  1  0.859465  0.146399  0.020120  1
  O  O30  1  0.665822  0.499905  0.486306  1
  O  O31  1  0.614576  0.117938  0.230773  1
  O  O32  1  0.877530  0.380691  0.760940  1
  O  O33  1  0.886695  0.872832  0.763171  1
  O  O34  1  0.821946  0.001669  0.493057  1
  O  O35  1  0.694513  0.764340  0.154744  1
  O  O36  1  0.755505  0.463535  0.159653  1
  O  O37  1  0.994081  0.670315  0.494361  1
  O  O38  1  0.974761  0.841988  0.049253  1
