# generated using pymatgen
data_LaPr2ZnRh8
_symmetry_space_group_name_H-M   'P 1'
_cell_length_a   5.42777500
_cell_length_b   5.42755373
_cell_length_c   17.40522100
_cell_angle_alpha   90.00000000
_cell_angle_beta   90.00000000
_cell_angle_gamma   120.00002979
_symmetry_Int_Tables_number   1
_chemical_formula_structural   LaPr2ZnRh8
_chemical_formula_sum   'La2 Pr4 Zn2 Rh16'
_cell_volume   444.05422969
_cell_formula_units_Z   2
loop_
 _symmetry_equiv_pos_site_id
 _symmetry_equiv_pos_as_xyz
  1  'x, y, z'
loop_
 _atom_site_type_symbol
 _atom_site_label
 _atom_site_symmetry_multiplicity
 _atom_site_fract_x
 _atom_site_fract_y
 _atom_site_fract_z
 _atom_site_occupancy
  La  La0  1  0.333337  0.666669  0.750000  1
  La  La1  1  0.666663  0.333331  0.250000  1
  Pr  Pr2  1  0.333332  0.666667  0.541420  1
  Pr  Pr3  1  0.666668  0.333333  0.041420  1
  Pr  Pr4  1  0.666668  0.333333  0.458580  1
  Pr  Pr5  1  0.333332  0.666667  0.958580  1
  Zn  Zn6  1  0.999998  0.999998  0.250000  1
  Zn  Zn7  1  0.000002  0.000002  0.750000  1
  Rh  Rh8  1  0.167516  0.335028  0.127262  1
  Rh  Rh9  1  0.832484  0.664972  0.627262  1
  Rh  Rh10  1  0.664975  0.832486  0.127261  1
  Rh  Rh11  1  0.167515  0.832487  0.127263  1
  Rh  Rh12  1  0.832485  0.167513  0.627263  1
  Rh  Rh13  1  0.335025  0.167514  0.627261  1
  Rh  Rh14  1  0.832484  0.664972  0.872738  1
  Rh  Rh15  1  0.832485  0.167513  0.872737  1
  Rh  Rh16  1  0.335025  0.167514  0.872739  1
  Rh  Rh17  1  0.664975  0.832486  0.372739  1
  Rh  Rh18  1  0.167515  0.832487  0.372737  1
  Rh  Rh19  1  0.167516  0.335028  0.372738  1
  Rh  Rh20  1  0.333341  0.666681  0.250000  1
  Rh  Rh21  1  0.666659  0.333319  0.750000  1
  Rh  Rh22  1  0.000000  0.000000  0.000000  1
  Rh  Rh23  1  0.000000  0.000000  0.500000  1
