# generated using pymatgen
data_ErTl2Bi3(SbO7)2
_symmetry_space_group_name_H-M   'P 1'
_cell_length_a   6.61956590
_cell_length_b   6.51685466
_cell_length_c   7.71830359
_cell_angle_alpha   107.38046073
_cell_angle_beta   89.49927335
_cell_angle_gamma   98.48114867
_symmetry_Int_Tables_number   1
_chemical_formula_structural   ErTl2Bi3(SbO7)2
_chemical_formula_sum   'Er1 Tl2 Bi3 Sb2 O14'
_cell_volume   314.06095400
_cell_formula_units_Z   1
loop_
 _symmetry_equiv_pos_site_id
 _symmetry_equiv_pos_as_xyz
  1  'x, y, z'
loop_
 _atom_site_type_symbol
 _atom_site_label
 _atom_site_symmetry_multiplicity
 _atom_site_fract_x
 _atom_site_fract_y
 _atom_site_fract_z
 _atom_site_occupancy
  Er  Er0  1  0.253592  0.537572  0.884635  1
  Tl  Tl1  1  0.531176  0.998931  0.749967  1
  Tl  Tl2  1  0.468409  0.999252  0.251709  1
  Bi  Bi3  1  0.745849  0.470302  0.112850  1
  Bi  Bi4  1  0.735815  0.472318  0.616174  1
  Bi  Bi5  1  0.254138  0.524257  0.385367  1
  Sb  Sb6  1  0.002932  0.005797  0.502616  1
  Sb  Sb7  1  0.004485  0.001417  0.999191  1
  O  O8  1  0.438760  0.648198  0.164291  1
  O  O9  1  0.542810  0.349205  0.824896  1
  O  O10  1  0.286487  0.923323  0.955566  1
  O  O11  1  0.715847  0.057246  0.042701  1
  O  O12  1  0.282884  0.919145  0.503749  1
  O  O13  1  0.719669  0.083601  0.497860  1
  O  O14  1  0.532749  0.349411  0.348107  1
  O  O15  1  0.455922  0.648042  0.662214  1
  O  O16  1  0.936091  0.674885  0.953414  1
  O  O17  1  0.085394  0.320999  0.036524  1
  O  O18  1  0.098326  0.323404  0.625861  1
  O  O19  1  0.905878  0.685896  0.380846  1
  O  O20  1  0.919299  0.932297  0.732984  1
  O  O21  1  0.083490  0.074503  0.268472  1
