# generated using pymatgen
data_PrNd3In4(Sn3Rh2)4
_symmetry_space_group_name_H-M   'P 1'
_cell_length_a   4.57917600
_cell_length_b   7.14693416
_cell_length_c   18.75071400
_cell_angle_alpha   89.98802285
_cell_angle_beta   90.00000000
_cell_angle_gamma   90.00000000
_symmetry_Int_Tables_number   1
_chemical_formula_structural   PrNd3In4(Sn3Rh2)4
_chemical_formula_sum   'Pr1 Nd3 In4 Sn12 Rh8'
_cell_volume   613.65590425
_cell_formula_units_Z   1
loop_
 _symmetry_equiv_pos_site_id
 _symmetry_equiv_pos_as_xyz
  1  'x, y, z'
loop_
 _atom_site_type_symbol
 _atom_site_label
 _atom_site_symmetry_multiplicity
 _atom_site_fract_x
 _atom_site_fract_y
 _atom_site_fract_z
 _atom_site_occupancy
  Pr  Pr0  1  0.750000  0.501415  0.640440  1
  Nd  Nd1  1  0.250000  0.001496  0.859436  1
  Nd  Nd2  1  0.250000  0.498611  0.359527  1
  Nd  Nd3  1  0.750000  0.998557  0.140517  1
  In  In4  1  0.250000  0.307892  0.179694  1
  In  In5  1  0.250000  0.191235  0.679996  1
  In  In6  1  0.750000  0.692093  0.820293  1
  In  In7  1  0.750000  0.807878  0.320218  1
  Sn  Sn8  1  0.250000  0.726097  0.198945  1
  Sn  Sn9  1  0.250000  0.774759  0.699301  1
  Sn  Sn10  1  0.750000  0.273644  0.801344  1
  Sn  Sn11  1  0.750000  0.226162  0.301024  1
  Sn  Sn12  1  0.250000  0.863724  0.032760  1
  Sn  Sn13  1  0.250000  0.636902  0.532394  1
  Sn  Sn14  1  0.750000  0.136338  0.967089  1
  Sn  Sn15  1  0.750000  0.363438  0.467001  1
  Sn  Sn16  1  0.250000  0.522813  0.927952  1
  Sn  Sn17  1  0.250000  0.977282  0.427983  1
  Sn  Sn18  1  0.750000  0.477283  0.071990  1
  Sn  Sn19  1  0.750000  0.022314  0.572052  1
  Rh  Rh20  1  0.250000  0.254386  0.031657  1
  Rh  Rh21  1  0.250000  0.245429  0.531618  1
  Rh  Rh22  1  0.750000  0.745593  0.968240  1
  Rh  Rh23  1  0.750000  0.754614  0.468120  1
  Rh  Rh24  1  0.250000  0.029173  0.284413  1
  Rh  Rh25  1  0.250000  0.470715  0.784652  1
  Rh  Rh26  1  0.750000  0.971052  0.715813  1
  Rh  Rh27  1  0.750000  0.529104  0.215527  1
