# generated using pymatgen
data_Sm2HoEr(SeO3)6
_symmetry_space_group_name_H-M   'P 1'
_cell_length_a   7.17336977
_cell_length_b   8.21915122
_cell_length_c   9.14002588
_cell_angle_alpha   71.06614095
_cell_angle_beta   70.14665009
_cell_angle_gamma   66.16039472
_symmetry_Int_Tables_number   1
_chemical_formula_structural   Sm2HoEr(SeO3)6
_chemical_formula_sum   'Sm2 Ho1 Er1 Se6 O18'
_cell_volume   452.50327825
_cell_formula_units_Z   1
loop_
 _symmetry_equiv_pos_site_id
 _symmetry_equiv_pos_as_xyz
  1  'x, y, z'
loop_
 _atom_site_type_symbol
 _atom_site_label
 _atom_site_symmetry_multiplicity
 _atom_site_fract_x
 _atom_site_fract_y
 _atom_site_fract_z
 _atom_site_occupancy
  Sm  Sm0  1  0.333157  0.729350  0.591519  1
  Sm  Sm1  1  0.666733  0.270841  0.408355  1
  Ho  Ho2  1  0.740927  0.735732  0.800423  1
  Er  Er3  1  0.259038  0.264222  0.199570  1
  Se  Se4  1  0.425396  0.780508  0.194918  1
  Se  Se5  1  0.574066  0.220178  0.805430  1
  Se  Se6  1  0.149302  0.747193  0.968046  1
  Se  Se7  1  0.850849  0.251746  0.032784  1
  Se  Se8  1  0.887042  0.756558  0.417922  1
  Se  Se9  1  0.113239  0.243514  0.581382  1
  O  O10  1  0.645938  0.793019  0.048679  1
  O  O11  1  0.353873  0.207300  0.952180  1
  O  O12  1  0.362533  0.948705  0.297547  1
  O  O13  1  0.636880  0.052520  0.702227  1
  O  O14  1  0.514578  0.599690  0.347461  1
  O  O15  1  0.485115  0.400737  0.652641  1
  O  O16  1  0.170899  0.561492  0.120952  1
  O  O17  1  0.829632  0.436978  0.879402  1
  O  O18  1  0.405823  0.710973  0.851099  1
  O  O19  1  0.593830  0.288905  0.149183  1
  O  O20  1  0.342361  0.249640  0.432931  1
  O  O21  1  0.657664  0.750397  0.566021  1
  O  O22  1  0.971867  0.292557  0.440599  1
  O  O23  1  0.028654  0.707433  0.558601  1
  O  O24  1  0.153061  0.019284  0.657589  1
  O  O25  1  0.846955  0.980772  0.342349  1
  O  O26  1  0.938768  0.302871  0.163068  1
  O  O27  1  0.061822  0.696883  0.837122  1
