# generated using pymatgen
data_Eu2PPd5Pt3
_symmetry_space_group_name_H-M   'P 1'
_cell_length_a   9.23476013
_cell_length_b   9.23476099
_cell_length_c   4.38382800
_cell_angle_alpha   90.00000000
_cell_angle_beta   90.00000000
_cell_angle_gamma   145.77130378
_symmetry_Int_Tables_number   1
_chemical_formula_structural   Eu2PPd5Pt3
_chemical_formula_sum   'Eu2 P1 Pd5 Pt3'
_cell_volume   210.29329065
_cell_formula_units_Z   1
loop_
 _symmetry_equiv_pos_site_id
 _symmetry_equiv_pos_as_xyz
  1  'x, y, z'
loop_
 _atom_site_type_symbol
 _atom_site_label
 _atom_site_symmetry_multiplicity
 _atom_site_fract_x
 _atom_site_fract_y
 _atom_site_fract_z
 _atom_site_occupancy
  Eu  Eu0  1  0.618065  0.372555  0.500000  1
  Eu  Eu1  1  0.372555  0.618065  0.500000  1
  P  P2  1  0.217448  0.217448  0.000000  1
  Pd  Pd3  1  0.109705  0.888939  0.000000  1
  Pd  Pd4  1  0.888939  0.109705  0.000000  1
  Pd  Pd5  1  0.196756  0.789700  0.500000  1
  Pd  Pd6  1  0.789700  0.196756  0.500000  1
  Pd  Pd7  1  0.010356  0.010356  0.500000  1
  Pt  Pt8  1  0.491449  0.988358  0.000000  1
  Pt  Pt9  1  0.988358  0.491449  0.000000  1
  Pt  Pt10  1  0.630269  0.630269  0.000000  1
