# generated using pymatgen
data_Hf2Zr2Mn(PO4)6
_symmetry_space_group_name_H-M   'P 1'
_cell_length_a   8.94925994
_cell_length_b   8.94925978
_cell_length_c   8.96130930
_cell_angle_alpha   90.00000788
_cell_angle_beta   119.95552485
_cell_angle_gamma   119.99999474
_symmetry_Int_Tables_number   1
_chemical_formula_structural   Hf2Zr2Mn(PO4)6
_chemical_formula_sum   'Hf2 Zr2 Mn1 P6 O24'
_cell_volume   507.83465756
_cell_formula_units_Z   1
loop_
 _symmetry_equiv_pos_site_id
 _symmetry_equiv_pos_as_xyz
  1  'x, y, z'
loop_
 _atom_site_type_symbol
 _atom_site_label
 _atom_site_symmetry_multiplicity
 _atom_site_fract_x
 _atom_site_fract_y
 _atom_site_fract_z
 _atom_site_occupancy
  Hf  Hf0  1  0.731883  0.365942  0.097825  1
  Hf  Hf1  1  0.293653  0.146827  0.440480  1
  Zr  Zr2  1  0.705550  0.852776  0.558327  1
  Zr  Zr3  1  0.266332  0.633165  0.899497  1
  Mn  Mn4  1  0.000075  0.000037  0.000112  1
  P  P5  1  0.479156  0.030100  0.237100  1
  P  P6  1  0.207001  0.449055  0.237100  1
  P  P7  1  0.788044  0.757945  0.237100  1
  P  P8  1  0.215583  0.240870  0.762777  1
  P  P9  1  0.788065  0.547196  0.762777  1
  P  P10  1  0.521909  0.974713  0.762777  1
  O  O11  1  0.195326  0.488462  0.067247  1
  O  O12  1  0.578785  0.706865  0.067247  1
  O  O13  1  0.360383  0.871921  0.067247  1
  O  O14  1  0.313276  0.050027  0.234549  1
  O  O15  1  0.184523  0.263250  0.234549  1
  O  O16  1  0.971300  0.921274  0.234549  1
  O  O17  1  0.646670  0.212282  0.245955  1
  O  O18  1  0.033672  0.434385  0.245955  1
  O  O19  1  0.811570  0.599285  0.245955  1
  O  O20  1  0.423515  0.603553  0.411775  1
  O  O21  1  0.808221  0.819962  0.411775  1
  O  O22  1  0.591813  0.988260  0.411775  1
  O  O23  1  0.409927  0.016711  0.588306  1
  O  O24  1  0.195090  0.178379  0.588306  1
  O  O25  1  0.571594  0.393216  0.588306  1
  O  O26  1  0.189266  0.398144  0.751080  1
  O  O27  1  0.959958  0.561814  0.751080  1
  O  O28  1  0.352935  0.791122  0.751080  1
  O  O29  1  0.035144  0.079616  0.769744  1
  O  O30  1  0.814216  0.734599  0.769744  1
  O  O31  1  0.690127  0.955527  0.769744  1
  O  O32  1  0.638114  0.131366  0.932717  1
  O  O33  1  0.425969  0.294602  0.932717  1
  O  O34  1  0.801350  0.506748  0.932717  1
