# generated using pymatgen
data_Na(TiS2)4
_symmetry_space_group_name_H-M   'P 1'
_cell_length_a   6.82983022
_cell_length_b   6.82983031
_cell_length_c   9.17076352
_cell_angle_alpha   56.39964176
_cell_angle_beta   56.39963959
_cell_angle_gamma   59.98373324
_symmetry_Int_Tables_number   1
_chemical_formula_structural   Na(TiS2)4
_chemical_formula_sum   'Na1 Ti4 S8'
_cell_volume   284.93698862
_cell_formula_units_Z   1
loop_
 _symmetry_equiv_pos_site_id
 _symmetry_equiv_pos_as_xyz
  1  'x, y, z'
loop_
 _atom_site_type_symbol
 _atom_site_label
 _atom_site_symmetry_multiplicity
 _atom_site_fract_x
 _atom_site_fract_y
 _atom_site_fract_z
 _atom_site_occupancy
  Na  Na0  1  0.500000  0.500000  0.500000  1
  Ti  Ti1  1  0.752773  0.247227  0.000000  1
  Ti  Ti2  1  0.247227  0.752773  0.000000  1
  Ti  Ti3  1  0.246141  0.246141  0.005535  1
  Ti  Ti4  1  0.753859  0.753859  0.994465  1
  S  S5  1  0.982847  0.483204  0.203366  1
  S  S6  1  0.483204  0.982847  0.203366  1
  S  S7  1  0.483498  0.483498  0.200784  1
  S  S8  1  0.981447  0.981447  0.205035  1
  S  S9  1  0.018553  0.018553  0.794965  1
  S  S10  1  0.516502  0.516502  0.799216  1
  S  S11  1  0.516796  0.017153  0.796634  1
  S  S12  1  0.017153  0.516796  0.796634  1
