# generated using pymatgen
data_Tb3YMg4(B6Ir)4
_symmetry_space_group_name_H-M   'P 1'
_cell_length_a   3.56008700
_cell_length_b   8.93301701
_cell_length_c   11.34989400
_cell_angle_alpha   90.00163492
_cell_angle_beta   90.00000000
_cell_angle_gamma   90.00000000
_symmetry_Int_Tables_number   1
_chemical_formula_structural   Tb3YMg4(B6Ir)4
_chemical_formula_sum   'Tb3 Y1 Mg4 B24 Ir4'
_cell_volume   360.95293525
_cell_formula_units_Z   1
loop_
 _symmetry_equiv_pos_site_id
 _symmetry_equiv_pos_as_xyz
  1  'x, y, z'
loop_
 _atom_site_type_symbol
 _atom_site_label
 _atom_site_symmetry_multiplicity
 _atom_site_fract_x
 _atom_site_fract_y
 _atom_site_fract_z
 _atom_site_occupancy
  Tb  Tb0  1  0.500000  0.318642  0.414278  1
  Tb  Tb1  1  0.500000  0.681399  0.585672  1
  Tb  Tb2  1  0.500000  0.181343  0.914398  1
  Y  Y3  1  0.500000  0.818407  0.085527  1
  Mg  Mg4  1  0.500000  0.447930  0.118857  1
  Mg  Mg5  1  0.500000  0.552100  0.881197  1
  Mg  Mg6  1  0.500000  0.052044  0.618876  1
  Mg  Mg7  1  0.500000  0.947924  0.381124  1
  B  B8  1  0.000000  0.099995  0.473152  1
  B  B9  1  0.000000  0.899999  0.526841  1
  B  B10  1  0.000000  0.400060  0.973179  1
  B  B11  1  0.000000  0.600284  0.026938  1
  B  B12  1  0.000000  0.127409  0.318912  1
  B  B13  1  0.000000  0.872532  0.681108  1
  B  B14  1  0.000000  0.372565  0.818968  1
  B  B15  1  0.000000  0.627576  0.180983  1
  B  B16  1  0.000000  0.055783  0.067404  1
  B  B17  1  0.000000  0.944104  0.932678  1
  B  B18  1  0.000000  0.444065  0.567440  1
  B  B19  1  0.000000  0.555957  0.432502  1
  B  B20  1  0.000000  0.481780  0.284678  1
  B  B21  1  0.000000  0.518279  0.715266  1
  B  B22  1  0.000000  0.018263  0.784828  1
  B  B23  1  0.000000  0.981574  0.215175  1
  B  B24  1  0.000000  0.255615  0.080127  1
  B  B25  1  0.000000  0.744420  0.920025  1
  B  B26  1  0.000000  0.244319  0.580089  1
  B  B27  1  0.000000  0.755721  0.419868  1
  B  B28  1  0.000000  0.293450  0.234699  1
  B  B29  1  0.000000  0.706490  0.765328  1
  B  B30  1  0.000000  0.206478  0.734764  1
  B  B31  1  0.000000  0.793612  0.265159  1
  Ir  Ir32  1  0.500000  0.140562  0.182192  1
  Ir  Ir33  1  0.500000  0.859287  0.817805  1
  Ir  Ir34  1  0.500000  0.359291  0.682215  1
  Ir  Ir35  1  0.500000  0.640745  0.317752  1
