# generated using pymatgen
data_Sm2Co9P7W3
_symmetry_space_group_name_H-M   'P 1'
_cell_length_a   9.12081400
_cell_length_b   9.12081482
_cell_length_c   3.74579300
_cell_angle_alpha   90.00000000
_cell_angle_beta   90.00000000
_cell_angle_gamma   120.00000427
_symmetry_Int_Tables_number   1
_chemical_formula_structural   Sm2Co9P7W3
_chemical_formula_sum   'Sm2 Co9 P7 W3'
_cell_volume   269.86193153
_cell_formula_units_Z   1
loop_
 _symmetry_equiv_pos_site_id
 _symmetry_equiv_pos_as_xyz
  1  'x, y, z'
loop_
 _atom_site_type_symbol
 _atom_site_label
 _atom_site_symmetry_multiplicity
 _atom_site_fract_x
 _atom_site_fract_y
 _atom_site_fract_z
 _atom_site_occupancy
  Sm  Sm0  1  0.666667  0.333333  0.000000  1
  Sm  Sm1  1  0.333333  0.666667  0.500000  1
  Co  Co2  1  0.430191  0.062016  0.500000  1
  Co  Co3  1  0.937984  0.368176  0.500000  1
  Co  Co4  1  0.631824  0.569809  0.500000  1
  Co  Co5  1  0.157574  0.277822  0.500000  1
  Co  Co6  1  0.722178  0.879751  0.500000  1
  Co  Co7  1  0.120249  0.842426  0.500000  1
  Co  Co8  1  0.383599  0.434376  0.000000  1
  Co  Co9  1  0.565624  0.949223  0.000000  1
  Co  Co10  1  0.050777  0.616401  0.000000  1
  P  P11  1  0.116510  0.409304  0.000000  1
  P  P12  1  0.590696  0.707205  0.000000  1
  P  P13  1  0.292795  0.883490  0.000000  1
  P  P14  1  0.000000  0.000000  0.500000  1
  P  P15  1  0.412174  0.303753  0.500000  1
  P  P16  1  0.696247  0.108420  0.500000  1
  P  P17  1  0.891580  0.587826  0.500000  1
  W  W18  1  0.218948  0.096947  0.000000  1
  W  W19  1  0.903053  0.122002  0.000000  1
  W  W20  1  0.877998  0.781052  0.000000  1
