# generated using pymatgen
data_Th2(Al3Ir)3
_symmetry_space_group_name_H-M   'P 1'
_cell_length_a   7.68430713
_cell_length_b   7.68430638
_cell_length_c   9.51121500
_cell_angle_alpha   90.00000000
_cell_angle_beta   90.00000000
_cell_angle_gamma   119.61259746
_symmetry_Int_Tables_number   1
_chemical_formula_structural   Th2(Al3Ir)3
_chemical_formula_sum   'Th4 Al18 Ir6'
_cell_volume   488.26790893
_cell_formula_units_Z   2
loop_
 _symmetry_equiv_pos_site_id
 _symmetry_equiv_pos_as_xyz
  1  'x, y, z'
loop_
 _atom_site_type_symbol
 _atom_site_label
 _atom_site_symmetry_multiplicity
 _atom_site_fract_x
 _atom_site_fract_y
 _atom_site_fract_z
 _atom_site_occupancy
  Th  Th0  1  0.994587  0.669849  0.750000  1
  Th  Th1  1  0.005413  0.330151  0.250000  1
  Th  Th2  1  0.669849  0.994587  0.750000  1
  Th  Th3  1  0.330151  0.005413  0.250000  1
  Al  Al4  1  0.131574  0.131574  0.750000  1
  Al  Al5  1  0.868426  0.868426  0.250000  1
  Al  Al6  1  0.004306  0.334933  0.573649  1
  Al  Al7  1  0.995694  0.665067  0.426351  1
  Al  Al8  1  0.995694  0.665067  0.073649  1
  Al  Al9  1  0.334933  0.004306  0.926351  1
  Al  Al10  1  0.004306  0.334933  0.926351  1
  Al  Al11  1  0.665067  0.995694  0.073649  1
  Al  Al12  1  0.665067  0.995694  0.426351  1
  Al  Al13  1  0.334933  0.004306  0.573649  1
  Al  Al14  1  0.336760  0.336760  0.049330  1
  Al  Al15  1  0.663240  0.663240  0.950670  1
  Al  Al16  1  0.663240  0.663240  0.549330  1
  Al  Al17  1  0.336760  0.336760  0.450670  1
  Al  Al18  1  0.339460  0.544445  0.750000  1
  Al  Al19  1  0.660540  0.455555  0.250000  1
  Al  Al20  1  0.544445  0.339460  0.750000  1
  Al  Al21  1  0.455555  0.660540  0.250000  1
  Ir  Ir22  1  0.672460  0.327540  0.500000  1
  Ir  Ir23  1  0.327540  0.672460  0.500000  1
  Ir  Ir24  1  0.327540  0.672460  0.000000  1
  Ir  Ir25  1  0.672460  0.327540  0.000000  1
  Ir  Ir26  1  0.000000  0.000000  0.500000  1
  Ir  Ir27  1  0.000000  0.000000  0.000000  1
