# generated using pymatgen
data_Tb7HoTi9Si16W3
_symmetry_space_group_name_H-M   'P 1'
_cell_length_a   7.00903524
_cell_length_b   7.00969181
_cell_length_c   12.90197545
_cell_angle_alpha   90.00988946
_cell_angle_beta   89.99795595
_cell_angle_gamma   89.95560496
_symmetry_Int_Tables_number   1
_chemical_formula_structural   Tb7HoTi9Si16W3
_chemical_formula_sum   'Tb7 Ho1 Ti9 Si16 W3'
_cell_volume   633.88903794
_cell_formula_units_Z   1
loop_
 _symmetry_equiv_pos_site_id
 _symmetry_equiv_pos_as_xyz
  1  'x, y, z'
loop_
 _atom_site_type_symbol
 _atom_site_label
 _atom_site_symmetry_multiplicity
 _atom_site_fract_x
 _atom_site_fract_y
 _atom_site_fract_z
 _atom_site_occupancy
  Tb  Tb0  1  0.498178  0.840985  0.718017  1
  Tb  Tb1  1  0.500747  0.159486  0.216836  1
  Tb  Tb2  1  0.840899  0.498271  0.281917  1
  Tb  Tb3  1  0.159552  0.500839  0.783183  1
  Tb  Tb4  1  0.660117  0.999110  0.967097  1
  Tb  Tb5  1  0.002276  0.339660  0.533256  1
  Tb  Tb6  1  0.999092  0.660132  0.032878  1
  Ho  Ho7  1  0.339896  0.001709  0.466692  1
  Ti  Ti8  1  0.672765  0.672999  0.500013  1
  Ti  Ti9  1  0.153537  0.009317  0.876462  1
  Ti  Ti10  1  0.490351  0.653825  0.125755  1
  Ti  Ti11  1  0.508342  0.345195  0.627648  1
  Ti  Ti12  1  0.653754  0.490344  0.874238  1
  Ti  Ti13  1  0.345308  0.508470  0.372342  1
  Ti  Ti14  1  0.847795  0.991481  0.375267  1
  Ti  Ti15  1  0.009369  0.153491  0.123529  1
  Ti  Ti16  1  0.991492  0.847706  0.624712  1
  Si  Si17  1  0.200655  0.129005  0.684969  1
  Si  Si18  1  0.370613  0.699786  0.935145  1
  Si  Si19  1  0.629041  0.297860  0.435192  1
  Si  Si20  1  0.699740  0.370620  0.064851  1
  Si  Si21  1  0.298290  0.629894  0.564776  1
  Si  Si22  1  0.799903  0.870900  0.185397  1
  Si  Si23  1  0.129430  0.200213  0.315131  1
  Si  Si24  1  0.870938  0.799969  0.814558  1
  Si  Si25  1  0.291542  0.953691  0.065128  1
  Si  Si26  1  0.545276  0.791075  0.315181  1
  Si  Si27  1  0.453303  0.208839  0.815568  1
  Si  Si28  1  0.790780  0.545604  0.684991  1
  Si  Si29  1  0.208906  0.453286  0.184391  1
  Si  Si30  1  0.707923  0.047855  0.566042  1
  Si  Si31  1  0.953711  0.291468  0.934842  1
  Si  Si32  1  0.048231  0.708719  0.433896  1
  W  W33  1  0.327048  0.327017  0.999991  1
  W  W34  1  0.174028  0.827267  0.249408  1
  W  W35  1  0.827172  0.173911  0.750702  1
