# generated using pymatgen
data_La3Cr4BiF28
_symmetry_space_group_name_H-M   'P 1'
_cell_length_a   5.68999007
_cell_length_b   9.16461707
_cell_length_c   12.14710677
_cell_angle_alpha   62.40159146
_cell_angle_beta   90.12790838
_cell_angle_gamma   89.87374594
_symmetry_Int_Tables_number   1
_chemical_formula_structural   La3Cr4BiF28
_chemical_formula_sum   'La3 Cr4 Bi1 F28'
_cell_volume   561.35100634
_cell_formula_units_Z   1
loop_
 _symmetry_equiv_pos_site_id
 _symmetry_equiv_pos_as_xyz
  1  'x, y, z'
loop_
 _atom_site_type_symbol
 _atom_site_label
 _atom_site_symmetry_multiplicity
 _atom_site_fract_x
 _atom_site_fract_y
 _atom_site_fract_z
 _atom_site_occupancy
  La  La0  1  0.263016  0.194739  0.234046  1
  La  La1  1  0.236653  0.193727  0.733688  1
  La  La2  1  0.737551  0.805710  0.766818  1
  Cr  Cr3  1  0.244995  0.726532  0.541479  1
  Cr  Cr4  1  0.744443  0.273007  0.957456  1
  Cr  Cr5  1  0.755710  0.275885  0.455876  1
  Cr  Cr6  1  0.257326  0.726263  0.045790  1
  Bi  Bi7  1  0.772646  0.810434  0.265711  1
  F  F8  1  0.965512  0.716884  0.454370  1
  F  F9  1  0.471189  0.284526  0.042135  1
  F  F10  1  0.028855  0.286136  0.540375  1
  F  F11  1  0.526905  0.713703  0.959987  1
  F  F12  1  0.065868  0.708630  0.928582  1
  F  F13  1  0.564635  0.292031  0.572612  1
  F  F14  1  0.935480  0.290876  0.073793  1
  F  F15  1  0.434317  0.708678  0.426938  1
  F  F16  1  0.735776  0.499127  0.865122  1
  F  F17  1  0.234603  0.500661  0.634281  1
  F  F18  1  0.262697  0.498496  0.136373  1
  F  F19  1  0.764062  0.500518  0.363912  1
  F  F20  1  0.741355  0.047122  0.046177  1
  F  F21  1  0.240251  0.952072  0.454036  1
  F  F22  1  0.259262  0.951592  0.955133  1
  F  F23  1  0.760178  0.050138  0.543883  1
  F  F24  1  0.055903  0.741488  0.661041  1
  F  F25  1  0.556094  0.258011  0.837493  1
  F  F26  1  0.945121  0.258362  0.335937  1
  F  F27  1  0.445558  0.742651  0.164454  1
  F  F28  1  0.012445  0.268330  0.868764  1
  F  F29  1  0.512419  0.731359  0.632033  1
  F  F30  1  0.987485  0.733207  0.134406  1
  F  F31  1  0.487139  0.268153  0.367107  1
  F  F32  1  0.083983  0.968173  0.227386  1
  F  F33  1  0.597845  0.022401  0.273290  1
  F  F34  1  0.905911  0.029753  0.772367  1
  F  F35  1  0.406814  0.970623  0.727148  1
