# generated using pymatgen
data_TmZr2TcF15
_symmetry_space_group_name_H-M   'P 1'
_cell_length_a   8.11689238
_cell_length_b   8.11689271
_cell_length_c   8.11905001
_cell_angle_alpha   79.78271365
_cell_angle_beta   79.78271735
_cell_angle_gamma   99.91272151
_symmetry_Int_Tables_number   1
_chemical_formula_structural   TmZr2TcF15
_chemical_formula_sum   'Tm2 Zr4 Tc2 F30'
_cell_volume   506.50653999
_cell_formula_units_Z   2
loop_
 _symmetry_equiv_pos_site_id
 _symmetry_equiv_pos_as_xyz
  1  'x, y, z'
loop_
 _atom_site_type_symbol
 _atom_site_label
 _atom_site_symmetry_multiplicity
 _atom_site_fract_x
 _atom_site_fract_y
 _atom_site_fract_z
 _atom_site_occupancy
  Tm  Tm0  1  0.178074  0.821926  0.250000  1
  Tm  Tm1  1  0.821926  0.178074  0.750000  1
  Zr  Zr2  1  0.748603  0.678148  0.673261  1
  Zr  Zr3  1  0.321852  0.251397  0.826739  1
  Zr  Zr4  1  0.251397  0.321852  0.326739  1
  Zr  Zr5  1  0.678148  0.748603  0.173261  1
  Tc  Tc6  1  0.750274  0.249726  0.250000  1
  Tc  Tc7  1  0.249726  0.750274  0.750000  1
  F  F8  1  0.314290  0.350857  0.054241  1
  F  F9  1  0.938245  0.811598  0.153100  1
  F  F10  1  0.844501  0.457867  0.685640  1
  F  F11  1  0.457867  0.844501  0.185640  1
  F  F12  1  0.811598  0.938245  0.653100  1
  F  F13  1  0.350857  0.314290  0.554240  1
  F  F14  1  0.685710  0.649143  0.945759  1
  F  F15  1  0.061755  0.188402  0.846900  1
  F  F16  1  0.155499  0.542133  0.314360  1
  F  F17  1  0.542133  0.155499  0.814360  1
  F  F18  1  0.188402  0.061755  0.346900  1
  F  F19  1  0.649143  0.685710  0.445759  1
  F  F20  1  0.773262  0.280229  0.001616  1
  F  F21  1  0.000240  0.273907  0.217143  1
  F  F22  1  0.779933  0.501333  0.224641  1
  F  F23  1  0.501333  0.779933  0.724641  1
  F  F24  1  0.273907  0.000240  0.717143  1
  F  F25  1  0.280229  0.773262  0.501616  1
  F  F26  1  0.226738  0.719771  0.998384  1
  F  F27  1  0.999760  0.726093  0.782857  1
  F  F28  1  0.220067  0.498667  0.775359  1
  F  F29  1  0.498667  0.220067  0.275359  1
  F  F30  1  0.726093  0.999760  0.282857  1
  F  F31  1  0.719771  0.226738  0.498384  1
  F  F32  1  0.468308  0.531692  0.250000  1
  F  F33  1  0.747876  0.957456  0.970031  1
  F  F34  1  0.042544  0.252124  0.529969  1
  F  F35  1  0.252124  0.042544  0.029969  1
  F  F36  1  0.957456  0.747876  0.470031  1
  F  F37  1  0.531692  0.468308  0.750000  1
