# generated using pymatgen
data_Ho3In2GaRh3
_symmetry_space_group_name_H-M   'P 1'
_cell_length_a   7.47078085
_cell_length_b   7.47078030
_cell_length_c   3.84753200
_cell_angle_alpha   90.00000000
_cell_angle_beta   90.00000000
_cell_angle_gamma   120.23605859
_symmetry_Int_Tables_number   1
_chemical_formula_structural   Ho3In2GaRh3
_chemical_formula_sum   'Ho3 In2 Ga1 Rh3'
_cell_volume   185.52688922
_cell_formula_units_Z   1
loop_
 _symmetry_equiv_pos_site_id
 _symmetry_equiv_pos_as_xyz
  1  'x, y, z'
loop_
 _atom_site_type_symbol
 _atom_site_label
 _atom_site_symmetry_multiplicity
 _atom_site_fract_x
 _atom_site_fract_y
 _atom_site_fract_z
 _atom_site_occupancy
  Ho  Ho0  1  0.008882  0.405439  0.500000  1
  Ho  Ho1  1  0.576983  0.576983  0.500000  1
  Ho  Ho2  1  0.405439  0.008882  0.500000  1
  In  In3  1  0.998339  0.742324  0.000000  1
  In  In4  1  0.742324  0.998339  0.000000  1
  Ga  Ga5  1  0.259037  0.259037  0.000000  1
  Rh  Rh6  1  0.329524  0.656219  0.000000  1
  Rh  Rh7  1  0.023253  0.023253  0.500000  1
  Rh  Rh8  1  0.656219  0.329524  0.000000  1
