# generated using pymatgen
data_Dy2Si6Rh
_symmetry_space_group_name_H-M   'P 1'
_cell_length_a   5.58332276
_cell_length_b   5.58332366
_cell_length_c   20.98305600
_cell_angle_alpha   90.00000000
_cell_angle_beta   90.00000000
_cell_angle_gamma   91.10743185
_symmetry_Int_Tables_number   1
_chemical_formula_structural   Dy2Si6Rh
_chemical_formula_sum   'Dy8 Si24 Rh4'
_cell_volume   653.99307592
_cell_formula_units_Z   4
loop_
 _symmetry_equiv_pos_site_id
 _symmetry_equiv_pos_as_xyz
  1  'x, y, z'
loop_
 _atom_site_type_symbol
 _atom_site_label
 _atom_site_symmetry_multiplicity
 _atom_site_fract_x
 _atom_site_fract_y
 _atom_site_fract_z
 _atom_site_occupancy
  Dy  Dy0  1  0.373630  0.874215  0.581620  1
  Dy  Dy1  1  0.125785  0.626370  0.418380  1
  Dy  Dy2  1  0.625785  0.126370  0.081620  1
  Dy  Dy3  1  0.873630  0.374215  0.918380  1
  Dy  Dy4  1  0.626370  0.125785  0.418380  1
  Dy  Dy5  1  0.874215  0.373630  0.581620  1
  Dy  Dy6  1  0.374215  0.873630  0.918380  1
  Dy  Dy7  1  0.126370  0.625785  0.081620  1
  Si  Si8  1  0.652322  0.095401  0.693536  1
  Si  Si9  1  0.904599  0.347678  0.306464  1
  Si  Si10  1  0.404599  0.847678  0.193536  1
  Si  Si11  1  0.152322  0.595401  0.806464  1
  Si  Si12  1  0.347678  0.904599  0.306464  1
  Si  Si13  1  0.095401  0.652322  0.693536  1
  Si  Si14  1  0.595401  0.152322  0.806464  1
  Si  Si15  1  0.847678  0.404599  0.193536  1
  Si  Si16  1  0.376118  0.376118  0.964501  1
  Si  Si17  1  0.623882  0.623882  0.035499  1
  Si  Si18  1  0.123882  0.123882  0.464501  1
  Si  Si19  1  0.876118  0.876118  0.535499  1
  Si  Si20  1  0.374178  0.374178  0.531306  1
  Si  Si21  1  0.625822  0.625822  0.468694  1
  Si  Si22  1  0.125822  0.125822  0.031306  1
  Si  Si23  1  0.874178  0.874178  0.968694  1
  Si  Si24  1  0.154329  0.154329  0.806396  1
  Si  Si25  1  0.845671  0.845671  0.193604  1
  Si  Si26  1  0.345671  0.345671  0.306396  1
  Si  Si27  1  0.654329  0.654329  0.693604  1
  Si  Si28  1  0.093324  0.093324  0.693482  1
  Si  Si29  1  0.906676  0.906676  0.306518  1
  Si  Si30  1  0.406676  0.406676  0.193482  1
  Si  Si31  1  0.593324  0.593324  0.806518  1
  Rh  Rh32  1  0.374162  0.374162  0.643819  1
  Rh  Rh33  1  0.625838  0.625838  0.356181  1
  Rh  Rh34  1  0.125838  0.125838  0.143819  1
  Rh  Rh35  1  0.874162  0.874162  0.856181  1
