# generated using pymatgen
data_Ho2Er2Si4OsRh3
_symmetry_space_group_name_H-M   'P 1'
_cell_length_a   4.26612500
_cell_length_b   6.88399921
_cell_length_c   7.30847779
_cell_angle_alpha   89.87783326
_cell_angle_beta   90.00000000
_cell_angle_gamma   90.00000000
_symmetry_Int_Tables_number   1
_chemical_formula_structural   Ho2Er2Si4OsRh3
_chemical_formula_sum   'Ho2 Er2 Si4 Os1 Rh3'
_cell_volume   214.63489595
_cell_formula_units_Z   1
loop_
 _symmetry_equiv_pos_site_id
 _symmetry_equiv_pos_as_xyz
  1  'x, y, z'
loop_
 _atom_site_type_symbol
 _atom_site_label
 _atom_site_symmetry_multiplicity
 _atom_site_fract_x
 _atom_site_fract_y
 _atom_site_fract_z
 _atom_site_occupancy
  Ho  Ho0  1  0.750000  0.506030  0.311125  1
  Ho  Ho1  1  0.750000  0.000851  0.186173  1
  Er  Er2  1  0.250000  0.497497  0.690628  1
  Er  Er3  1  0.250000  0.998598  0.812952  1
  Si  Si4  1  0.250000  0.297252  0.107459  1
  Si  Si5  1  0.750000  0.704920  0.886043  1
  Si  Si6  1  0.250000  0.797296  0.401302  1
  Si  Si7  1  0.750000  0.199583  0.604515  1
  Os  Os8  1  0.750000  0.843532  0.567985  1
  Rh  Rh9  1  0.250000  0.155608  0.431812  1
  Rh  Rh10  1  0.750000  0.343365  0.931380  1
  Rh  Rh11  1  0.250000  0.655467  0.068626  1
