# generated using pymatgen
data_TbYb6Hf(Si4Mo3)4
_symmetry_space_group_name_H-M   'P 1'
_cell_length_a   6.70644289
_cell_length_b   6.90687303
_cell_length_c   12.97047186
_cell_angle_alpha   89.73659407
_cell_angle_beta   89.98161615
_cell_angle_gamma   90.10582428
_symmetry_Int_Tables_number   1
_chemical_formula_structural   TbYb6Hf(Si4Mo3)4
_chemical_formula_sum   'Tb1 Yb6 Hf1 Si16 Mo12'
_cell_volume   600.79197764
_cell_formula_units_Z   1
loop_
 _symmetry_equiv_pos_site_id
 _symmetry_equiv_pos_as_xyz
  1  'x, y, z'
loop_
 _atom_site_type_symbol
 _atom_site_label
 _atom_site_symmetry_multiplicity
 _atom_site_fract_x
 _atom_site_fract_y
 _atom_site_fract_z
 _atom_site_occupancy
  Tb  Tb0  1  0.999544  0.168048  0.093244  1
  Yb  Yb1  1  0.002491  0.833963  0.907365  1
  Yb  Yb2  1  0.503150  0.664748  0.909134  1
  Yb  Yb3  1  0.002415  0.835156  0.589867  1
  Yb  Yb4  1  0.497572  0.333554  0.090185  1
  Yb  Yb5  1  0.999134  0.167075  0.410451  1
  Yb  Yb6  1  0.498205  0.331821  0.409783  1
  Hf  Hf7  1  0.500865  0.673652  0.599281  1
  Si  Si8  1  0.034164  0.131195  0.747260  1
  Si  Si9  1  0.964179  0.870604  0.251411  1
  Si  Si10  1  0.465564  0.624429  0.248979  1
  Si  Si11  1  0.534663  0.372912  0.747780  1
  Si  Si12  1  0.301703  0.866832  0.749662  1
  Si  Si13  1  0.696202  0.130513  0.251869  1
  Si  Si14  1  0.199590  0.368378  0.251730  1
  Si  Si15  1  0.802166  0.634483  0.749451  1
  Si  Si16  1  0.167432  0.462467  0.545975  1
  Si  Si17  1  0.836598  0.542695  0.457158  1
  Si  Si18  1  0.341581  0.952729  0.457916  1
  Si  Si19  1  0.840823  0.544401  0.044581  1
  Si  Si20  1  0.657969  0.038959  0.545684  1
  Si  Si21  1  0.158148  0.458379  0.952902  1
  Si  Si22  1  0.659219  0.042669  0.953099  1
  Si  Si23  1  0.341867  0.956314  0.044738  1
  Mo  Mo24  1  0.165946  0.498094  0.747215  1
  Mo  Mo25  1  0.836983  0.505311  0.250494  1
  Mo  Mo26  1  0.337751  0.989932  0.250617  1
  Mo  Mo27  1  0.662637  0.002924  0.746845  1
  Mo  Mo28  1  0.332954  0.164695  0.624865  1
  Mo  Mo29  1  0.662346  0.827480  0.375452  1
  Mo  Mo30  1  0.167098  0.667108  0.373588  1
  Mo  Mo31  1  0.666582  0.833207  0.127548  1
  Mo  Mo32  1  0.830240  0.339101  0.624988  1
  Mo  Mo33  1  0.333477  0.167387  0.870429  1
  Mo  Mo34  1  0.833324  0.332446  0.871710  1
  Mo  Mo35  1  0.165416  0.666341  0.126748  1
