# generated using pymatgen
data_BaAl9FeRh
_symmetry_space_group_name_H-M   'P 1'
_cell_length_a   8.11845300
_cell_length_b   8.11845278
_cell_length_c   3.97983600
_cell_angle_alpha   90.00000000
_cell_angle_beta   90.00000000
_cell_angle_gamma   120.00000495
_symmetry_Int_Tables_number   1
_chemical_formula_structural   BaAl9FeRh
_chemical_formula_sum   'Ba1 Al9 Fe1 Rh1'
_cell_volume   227.16547969
_cell_formula_units_Z   1
loop_
 _symmetry_equiv_pos_site_id
 _symmetry_equiv_pos_as_xyz
  1  'x, y, z'
loop_
 _atom_site_type_symbol
 _atom_site_label
 _atom_site_symmetry_multiplicity
 _atom_site_fract_x
 _atom_site_fract_y
 _atom_site_fract_z
 _atom_site_occupancy
  Ba  Ba0  1  0.000000  0.000000  0.000000  1
  Al  Al1  1  0.495744  0.991488  0.000000  1
  Al  Al2  1  0.495744  0.504256  0.000000  1
  Al  Al3  1  0.008512  0.504256  0.000000  1
  Al  Al4  1  0.217298  0.434595  0.500000  1
  Al  Al5  1  0.789861  0.210139  0.500000  1
  Al  Al6  1  0.420278  0.210139  0.500000  1
  Al  Al7  1  0.565405  0.782702  0.500000  1
  Al  Al8  1  0.217298  0.782702  0.500000  1
  Al  Al9  1  0.789861  0.579722  0.500000  1
  Fe  Fe10  1  0.333333  0.666667  0.000000  1
  Rh  Rh11  1  0.666667  0.333333  0.000000  1
