# generated using pymatgen
data_BaCr9Ga3O19
_symmetry_space_group_name_H-M   'P 1'
_cell_length_a   5.91251800
_cell_length_b   5.91251818
_cell_length_c   23.04082500
_cell_angle_alpha   90.00000000
_cell_angle_beta   90.00000000
_cell_angle_gamma   119.99999897
_symmetry_Int_Tables_number   1
_chemical_formula_structural   BaCr9Ga3O19
_chemical_formula_sum   'Ba2 Cr18 Ga6 O38'
_cell_volume   697.54724350
_cell_formula_units_Z   2
loop_
 _symmetry_equiv_pos_site_id
 _symmetry_equiv_pos_as_xyz
  1  'x, y, z'
loop_
 _atom_site_type_symbol
 _atom_site_label
 _atom_site_symmetry_multiplicity
 _atom_site_fract_x
 _atom_site_fract_y
 _atom_site_fract_z
 _atom_site_occupancy
  Ba  Ba0  1  0.666667  0.333333  0.249248  1
  Ba  Ba1  1  0.333333  0.666667  0.749248  1
  Cr  Cr2  1  0.831818  0.663636  0.393332  1
  Cr  Cr3  1  0.831818  0.168182  0.393332  1
  Cr  Cr4  1  0.336364  0.168182  0.393332  1
  Cr  Cr5  1  0.167568  0.335135  0.606838  1
  Cr  Cr6  1  0.167568  0.832432  0.606838  1
  Cr  Cr7  1  0.664865  0.832432  0.606838  1
  Cr  Cr8  1  0.168182  0.336364  0.893332  1
  Cr  Cr9  1  0.168182  0.831818  0.893332  1
  Cr  Cr10  1  0.663636  0.831818  0.893332  1
  Cr  Cr11  1  0.832432  0.664865  0.106838  1
  Cr  Cr12  1  0.832432  0.167568  0.106838  1
  Cr  Cr13  1  0.335135  0.167568  0.106838  1
  Cr  Cr14  1  0.666667  0.333333  0.690828  1
  Cr  Cr15  1  0.333333  0.666667  0.309540  1
  Cr  Cr16  1  0.333333  0.666667  0.190828  1
  Cr  Cr17  1  0.666667  0.333333  0.809540  1
  Cr  Cr18  1  0.000000  0.000000  0.500050  1
  Cr  Cr19  1  0.000000  0.000000  0.000050  1
  Ga  Ga20  1  0.666667  0.333333  0.528105  1
  Ga  Ga21  1  0.333333  0.666667  0.472284  1
  Ga  Ga22  1  0.333333  0.666667  0.028105  1
  Ga  Ga23  1  0.666667  0.333333  0.972284  1
  Ga  Ga24  1  0.000000  0.000000  0.754711  1
  Ga  Ga25  1  0.000000  0.000000  0.254711  1
  O  O26  1  0.000000  0.000000  0.650135  1
  O  O27  1  0.000000  0.000000  0.348724  1
  O  O28  1  0.000000  0.000000  0.150135  1
  O  O29  1  0.000000  0.000000  0.848724  1
  O  O30  1  0.666667  0.333333  0.445282  1
  O  O31  1  0.333333  0.666667  0.554603  1
  O  O32  1  0.333333  0.666667  0.945282  1
  O  O33  1  0.666667  0.333333  0.054603  1
  O  O34  1  0.842973  0.685944  0.552169  1
  O  O35  1  0.842973  0.157027  0.552169  1
  O  O36  1  0.314056  0.157027  0.552169  1
  O  O37  1  0.156883  0.313767  0.447661  1
  O  O38  1  0.156883  0.843117  0.447661  1
  O  O39  1  0.686233  0.843117  0.447661  1
  O  O40  1  0.157027  0.314056  0.052169  1
  O  O41  1  0.157027  0.842973  0.052169  1
  O  O42  1  0.685944  0.842973  0.052169  1
  O  O43  1  0.843117  0.686233  0.947661  1
  O  O44  1  0.843117  0.156883  0.947661  1
  O  O45  1  0.313767  0.156883  0.947661  1
  O  O46  1  0.818257  0.636516  0.750579  1
  O  O47  1  0.818257  0.181743  0.750579  1
  O  O48  1  0.363484  0.181743  0.750579  1
  O  O49  1  0.181743  0.363484  0.250579  1
  O  O50  1  0.181743  0.818257  0.250579  1
  O  O51  1  0.636516  0.818257  0.250579  1
  O  O52  1  0.495315  0.990630  0.649375  1
  O  O53  1  0.495315  0.504685  0.649375  1
  O  O54  1  0.009370  0.504685  0.649375  1
  O  O55  1  0.505201  0.010404  0.350769  1
  O  O56  1  0.505201  0.494799  0.350769  1
  O  O57  1  0.989596  0.494799  0.350769  1
  O  O58  1  0.504685  0.009370  0.149375  1
  O  O59  1  0.504685  0.495315  0.149375  1
  O  O60  1  0.990630  0.495315  0.149375  1
  O  O61  1  0.494799  0.989596  0.850769  1
  O  O62  1  0.494799  0.505201  0.850769  1
  O  O63  1  0.010404  0.505201  0.850769  1
