# generated using pymatgen
data_YbFe(PO3)4
_symmetry_space_group_name_H-M   'P 1'
_cell_length_a   7.56814508
_cell_length_b   7.56814567
_cell_length_c   10.22173427
_cell_angle_alpha   66.70274241
_cell_angle_beta   66.70274113
_cell_angle_gamma   70.64407070
_symmetry_Int_Tables_number   1
_chemical_formula_structural   YbFe(PO3)4
_chemical_formula_sum   'Yb2 Fe2 P8 O24'
_cell_volume   483.14269546
_cell_formula_units_Z   2
loop_
 _symmetry_equiv_pos_site_id
 _symmetry_equiv_pos_as_xyz
  1  'x, y, z'
loop_
 _atom_site_type_symbol
 _atom_site_label
 _atom_site_symmetry_multiplicity
 _atom_site_fract_x
 _atom_site_fract_y
 _atom_site_fract_z
 _atom_site_occupancy
  Yb  Yb0  1  0.949450  0.050550  0.750000  1
  Yb  Yb1  1  0.050550  0.949450  0.250000  1
  Fe  Fe2  1  0.500000  0.000000  0.000000  1
  Fe  Fe3  1  0.000000  0.500000  0.500000  1
  P  P4  1  0.318099  0.301244  0.695780  1
  P  P5  1  0.698756  0.681901  0.804220  1
  P  P6  1  0.681901  0.698756  0.304220  1
  P  P7  1  0.301244  0.318099  0.195780  1
  P  P8  1  0.719581  0.269966  0.474679  1
  P  P9  1  0.730034  0.280419  0.025321  1
  P  P10  1  0.280419  0.730034  0.525321  1
  P  P11  1  0.269966  0.719581  0.974679  1
  O  O12  1  0.317282  0.529168  0.658413  1
  O  O13  1  0.470832  0.682718  0.841587  1
  O  O14  1  0.682718  0.470832  0.341587  1
  O  O15  1  0.529168  0.317282  0.158413  1
  O  O16  1  0.499881  0.232717  0.563715  1
  O  O17  1  0.767283  0.500119  0.936285  1
  O  O18  1  0.500119  0.767283  0.436285  1
  O  O19  1  0.232717  0.499881  0.063715  1
  O  O20  1  0.353879  0.192590  0.843239  1
  O  O21  1  0.807410  0.646121  0.656761  1
  O  O22  1  0.646121  0.807410  0.156761  1
  O  O23  1  0.192590  0.353879  0.343239  1
  O  O24  1  0.135992  0.286904  0.675265  1
  O  O25  1  0.713096  0.864008  0.824735  1
  O  O26  1  0.864008  0.713096  0.324735  1
  O  O27  1  0.286904  0.135992  0.175265  1
  O  O28  1  0.799726  0.306602  0.574418  1
  O  O29  1  0.693398  0.200274  0.925582  1
  O  O30  1  0.200273  0.693398  0.425582  1
  O  O31  1  0.306602  0.799727  0.074418  1
  O  O32  1  0.831738  0.107130  0.409620  1
  O  O33  1  0.892870  0.168262  0.090380  1
  O  O34  1  0.168262  0.892870  0.590380  1
  O  O35  1  0.107130  0.831738  0.909620  1
