# generated using pymatgen
data_HfScSbRh5
_symmetry_space_group_name_H-M   'P 1'
_cell_length_a   4.15266300
_cell_length_b   5.62526823
_cell_length_c   11.05055036
_cell_angle_alpha   90.10186751
_cell_angle_beta   90.00000000
_cell_angle_gamma   90.00000000
_symmetry_Int_Tables_number   1
_chemical_formula_structural   HfScSbRh5
_chemical_formula_sum   'Hf2 Sc2 Sb2 Rh10'
_cell_volume   258.13871599
_cell_formula_units_Z   2
loop_
 _symmetry_equiv_pos_site_id
 _symmetry_equiv_pos_as_xyz
  1  'x, y, z'
loop_
 _atom_site_type_symbol
 _atom_site_label
 _atom_site_symmetry_multiplicity
 _atom_site_fract_x
 _atom_site_fract_y
 _atom_site_fract_z
 _atom_site_occupancy
  Hf  Hf0  1  0.500000  0.674052  0.854914  1
  Hf  Hf1  1  0.500000  0.325948  0.145086  1
  Sc  Sc2  1  0.500000  0.174880  0.640409  1
  Sc  Sc3  1  0.500000  0.825120  0.359591  1
  Sb  Sb4  1  0.000000  0.500000  0.500000  1
  Sb  Sb5  1  0.000000  0.000000  0.000000  1
  Rh  Rh6  1  0.500000  0.197053  0.889507  1
  Rh  Rh7  1  0.500000  0.802947  0.110493  1
  Rh  Rh8  1  0.500000  0.695589  0.613477  1
  Rh  Rh9  1  0.500000  0.304411  0.386523  1
  Rh  Rh10  1  0.000000  0.434158  0.747540  1
  Rh  Rh11  1  0.000000  0.565842  0.252460  1
  Rh  Rh12  1  0.000000  0.000000  0.500000  1
  Rh  Rh13  1  0.000000  0.500000  0.000000  1
  Rh  Rh14  1  0.000000  0.066998  0.245091  1
  Rh  Rh15  1  0.000000  0.933002  0.754909  1
