# generated using pymatgen
data_Rb3ErBi2
_symmetry_space_group_name_H-M   'P 1'
_cell_length_a   10.37039407
_cell_length_b   10.37039362
_cell_length_c   10.37039367
_cell_angle_alpha   127.92075173
_cell_angle_beta   70.56299144
_cell_angle_gamma   135.90601837
_symmetry_Int_Tables_number   1
_chemical_formula_structural   Rb3ErBi2
_chemical_formula_sum   'Rb6 Er2 Bi4'
_cell_volume   600.09716889
_cell_formula_units_Z   2
loop_
 _symmetry_equiv_pos_site_id
 _symmetry_equiv_pos_as_xyz
  1  'x, y, z'
loop_
 _atom_site_type_symbol
 _atom_site_label
 _atom_site_symmetry_multiplicity
 _atom_site_fract_x
 _atom_site_fract_y
 _atom_site_fract_z
 _atom_site_occupancy
  Rb  Rb0  1  0.250000  0.250000  0.000000  1
  Rb  Rb1  1  0.750000  0.750000  0.000000  1
  Rb  Rb2  1  0.314440  0.804508  0.118947  1
  Rb  Rb3  1  0.185560  0.304507  0.490068  1
  Rb  Rb4  1  0.814440  0.695493  0.509933  1
  Rb  Rb5  1  0.685560  0.195492  0.881052  1
  Er  Er6  1  0.750000  0.250000  0.500000  1
  Er  Er7  1  0.250000  0.749999  0.499999  1
  Bi  Bi8  1  0.901780  0.305353  0.207133  1
  Bi  Bi9  1  0.598220  0.805353  0.403574  1
  Bi  Bi10  1  0.401780  0.194647  0.596426  1
  Bi  Bi11  1  0.098220  0.694647  0.792866  1
