# generated using pymatgen
data_Yb6Pr9Dy5Sn16
_symmetry_space_group_name_H-M   'P 1'
_cell_length_a   8.05466914
_cell_length_b   8.43702503
_cell_length_c   15.92194373
_cell_angle_alpha   90.06468411
_cell_angle_beta   90.27016512
_cell_angle_gamma   90.09569227
_symmetry_Int_Tables_number   1
_chemical_formula_structural   Yb6Pr9Dy5Sn16
_chemical_formula_sum   'Yb6 Pr9 Dy5 Sn16'
_cell_volume   1082.00038085
_cell_formula_units_Z   1
loop_
 _symmetry_equiv_pos_site_id
 _symmetry_equiv_pos_as_xyz
  1  'x, y, z'
loop_
 _atom_site_type_symbol
 _atom_site_label
 _atom_site_symmetry_multiplicity
 _atom_site_fract_x
 _atom_site_fract_y
 _atom_site_fract_z
 _atom_site_occupancy
  Yb  Yb0  1  0.172018  0.331648  0.376573  1
  Yb  Yb1  1  0.328651  0.831644  0.622530  1
  Yb  Yb2  1  0.160478  0.499277  0.749344  1
  Yb  Yb3  1  0.659687  0.000091  0.748315  1
  Yb  Yb4  1  0.840180  0.501277  0.251812  1
  Yb  Yb5  1  0.337971  0.000640  0.250562  1
  Pr  Pr6  1  0.832076  0.673341  0.877068  1
  Pr  Pr7  1  0.490233  0.317676  0.904220  1
  Pr  Pr8  1  0.991875  0.182176  0.595222  1
  Pr  Pr9  1  0.508289  0.682612  0.403539  1
  Pr  Pr10  1  0.010934  0.817008  0.097323  1
  Pr  Pr11  1  0.509336  0.679891  0.095971  1
  Pr  Pr12  1  0.010875  0.818186  0.403293  1
  Pr  Pr13  1  0.488331  0.317420  0.595223  1
  Pr  Pr14  1  0.990422  0.181575  0.904634  1
  Dy  Dy15  1  0.331239  0.828200  0.875882  1
  Dy  Dy16  1  0.830675  0.669517  0.624017  1
  Dy  Dy17  1  0.668950  0.169668  0.374761  1
  Dy  Dy18  1  0.168466  0.327668  0.124986  1
  Dy  Dy19  1  0.668281  0.172064  0.125473  1
  Sn  Sn20  1  0.326649  0.039441  0.038458  1
  Sn  Sn21  1  0.824346  0.460570  0.461704  1
  Sn  Sn22  1  0.675630  0.960466  0.537065  1
  Sn  Sn23  1  0.179043  0.538320  0.964394  1
  Sn  Sn24  1  0.668057  0.964370  0.963915  1
  Sn  Sn25  1  0.164062  0.537906  0.540039  1
  Sn  Sn26  1  0.334814  0.037989  0.459372  1
  Sn  Sn27  1  0.828700  0.457468  0.040654  1
  Sn  Sn28  1  0.527032  0.610345  0.747244  1
  Sn  Sn29  1  0.030127  0.889882  0.749499  1
  Sn  Sn30  1  0.472008  0.385363  0.248617  1
  Sn  Sn31  1  0.970535  0.111394  0.250179  1
  Sn  Sn32  1  0.290015  0.138511  0.750862  1
  Sn  Sn33  1  0.787581  0.362495  0.749078  1
  Sn  Sn34  1  0.710184  0.865508  0.249252  1
  Sn  Sn35  1  0.212250  0.638391  0.248919  1
