# generated using pymatgen
data_HoEr15MgIn3Ir4
_symmetry_space_group_name_H-M   'P 1'
_cell_length_a   9.61078550
_cell_length_b   9.58572016
_cell_length_c   9.59153800
_cell_angle_alpha   59.97992095
_cell_angle_beta   60.06622665
_cell_angle_gamma   60.08584644
_symmetry_Int_Tables_number   1
_chemical_formula_structural   HoEr15MgIn3Ir4
_chemical_formula_sum   'Ho1 Er15 Mg1 In3 Ir4'
_cell_volume   625.44473107
_cell_formula_units_Z   1
loop_
 _symmetry_equiv_pos_site_id
 _symmetry_equiv_pos_as_xyz
  1  'x, y, z'
loop_
 _atom_site_type_symbol
 _atom_site_label
 _atom_site_symmetry_multiplicity
 _atom_site_fract_x
 _atom_site_fract_y
 _atom_site_fract_z
 _atom_site_occupancy
  Ho  Ho0  1  0.059159  0.061135  0.439853  1
  Er  Er1  1  0.650236  0.044420  0.652672  1
  Er  Er2  1  0.192657  0.809376  0.190657  1
  Er  Er3  1  0.437039  0.061667  0.439290  1
  Er  Er4  1  0.193448  0.192345  0.807104  1
  Er  Er5  1  0.651165  0.652174  0.655430  1
  Er  Er6  1  0.050834  0.648778  0.650194  1
  Er  Er7  1  0.437039  0.061667  0.062003  1
  Er  Er8  1  0.651165  0.652174  0.041231  1
  Er  Er9  1  0.192657  0.809376  0.807310  1
  Er  Er10  1  0.812467  0.189171  0.810228  1
  Er  Er11  1  0.812467  0.189171  0.188133  1
  Er  Er12  1  0.811059  0.811061  0.188939  1
  Er  Er13  1  0.059691  0.439055  0.438794  1
  Er  Er14  1  0.434288  0.438229  0.063742  1
  Er  Er15  1  0.059691  0.439055  0.062459  1
  Mg  Mg16  1  0.730380  0.424255  0.422682  1
  In  In17  1  0.419027  0.415848  0.749747  1
  In  In18  1  0.419500  0.748585  0.415958  1
  In  In19  1  0.419027  0.415848  0.415378  1
  Ir  Ir20  1  0.861203  0.857071  0.857450  1
  Ir  Ir21  1  0.422230  0.859642  0.859064  1
  Ir  Ir22  1  0.861203  0.857071  0.424276  1
  Ir  Ir23  1  0.862372  0.422824  0.857403  1
