# generated using pymatgen
data_SmY3(Fe2Cl)2
_symmetry_space_group_name_H-M   'P 1'
_cell_length_a   3.89319200
_cell_length_b   3.89319098
_cell_length_c   16.28865800
_cell_angle_alpha   90.00000000
_cell_angle_beta   90.00000000
_cell_angle_gamma   120.00000864
_symmetry_Int_Tables_number   1
_chemical_formula_structural   SmY3(Fe2Cl)2
_chemical_formula_sum   'Sm1 Y3 Fe4 Cl2'
_cell_volume   213.80971269
_cell_formula_units_Z   1
loop_
 _symmetry_equiv_pos_site_id
 _symmetry_equiv_pos_as_xyz
  1  'x, y, z'
loop_
 _atom_site_type_symbol
 _atom_site_label
 _atom_site_symmetry_multiplicity
 _atom_site_fract_x
 _atom_site_fract_y
 _atom_site_fract_z
 _atom_site_occupancy
  Sm  Sm0  1  0.000000  0.000000  0.884752  1
  Y  Y1  1  0.000000  0.000000  0.115160  1
  Y  Y2  1  0.000000  0.000000  0.387004  1
  Y  Y3  1  0.000000  0.000000  0.612910  1
  Fe  Fe4  1  0.333334  0.666667  0.007963  1
  Fe  Fe5  1  0.333334  0.666667  0.492563  1
  Fe  Fe6  1  0.666668  0.333334  0.507362  1
  Fe  Fe7  1  0.666668  0.333334  0.995350  1
  Cl  Cl8  1  0.666668  0.333334  0.250802  1
  Cl  Cl9  1  0.333334  0.666667  0.746135  1
