# generated using pymatgen
data_Ba4U3MoF28
_symmetry_space_group_name_H-M   'P 1'
_cell_length_a   9.94666386
_cell_length_b   5.97960628
_cell_length_c   10.30561900
_cell_angle_alpha   87.43189989
_cell_angle_beta   89.87190232
_cell_angle_gamma   89.42658420
_symmetry_Int_Tables_number   1
_chemical_formula_structural   Ba4U3MoF28
_chemical_formula_sum   'Ba4 U3 Mo1 F28'
_cell_volume   612.30143127
_cell_formula_units_Z   1
loop_
 _symmetry_equiv_pos_site_id
 _symmetry_equiv_pos_as_xyz
  1  'x, y, z'
loop_
 _atom_site_type_symbol
 _atom_site_label
 _atom_site_symmetry_multiplicity
 _atom_site_fract_x
 _atom_site_fract_y
 _atom_site_fract_z
 _atom_site_occupancy
  Ba  Ba0  1  0.314686  0.274415  0.506484  1
  Ba  Ba1  1  0.806942  0.721500  0.989327  1
  Ba  Ba2  1  0.686480  0.733428  0.484917  1
  Ba  Ba3  1  0.195005  0.278407  0.016095  1
  U  U4  1  0.387004  0.771261  0.783262  1
  U  U5  1  0.885944  0.227873  0.715845  1
  U  U6  1  0.110900  0.774723  0.285314  1
  Mo  Mo7  1  0.616179  0.231975  0.219141  1
  F  F8  1  0.401245  0.071037  0.881776  1
  F  F9  1  0.053052  0.345421  0.612693  1
  F  F10  1  0.713287  0.517774  0.234055  1
  F  F11  1  0.280949  0.455402  0.760751  1
  F  F12  1  0.495265  0.986687  0.638513  1
  F  F13  1  0.765820  0.306058  0.547210  1
  F  F14  1  0.766524  0.080105  0.311042  1
  F  F15  1  0.991396  0.997629  0.852020  1
  F  F16  1  0.459117  0.334941  0.121281  1
  F  F17  1  0.221551  0.453861  0.260980  1
  F  F18  1  0.100435  0.072841  0.386534  1
  F  F19  1  0.606816  0.951313  0.130368  1
  F  F20  1  0.272777  0.928810  0.189750  1
  F  F21  1  0.022177  0.574268  0.126469  1
  F  F22  1  0.511228  0.020091  0.341113  1
  F  F23  1  0.007458  0.994900  0.143176  1
  F  F24  1  0.227930  0.935140  0.685875  1
  F  F25  1  0.892736  0.932327  0.610659  1
  F  F26  1  0.531501  0.412932  0.364025  1
  F  F27  1  0.942501  0.656725  0.386557  1
  F  F28  1  0.976094  0.417241  0.879538  1
  F  F29  1  0.725020  0.073504  0.814048  1
  F  F30  1  0.477735  0.568840  0.621174  1
  F  F31  1  0.267811  0.707860  0.954471  1
  F  F32  1  0.231577  0.702066  0.455244  1
  F  F33  1  0.724622  0.284783  0.056115  1
  F  F34  1  0.550623  0.652667  0.891842  1
  F  F35  1  0.779615  0.551196  0.742337  1
