# generated using pymatgen
data_Ba3DyTm2LuO9
_symmetry_space_group_name_H-M   'P 1'
_cell_length_a   9.11790758
_cell_length_b   9.11790702
_cell_length_c   9.11790657
_cell_angle_alpha   38.94445332
_cell_angle_beta   38.94445105
_cell_angle_gamma   38.94445556
_symmetry_Int_Tables_number   1
_chemical_formula_structural   Ba3DyTm2LuO9
_chemical_formula_sum   'Ba3 Dy1 Tm2 Lu1 O9'
_cell_volume   269.31157310
_cell_formula_units_Z   1
loop_
 _symmetry_equiv_pos_site_id
 _symmetry_equiv_pos_as_xyz
  1  'x, y, z'
loop_
 _atom_site_type_symbol
 _atom_site_label
 _atom_site_symmetry_multiplicity
 _atom_site_fract_x
 _atom_site_fract_y
 _atom_site_fract_z
 _atom_site_occupancy
  Ba  Ba0  1  0.997173  0.997173  0.997173  1
  Ba  Ba1  1  0.162554  0.162554  0.162554  1
  Ba  Ba2  1  0.587833  0.587833  0.587833  1
  Dy  Dy3  1  0.422440  0.422440  0.422440  1
  Tm  Tm4  1  0.861260  0.861260  0.861260  1
  Tm  Tm5  1  0.736099  0.736099  0.736099  1
  Lu  Lu6  1  0.297066  0.297066  0.297066  1
  O  O7  1  0.032640  0.126367  0.580557  1
  O  O8  1  0.126367  0.580557  0.032640  1
  O  O9  1  0.580557  0.032640  0.126367  1
  O  O10  1  0.584192  0.114609  0.703776  1
  O  O11  1  0.114609  0.703776  0.584192  1
  O  O12  1  0.703776  0.584192  0.114609  1
  O  O13  1  0.484681  0.030325  0.547126  1
  O  O14  1  0.030325  0.547126  0.484681  1
  O  O15  1  0.547126  0.484681  0.030325  1
