# generated using pymatgen
data_Ac4AlCoSi6
_symmetry_space_group_name_H-M   'P 1'
_cell_length_a   8.34802600
_cell_length_b   8.34802686
_cell_length_c   4.66021500
_cell_angle_alpha   90.00000000
_cell_angle_beta   90.00000000
_cell_angle_gamma   120.00000453
_symmetry_Int_Tables_number   1
_chemical_formula_structural   Ac4AlCoSi6
_chemical_formula_sum   'Ac4 Al1 Co1 Si6'
_cell_volume   281.25755425
_cell_formula_units_Z   1
loop_
 _symmetry_equiv_pos_site_id
 _symmetry_equiv_pos_as_xyz
  1  'x, y, z'
loop_
 _atom_site_type_symbol
 _atom_site_label
 _atom_site_symmetry_multiplicity
 _atom_site_fract_x
 _atom_site_fract_y
 _atom_site_fract_z
 _atom_site_occupancy
  Ac  Ac0  1  0.504479  0.495521  0.000000  1
  Ac  Ac1  1  0.991040  0.495521  0.000000  1
  Ac  Ac2  1  0.504479  0.008960  0.000000  1
  Ac  Ac3  1  0.000000  0.000000  0.000000  1
  Al  Al4  1  0.333333  0.666667  0.500000  1
  Co  Co5  1  0.666667  0.333333  0.500000  1
  Si  Si6  1  0.824721  0.649442  0.500000  1
  Si  Si7  1  0.160199  0.839801  0.500000  1
  Si  Si8  1  0.679604  0.839801  0.500000  1
  Si  Si9  1  0.160199  0.320396  0.500000  1
  Si  Si10  1  0.824721  0.175279  0.500000  1
  Si  Si11  1  0.350558  0.175279  0.500000  1
