# generated using pymatgen
data_Ta3Mn4NbP4
_symmetry_space_group_name_H-M   'P 1'
_cell_length_a   3.59568600
_cell_length_b   6.14948666
_cell_length_c   7.12560811
_cell_angle_alpha   90.75458588
_cell_angle_beta   90.00000000
_cell_angle_gamma   90.00000000
_symmetry_Int_Tables_number   1
_chemical_formula_structural   Ta3Mn4NbP4
_chemical_formula_sum   'Ta3 Mn4 Nb1 P4'
_cell_volume   157.54509671
_cell_formula_units_Z   1
loop_
 _symmetry_equiv_pos_site_id
 _symmetry_equiv_pos_as_xyz
  1  'x, y, z'
loop_
 _atom_site_type_symbol
 _atom_site_label
 _atom_site_symmetry_multiplicity
 _atom_site_fract_x
 _atom_site_fract_y
 _atom_site_fract_z
 _atom_site_occupancy
  Ta  Ta0  1  0.250000  0.524776  0.671468  1
  Ta  Ta1  1  0.750000  0.475003  0.328317  1
  Ta  Ta2  1  0.250000  0.027427  0.822141  1
  Mn  Mn3  1  0.750000  0.852215  0.558807  1
  Mn  Mn4  1  0.250000  0.148297  0.443571  1
  Mn  Mn5  1  0.750000  0.357663  0.937095  1
  Mn  Mn6  1  0.250000  0.641531  0.061693  1
  Nb  Nb7  1  0.750000  0.972733  0.176641  1
  P  P8  1  0.250000  0.271825  0.132522  1
  P  P9  1  0.750000  0.728424  0.867348  1
  P  P10  1  0.250000  0.779445  0.381127  1
  P  P11  1  0.750000  0.220660  0.619271  1
