# generated using pymatgen
data_La2YTm17Pt16
_symmetry_space_group_name_H-M   'P 1'
_cell_length_a   7.47191493
_cell_length_b   7.51393178
_cell_length_c   14.63080611
_cell_angle_alpha   90.00627939
_cell_angle_beta   89.99169041
_cell_angle_gamma   89.82393933
_symmetry_Int_Tables_number   1
_chemical_formula_structural   La2YTm17Pt16
_chemical_formula_sum   'La2 Y1 Tm17 Pt16'
_cell_volume   821.42017247
_cell_formula_units_Z   1
loop_
 _symmetry_equiv_pos_site_id
 _symmetry_equiv_pos_as_xyz
  1  'x, y, z'
loop_
 _atom_site_type_symbol
 _atom_site_label
 _atom_site_symmetry_multiplicity
 _atom_site_fract_x
 _atom_site_fract_y
 _atom_site_fract_z
 _atom_site_occupancy
  La  La0  1  0.499087  0.323817  0.908189  1
  La  La1  1  0.500847  0.676258  0.408607  1
  Y  Y2  1  0.999570  0.822537  0.091536  1
  Tm  Tm3  1  0.681784  0.991837  0.249147  1
  Tm  Tm4  1  0.180839  0.509366  0.248992  1
  Tm  Tm5  1  0.818876  0.490674  0.748254  1
  Tm  Tm6  1  0.318389  0.007961  0.748617  1
  Tm  Tm7  1  0.660484  0.836220  0.622927  1
  Tm  Tm8  1  0.153140  0.667368  0.875912  1
  Tm  Tm9  1  0.847509  0.332099  0.376787  1
  Tm  Tm10  1  0.340512  0.164250  0.123280  1
  Tm  Tm11  1  0.344513  0.167251  0.378218  1
  Tm  Tm12  1  0.845892  0.332290  0.121674  1
  Tm  Tm13  1  0.153930  0.667957  0.621386  1
  Tm  Tm14  1  0.656003  0.832600  0.877841  1
  Tm  Tm15  1  0.998467  0.823254  0.405815  1
  Tm  Tm16  1  0.496777  0.683624  0.095709  1
  Tm  Tm17  1  0.502882  0.315818  0.595564  1
  Tm  Tm18  1  0.002173  0.178897  0.905506  1
  Tm  Tm19  1  0.001194  0.178997  0.591847  1
  Pt  Pt20  1  0.819894  0.643065  0.249503  1
  Pt  Pt21  1  0.314563  0.859139  0.248205  1
  Pt  Pt22  1  0.686437  0.140817  0.747195  1
  Pt  Pt23  1  0.178418  0.355476  0.747502  1
  Pt  Pt24  1  0.547505  0.381097  0.247927  1
  Pt  Pt25  1  0.045525  0.116554  0.250962  1
  Pt  Pt26  1  0.955042  0.884445  0.749960  1
  Pt  Pt27  1  0.452117  0.618581  0.747225  1
  Pt  Pt28  1  0.816455  0.527193  0.545672  1
  Pt  Pt29  1  0.313045  0.960131  0.959811  1
  Pt  Pt30  1  0.687540  0.040539  0.460858  1
  Pt  Pt31  1  0.184176  0.469809  0.044601  1
  Pt  Pt32  1  0.175673  0.462015  0.459345  1
  Pt  Pt33  1  0.683069  0.030831  0.043331  1
  Pt  Pt34  1  0.313153  0.971236  0.543882  1
  Pt  Pt35  1  0.824520  0.535996  0.958213  1
