# generated using pymatgen
data_RbP2IrRu
_symmetry_space_group_name_H-M   'P 1'
_cell_length_a   7.39501328
_cell_length_b   7.39501331
_cell_length_c   7.39501346
_cell_angle_alpha   148.57826258
_cell_angle_beta   148.57825546
_cell_angle_gamma   45.03246096
_symmetry_Int_Tables_number   1
_chemical_formula_structural   RbP2IrRu
_chemical_formula_sum   'Rb1 P2 Ir1 Ru1'
_cell_volume   109.56814782
_cell_formula_units_Z   1
loop_
 _symmetry_equiv_pos_site_id
 _symmetry_equiv_pos_as_xyz
  1  'x, y, z'
loop_
 _atom_site_type_symbol
 _atom_site_label
 _atom_site_symmetry_multiplicity
 _atom_site_fract_x
 _atom_site_fract_y
 _atom_site_fract_z
 _atom_site_occupancy
  Rb  Rb0  1  0.000000  0.000000  0.000000  1
  P  P1  1  0.339122  0.339122  0.000000  1
  P  P2  1  0.660878  0.660878  0.000000  1
  Ir  Ir3  1  0.250000  0.750000  0.500000  1
  Ru  Ru4  1  0.750000  0.250000  0.500000  1
