# generated using pymatgen
data_Tm3Co8As6Ru
_symmetry_space_group_name_H-M   'P 1'
_cell_length_a   3.78938100
_cell_length_b   10.89683300
_cell_length_c   12.68182700
_cell_angle_alpha   90.00000000
_cell_angle_beta   90.00000000
_cell_angle_gamma   90.00000000
_symmetry_Int_Tables_number   1
_chemical_formula_structural   Tm3Co8As6Ru
_chemical_formula_sum   'Tm6 Co16 As12 Ru2'
_cell_volume   523.66119542
_cell_formula_units_Z   2
loop_
 _symmetry_equiv_pos_site_id
 _symmetry_equiv_pos_as_xyz
  1  'x, y, z'
loop_
 _atom_site_type_symbol
 _atom_site_label
 _atom_site_symmetry_multiplicity
 _atom_site_fract_x
 _atom_site_fract_y
 _atom_site_fract_z
 _atom_site_occupancy
  Tm  Tm0  1  0.000000  0.500000  0.526943  1
  Tm  Tm1  1  0.500000  0.000000  0.473057  1
  Tm  Tm2  1  0.500000  0.818097  0.207398  1
  Tm  Tm3  1  0.500000  0.181903  0.207398  1
  Tm  Tm4  1  0.000000  0.681903  0.792602  1
  Tm  Tm5  1  0.000000  0.318097  0.792602  1
  Co  Co6  1  0.500000  0.500000  0.702680  1
  Co  Co7  1  0.000000  0.000000  0.297320  1
  Co  Co8  1  0.000000  0.500000  0.986718  1
  Co  Co9  1  0.500000  0.000000  0.013282  1
  Co  Co10  1  0.500000  0.332793  0.992177  1
  Co  Co11  1  0.500000  0.667207  0.992177  1
  Co  Co12  1  0.000000  0.167207  0.007823  1
  Co  Co13  1  0.000000  0.832793  0.007823  1
  Co  Co14  1  0.500000  0.298346  0.431360  1
  Co  Co15  1  0.500000  0.701654  0.431360  1
  Co  Co16  1  0.000000  0.201654  0.568640  1
  Co  Co17  1  0.000000  0.798346  0.568640  1
  Co  Co18  1  0.500000  0.879019  0.706345  1
  Co  Co19  1  0.500000  0.120981  0.706345  1
  Co  Co20  1  0.000000  0.620981  0.293655  1
  Co  Co21  1  0.000000  0.379019  0.293655  1
  As  As22  1  0.500000  0.500000  0.879773  1
  As  As23  1  0.000000  0.000000  0.120227  1
  As  As24  1  0.500000  0.500000  0.353179  1
  As  As25  1  0.000000  0.000000  0.646821  1
  As  As26  1  0.500000  0.314134  0.616736  1
  As  As27  1  0.500000  0.685866  0.616736  1
  As  As28  1  0.000000  0.185866  0.383264  1
  As  As29  1  0.000000  0.814134  0.383264  1
  As  As30  1  0.500000  0.845081  0.889974  1
  As  As31  1  0.500000  0.154919  0.889974  1
  As  As32  1  0.000000  0.654919  0.110026  1
  As  As33  1  0.000000  0.345081  0.110026  1
  Ru  Ru34  1  0.500000  0.500000  0.157717  1
  Ru  Ru35  1  0.000000  0.000000  0.842283  1
