# generated using pymatgen
data_Nd4Ni5Cl2
_symmetry_space_group_name_H-M   'P 1'
_cell_length_a   11.02773550
_cell_length_b   11.02773709
_cell_length_c   3.94895700
_cell_angle_alpha   90.00000000
_cell_angle_beta   90.00000000
_cell_angle_gamma   91.66188668
_symmetry_Int_Tables_number   1
_chemical_formula_structural   Nd4Ni5Cl2
_chemical_formula_sum   'Nd8 Ni10 Cl4'
_cell_volume   480.03448196
_cell_formula_units_Z   2
loop_
 _symmetry_equiv_pos_site_id
 _symmetry_equiv_pos_as_xyz
  1  'x, y, z'
loop_
 _atom_site_type_symbol
 _atom_site_label
 _atom_site_symmetry_multiplicity
 _atom_site_fract_x
 _atom_site_fract_y
 _atom_site_fract_z
 _atom_site_occupancy
  Nd  Nd0  1  0.721967  0.721967  0.000000  1
  Nd  Nd1  1  0.038062  0.662701  0.500000  1
  Nd  Nd2  1  0.373550  0.626450  0.000000  1
  Nd  Nd3  1  0.961938  0.337299  0.500000  1
  Nd  Nd4  1  0.278033  0.278033  0.000000  1
  Nd  Nd5  1  0.626450  0.373550  0.000000  1
  Nd  Nd6  1  0.662701  0.038062  0.500000  1
  Nd  Nd7  1  0.337299  0.961938  0.500000  1
  Ni  Ni8  1  0.577036  0.577036  0.500000  1
  Ni  Ni9  1  0.422964  0.422964  0.500000  1
  Ni  Ni10  1  0.218434  0.475287  0.500000  1
  Ni  Ni11  1  0.781566  0.524713  0.500000  1
  Ni  Ni12  1  0.517109  0.894674  0.000000  1
  Ni  Ni13  1  0.524713  0.781566  0.500000  1
  Ni  Ni14  1  0.482891  0.105326  0.000000  1
  Ni  Ni15  1  0.105326  0.482891  0.000000  1
  Ni  Ni16  1  0.475287  0.218434  0.500000  1
  Ni  Ni17  1  0.894674  0.517109  0.000000  1
  Cl  Cl18  1  0.871768  0.871768  0.500000  1
  Cl  Cl19  1  0.168329  0.831671  0.000000  1
  Cl  Cl20  1  0.128232  0.128232  0.500000  1
  Cl  Cl21  1  0.831671  0.168329  0.000000  1
