# generated using pymatgen
data_Tm2Mn2Cl
_symmetry_space_group_name_H-M   'P 1'
_cell_length_a   3.77341700
_cell_length_b   3.77341590
_cell_length_c   16.32726200
_cell_angle_alpha   90.00000000
_cell_angle_beta   90.00000000
_cell_angle_gamma   120.00000087
_symmetry_Int_Tables_number   1
_chemical_formula_structural   Tm2Mn2Cl
_chemical_formula_sum   'Tm4 Mn4 Cl2'
_cell_volume   201.33230540
_cell_formula_units_Z   2
loop_
 _symmetry_equiv_pos_site_id
 _symmetry_equiv_pos_as_xyz
  1  'x, y, z'
loop_
 _atom_site_type_symbol
 _atom_site_label
 _atom_site_symmetry_multiplicity
 _atom_site_fract_x
 _atom_site_fract_y
 _atom_site_fract_z
 _atom_site_occupancy
  Tm  Tm0  1  0.000000  0.000000  0.117817  1
  Tm  Tm1  1  0.000000  0.000000  0.382183  1
  Tm  Tm2  1  0.000000  0.000000  0.617817  1
  Tm  Tm3  1  0.000000  0.000000  0.882183  1
  Mn  Mn4  1  0.333333  0.666665  0.010967  1
  Mn  Mn5  1  0.333333  0.666665  0.489033  1
  Mn  Mn6  1  0.666666  0.333333  0.510967  1
  Mn  Mn7  1  0.666666  0.333333  0.989033  1
  Cl  Cl8  1  0.666666  0.333333  0.250000  1
  Cl  Cl9  1  0.333333  0.666665  0.750000  1
