# generated using pymatgen
data_Y2MgGa7Ni2
_symmetry_space_group_name_H-M   'P 1'
_cell_length_a   8.04014512
_cell_length_b   8.04014522
_cell_length_c   6.50986110
_cell_angle_alpha   91.18490236
_cell_angle_beta   88.81509749
_cell_angle_gamma   149.97959664
_symmetry_Int_Tables_number   1
_chemical_formula_structural   Y2MgGa7Ni2
_chemical_formula_sum   'Y2 Mg1 Ga7 Ni2'
_cell_volume   210.49302585
_cell_formula_units_Z   1
loop_
 _symmetry_equiv_pos_site_id
 _symmetry_equiv_pos_as_xyz
  1  'x, y, z'
loop_
 _atom_site_type_symbol
 _atom_site_label
 _atom_site_symmetry_multiplicity
 _atom_site_fract_x
 _atom_site_fract_y
 _atom_site_fract_z
 _atom_site_occupancy
  Y  Y0  1  0.377222  0.622778  0.739704  1
  Y  Y1  1  0.622778  0.377222  0.260296  1
  Mg  Mg2  1  0.000000  0.000000  0.000000  1
  Ga  Ga3  1  0.000000  0.000000  0.500000  1
  Ga  Ga4  1  0.569910  0.430090  0.745277  1
  Ga  Ga5  1  0.430090  0.569910  0.254723  1
  Ga  Ga6  1  0.186290  0.813710  0.956839  1
  Ga  Ga7  1  0.813710  0.186290  0.043161  1
  Ga  Ga8  1  0.184770  0.815230  0.554992  1
  Ga  Ga9  1  0.815230  0.184770  0.445008  1
  Ni  Ni10  1  0.721365  0.278635  0.746329  1
  Ni  Ni11  1  0.278635  0.721365  0.253671  1
