# generated using pymatgen
data_Dy4TmIn4IrPt
_symmetry_space_group_name_H-M   'P 1'
_cell_length_a   3.63151200
_cell_length_b   8.11267070
_cell_length_c   18.21426604
_cell_angle_alpha   89.98123244
_cell_angle_beta   90.00000000
_cell_angle_gamma   90.00000000
_symmetry_Int_Tables_number   1
_chemical_formula_structural   Dy4TmIn4IrPt
_chemical_formula_sum   'Dy8 Tm2 In8 Ir2 Pt2'
_cell_volume   536.61521700
_cell_formula_units_Z   2
loop_
 _symmetry_equiv_pos_site_id
 _symmetry_equiv_pos_as_xyz
  1  'x, y, z'
loop_
 _atom_site_type_symbol
 _atom_site_label
 _atom_site_symmetry_multiplicity
 _atom_site_fract_x
 _atom_site_fract_y
 _atom_site_fract_z
 _atom_site_occupancy
  Dy  Dy0  1  0.000000  0.382788  0.913903  1
  Dy  Dy1  1  0.000000  0.617212  0.086097  1
  Dy  Dy2  1  0.000000  0.235855  0.222422  1
  Dy  Dy3  1  0.000000  0.764145  0.777578  1
  Dy  Dy4  1  0.000000  0.247952  0.720401  1
  Dy  Dy5  1  0.000000  0.752048  0.279599  1
  Dy  Dy6  1  0.000000  0.000000  0.000000  1
  Dy  Dy7  1  0.000000  0.500000  0.500000  1
  Tm  Tm8  1  0.000000  0.114805  0.411722  1
  Tm  Tm9  1  0.000000  0.885195  0.588278  1
  In  In10  1  0.500000  0.421852  0.351836  1
  In  In11  1  0.500000  0.578148  0.648164  1
  In  In12  1  0.500000  0.072219  0.850907  1
  In  In13  1  0.500000  0.927781  0.149093  1
  In  In14  1  0.500000  0.292297  0.066700  1
  In  In15  1  0.500000  0.707703  0.933300  1
  In  In16  1  0.500000  0.204200  0.566657  1
  In  In17  1  0.500000  0.795800  0.433343  1
  Ir  Ir18  1  0.500000  0.021905  0.305163  1
  Ir  Ir19  1  0.500000  0.978095  0.694837  1
  Pt  Pt20  1  0.500000  0.477952  0.802789  1
  Pt  Pt21  1  0.500000  0.522048  0.197211  1
