# generated using pymatgen
data_Tb5In5Rh
_symmetry_space_group_name_H-M   'P 1'
_cell_length_a   8.33658782
_cell_length_b   18.70785839
_cell_length_c   3.65320600
_cell_angle_alpha   90.00000000
_cell_angle_beta   90.00000000
_cell_angle_gamma   89.34556025
_symmetry_Int_Tables_number   1
_chemical_formula_structural   Tb5In5Rh
_chemical_formula_sum   'Tb10 In10 Rh2'
_cell_volume   569.71576182
_cell_formula_units_Z   2
loop_
 _symmetry_equiv_pos_site_id
 _symmetry_equiv_pos_as_xyz
  1  'x, y, z'
loop_
 _atom_site_type_symbol
 _atom_site_label
 _atom_site_symmetry_multiplicity
 _atom_site_fract_x
 _atom_site_fract_y
 _atom_site_fract_z
 _atom_site_occupancy
  Tb  Tb0  1  0.500000  0.500000  0.000000  1
  Tb  Tb1  1  0.000000  0.000000  0.000000  1
  Tb  Tb2  1  0.702810  0.275900  0.000000  1
  Tb  Tb3  1  0.297190  0.724100  0.000000  1
  Tb  Tb4  1  0.730913  0.788736  0.000000  1
  Tb  Tb5  1  0.269087  0.211264  0.000000  1
  Tb  Tb6  1  0.615431  0.083242  0.000000  1
  Tb  Tb7  1  0.384569  0.916758  0.000000  1
  Tb  Tb8  1  0.872050  0.573303  0.000000  1
  Tb  Tb9  1  0.127950  0.426697  0.000000  1
  In  In10  1  0.706726  0.934077  0.500000  1
  In  In11  1  0.293274  0.065923  0.500000  1
  In  In12  1  0.789035  0.428938  0.500000  1
  In  In13  1  0.210965  0.571062  0.500000  1
  In  In14  1  0.582367  0.648684  0.500000  1
  In  In15  1  0.417633  0.351316  0.500000  1
  In  In16  1  0.915610  0.146254  0.500000  1
  In  In17  1  0.084390  0.853746  0.500000  1
  In  In18  1  0.978394  0.699098  0.500000  1
  In  In19  1  0.021606  0.300902  0.500000  1
  Rh  Rh20  1  0.523748  0.193038  0.500000  1
  Rh  Rh21  1  0.476252  0.806962  0.500000  1
