# generated using pymatgen
data_Dy14Tm6Bi11Sb
_symmetry_space_group_name_H-M   'P 1'
_cell_length_a   8.23144859
_cell_length_b   9.46197300
_cell_length_c   12.02475401
_cell_angle_alpha   89.99884824
_cell_angle_beta   90.03801149
_cell_angle_gamma   89.99772132
_symmetry_Int_Tables_number   1
_chemical_formula_structural   Dy14Tm6Bi11Sb
_chemical_formula_sum   'Dy14 Tm6 Bi11 Sb1'
_cell_volume   936.55670979
_cell_formula_units_Z   1
loop_
 _symmetry_equiv_pos_site_id
 _symmetry_equiv_pos_as_xyz
  1  'x, y, z'
loop_
 _atom_site_type_symbol
 _atom_site_label
 _atom_site_symmetry_multiplicity
 _atom_site_fract_x
 _atom_site_fract_y
 _atom_site_fract_z
 _atom_site_occupancy
  Dy  Dy0  1  0.353171  0.750068  0.213069  1
  Dy  Dy1  1  0.852380  0.749898  0.283842  1
  Dy  Dy2  1  0.648092  0.249944  0.784012  1
  Dy  Dy3  1  0.147879  0.250066  0.716326  1
  Dy  Dy4  1  0.689963  0.933693  0.057265  1
  Dy  Dy5  1  0.192573  0.564309  0.441270  1
  Dy  Dy6  1  0.476035  0.249838  0.488208  1
  Dy  Dy7  1  0.976780  0.250156  0.011395  1
  Dy  Dy8  1  0.525065  0.750230  0.512130  1
  Dy  Dy9  1  0.028024  0.749732  0.987856  1
  Dy  Dy10  1  0.313027  0.249999  0.218680  1
  Dy  Dy11  1  0.812660  0.250011  0.281379  1
  Dy  Dy12  1  0.682904  0.749775  0.783886  1
  Dy  Dy13  1  0.188862  0.750199  0.720507  1
  Tm  Tm14  1  0.689758  0.566990  0.057219  1
  Tm  Tm15  1  0.192520  0.935143  0.441235  1
  Tm  Tm16  1  0.308769  0.061207  0.941557  1
  Tm  Tm17  1  0.807450  0.435148  0.558519  1
  Tm  Tm18  1  0.308603  0.438873  0.941440  1
  Tm  Tm19  1  0.807262  0.064769  0.558639  1
  Bi  Bi20  1  0.907625  0.750543  0.543699  1
  Bi  Bi21  1  0.592417  0.251539  0.042715  1
  Bi  Bi22  1  0.092111  0.248437  0.457459  1
  Bi  Bi23  1  0.565416  0.995238  0.325513  1
  Bi  Bi24  1  0.065390  0.504424  0.174208  1
  Bi  Bi25  1  0.434300  0.495285  0.674641  1
  Bi  Bi26  1  0.934044  0.004174  0.825379  1
  Bi  Bi27  1  0.434298  0.004781  0.674439  1
  Bi  Bi28  1  0.934067  0.495771  0.825566  1
  Bi  Bi29  1  0.565782  0.504754  0.325327  1
  Bi  Bi30  1  0.065732  0.995600  0.174389  1
  Sb  Sb31  1  0.407042  0.749406  0.958232  1
