# generated using pymatgen
data_NbBMoC
_symmetry_space_group_name_H-M   'P 1'
_cell_length_a   8.94097841
_cell_length_b   8.94097829
_cell_length_c   3.14163100
_cell_angle_alpha   90.00000000
_cell_angle_beta   90.00000000
_cell_angle_gamma   159.45404183
_symmetry_Int_Tables_number   1
_chemical_formula_structural   NbBMoC
_chemical_formula_sum   'Nb2 B2 Mo2 C2'
_cell_volume   88.14164281
_cell_formula_units_Z   2
loop_
 _symmetry_equiv_pos_site_id
 _symmetry_equiv_pos_as_xyz
  1  'x, y, z'
loop_
 _atom_site_type_symbol
 _atom_site_label
 _atom_site_symmetry_multiplicity
 _atom_site_fract_x
 _atom_site_fract_y
 _atom_site_fract_z
 _atom_site_occupancy
  Nb  Nb0  1  0.314813  0.685188  0.250000  1
  Nb  Nb1  1  0.685188  0.314812  0.750000  1
  B  B2  1  0.529174  0.470826  0.750000  1
  B  B3  1  0.470826  0.529174  0.250000  1
  Mo  Mo4  1  0.068849  0.931151  0.250000  1
  Mo  Mo5  1  0.931151  0.068849  0.750000  1
  C  C6  1  0.810952  0.189048  0.750000  1
  C  C7  1  0.189048  0.810952  0.250000  1
