# generated using pymatgen
data_Er2Sc4(WO6)3
_symmetry_space_group_name_H-M   'P 1'
_cell_length_a   8.92258396
_cell_length_b   8.91568911
_cell_length_c   4.96347177
_cell_angle_alpha   89.99999713
_cell_angle_beta   89.94439107
_cell_angle_gamma   119.97444847
_symmetry_Int_Tables_number   1
_chemical_formula_structural   Er2Sc4(WO6)3
_chemical_formula_sum   'Er2 Sc4 W3 O18'
_cell_volume   342.03711610
_cell_formula_units_Z   1
loop_
 _symmetry_equiv_pos_site_id
 _symmetry_equiv_pos_as_xyz
  1  'x, y, z'
loop_
 _atom_site_type_symbol
 _atom_site_label
 _atom_site_symmetry_multiplicity
 _atom_site_fract_x
 _atom_site_fract_y
 _atom_site_fract_z
 _atom_site_occupancy
  Er  Er0  1  0.627605  0.999321  0.999456  1
  Er  Er1  1  0.372396  0.371716  0.000544  1
  Sc  Sc2  1  0.000000  0.633383  0.000000  1
  Sc  Sc3  1  0.295829  0.001109  0.500326  1
  Sc  Sc4  1  0.000000  0.294390  0.500001  1
  Sc  Sc5  1  0.704171  0.705280  0.499676  1
  W  W6  1  0.000000  0.996140  0.000000  1
  W  W7  1  0.671465  0.337599  0.500744  1
  W  W8  1  0.328536  0.666134  0.499255  1
  O  O9  1  0.886221  0.090086  0.223818  1
  O  O10  1  0.207381  0.112398  0.220376  1
  O  O11  1  0.906746  0.785672  0.216926  1
  O  O12  1  0.226962  0.454431  0.285709  1
  O  O13  1  0.222138  0.766834  0.272191  1
  O  O14  1  0.540656  0.770753  0.279877  1
  O  O15  1  0.540308  0.130325  0.282039  1
  O  O16  1  0.876632  0.420738  0.273688  1
  O  O17  1  0.588583  0.464042  0.289081  1
  O  O18  1  0.123368  0.544107  0.726311  1
  O  O19  1  0.459692  0.590017  0.717960  1
  O  O20  1  0.411417  0.875458  0.710918  1
  O  O21  1  0.773039  0.227470  0.714290  1
  O  O22  1  0.459343  0.230095  0.720122  1
  O  O23  1  0.777862  0.544696  0.727808  1
  O  O24  1  0.113778  0.203866  0.776182  1
  O  O25  1  0.093255  0.878928  0.783074  1
  O  O26  1  0.792619  0.905017  0.779624  1
