# generated using pymatgen
data_Ta4ZnCu3Pt8
_symmetry_space_group_name_H-M   'P 1'
_cell_length_a   4.62874400
_cell_length_b   4.76859100
_cell_length_c   11.09997300
_cell_angle_alpha   90.00000000
_cell_angle_beta   90.00000000
_cell_angle_gamma   90.00000000
_symmetry_Int_Tables_number   1
_chemical_formula_structural   Ta4ZnCu3Pt8
_chemical_formula_sum   'Ta4 Zn1 Cu3 Pt8'
_cell_volume   245.00511951
_cell_formula_units_Z   1
loop_
 _symmetry_equiv_pos_site_id
 _symmetry_equiv_pos_as_xyz
  1  'x, y, z'
loop_
 _atom_site_type_symbol
 _atom_site_label
 _atom_site_symmetry_multiplicity
 _atom_site_fract_x
 _atom_site_fract_y
 _atom_site_fract_z
 _atom_site_occupancy
  Ta  Ta0  1  0.500000  0.662259  0.245668  1
  Ta  Ta1  1  0.500000  0.662259  0.754332  1
  Ta  Ta2  1  0.000000  0.337697  0.000000  1
  Ta  Ta3  1  0.000000  0.328660  0.500000  1
  Zn  Zn4  1  0.500000  0.687237  0.500000  1
  Cu  Cu5  1  0.000000  0.324445  0.249946  1
  Cu  Cu6  1  0.000000  0.324445  0.750054  1
  Cu  Cu7  1  0.500000  0.674640  0.000000  1
  Pt  Pt8  1  0.500000  0.183392  0.375474  1
  Pt  Pt9  1  0.500000  0.180429  0.876813  1
  Pt  Pt10  1  0.500000  0.180429  0.123187  1
  Pt  Pt11  1  0.500000  0.183392  0.624526  1
  Pt  Pt12  1  0.000000  0.816037  0.372811  1
  Pt  Pt13  1  0.000000  0.819321  0.873725  1
  Pt  Pt14  1  0.000000  0.819321  0.126275  1
  Pt  Pt15  1  0.000000  0.816037  0.627189  1
