# generated using pymatgen
data_Y4ReI4
_symmetry_space_group_name_H-M   'P 1'
_cell_length_a   11.46590468
_cell_length_b   11.46590558
_cell_length_c   6.20991500
_cell_angle_alpha   90.01954429
_cell_angle_beta   90.01955724
_cell_angle_gamma   88.36615791
_symmetry_Int_Tables_number   1
_chemical_formula_structural   Y4ReI4
_chemical_formula_sum   'Y8 Re2 I8'
_cell_volume   816.06677335
_cell_formula_units_Z   2
loop_
 _symmetry_equiv_pos_site_id
 _symmetry_equiv_pos_as_xyz
  1  'x, y, z'
loop_
 _atom_site_type_symbol
 _atom_site_label
 _atom_site_symmetry_multiplicity
 _atom_site_fract_x
 _atom_site_fract_y
 _atom_site_fract_z
 _atom_site_occupancy
  Y  Y0  1  0.801881  0.084195  0.999064  1
  Y  Y1  1  0.084195  0.801881  0.499064  1
  Y  Y2  1  0.078779  0.195548  0.000449  1
  Y  Y3  1  0.195548  0.078779  0.500449  1
  Y  Y4  1  0.921221  0.804452  0.999551  1
  Y  Y5  1  0.915805  0.198119  0.500936  1
  Y  Y6  1  0.198119  0.915805  0.000936  1
  Y  Y7  1  0.804452  0.921221  0.499551  1
  Re  Re8  1  0.999848  0.000152  0.250000  1
  Re  Re9  1  0.000152  0.999848  0.750000  1
  I  I10  1  0.644795  0.152463  0.510486  1
  I  I11  1  0.858342  0.648323  0.505687  1
  I  I12  1  0.351677  0.141658  0.994313  1
  I  I13  1  0.141658  0.351677  0.494313  1
  I  I14  1  0.648323  0.858342  0.005687  1
  I  I15  1  0.355205  0.847537  0.489514  1
  I  I16  1  0.152463  0.644795  0.010486  1
  I  I17  1  0.847537  0.355205  0.989514  1
