# generated using pymatgen
data_TbPr2Lu7Pb6
_symmetry_space_group_name_H-M   'P 1'
_cell_length_a   9.07334286
_cell_length_b   9.04746214
_cell_length_c   6.57504500
_cell_angle_alpha   90.00000000
_cell_angle_beta   90.00000000
_cell_angle_gamma   120.35906134
_symmetry_Int_Tables_number   1
_chemical_formula_structural   TbPr2Lu7Pb6
_chemical_formula_sum   'Tb1 Pr2 Lu7 Pb6'
_cell_volume   465.73697814
_cell_formula_units_Z   1
loop_
 _symmetry_equiv_pos_site_id
 _symmetry_equiv_pos_as_xyz
  1  'x, y, z'
loop_
 _atom_site_type_symbol
 _atom_site_label
 _atom_site_symmetry_multiplicity
 _atom_site_fract_x
 _atom_site_fract_y
 _atom_site_fract_z
 _atom_site_occupancy
  Tb  Tb0  1  0.002547  0.761630  0.250000  1
  Pr  Pr1  1  0.766677  0.767652  0.750000  1
  Pr  Pr2  1  0.232252  0.232043  0.250000  1
  Lu  Lu3  1  0.666741  0.335219  0.999936  1
  Lu  Lu4  1  0.333514  0.665381  0.999884  1
  Lu  Lu5  1  0.333514  0.665381  0.500116  1
  Lu  Lu6  1  0.666741  0.335219  0.500064  1
  Lu  Lu7  1  0.238556  0.997836  0.750000  1
  Lu  Lu8  1  0.997718  0.235925  0.750000  1
  Lu  Lu9  1  0.761225  0.003019  0.250000  1
  Pb  Pb10  1  0.388647  0.388168  0.750000  1
  Pb  Pb11  1  0.601017  0.004620  0.750000  1
  Pb  Pb12  1  0.004410  0.601159  0.750000  1
  Pb  Pb13  1  0.609146  0.611823  0.250000  1
  Pb  Pb14  1  0.401423  0.997664  0.250000  1
  Pb  Pb15  1  0.995872  0.397262  0.250000  1
