# generated using pymatgen
data_Sr14La6Si15Ge
_symmetry_space_group_name_H-M   'P 1'
_cell_length_a   8.20430507
_cell_length_b   8.20024237
_cell_length_c   15.81346400
_cell_angle_alpha   90.06940971
_cell_angle_beta   89.89386981
_cell_angle_gamma   90.03301672
_symmetry_Int_Tables_number   1
_chemical_formula_structural   Sr14La6Si15Ge
_chemical_formula_sum   'Sr14 La6 Si15 Ge1'
_cell_volume   1063.88422356
_cell_formula_units_Z   1
loop_
 _symmetry_equiv_pos_site_id
 _symmetry_equiv_pos_as_xyz
  1  'x, y, z'
loop_
 _atom_site_type_symbol
 _atom_site_label
 _atom_site_symmetry_multiplicity
 _atom_site_fract_x
 _atom_site_fract_y
 _atom_site_fract_z
 _atom_site_occupancy
  Sr  Sr0  1  0.519225  0.628210  0.126444  1
  Sr  Sr1  1  0.129702  0.983744  0.874112  1
  Sr  Sr2  1  0.987504  0.627180  0.051771  1
  Sr  Sr3  1  0.013572  0.373428  0.550024  1
  Sr  Sr4  1  0.624183  0.983817  0.948220  1
  Sr  Sr5  1  0.126923  0.513412  0.800103  1
  Sr  Sr6  1  0.872121  0.486732  0.300644  1
  Sr  Sr7  1  0.514356  0.125853  0.199774  1
  Sr  Sr8  1  0.485179  0.874986  0.700006  1
  Sr  Sr9  1  0.374356  0.013565  0.451038  1
  Sr  Sr10  1  0.689166  0.690402  0.500890  1
  Sr  Sr11  1  0.811731  0.189715  0.750747  1
  Sr  Sr12  1  0.194112  0.807809  0.249087  1
  Sr  Sr13  1  0.309078  0.309010  0.000392  1
  La  La14  1  0.372158  0.486050  0.374375  1
  La  La15  1  0.872315  0.014593  0.376138  1
  La  La16  1  0.988549  0.127823  0.124269  1
  La  La17  1  0.013119  0.874295  0.624823  1
  La  La18  1  0.624768  0.511923  0.873579  1
  La  La19  1  0.487812  0.371758  0.625016  1
  Si  Si20  1  0.913120  0.287042  0.945089  1
  Si  Si21  1  0.725950  0.089506  0.555021  1
  Si  Si22  1  0.214243  0.410949  0.196929  1
  Si  Si23  1  0.775680  0.585721  0.693943  1
  Si  Si24  1  0.415496  0.229189  0.801932  1
  Si  Si25  1  0.592119  0.779302  0.308637  1
  Si  Si26  1  0.273740  0.912242  0.054880  1
  Si  Si27  1  0.831982  0.792495  0.796825  1
  Si  Si28  1  0.156232  0.205788  0.301932  1
  Si  Si29  1  0.797439  0.849767  0.203388  1
  Si  Si30  1  0.294279  0.655450  0.551999  1
  Si  Si31  1  0.705272  0.329060  0.048069  1
  Si  Si32  1  0.655198  0.292473  0.449452  1
  Si  Si33  1  0.344863  0.704798  0.950709  1
  Si  Si34  1  0.209934  0.159691  0.696153  1
  Ge  Ge35  1  0.084521  0.722224  0.443590  1
