# generated using pymatgen
data_LaMoH9
_symmetry_space_group_name_H-M   'P 1'
_cell_length_a   4.85560800
_cell_length_b   4.85560810
_cell_length_c   9.04210900
_cell_angle_alpha   90.00000000
_cell_angle_beta   90.00000000
_cell_angle_gamma   119.99999929
_symmetry_Int_Tables_number   1
_chemical_formula_structural   LaMoH9
_chemical_formula_sum   'La2 Mo2 H18'
_cell_volume   184.62377163
_cell_formula_units_Z   2
loop_
 _symmetry_equiv_pos_site_id
 _symmetry_equiv_pos_as_xyz
  1  'x, y, z'
loop_
 _atom_site_type_symbol
 _atom_site_label
 _atom_site_symmetry_multiplicity
 _atom_site_fract_x
 _atom_site_fract_y
 _atom_site_fract_z
 _atom_site_occupancy
  La  La0  1  0.000000  0.000000  0.000000  1
  La  La1  1  0.000000  0.000000  0.500000  1
  Mo  Mo2  1  0.333333  0.666667  0.250000  1
  Mo  Mo3  1  0.666667  0.333333  0.750000  1
  H  H4  1  0.479400  0.520600  0.390838  1
  H  H5  1  0.479400  0.958799  0.390838  1
  H  H6  1  0.041201  0.520600  0.390838  1
  H  H7  1  0.958799  0.479400  0.890838  1
  H  H8  1  0.130135  0.260270  0.250000  1
  H  H9  1  0.869865  0.130135  0.750000  1
  H  H10  1  0.260270  0.130135  0.750000  1
  H  H11  1  0.739730  0.869865  0.250000  1
  H  H12  1  0.130135  0.869865  0.250000  1
  H  H13  1  0.869865  0.739730  0.750000  1
  H  H14  1  0.479400  0.958799  0.109162  1
  H  H15  1  0.520600  0.479400  0.609162  1
  H  H16  1  0.958799  0.479400  0.609162  1
  H  H17  1  0.041201  0.520600  0.109162  1
  H  H18  1  0.479400  0.520600  0.109162  1
  H  H19  1  0.520600  0.041201  0.890838  1
  H  H20  1  0.520600  0.479400  0.890838  1
  H  H21  1  0.520600  0.041201  0.609162  1
