# generated using pymatgen
data_Dy3Ho5B24(IrRu)2
_symmetry_space_group_name_H-M   'P 1'
_cell_length_a   3.64619900
_cell_length_b   9.16288538
_cell_length_c   11.48876503
_cell_angle_alpha   90.06591025
_cell_angle_beta   90.00000000
_cell_angle_gamma   90.00000000
_symmetry_Int_Tables_number   1
_chemical_formula_structural   Dy3Ho5B24(IrRu)2
_chemical_formula_sum   'Dy3 Ho5 B24 Ir2 Ru2'
_cell_volume   383.83597934
_cell_formula_units_Z   1
loop_
 _symmetry_equiv_pos_site_id
 _symmetry_equiv_pos_as_xyz
  1  'x, y, z'
loop_
 _atom_site_type_symbol
 _atom_site_label
 _atom_site_symmetry_multiplicity
 _atom_site_fract_x
 _atom_site_fract_y
 _atom_site_fract_z
 _atom_site_occupancy
  Dy  Dy0  1  0.000000  0.319533  0.411812  1
  Dy  Dy1  1  0.000000  0.680455  0.588215  1
  Dy  Dy2  1  0.000000  0.823654  0.085366  1
  Ho  Ho3  1  0.000000  0.176421  0.914720  1
  Ho  Ho4  1  0.000000  0.945798  0.373125  1
  Ho  Ho5  1  0.000000  0.054260  0.626942  1
  Ho  Ho6  1  0.000000  0.442387  0.125400  1
  Ho  Ho7  1  0.000000  0.557512  0.874532  1
  B  B8  1  0.500000  0.553123  0.433620  1
  B  B9  1  0.500000  0.446880  0.566401  1
  B  B10  1  0.500000  0.054076  0.066850  1
  B  B11  1  0.500000  0.946169  0.933014  1
  B  B12  1  0.500000  0.750025  0.420380  1
  B  B13  1  0.500000  0.249959  0.579648  1
  B  B14  1  0.500000  0.247751  0.079785  1
  B  B15  1  0.500000  0.752207  0.920008  1
  B  B16  1  0.500000  0.792633  0.266099  1
  B  B17  1  0.500000  0.207273  0.734071  1
  B  B18  1  0.500000  0.291717  0.233673  1
  B  B19  1  0.500000  0.708275  0.766304  1
  B  B20  1  0.500000  0.631962  0.184309  1
  B  B21  1  0.500000  0.367842  0.815786  1
  B  B22  1  0.500000  0.132203  0.314478  1
  B  B23  1  0.500000  0.867823  0.685520  1
  B  B24  1  0.500000  0.983861  0.212876  1
  B  B25  1  0.500000  0.016386  0.787197  1
  B  B26  1  0.500000  0.482180  0.286491  1
  B  B27  1  0.500000  0.517813  0.713477  1
  B  B28  1  0.500000  0.610945  0.030814  1
  B  B29  1  0.500000  0.388770  0.969080  1
  B  B30  1  0.500000  0.110470  0.469937  1
  B  B31  1  0.500000  0.889553  0.530097  1
  Ir  Ir32  1  0.000000  0.637496  0.321957  1
  Ir  Ir33  1  0.000000  0.362433  0.678088  1
  Ru  Ru34  1  0.000000  0.138261  0.178900  1
  Ru  Ru35  1  0.000000  0.861893  0.821031  1
