# generated using pymatgen
data_Zr16Fe3CoOs4
_symmetry_space_group_name_H-M   'P 1'
_cell_length_a   8.68489508
_cell_length_b   8.68314912
_cell_length_c   8.68315000
_cell_angle_alpha   60.00000428
_cell_angle_beta   60.00665418
_cell_angle_gamma   60.00665664
_symmetry_Int_Tables_number   1
_chemical_formula_structural   Zr16Fe3CoOs4
_chemical_formula_sum   'Zr16 Fe3 Co1 Os4'
_cell_volume   463.07126914
_cell_formula_units_Z   1
loop_
 _symmetry_equiv_pos_site_id
 _symmetry_equiv_pos_as_xyz
  1  'x, y, z'
loop_
 _atom_site_type_symbol
 _atom_site_label
 _atom_site_symmetry_multiplicity
 _atom_site_fract_x
 _atom_site_fract_y
 _atom_site_fract_z
 _atom_site_occupancy
  Zr  Zr0  1  0.054602  0.648466  0.648466  1
  Zr  Zr1  1  0.648203  0.055702  0.648047  1
  Zr  Zr2  1  0.648203  0.648047  0.055702  1
  Zr  Zr3  1  0.648203  0.648047  0.648047  1
  Zr  Zr4  1  0.799420  0.799101  0.200739  1
  Zr  Zr5  1  0.200760  0.203152  0.798044  1
  Zr  Zr6  1  0.799420  0.200739  0.799101  1
  Zr  Zr7  1  0.200760  0.798044  0.203152  1
  Zr  Zr8  1  0.200760  0.798044  0.798044  1
  Zr  Zr9  1  0.799420  0.200739  0.200739  1
  Zr  Zr10  1  0.436705  0.435981  0.063657  1
  Zr  Zr11  1  0.063522  0.063382  0.436548  1
  Zr  Zr12  1  0.436705  0.063657  0.435981  1
  Zr  Zr13  1  0.063522  0.436548  0.063382  1
  Zr  Zr14  1  0.063522  0.436548  0.436548  1
  Zr  Zr15  1  0.436705  0.063657  0.063657  1
  Fe  Fe16  1  0.860127  0.419461  0.860206  1
  Fe  Fe17  1  0.860127  0.860206  0.419461  1
  Fe  Fe18  1  0.860127  0.860206  0.860206  1
  Co  Co19  1  0.418810  0.860397  0.860397  1
  Os  Os20  1  0.744794  0.418402  0.418402  1
  Os  Os21  1  0.418528  0.744711  0.418381  1
  Os  Os22  1  0.418528  0.418381  0.744711  1
  Os  Os23  1  0.418528  0.418381  0.418381  1
