# generated using pymatgen
data_TbCe(Gd2Co)2
_symmetry_space_group_name_H-M   'P 1'
_cell_length_a   6.34528100
_cell_length_b   6.97634900
_cell_length_c   9.48756400
_cell_angle_alpha   90.00000000
_cell_angle_beta   90.00000000
_cell_angle_gamma   90.00000000
_symmetry_Int_Tables_number   1
_chemical_formula_structural   TbCe(Gd2Co)2
_chemical_formula_sum   'Tb2 Ce2 Gd8 Co4'
_cell_volume   419.98499711
_cell_formula_units_Z   2
loop_
 _symmetry_equiv_pos_site_id
 _symmetry_equiv_pos_as_xyz
  1  'x, y, z'
loop_
 _atom_site_type_symbol
 _atom_site_label
 _atom_site_symmetry_multiplicity
 _atom_site_fract_x
 _atom_site_fract_y
 _atom_site_fract_z
 _atom_site_occupancy
  Tb  Tb0  1  0.145742  0.459005  0.750000  1
  Tb  Tb1  1  0.354258  0.959005  0.750000  1
  Ce  Ce2  1  0.857365  0.564769  0.250000  1
  Ce  Ce3  1  0.642635  0.064769  0.250000  1
  Gd  Gd4  1  0.331539  0.671481  0.066699  1
  Gd  Gd5  1  0.168461  0.171481  0.433301  1
  Gd  Gd6  1  0.677255  0.329627  0.568623  1
  Gd  Gd7  1  0.822745  0.829627  0.931377  1
  Gd  Gd8  1  0.677255  0.329627  0.931377  1
  Gd  Gd9  1  0.822745  0.829627  0.568623  1
  Gd  Gd10  1  0.331539  0.671481  0.433301  1
  Gd  Gd11  1  0.168461  0.171481  0.066699  1
  Co  Co12  1  0.017058  0.860033  0.250000  1
  Co  Co13  1  0.482942  0.360033  0.250000  1
  Co  Co14  1  0.948840  0.113978  0.750000  1
  Co  Co15  1  0.551160  0.613978  0.750000  1
