# generated using pymatgen
data_Ho3Lu3P13Rh20
_symmetry_space_group_name_H-M   'P 1'
_cell_length_a   13.32171200
_cell_length_b   13.32171099
_cell_length_c   3.89901100
_cell_angle_alpha   90.00000000
_cell_angle_beta   90.00000000
_cell_angle_gamma   119.99999258
_symmetry_Int_Tables_number   1
_chemical_formula_structural   Ho3Lu3P13Rh20
_chemical_formula_sum   'Ho3 Lu3 P13 Rh20'
_cell_volume   599.24603972
_cell_formula_units_Z   1
loop_
 _symmetry_equiv_pos_site_id
 _symmetry_equiv_pos_as_xyz
  1  'x, y, z'
loop_
 _atom_site_type_symbol
 _atom_site_label
 _atom_site_symmetry_multiplicity
 _atom_site_fract_x
 _atom_site_fract_y
 _atom_site_fract_z
 _atom_site_occupancy
  Ho  Ho0  1  0.530236  0.717058  0.247798  1
  Ho  Ho1  1  0.282942  0.813178  0.247798  1
  Ho  Ho2  1  0.186822  0.469764  0.247798  1
  Lu  Lu3  1  0.471520  0.283965  0.751700  1
  Lu  Lu4  1  0.716035  0.187555  0.751700  1
  Lu  Lu5  1  0.812445  0.528480  0.751700  1
  P  P6  1  0.527589  0.141083  0.250524  1
  P  P7  1  0.858917  0.386507  0.250524  1
  P  P8  1  0.613493  0.472411  0.250524  1
  P  P9  1  0.945728  0.713952  0.254115  1
  P  P10  1  0.286048  0.231775  0.254115  1
  P  P11  1  0.768225  0.054272  0.254115  1
  P  P12  1  0.387430  0.526923  0.749312  1
  P  P13  1  0.473077  0.860507  0.749312  1
  P  P14  1  0.139493  0.612570  0.749312  1
  P  P15  1  0.715293  0.769259  0.744725  1
  P  P16  1  0.230741  0.946036  0.744725  1
  P  P17  1  0.053964  0.284707  0.744725  1
  P  P18  1  0.000000  0.000000  0.004224  1
  Rh  Rh19  1  0.333333  0.666667  0.752429  1
  Rh  Rh20  1  0.916868  0.248443  0.254419  1
  Rh  Rh21  1  0.751557  0.668425  0.254419  1
  Rh  Rh22  1  0.331575  0.083132  0.254419  1
  Rh  Rh23  1  0.439207  0.023900  0.751411  1
  Rh  Rh24  1  0.976100  0.415308  0.751411  1
  Rh  Rh25  1  0.584692  0.560793  0.751411  1
  Rh  Rh26  1  0.666667  0.333333  0.248347  1
  Rh  Rh27  1  0.093974  0.188560  0.247136  1
  Rh  Rh28  1  0.811440  0.905414  0.247136  1
  Rh  Rh29  1  0.094586  0.906026  0.247136  1
  Rh  Rh30  1  0.021391  0.583025  0.248334  1
  Rh  Rh31  1  0.416975  0.438366  0.248334  1
  Rh  Rh32  1  0.561634  0.978609  0.248334  1
  Rh  Rh33  1  0.670041  0.920739  0.745628  1
  Rh  Rh34  1  0.079261  0.749302  0.745628  1
  Rh  Rh35  1  0.250698  0.329959  0.745628  1
  Rh  Rh36  1  0.907072  0.812889  0.753229  1
  Rh  Rh37  1  0.187111  0.094183  0.753229  1
  Rh  Rh38  1  0.905817  0.092928  0.753229  1
