# generated using pymatgen
data_DyLu3Ga17SiIr6
_symmetry_space_group_name_H-M   'P 1'
_cell_length_a   7.56580337
_cell_length_b   7.54421417
_cell_length_c   9.44338405
_cell_angle_alpha   90.06888810
_cell_angle_beta   89.79400163
_cell_angle_gamma   119.94109267
_symmetry_Int_Tables_number   1
_chemical_formula_structural   DyLu3Ga17SiIr6
_chemical_formula_sum   'Dy1 Lu3 Ga17 Si1 Ir6'
_cell_volume   467.06994390
_cell_formula_units_Z   1
loop_
 _symmetry_equiv_pos_site_id
 _symmetry_equiv_pos_as_xyz
  1  'x, y, z'
loop_
 _atom_site_type_symbol
 _atom_site_label
 _atom_site_symmetry_multiplicity
 _atom_site_fract_x
 _atom_site_fract_y
 _atom_site_fract_z
 _atom_site_occupancy
  Dy  Dy0  1  0.330685  0.002549  0.749893  1
  Lu  Lu1  1  0.997160  0.664642  0.248219  1
  Lu  Lu2  1  0.002600  0.331122  0.751517  1
  Lu  Lu3  1  0.674053  0.002510  0.248230  1
  Ga  Ga4  1  0.128762  0.128010  0.250790  1
  Ga  Ga5  1  0.873107  0.874679  0.750706  1
  Ga  Ga6  1  0.999265  0.669863  0.917379  1
  Ga  Ga7  1  0.000594  0.665114  0.580550  1
  Ga  Ga8  1  0.333810  0.997321  0.418123  1
  Ga  Ga9  1  0.998655  0.334478  0.419676  1
  Ga  Ga10  1  0.666207  0.001132  0.580616  1
  Ga  Ga11  1  0.659944  0.995826  0.917497  1
  Ga  Ga12  1  0.333538  0.997057  0.082730  1
  Ga  Ga13  1  0.331565  0.331685  0.565565  1
  Ga  Ga14  1  0.669223  0.669661  0.433465  1
  Ga  Ga15  1  0.668752  0.669892  0.068584  1
  Ga  Ga16  1  0.337068  0.332474  0.932953  1
  Ga  Ga17  1  0.341170  0.547077  0.251418  1
  Ga  Ga18  1  0.661737  0.452403  0.751040  1
  Ga  Ga19  1  0.548061  0.339680  0.250495  1
  Ga  Ga20  1  0.451299  0.658938  0.750379  1
  Si  Si21  1  0.998840  0.334272  0.073859  1
  Ir  Ir22  1  0.684327  0.329378  0.003703  1
  Ir  Ir23  1  0.313195  0.656875  0.001784  1
  Ir  Ir24  1  0.327710  0.671197  0.500093  1
  Ir  Ir25  1  0.671867  0.328345  0.499689  1
  Ir  Ir26  1  0.997690  0.013797  0.001666  1
  Ir  Ir27  1  0.999114  0.000018  0.499382  1
