# generated using pymatgen
data_Dy4Al24Pd8Rh
_symmetry_space_group_name_H-M   'P 1'
_cell_length_a   7.53084367
_cell_length_b   7.56198057
_cell_length_c   13.19636400
_cell_angle_alpha   84.61138715
_cell_angle_beta   79.15289213
_cell_angle_gamma   59.93164242
_symmetry_Int_Tables_number   1
_chemical_formula_structural   Dy4Al24Pd8Rh
_chemical_formula_sum   'Dy4 Al24 Pd8 Rh1'
_cell_volume   638.75563272
_cell_formula_units_Z   1
loop_
 _symmetry_equiv_pos_site_id
 _symmetry_equiv_pos_as_xyz
  1  'x, y, z'
loop_
 _atom_site_type_symbol
 _atom_site_label
 _atom_site_symmetry_multiplicity
 _atom_site_fract_x
 _atom_site_fract_y
 _atom_site_fract_z
 _atom_site_occupancy
  Dy  Dy0  1  0.393601  0.168194  0.809378  1
  Dy  Dy1  1  0.606399  0.831806  0.190622  1
  Dy  Dy2  1  0.733166  0.497965  0.809317  1
  Dy  Dy3  1  0.266834  0.502035  0.190683  1
  Al  Al4  1  0.687504  0.830461  0.945643  1
  Al  Al5  1  0.312496  0.169539  0.054357  1
  Al  Al6  1  0.146196  0.832601  0.561484  1
  Al  Al7  1  0.853804  0.167399  0.438516  1
  Al  Al8  1  0.479269  0.166735  0.559423  1
  Al  Al9  1  0.520731  0.833265  0.440577  1
  Al  Al10  1  0.217045  0.165232  0.328625  1
  Al  Al11  1  0.782955  0.834768  0.671375  1
  Al  Al12  1  0.435766  0.507458  0.671350  1
  Al  Al13  1  0.564234  0.492542  0.328650  1
  Al  Al14  1  0.108851  0.159706  0.669748  1
  Al  Al15  1  0.891149  0.840294  0.330252  1
  Al  Al16  1  0.349081  0.499747  0.945807  1
  Al  Al17  1  0.650919  0.500253  0.054193  1
  Al  Al18  1  0.015114  0.171341  0.955283  1
  Al  Al19  1  0.984886  0.828659  0.044717  1
  Al  Al20  1  0.186875  0.499436  0.440848  1
  Al  Al21  1  0.813125  0.500564  0.559152  1
  Al  Al22  1  0.734009  0.163486  0.183342  1
  Al  Al23  1  0.265991  0.836514  0.816658  1
  Al  Al24  1  0.060959  0.629064  0.817554  1
  Al  Al25  1  0.939041  0.370936  0.182446  1
  Al  Al26  1  0.855491  0.042082  0.816547  1
  Al  Al27  1  0.144509  0.957918  0.183453  1
  Pd  Pd28  1  0.119732  0.492737  0.638638  1
  Pd  Pd29  1  0.880268  0.507263  0.361362  1
  Pd  Pd30  1  0.656827  0.171579  0.999835  1
  Pd  Pd31  1  0.343173  0.828421  0.000165  1
  Pd  Pd32  1  0.537953  0.166859  0.362084  1
  Pd  Pd33  1  0.462047  0.833141  0.637916  1
  Pd  Pd34  1  0.778296  0.174726  0.637332  1
  Pd  Pd35  1  0.221704  0.825274  0.362668  1
  Rh  Rh36  1  0.000000  0.500000  0.000000  1
