# generated using pymatgen
data_TbY6Th(CdNi)2
_symmetry_space_group_name_H-M   'P 1'
_cell_length_a   9.62409629
_cell_length_b   9.62409791
_cell_length_c   9.62658600
_cell_angle_alpha   59.99144762
_cell_angle_beta   59.99144204
_cell_angle_gamma   59.93482640
_symmetry_Int_Tables_number   1
_chemical_formula_structural   TbY6Th(CdNi)2
_chemical_formula_sum   'Tb2 Y12 Th2 Cd4 Ni4'
_cell_volume   630.09611944
_cell_formula_units_Z   2
loop_
 _symmetry_equiv_pos_site_id
 _symmetry_equiv_pos_as_xyz
  1  'x, y, z'
loop_
 _atom_site_type_symbol
 _atom_site_label
 _atom_site_symmetry_multiplicity
 _atom_site_fract_x
 _atom_site_fract_y
 _atom_site_fract_z
 _atom_site_occupancy
  Tb  Tb0  1  0.598848  0.200515  0.600318  1
  Tb  Tb1  1  0.200515  0.598848  0.600318  1
  Y  Y2  1  0.061791  0.439809  0.438073  1
  Y  Y3  1  0.439809  0.061791  0.060328  1
  Y  Y4  1  0.439809  0.061791  0.438073  1
  Y  Y5  1  0.061791  0.439809  0.060328  1
  Y  Y6  1  0.439314  0.439314  0.060686  1
  Y  Y7  1  0.061867  0.061867  0.438133  1
  Y  Y8  1  0.187260  0.813977  0.815371  1
  Y  Y9  1  0.813977  0.187260  0.183391  1
  Y  Y10  1  0.813977  0.187260  0.815371  1
  Y  Y11  1  0.187260  0.813977  0.183391  1
  Y  Y12  1  0.813961  0.813961  0.186039  1
  Y  Y13  1  0.186002  0.186002  0.813998  1
  Th  Th14  1  0.593692  0.593692  0.600782  1
  Th  Th15  1  0.593692  0.593692  0.211835  1
  Cd  Cd16  1  0.832234  0.832234  0.830562  1
  Cd  Cd17  1  0.832234  0.832234  0.504968  1
  Cd  Cd18  1  0.832608  0.505015  0.831188  1
  Cd  Cd19  1  0.505015  0.832608  0.831188  1
  Ni  Ni20  1  0.394434  0.394434  0.391650  1
  Ni  Ni21  1  0.394434  0.394434  0.819483  1
  Ni  Ni22  1  0.397889  0.817584  0.392264  1
  Ni  Ni23  1  0.817584  0.397889  0.392264  1
