# generated using pymatgen
data_Nd3Sc7Si20(IrPt3)2
_symmetry_space_group_name_H-M   'P 1'
_cell_length_a   12.50426489
_cell_length_b   12.53433328
_cell_length_c   4.21423400
_cell_angle_alpha   90.00000000
_cell_angle_beta   90.00000000
_cell_angle_gamma   90.11215355
_symmetry_Int_Tables_number   1
_chemical_formula_structural   Nd3Sc7Si20(IrPt3)2
_chemical_formula_sum   'Nd3 Sc7 Si20 Ir2 Pt6'
_cell_volume   660.50668564
_cell_formula_units_Z   1
loop_
 _symmetry_equiv_pos_site_id
 _symmetry_equiv_pos_as_xyz
  1  'x, y, z'
loop_
 _atom_site_type_symbol
 _atom_site_label
 _atom_site_symmetry_multiplicity
 _atom_site_fract_x
 _atom_site_fract_y
 _atom_site_fract_z
 _atom_site_occupancy
  Nd  Nd0  1  0.114317  0.613997  0.500000  1
  Nd  Nd1  1  0.885672  0.385946  0.500000  1
  Nd  Nd2  1  0.613323  0.886593  0.500000  1
  Sc  Sc3  1  0.386839  0.113461  0.500000  1
  Sc  Sc4  1  0.673530  0.175004  0.500000  1
  Sc  Sc5  1  0.324915  0.826597  0.500000  1
  Sc  Sc6  1  0.177411  0.324674  0.500000  1
  Sc  Sc7  1  0.823941  0.674003  0.500000  1
  Sc  Sc8  1  0.000956  0.000114  0.000000  1
  Sc  Sc9  1  0.499829  0.499069  0.000000  1
  Si  Si10  1  0.565013  0.067289  0.000000  1
  Si  Si11  1  0.432391  0.935186  0.000000  1
  Si  Si12  1  0.070200  0.433208  0.000000  1
  Si  Si13  1  0.930059  0.566357  0.000000  1
  Si  Si14  1  0.205669  0.165948  0.000000  1
  Si  Si15  1  0.796543  0.833744  0.000000  1
  Si  Si16  1  0.167729  0.798466  0.000000  1
  Si  Si17  1  0.699873  0.336404  0.000000  1
  Si  Si18  1  0.832907  0.203287  0.000000  1
  Si  Si19  1  0.298232  0.662828  0.000000  1
  Si  Si20  1  0.664702  0.699453  0.000000  1
  Si  Si21  1  0.335358  0.298915  0.000000  1
  Si  Si22  1  0.009486  0.147744  0.500000  1
  Si  Si23  1  0.991834  0.852920  0.500000  1
  Si  Si24  1  0.150208  0.993939  0.500000  1
  Si  Si25  1  0.506163  0.349106  0.500000  1
  Si  Si26  1  0.852595  0.009542  0.500000  1
  Si  Si27  1  0.490482  0.648056  0.500000  1
  Si  Si28  1  0.649801  0.508160  0.500000  1
  Si  Si29  1  0.349605  0.490804  0.500000  1
  Ir  Ir30  1  0.738994  0.522970  0.000000  1
  Ir  Ir31  1  0.260768  0.475609  0.000000  1
  Pt  Pt32  1  0.024104  0.239448  0.000000  1
  Pt  Pt33  1  0.977350  0.760671  0.000000  1
  Pt  Pt34  1  0.243414  0.979779  0.000000  1
  Pt  Pt35  1  0.520592  0.255445  0.000000  1
  Pt  Pt36  1  0.759478  0.023658  0.000000  1
  Pt  Pt37  1  0.475717  0.741609  0.000000  1
