# generated using pymatgen
data_Ho4Tm8Co2Ni3Bi
_symmetry_space_group_name_H-M   'P 1'
_cell_length_a   8.26677093
_cell_length_b   8.26677084
_cell_length_c   8.26677083
_cell_angle_alpha   109.52200526
_cell_angle_beta   111.12564608
_cell_angle_gamma   107.78324193
_symmetry_Int_Tables_number   1
_chemical_formula_structural   Ho4Tm8Co2Ni3Bi
_chemical_formula_sum   'Ho4 Tm8 Co2 Ni3 Bi1'
_cell_volume   434.52646295
_cell_formula_units_Z   1
loop_
 _symmetry_equiv_pos_site_id
 _symmetry_equiv_pos_as_xyz
  1  'x, y, z'
loop_
 _atom_site_type_symbol
 _atom_site_label
 _atom_site_symmetry_multiplicity
 _atom_site_fract_x
 _atom_site_fract_y
 _atom_site_fract_z
 _atom_site_occupancy
  Ho  Ho0  1  0.288414  0.180569  0.468983  1
  Ho  Ho1  1  0.711586  0.819431  0.531017  1
  Ho  Ho2  1  0.288414  0.819431  0.107844  1
  Ho  Ho3  1  0.711586  0.180569  0.892156  1
  Tm  Tm4  1  0.627161  0.316226  0.310933  1
  Tm  Tm5  1  0.372839  0.683774  0.689067  1
  Tm  Tm6  1  0.005293  0.316226  0.689067  1
  Tm  Tm7  1  0.994707  0.683774  0.310933  1
  Tm  Tm8  1  0.210768  0.404748  0.193982  1
  Tm  Tm9  1  0.789232  0.595252  0.806018  1
  Tm  Tm10  1  0.210768  0.016786  0.806018  1
  Tm  Tm11  1  0.789232  0.983214  0.193982  1
  Co  Co12  1  0.384811  0.884811  0.500000  1
  Co  Co13  1  0.615189  0.115189  0.500000  1
  Ni  Ni14  1  0.000000  0.365879  0.365879  1
  Ni  Ni15  1  0.000000  0.634121  0.634121  1
  Ni  Ni16  1  0.000000  0.000000  0.000000  1
  Bi  Bi17  1  0.500000  0.500000  0.000000  1
