# generated using pymatgen
data_CsRb5(InTe3)2
_symmetry_space_group_name_H-M   'P 1'
_cell_length_a   15.28310023
_cell_length_b   9.24445506
_cell_length_c   11.80627166
_cell_angle_alpha   52.68097299
_cell_angle_beta   89.44045320
_cell_angle_gamma   89.44236483
_symmetry_Int_Tables_number   1
_chemical_formula_structural   CsRb5(InTe3)2
_chemical_formula_sum   'Cs2 Rb10 In4 Te12'
_cell_volume   1326.46455353
_cell_formula_units_Z   2
loop_
 _symmetry_equiv_pos_site_id
 _symmetry_equiv_pos_as_xyz
  1  'x, y, z'
loop_
 _atom_site_type_symbol
 _atom_site_label
 _atom_site_symmetry_multiplicity
 _atom_site_fract_x
 _atom_site_fract_y
 _atom_site_fract_z
 _atom_site_occupancy
  Cs  Cs0  1  0.309992  0.164444  0.064194  1
  Cs  Cs1  1  0.690008  0.835556  0.935806  1
  Rb  Rb2  1  0.814998  0.846390  0.433933  1
  Rb  Rb3  1  0.895086  0.315104  0.403936  1
  Rb  Rb4  1  0.614101  0.359323  0.473996  1
  Rb  Rb5  1  0.109020  0.639973  0.024820  1
  Rb  Rb6  1  0.385899  0.640677  0.526004  1
  Rb  Rb7  1  0.890980  0.360027  0.975180  1
  Rb  Rb8  1  0.611886  0.301326  0.911122  1
  Rb  Rb9  1  0.104914  0.684896  0.596064  1
  Rb  Rb10  1  0.388114  0.698674  0.088878  1
  Rb  Rb11  1  0.185002  0.153610  0.566067  1
  In  In12  1  0.066801  0.941203  0.162387  1
  In  In13  1  0.567499  0.043850  0.343184  1
  In  In14  1  0.432501  0.956150  0.656816  1
  In  In15  1  0.933199  0.058797  0.837613  1
  Te  Te16  1  0.407028  0.201937  0.352627  1
  Te  Te17  1  0.900082  0.818380  0.142705  1
  Te  Te18  1  0.592972  0.798063  0.647373  1
  Te  Te19  1  0.099918  0.181620  0.857295  1
  Te  Te20  1  0.702653  0.302561  0.208180  1
  Te  Te21  1  0.193089  0.662478  0.307013  1
  Te  Te22  1  0.297347  0.697439  0.791820  1
  Te  Te23  1  0.806911  0.337522  0.692987  1
  Te  Te24  1  0.547844  0.851213  0.233034  1
  Te  Te25  1  0.054088  0.142013  0.267394  1
  Te  Te26  1  0.452156  0.148787  0.766966  1
  Te  Te27  1  0.945912  0.857987  0.732606  1
