# generated using pymatgen
data_TbGd2Dy(ZnSn)4
_symmetry_space_group_name_H-M   'P 1'
_cell_length_a   4.51846600
_cell_length_b   4.51846744
_cell_length_c   15.91911500
_cell_angle_alpha   90.00000000
_cell_angle_beta   90.00000000
_cell_angle_gamma   119.99998949
_symmetry_Int_Tables_number   1
_chemical_formula_structural   TbGd2Dy(ZnSn)4
_chemical_formula_sum   'Tb1 Gd2 Dy1 Zn4 Sn4'
_cell_volume   281.46977970
_cell_formula_units_Z   1
loop_
 _symmetry_equiv_pos_site_id
 _symmetry_equiv_pos_as_xyz
  1  'x, y, z'
loop_
 _atom_site_type_symbol
 _atom_site_label
 _atom_site_symmetry_multiplicity
 _atom_site_fract_x
 _atom_site_fract_y
 _atom_site_fract_z
 _atom_site_occupancy
  Tb  Tb0  1  0.000000  0.000000  0.250000  1
  Gd  Gd1  1  0.000000  0.000000  0.999537  1
  Gd  Gd2  1  0.000000  0.000000  0.500463  1
  Dy  Dy3  1  0.000000  0.000000  0.750000  1
  Zn  Zn4  1  0.333333  0.666667  0.161001  1
  Zn  Zn5  1  0.666667  0.333333  0.837962  1
  Zn  Zn6  1  0.666667  0.333333  0.662038  1
  Zn  Zn7  1  0.333333  0.666667  0.338999  1
  Sn  Sn8  1  0.333333  0.666667  0.614930  1
  Sn  Sn9  1  0.666667  0.333333  0.385954  1
  Sn  Sn10  1  0.666667  0.333333  0.114046  1
  Sn  Sn11  1  0.333333  0.666667  0.885070  1
