# generated using pymatgen
data_Ho7Er3BiPb5
_symmetry_space_group_name_H-M   'P 1'
_cell_length_a   9.03783266
_cell_length_b   9.03849821
_cell_length_c   6.52495601
_cell_angle_alpha   89.99519794
_cell_angle_beta   90.00501255
_cell_angle_gamma   119.97681074
_symmetry_Int_Tables_number   1
_chemical_formula_structural   Ho7Er3BiPb5
_chemical_formula_sum   'Ho7 Er3 Bi1 Pb5'
_cell_volume   461.71100259
_cell_formula_units_Z   1
loop_
 _symmetry_equiv_pos_site_id
 _symmetry_equiv_pos_as_xyz
  1  'x, y, z'
loop_
 _atom_site_type_symbol
 _atom_site_label
 _atom_site_symmetry_multiplicity
 _atom_site_fract_x
 _atom_site_fract_y
 _atom_site_fract_z
 _atom_site_occupancy
  Ho  Ho0  1  0.668287  0.332968  0.999754  1
  Ho  Ho1  1  0.763082  0.763091  0.749953  1
  Ho  Ho2  1  0.237200  0.996714  0.749948  1
  Ho  Ho3  1  0.996707  0.237185  0.749973  1
  Ho  Ho4  1  0.238353  0.238347  0.250025  1
  Ho  Ho5  1  0.761774  0.000620  0.250014  1
  Ho  Ho6  1  0.000649  0.761795  0.250035  1
  Er  Er7  1  0.332941  0.668361  0.999740  1
  Er  Er8  1  0.332941  0.668356  0.500244  1
  Er  Er9  1  0.668320  0.332935  0.500244  1
  Bi  Bi10  1  0.392907  0.393081  0.749874  1
  Pb  Pb11  1  0.605197  0.999443  0.749754  1
  Pb  Pb12  1  0.999979  0.605454  0.749724  1
  Pb  Pb13  1  0.606407  0.606645  0.250222  1
  Pb  Pb14  1  0.393888  0.000859  0.250251  1
  Pb  Pb15  1  0.001366  0.394144  0.250245  1
