# generated using pymatgen
data_TmPu(CBr)2
_symmetry_space_group_name_H-M   'P 1'
_cell_length_a   3.95732729
_cell_length_b   3.95732645
_cell_length_c   10.29319732
_cell_angle_alpha   81.57920331
_cell_angle_beta   81.57920553
_cell_angle_gamma   56.52754446
_symmetry_Int_Tables_number   1
_chemical_formula_structural   TmPu(CBr)2
_chemical_formula_sum   'Tm1 Pu1 C2 Br2'
_cell_volume   132.59022841
_cell_formula_units_Z   1
loop_
 _symmetry_equiv_pos_site_id
 _symmetry_equiv_pos_as_xyz
  1  'x, y, z'
loop_
 _atom_site_type_symbol
 _atom_site_label
 _atom_site_symmetry_multiplicity
 _atom_site_fract_x
 _atom_site_fract_y
 _atom_site_fract_z
 _atom_site_occupancy
  Tm  Tm0  1  0.592622  0.592622  0.141258  1
  Pu  Pu1  1  0.411114  0.411114  0.856381  1
  C  C2  1  0.090768  0.090768  0.969837  1
  C  C3  1  0.912230  0.912230  0.042504  1
  Br  Br4  1  0.791054  0.791054  0.665373  1
  Br  Br5  1  0.202213  0.202213  0.324646  1
