# generated using pymatgen
data_Zr12ReTc5Ir6
_symmetry_space_group_name_H-M   'P 1'
_cell_length_a   4.66154300
_cell_length_b   6.56086500
_cell_length_c   14.02575100
_cell_angle_alpha   90.00000000
_cell_angle_beta   90.00031502
_cell_angle_gamma   90.00000000
_symmetry_Int_Tables_number   1
_chemical_formula_structural   Zr12ReTc5Ir6
_chemical_formula_sum   'Zr12 Re1 Tc5 Ir6'
_cell_volume   428.96012266
_cell_formula_units_Z   1
loop_
 _symmetry_equiv_pos_site_id
 _symmetry_equiv_pos_as_xyz
  1  'x, y, z'
loop_
 _atom_site_type_symbol
 _atom_site_label
 _atom_site_symmetry_multiplicity
 _atom_site_fract_x
 _atom_site_fract_y
 _atom_site_fract_z
 _atom_site_occupancy
  Zr  Zr0  1  0.500000  0.250132  0.000000  1
  Zr  Zr1  1  0.500000  0.749869  0.000000  1
  Zr  Zr2  1  0.999980  0.249658  0.166527  1
  Zr  Zr3  1  0.999980  0.750341  0.166527  1
  Zr  Zr4  1  0.499984  0.250360  0.333382  1
  Zr  Zr5  1  0.499984  0.749641  0.333382  1
  Zr  Zr6  1  0.000000  0.249622  0.500000  1
  Zr  Zr7  1  0.000000  0.750377  0.500000  1
  Zr  Zr8  1  0.500016  0.250360  0.666617  1
  Zr  Zr9  1  0.500016  0.749641  0.666617  1
  Zr  Zr10  1  0.000020  0.249658  0.833473  1
  Zr  Zr11  1  0.000020  0.750341  0.833473  1
  Re  Re12  1  0.000000  0.000000  0.000000  1
  Tc  Tc13  1  0.499976  0.500000  0.166782  1
  Tc  Tc14  1  0.999986  0.000000  0.333406  1
  Tc  Tc15  1  0.500000  0.500000  0.500000  1
  Tc  Tc16  1  0.000014  0.000000  0.666594  1
  Tc  Tc17  1  0.500024  0.500000  0.833218  1
  Ir  Ir18  1  0.000000  0.500000  0.000000  1
  Ir  Ir19  1  0.499980  0.000000  0.167288  1
  Ir  Ir20  1  0.999986  0.500000  0.333137  1
  Ir  Ir21  1  0.500000  0.000000  0.500000  1
  Ir  Ir22  1  0.000014  0.500000  0.666863  1
  Ir  Ir23  1  0.500020  0.000000  0.832712  1
