# generated using pymatgen
data_TbPr7(Si3Ir)4
_symmetry_space_group_name_H-M   'P 1'
_cell_length_a   8.26106488
_cell_length_b   8.26106581
_cell_length_c   8.51611600
_cell_angle_alpha   90.00000000
_cell_angle_beta   90.00000000
_cell_angle_gamma   119.94724882
_symmetry_Int_Tables_number   1
_chemical_formula_structural   TbPr7(Si3Ir)4
_chemical_formula_sum   'Tb1 Pr7 Si12 Ir4'
_cell_volume   503.58747629
_cell_formula_units_Z   1
loop_
 _symmetry_equiv_pos_site_id
 _symmetry_equiv_pos_as_xyz
  1  'x, y, z'
loop_
 _atom_site_type_symbol
 _atom_site_label
 _atom_site_symmetry_multiplicity
 _atom_site_fract_x
 _atom_site_fract_y
 _atom_site_fract_z
 _atom_site_occupancy
  Tb  Tb0  1  0.499664  0.500336  0.750000  1
  Pr  Pr1  1  0.500422  0.499579  0.250000  1
  Pr  Pr2  1  0.001302  0.500632  0.750000  1
  Pr  Pr3  1  0.998932  0.499515  0.250000  1
  Pr  Pr4  1  0.499366  0.998695  0.750000  1
  Pr  Pr5  1  0.500488  0.001071  0.250000  1
  Pr  Pr6  1  0.999919  0.000081  0.750000  1
  Pr  Pr7  1  0.000042  0.999958  0.250000  1
  Si  Si8  1  0.833001  0.166998  0.000666  1
  Si  Si9  1  0.166980  0.833020  0.999762  1
  Si  Si10  1  0.333953  0.167589  0.998229  1
  Si  Si11  1  0.166980  0.833020  0.500238  1
  Si  Si12  1  0.666004  0.832358  0.996931  1
  Si  Si13  1  0.833001  0.166998  0.499334  1
  Si  Si14  1  0.832411  0.666048  0.998229  1
  Si  Si15  1  0.666004  0.832358  0.503069  1
  Si  Si16  1  0.167642  0.333996  0.996930  1
  Si  Si17  1  0.333953  0.167589  0.501771  1
  Si  Si18  1  0.167642  0.333996  0.503070  1
  Si  Si19  1  0.832411  0.666048  0.501771  1
  Ir  Ir20  1  0.665891  0.334109  0.994277  1
  Ir  Ir21  1  0.334050  0.665949  0.999036  1
  Ir  Ir22  1  0.334050  0.665949  0.500964  1
  Ir  Ir23  1  0.665891  0.334109  0.505723  1
