# generated using pymatgen
data_Er3LuSc4(CrB6)4
_symmetry_space_group_name_H-M   'P 1'
_cell_length_a   3.44301900
_cell_length_b   8.97807900
_cell_length_c   11.31653400
_cell_angle_alpha   89.99721139
_cell_angle_beta   90.00000000
_cell_angle_gamma   90.00000000
_symmetry_Int_Tables_number   1
_chemical_formula_structural   Er3LuSc4(CrB6)4
_chemical_formula_sum   'Er3 Lu1 Sc4 Cr4 B24'
_cell_volume   349.81326514
_cell_formula_units_Z   1
loop_
 _symmetry_equiv_pos_site_id
 _symmetry_equiv_pos_as_xyz
  1  'x, y, z'
loop_
 _atom_site_type_symbol
 _atom_site_label
 _atom_site_symmetry_multiplicity
 _atom_site_fract_x
 _atom_site_fract_y
 _atom_site_fract_z
 _atom_site_occupancy
  Er  Er0  1  0.000000  0.177027  0.914825  1
  Er  Er1  1  0.000000  0.322872  0.414626  1
  Er  Er2  1  0.000000  0.677172  0.585271  1
  Lu  Lu3  1  0.000000  0.822967  0.085362  1
  Sc  Sc4  1  0.000000  0.443331  0.130610  1
  Sc  Sc5  1  0.000000  0.556788  0.869533  1
  Sc  Sc6  1  0.000000  0.943211  0.368989  1
  Sc  Sc7  1  0.000000  0.056771  0.630899  1
  Cr  Cr8  1  0.000000  0.141101  0.181720  1
  Cr  Cr9  1  0.000000  0.858442  0.818587  1
  Cr  Cr10  1  0.000000  0.641753  0.317567  1
  Cr  Cr11  1  0.000000  0.358579  0.682016  1
  B  B12  1  0.500000  0.053853  0.067272  1
  B  B13  1  0.500000  0.944982  0.933362  1
  B  B14  1  0.500000  0.554710  0.432437  1
  B  B15  1  0.500000  0.445540  0.567373  1
  B  B16  1  0.500000  0.252784  0.082256  1
  B  B17  1  0.500000  0.747080  0.918627  1
  B  B18  1  0.500000  0.753107  0.417417  1
  B  B19  1  0.500000  0.247102  0.582349  1
  B  B20  1  0.500000  0.294562  0.235841  1
  B  B21  1  0.500000  0.705307  0.764352  1
  B  B22  1  0.500000  0.794894  0.263235  1
  B  B23  1  0.500000  0.205337  0.736167  1
  B  B24  1  0.500000  0.129742  0.316728  1
  B  B25  1  0.500000  0.870024  0.683207  1
  B  B26  1  0.500000  0.630536  0.182494  1
  B  B27  1  0.500000  0.370157  0.817050  1
  B  B28  1  0.500000  0.482620  0.286501  1
  B  B29  1  0.500000  0.517619  0.713329  1
  B  B30  1  0.500000  0.981863  0.212694  1
  B  B31  1  0.500000  0.017396  0.787106  1
  B  B32  1  0.500000  0.096475  0.473804  1
  B  B33  1  0.500000  0.903512  0.526101  1
  B  B34  1  0.500000  0.597242  0.026362  1
  B  B35  1  0.500000  0.403540  0.973930  1
