# generated using pymatgen
data_LaSmTh6(ZnRh)8
_symmetry_space_group_name_H-M   'P 1'
_cell_length_a   3.95120500
_cell_length_b   7.52720278
_cell_length_c   16.62563704
_cell_angle_alpha   89.12015079
_cell_angle_beta   90.00000000
_cell_angle_gamma   90.00000000
_symmetry_Int_Tables_number   1
_chemical_formula_structural   LaSmTh6(ZnRh)8
_chemical_formula_sum   'La1 Sm1 Th6 Zn8 Rh8'
_cell_volume   494.41343649
_cell_formula_units_Z   1
loop_
 _symmetry_equiv_pos_site_id
 _symmetry_equiv_pos_as_xyz
  1  'x, y, z'
loop_
 _atom_site_type_symbol
 _atom_site_label
 _atom_site_symmetry_multiplicity
 _atom_site_fract_x
 _atom_site_fract_y
 _atom_site_fract_z
 _atom_site_occupancy
  La  La0  1  0.750000  0.940923  0.285386  1
  Sm  Sm1  1  0.250000  0.060396  0.714005  1
  Th  Th2  1  0.750000  0.328630  0.440402  1
  Th  Th3  1  0.250000  0.560116  0.785128  1
  Th  Th4  1  0.250000  0.673970  0.561557  1
  Th  Th5  1  0.750000  0.822927  0.060218  1
  Th  Th6  1  0.250000  0.173923  0.937785  1
  Th  Th7  1  0.750000  0.439902  0.214159  1
  Zn  Zn8  1  0.250000  0.112971  0.152394  1
  Zn  Zn9  1  0.250000  0.998106  0.440378  1
  Zn  Zn10  1  0.750000  0.889010  0.844686  1
  Zn  Zn11  1  0.750000  0.005762  0.563005  1
  Zn  Zn12  1  0.250000  0.490420  0.057779  1
  Zn  Zn13  1  0.750000  0.383148  0.654060  1
  Zn  Zn14  1  0.750000  0.505180  0.941062  1
  Zn  Zn15  1  0.250000  0.615679  0.347851  1
  Rh  Rh16  1  0.750000  0.269170  0.819133  1
  Rh  Rh17  1  0.250000  0.256973  0.314798  1
  Rh  Rh18  1  0.250000  0.755914  0.937305  1
  Rh  Rh19  1  0.250000  0.260548  0.560189  1
  Rh  Rh20  1  0.250000  0.727628  0.180006  1
  Rh  Rh21  1  0.750000  0.742884  0.440942  1
  Rh  Rh22  1  0.750000  0.239578  0.061590  1
  Rh  Rh23  1  0.750000  0.746244  0.686182  1
