# generated using pymatgen
data_Pr7Nd(TcC2)4
_symmetry_space_group_name_H-M   'P 1'
_cell_length_a   5.38848700
_cell_length_b   6.74232512
_cell_length_c   10.28138819
_cell_angle_alpha   89.97820770
_cell_angle_beta   90.00000000
_cell_angle_gamma   90.00000000
_symmetry_Int_Tables_number   1
_chemical_formula_structural   Pr7Nd(TcC2)4
_chemical_formula_sum   'Pr7 Nd1 Tc4 C8'
_cell_volume   373.53238052
_cell_formula_units_Z   1
loop_
 _symmetry_equiv_pos_site_id
 _symmetry_equiv_pos_as_xyz
  1  'x, y, z'
loop_
 _atom_site_type_symbol
 _atom_site_label
 _atom_site_symmetry_multiplicity
 _atom_site_fract_x
 _atom_site_fract_y
 _atom_site_fract_z
 _atom_site_occupancy
  Pr  Pr0  1  0.250000  0.473749  0.787951  1
  Pr  Pr1  1  0.750000  0.025962  0.286485  1
  Pr  Pr2  1  0.250000  0.974282  0.713147  1
  Pr  Pr3  1  0.750000  0.525859  0.212037  1
  Pr  Pr4  1  0.250000  0.812928  0.051010  1
  Pr  Pr5  1  0.750000  0.687306  0.551564  1
  Pr  Pr6  1  0.250000  0.312485  0.448616  1
  Nd  Nd7  1  0.750000  0.185571  0.948046  1
  Tc  Tc8  1  0.250000  0.270646  0.142707  1
  Tc  Tc9  1  0.750000  0.229497  0.643908  1
  Tc  Tc10  1  0.250000  0.770574  0.356328  1
  Tc  Tc11  1  0.750000  0.729521  0.857191  1
  C  C12  1  0.250000  0.689210  0.533997  1
  C  C13  1  0.750000  0.813093  0.034514  1
  C  C14  1  0.250000  0.188614  0.965110  1
  C  C15  1  0.750000  0.310990  0.466166  1
  C  C16  1  0.250000  0.034659  0.256864  1
  C  C17  1  0.750000  0.464975  0.758261  1
  C  C18  1  0.250000  0.534382  0.242550  1
  C  C19  1  0.750000  0.965697  0.743546  1
