# generated using pymatgen
data_SrBi3Pt3PbO14
_symmetry_space_group_name_H-M   'P 1'
_cell_length_a   7.62781395
_cell_length_b   7.48319726
_cell_length_c   7.45368236
_cell_angle_alpha   59.86893022
_cell_angle_beta   60.29398790
_cell_angle_gamma   60.62521222
_symmetry_Int_Tables_number   1
_chemical_formula_structural   SrBi3Pt3PbO14
_chemical_formula_sum   'Sr1 Bi3 Pt3 Pb1 O14'
_cell_volume   302.60792220
_cell_formula_units_Z   1
loop_
 _symmetry_equiv_pos_site_id
 _symmetry_equiv_pos_as_xyz
  1  'x, y, z'
loop_
 _atom_site_type_symbol
 _atom_site_label
 _atom_site_symmetry_multiplicity
 _atom_site_fract_x
 _atom_site_fract_y
 _atom_site_fract_z
 _atom_site_occupancy
  Sr  Sr0  1  0.125000  0.125000  0.625000  1
  Bi  Bi1  1  0.125000  0.625000  0.125000  1
  Bi  Bi2  1  0.625000  0.125000  0.125000  1
  Bi  Bi3  1  0.125000  0.125000  0.125000  1
  Pt  Pt4  1  0.625000  0.625000  0.125000  1
  Pt  Pt5  1  0.625000  0.125000  0.625000  1
  Pt  Pt6  1  0.625000  0.625000  0.625000  1
  Pb  Pb7  1  0.125000  0.625000  0.625000  1
  O  O8  1  0.269619  0.250325  0.229731  1
  O  O9  1  0.980381  0.999675  0.020269  1
  O  O10  1  0.556166  0.953701  0.536430  1
  O  O11  1  0.303200  0.715681  0.265438  1
  O  O12  1  0.558256  0.536346  0.953518  1
  O  O13  1  0.948023  0.544512  0.528331  1
  O  O14  1  0.558256  0.951880  0.953518  1
  O  O15  1  0.948023  0.979132  0.528331  1
  O  O16  1  0.946800  0.534319  0.984562  1
  O  O17  1  0.691744  0.298120  0.296482  1
  O  O18  1  0.301977  0.705488  0.721669  1
  O  O19  1  0.693834  0.296299  0.713570  1
  O  O20  1  0.301977  0.270868  0.721669  1
  O  O21  1  0.691744  0.713654  0.296482  1
