# generated using pymatgen
data_Cs8NaLi3(ErSb2)4
_symmetry_space_group_name_H-M   'P 1'
_cell_length_a   11.56892912
_cell_length_b   11.56892788
_cell_length_c   7.39594609
_cell_angle_alpha   90.08160618
_cell_angle_beta   89.91839011
_cell_angle_gamma   100.61917152
_symmetry_Int_Tables_number   1
_chemical_formula_structural   Cs8NaLi3(ErSb2)4
_chemical_formula_sum   'Cs8 Na1 Li3 Er4 Sb8'
_cell_volume   972.91970572
_cell_formula_units_Z   1
loop_
 _symmetry_equiv_pos_site_id
 _symmetry_equiv_pos_as_xyz
  1  'x, y, z'
loop_
 _atom_site_type_symbol
 _atom_site_label
 _atom_site_symmetry_multiplicity
 _atom_site_fract_x
 _atom_site_fract_y
 _atom_site_fract_z
 _atom_site_occupancy
  Cs  Cs0  1  0.071704  0.429106  0.249448  1
  Cs  Cs1  1  0.429106  0.071704  0.750552  1
  Cs  Cs2  1  0.928920  0.569367  0.749816  1
  Cs  Cs3  1  0.569367  0.928920  0.250184  1
  Cs  Cs4  1  0.674910  0.323742  0.211456  1
  Cs  Cs5  1  0.823599  0.178025  0.712191  1
  Cs  Cs6  1  0.323742  0.674910  0.788544  1
  Cs  Cs7  1  0.178025  0.823599  0.287809  1
  Na  Na8  1  0.882705  0.882705  0.500000  1
  Li  Li9  1  0.379138  0.379138  0.000000  1
  Li  Li10  1  0.123723  0.123723  0.500000  1
  Li  Li11  1  0.620719  0.620719  0.000000  1
  Er  Er12  1  0.130856  0.130856  0.000000  1
  Er  Er13  1  0.370023  0.370023  0.500000  1
  Er  Er14  1  0.869368  0.869368  0.000000  1
  Er  Er15  1  0.629302  0.629302  0.500000  1
  Sb  Sb16  1  0.835285  0.655050  0.240645  1
  Sb  Sb17  1  0.655050  0.835285  0.759355  1
  Sb  Sb18  1  0.161764  0.338382  0.748954  1
  Sb  Sb19  1  0.338382  0.161764  0.251046  1
  Sb  Sb20  1  0.909098  0.095607  0.221972  1
  Sb  Sb21  1  0.588703  0.410902  0.733149  1
  Sb  Sb22  1  0.095607  0.909098  0.778028  1
  Sb  Sb23  1  0.410902  0.588703  0.266851  1
