# generated using pymatgen
data_Lu6Co4Si5Ge
_symmetry_space_group_name_H-M   'P 1'
_cell_length_a   5.47718311
_cell_length_b   5.47718231
_cell_length_c   13.34287600
_cell_angle_alpha   90.00000000
_cell_angle_beta   90.00000000
_cell_angle_gamma   136.58961894
_symmetry_Int_Tables_number   1
_chemical_formula_structural   Lu6Co4Si5Ge
_chemical_formula_sum   'Lu6 Co4 Si5 Ge1'
_cell_volume   275.08008856
_cell_formula_units_Z   1
loop_
 _symmetry_equiv_pos_site_id
 _symmetry_equiv_pos_as_xyz
  1  'x, y, z'
loop_
 _atom_site_type_symbol
 _atom_site_label
 _atom_site_symmetry_multiplicity
 _atom_site_fract_x
 _atom_site_fract_y
 _atom_site_fract_z
 _atom_site_occupancy
  Lu  Lu0  1  0.639431  0.360569  0.250000  1
  Lu  Lu1  1  0.361024  0.638976  0.750000  1
  Lu  Lu2  1  0.919381  0.080619  0.110078  1
  Lu  Lu3  1  0.081266  0.918734  0.887669  1
  Lu  Lu4  1  0.081266  0.918734  0.612331  1
  Lu  Lu5  1  0.919381  0.080619  0.389922  1
  Co  Co6  1  0.787282  0.212718  0.583279  1
  Co  Co7  1  0.210638  0.789362  0.419752  1
  Co  Co8  1  0.210638  0.789362  0.080248  1
  Co  Co9  1  0.787282  0.212718  0.916721  1
  Si  Si10  1  0.667050  0.332950  0.750000  1
  Si  Si11  1  0.616866  0.383134  0.039228  1
  Si  Si12  1  0.382435  0.617565  0.959996  1
  Si  Si13  1  0.382435  0.617565  0.540004  1
  Si  Si14  1  0.616866  0.383134  0.460772  1
  Ge  Ge15  1  0.336758  0.663242  0.250000  1
