# generated using pymatgen
data_Sm2Pd3AuO8
_symmetry_space_group_name_H-M   'P 1'
_cell_length_a   6.57663604
_cell_length_b   6.60574775
_cell_length_c   6.62734597
_cell_angle_alpha   127.10594832
_cell_angle_beta   125.70532487
_cell_angle_gamma   78.99982314
_symmetry_Int_Tables_number   1
_chemical_formula_structural   Sm2Pd3AuO8
_chemical_formula_sum   'Sm2 Pd3 Au1 O8'
_cell_volume   180.58281931
_cell_formula_units_Z   1
loop_
 _symmetry_equiv_pos_site_id
 _symmetry_equiv_pos_as_xyz
  1  'x, y, z'
loop_
 _atom_site_type_symbol
 _atom_site_label
 _atom_site_symmetry_multiplicity
 _atom_site_fract_x
 _atom_site_fract_y
 _atom_site_fract_z
 _atom_site_occupancy
  Sm  Sm0  1  0.743685  0.246380  0.490489  1
  Sm  Sm1  1  0.006315  0.003620  0.009511  1
  Pd  Pd2  1  0.375000  0.625000  0.250000  1
  Pd  Pd3  1  0.375000  0.625000  0.750000  1
  Pd  Pd4  1  0.375000  0.125000  0.750000  1
  Au  Au5  1  0.875000  0.625000  0.250000  1
  O  O6  1  0.606849  0.958998  0.959125  1
  O  O7  1  0.397821  0.856546  0.151427  1
  O  O8  1  0.707303  0.245612  0.848964  1
  O  O9  1  0.998168  0.642752  0.037441  1
  O  O10  1  0.143151  0.291002  0.540875  1
  O  O11  1  0.352179  0.393454  0.348573  1
  O  O12  1  0.751832  0.607248  0.462559  1
  O  O13  1  0.042697  0.004388  0.651036  1
