# generated using pymatgen
data_CaPa(FeB)8
_symmetry_space_group_name_H-M   'P 1'
_cell_length_a   6.95401700
_cell_length_b   6.95401700
_cell_length_c   3.82201300
_cell_angle_alpha   90.00000000
_cell_angle_beta   90.00000000
_cell_angle_gamma   90.00000000
_symmetry_Int_Tables_number   1
_chemical_formula_structural   CaPa(FeB)8
_chemical_formula_sum   'Ca1 Pa1 Fe8 B8'
_cell_volume   184.82625167
_cell_formula_units_Z   1
loop_
 _symmetry_equiv_pos_site_id
 _symmetry_equiv_pos_as_xyz
  1  'x, y, z'
loop_
 _atom_site_type_symbol
 _atom_site_label
 _atom_site_symmetry_multiplicity
 _atom_site_fract_x
 _atom_site_fract_y
 _atom_site_fract_z
 _atom_site_occupancy
  Ca  Ca0  1  0.500000  0.500000  0.500000  1
  Pa  Pa1  1  0.000000  0.000000  0.000000  1
  Fe  Fe2  1  0.128158  0.381590  0.895326  1
  Fe  Fe3  1  0.871842  0.618410  0.895326  1
  Fe  Fe4  1  0.886216  0.366404  0.391446  1
  Fe  Fe5  1  0.113784  0.633596  0.391446  1
  Fe  Fe6  1  0.366404  0.113784  0.608554  1
  Fe  Fe7  1  0.633596  0.886216  0.608554  1
  Fe  Fe8  1  0.618410  0.128158  0.104674  1
  Fe  Fe9  1  0.381590  0.871842  0.104674  1
  B  B10  1  0.665072  0.800480  0.108973  1
  B  B11  1  0.334928  0.199520  0.108973  1
  B  B12  1  0.298319  0.833490  0.602385  1
  B  B13  1  0.701681  0.166510  0.602385  1
  B  B14  1  0.833490  0.701681  0.397615  1
  B  B15  1  0.166510  0.298319  0.397615  1
  B  B16  1  0.199520  0.665072  0.891027  1
  B  B17  1  0.800480  0.334928  0.891027  1
