# generated using pymatgen
data_HoTm19Sn16
_symmetry_space_group_name_H-M   'P 1'
_cell_length_a   7.94295731
_cell_length_b   8.06308797
_cell_length_c   15.24984200
_cell_angle_alpha   90.00543747
_cell_angle_beta   89.93486794
_cell_angle_gamma   89.96094573
_symmetry_Int_Tables_number   1
_chemical_formula_structural   HoTm19Sn16
_chemical_formula_sum   'Ho1 Tm19 Sn16'
_cell_volume   976.67166225
_cell_formula_units_Z   1
loop_
 _symmetry_equiv_pos_site_id
 _symmetry_equiv_pos_as_xyz
  1  'x, y, z'
loop_
 _atom_site_type_symbol
 _atom_site_label
 _atom_site_symmetry_multiplicity
 _atom_site_fract_x
 _atom_site_fract_y
 _atom_site_fract_z
 _atom_site_occupancy
  Ho  Ho0  1  0.021589  0.179581  0.903057  1
  Tm  Tm1  1  0.368246  0.836445  0.877413  1
  Tm  Tm2  1  0.868425  0.663541  0.622346  1
  Tm  Tm3  1  0.631526  0.163387  0.377492  1
  Tm  Tm4  1  0.131994  0.336799  0.122722  1
  Tm  Tm5  1  0.631999  0.163377  0.122610  1
  Tm  Tm6  1  0.131578  0.336579  0.377489  1
  Tm  Tm7  1  0.368518  0.836457  0.622427  1
  Tm  Tm8  1  0.868306  0.663447  0.877448  1
  Tm  Tm9  1  0.522283  0.320772  0.902824  1
  Tm  Tm10  1  0.022528  0.179478  0.597340  1
  Tm  Tm11  1  0.477621  0.679361  0.402816  1
  Tm  Tm12  1  0.977905  0.820382  0.097210  1
  Tm  Tm13  1  0.477829  0.679504  0.097163  1
  Tm  Tm14  1  0.977616  0.820630  0.402834  1
  Tm  Tm15  1  0.522421  0.320725  0.597009  1
  Tm  Tm16  1  0.198543  0.503572  0.749799  1
  Tm  Tm17  1  0.698227  0.996381  0.749745  1
  Tm  Tm18  1  0.801569  0.496530  0.250084  1
  Tm  Tm19  1  0.301618  0.003414  0.250062  1
  Sn  Sn20  1  0.292813  0.035136  0.042057  1
  Sn  Sn21  1  0.791812  0.464398  0.458400  1
  Sn  Sn22  1  0.708237  0.964652  0.541477  1
  Sn  Sn23  1  0.208360  0.536276  0.958623  1
  Sn  Sn24  1  0.706718  0.963424  0.958718  1
  Sn  Sn25  1  0.208161  0.535510  0.541461  1
  Sn  Sn26  1  0.291835  0.035531  0.458436  1
  Sn  Sn27  1  0.792042  0.464402  0.041563  1
  Sn  Sn28  1  0.564858  0.618917  0.749947  1
  Sn  Sn29  1  0.064853  0.880675  0.749930  1
  Sn  Sn30  1  0.435301  0.381053  0.250032  1
  Sn  Sn31  1  0.935310  0.119076  0.250084  1
  Sn  Sn32  1  0.331692  0.148708  0.749846  1
  Sn  Sn33  1  0.830654  0.351802  0.749518  1
  Sn  Sn34  1  0.668538  0.851180  0.249992  1
  Sn  Sn35  1  0.168475  0.648901  0.250030  1
