# generated using pymatgen
data_Tb4Tm6OsRu3
_symmetry_space_group_name_H-M   'P 1'
_cell_length_a   6.32691760
_cell_length_b   7.26668192
_cell_length_c   8.40284207
_cell_angle_alpha   96.79391325
_cell_angle_beta   112.16875378
_cell_angle_gamma   89.97959004
_symmetry_Int_Tables_number   1
_chemical_formula_structural   Tb4Tm6OsRu3
_chemical_formula_sum   'Tb4 Tm6 Os1 Ru3'
_cell_volume   354.84356138
_cell_formula_units_Z   1
loop_
 _symmetry_equiv_pos_site_id
 _symmetry_equiv_pos_as_xyz
  1  'x, y, z'
loop_
 _atom_site_type_symbol
 _atom_site_label
 _atom_site_symmetry_multiplicity
 _atom_site_fract_x
 _atom_site_fract_y
 _atom_site_fract_z
 _atom_site_occupancy
  Tb  Tb0  1  0.789681  0.082162  0.811742  1
  Tb  Tb1  1  0.974934  0.416157  0.185119  1
  Tb  Tb2  1  0.209996  0.916292  0.187865  1
  Tb  Tb3  1  0.024682  0.583644  0.812516  1
  Tm  Tm4  1  0.206301  0.184748  0.566673  1
  Tm  Tm5  1  0.639396  0.317211  0.436050  1
  Tm  Tm6  1  0.795057  0.815917  0.433676  1
  Tm  Tm7  1  0.359806  0.683342  0.565285  1
  Tm  Tm8  1  0.420674  0.249936  0.999162  1
  Tm  Tm9  1  0.579889  0.750176  0.999926  1
  Os  Os10  1  0.599087  0.424216  0.780057  1
  Ru  Ru11  1  0.821863  0.076567  0.222111  1
  Ru  Ru12  1  0.399696  0.576315  0.221086  1
  Ru  Ru13  1  0.178939  0.923316  0.778733  1
