# generated using pymatgen
data_TaTi6Co8Si14Mo
_symmetry_space_group_name_H-M   'P 1'
_cell_length_a   9.15749519
_cell_length_b   9.15753370
_cell_length_c   9.16031791
_cell_angle_alpha   94.18107847
_cell_angle_beta   94.18301437
_cell_angle_gamma   148.66290922
_symmetry_Int_Tables_number   1
_chemical_formula_structural   TaTi6Co8Si14Mo
_chemical_formula_sum   'Ta1 Ti6 Co8 Si14 Mo1'
_cell_volume   384.67123786
_cell_formula_units_Z   1
loop_
 _symmetry_equiv_pos_site_id
 _symmetry_equiv_pos_as_xyz
  1  'x, y, z'
loop_
 _atom_site_type_symbol
 _atom_site_label
 _atom_site_symmetry_multiplicity
 _atom_site_fract_x
 _atom_site_fract_y
 _atom_site_fract_z
 _atom_site_occupancy
  Ta  Ta0  1  0.866945  0.866926  0.733873  1
  Ti  Ti1  1  0.864060  0.134888  0.998917  1
  Ti  Ti2  1  0.134848  0.864039  0.998914  1
  Ti  Ti3  1  0.500485  0.691641  0.192182  1
  Ti  Ti4  1  0.499864  0.309047  0.808962  1
  Ti  Ti5  1  0.309106  0.499898  0.808958  1
  Ti  Ti6  1  0.691708  0.500523  0.192170  1
  Co  Co7  1  0.399821  0.899841  0.799682  1
  Co  Co8  1  0.100435  0.600455  0.200838  1
  Co  Co9  1  0.100704  0.899690  0.499668  1
  Co  Co10  1  0.398958  0.599957  0.499668  1
  Co  Co11  1  0.599976  0.398979  0.499681  1
  Co  Co12  1  0.899723  0.100692  0.499675  1
  Co  Co13  1  0.899858  0.399874  0.799724  1
  Co  Co14  1  0.600389  0.100405  0.200831  1
  Si  Si15  1  0.293315  0.293235  0.586474  1
  Si  Si16  1  0.706038  0.705976  0.412096  1
  Si  Si17  1  0.705123  0.294998  0.000122  1
  Si  Si18  1  0.294972  0.705167  0.000139  1
  Si  Si19  1  0.000925  0.293164  0.293987  1
  Si  Si20  1  0.000348  0.704629  0.704941  1
  Si  Si21  1  0.704586  0.000331  0.704972  1
  Si  Si22  1  0.293089  0.000880  0.294023  1
  Si  Si23  1  0.500195  0.905493  0.405753  1
  Si  Si24  1  0.499956  0.094226  0.594215  1
  Si  Si25  1  0.094223  0.500016  0.594212  1
  Si  Si26  1  0.905530  0.500293  0.405755  1
  Si  Si27  1  0.750949  0.750910  0.002461  1
  Si  Si28  1  0.251552  0.251512  0.002462  1
  Mo  Mo29  1  0.132319  0.132316  0.264640  1
