# generated using pymatgen
data_PrTm2(P2Rh3)3
_symmetry_space_group_name_H-M   'P 1'
_cell_length_a   3.93026500
_cell_length_b   11.23021800
_cell_length_c   12.83248700
_cell_angle_alpha   90.00000000
_cell_angle_beta   90.00000000
_cell_angle_gamma   90.00000000
_symmetry_Int_Tables_number   1
_chemical_formula_structural   PrTm2(P2Rh3)3
_chemical_formula_sum   'Pr2 Tm4 P12 Rh18'
_cell_volume   566.39688170
_cell_formula_units_Z   2
loop_
 _symmetry_equiv_pos_site_id
 _symmetry_equiv_pos_as_xyz
  1  'x, y, z'
loop_
 _atom_site_type_symbol
 _atom_site_label
 _atom_site_symmetry_multiplicity
 _atom_site_fract_x
 _atom_site_fract_y
 _atom_site_fract_z
 _atom_site_occupancy
  Pr  Pr0  1  0.000000  0.500000  0.520878  1
  Pr  Pr1  1  0.500000  0.000000  0.479122  1
  Tm  Tm2  1  0.500000  0.814625  0.204061  1
  Tm  Tm3  1  0.500000  0.185375  0.204061  1
  Tm  Tm4  1  0.000000  0.685375  0.795939  1
  Tm  Tm5  1  0.000000  0.314625  0.795939  1
  P  P6  1  0.500000  0.500000  0.879003  1
  P  P7  1  0.000000  0.000000  0.120997  1
  P  P8  1  0.500000  0.500000  0.347002  1
  P  P9  1  0.000000  0.000000  0.652998  1
  P  P10  1  0.500000  0.313927  0.620640  1
  P  P11  1  0.500000  0.686073  0.620640  1
  P  P12  1  0.000000  0.186073  0.379360  1
  P  P13  1  0.000000  0.813927  0.379360  1
  P  P14  1  0.500000  0.845924  0.893759  1
  P  P15  1  0.500000  0.154076  0.893759  1
  P  P16  1  0.000000  0.654076  0.106241  1
  P  P17  1  0.000000  0.345924  0.106241  1
  Rh  Rh18  1  0.500000  0.500000  0.167282  1
  Rh  Rh19  1  0.000000  0.000000  0.832718  1
  Rh  Rh20  1  0.500000  0.500000  0.705085  1
  Rh  Rh21  1  0.000000  0.000000  0.294915  1
  Rh  Rh22  1  0.000000  0.500000  0.978020  1
  Rh  Rh23  1  0.500000  0.000000  0.021980  1
  Rh  Rh24  1  0.500000  0.333966  0.993337  1
  Rh  Rh25  1  0.500000  0.666034  0.993337  1
  Rh  Rh26  1  0.000000  0.166034  0.006663  1
  Rh  Rh27  1  0.000000  0.833966  0.006663  1
  Rh  Rh28  1  0.500000  0.291204  0.428127  1
  Rh  Rh29  1  0.500000  0.708796  0.428127  1
  Rh  Rh30  1  0.000000  0.208796  0.571873  1
  Rh  Rh31  1  0.000000  0.791204  0.571873  1
  Rh  Rh32  1  0.500000  0.872209  0.713911  1
  Rh  Rh33  1  0.500000  0.127791  0.713911  1
  Rh  Rh34  1  0.000000  0.627791  0.286089  1
  Rh  Rh35  1  0.000000  0.372209  0.286089  1
