# generated using pymatgen
data_Sc2Al10Tc2Os
_symmetry_space_group_name_H-M   'P 1'
_cell_length_a   9.06818800
_cell_length_b   9.06818800
_cell_length_c   6.00977700
_cell_angle_alpha   90.00000000
_cell_angle_beta   90.00000000
_cell_angle_gamma   90.00000000
_symmetry_Int_Tables_number   1
_chemical_formula_structural   Sc2Al10Tc2Os
_chemical_formula_sum   'Sc4 Al20 Tc4 Os2'
_cell_volume   494.19618421
_cell_formula_units_Z   2
loop_
 _symmetry_equiv_pos_site_id
 _symmetry_equiv_pos_as_xyz
  1  'x, y, z'
loop_
 _atom_site_type_symbol
 _atom_site_label
 _atom_site_symmetry_multiplicity
 _atom_site_fract_x
 _atom_site_fract_y
 _atom_site_fract_z
 _atom_site_occupancy
  Sc  Sc0  1  0.682145  0.182145  0.000000  1
  Sc  Sc1  1  0.317855  0.817855  0.000000  1
  Sc  Sc2  1  0.817855  0.682145  0.000000  1
  Sc  Sc3  1  0.182145  0.317855  0.000000  1
  Al  Al4  1  0.939800  0.205132  0.280800  1
  Al  Al5  1  0.705132  0.439800  0.280800  1
  Al  Al6  1  0.500000  0.000000  0.278731  1
  Al  Al7  1  0.560200  0.705132  0.719200  1
  Al  Al8  1  0.294868  0.560200  0.719200  1
  Al  Al9  1  0.794868  0.939800  0.280800  1
  Al  Al10  1  0.939800  0.205132  0.719200  1
  Al  Al11  1  0.294868  0.560200  0.280800  1
  Al  Al12  1  0.060200  0.794868  0.280800  1
  Al  Al13  1  0.705132  0.439800  0.719200  1
  Al  Al14  1  0.439800  0.294868  0.719200  1
  Al  Al15  1  0.060200  0.794868  0.719200  1
  Al  Al16  1  0.205132  0.060200  0.719200  1
  Al  Al17  1  0.794868  0.939800  0.719200  1
  Al  Al18  1  0.205132  0.060200  0.280800  1
  Al  Al19  1  0.000000  0.500000  0.721269  1
  Al  Al20  1  0.000000  0.500000  0.278731  1
  Al  Al21  1  0.560200  0.705132  0.280800  1
  Al  Al22  1  0.439800  0.294868  0.280800  1
  Al  Al23  1  0.500000  0.000000  0.721269  1
  Tc  Tc24  1  0.678508  0.178508  0.500000  1
  Tc  Tc25  1  0.821492  0.678508  0.500000  1
  Tc  Tc26  1  0.178508  0.321492  0.500000  1
  Tc  Tc27  1  0.321492  0.821492  0.500000  1
  Os  Os28  1  0.000000  0.000000  0.000000  1
  Os  Os29  1  0.500000  0.500000  0.000000  1
