# generated using pymatgen
data_Er4MnI4
_symmetry_space_group_name_H-M   'P 1'
_cell_length_a   11.00793983
_cell_length_b   11.00793991
_cell_length_c   5.93632715
_cell_angle_alpha   90.40347793
_cell_angle_beta   90.40347316
_cell_angle_gamma   90.01207228
_symmetry_Int_Tables_number   1
_chemical_formula_structural   Er4MnI4
_chemical_formula_sum   'Er8 Mn2 I8'
_cell_volume   719.29720512
_cell_formula_units_Z   2
loop_
 _symmetry_equiv_pos_site_id
 _symmetry_equiv_pos_as_xyz
  1  'x, y, z'
loop_
 _atom_site_type_symbol
 _atom_site_label
 _atom_site_symmetry_multiplicity
 _atom_site_fract_x
 _atom_site_fract_y
 _atom_site_fract_z
 _atom_site_occupancy
  Er  Er0  1  0.198845  0.918567  0.002256  1
  Er  Er1  1  0.801155  0.081433  0.997744  1
  Er  Er2  1  0.081433  0.801155  0.497744  1
  Er  Er3  1  0.918567  0.198845  0.502256  1
  Er  Er4  1  0.801232  0.918612  0.496254  1
  Er  Er5  1  0.198768  0.081388  0.503746  1
  Er  Er6  1  0.081388  0.198768  0.003746  1
  Er  Er7  1  0.918612  0.801232  0.996254  1
  Mn  Mn8  1  0.999887  0.000113  0.250000  1
  Mn  Mn9  1  0.000113  0.999887  0.750000  1
  I  I10  1  0.362283  0.847133  0.495249  1
  I  I11  1  0.637717  0.152867  0.504751  1
  I  I12  1  0.152867  0.637717  0.004751  1
  I  I13  1  0.847133  0.362283  0.995249  1
  I  I14  1  0.362152  0.153130  0.013228  1
  I  I15  1  0.637848  0.846870  0.986772  1
  I  I16  1  0.846870  0.637848  0.486772  1
  I  I17  1  0.153130  0.362152  0.513228  1
