# generated using pymatgen
data_Na6HfPa2Cl18
_symmetry_space_group_name_H-M   'P 1'
_cell_length_a   11.95545800
_cell_length_b   11.95545720
_cell_length_c   6.31966500
_cell_angle_alpha   90.00000000
_cell_angle_beta   90.00000000
_cell_angle_gamma   119.99999667
_symmetry_Int_Tables_number   1
_chemical_formula_structural   Na6HfPa2Cl18
_chemical_formula_sum   'Na6 Hf1 Pa2 Cl18'
_cell_volume   782.27078438
_cell_formula_units_Z   1
loop_
 _symmetry_equiv_pos_site_id
 _symmetry_equiv_pos_as_xyz
  1  'x, y, z'
loop_
 _atom_site_type_symbol
 _atom_site_label
 _atom_site_symmetry_multiplicity
 _atom_site_fract_x
 _atom_site_fract_y
 _atom_site_fract_z
 _atom_site_occupancy
  Na  Na0  1  0.663515  0.000000  0.000000  1
  Na  Na1  1  0.336485  0.000000  0.000000  1
  Na  Na2  1  0.000000  0.663515  0.000000  1
  Na  Na3  1  0.663515  0.663515  0.000000  1
  Na  Na4  1  0.336485  0.336485  0.000000  1
  Na  Na5  1  0.000000  0.336485  0.000000  1
  Hf  Hf6  1  0.000000  0.000000  0.000000  1
  Pa  Pa7  1  0.666667  0.333333  0.502958  1
  Pa  Pa8  1  0.333333  0.666667  0.497042  1
  Cl  Cl9  1  0.561647  0.123295  0.749597  1
  Cl  Cl10  1  0.772646  0.227354  0.264883  1
  Cl  Cl11  1  0.803026  0.901513  0.221426  1
  Cl  Cl12  1  0.438353  0.561647  0.250403  1
  Cl  Cl13  1  0.772646  0.545290  0.264883  1
  Cl  Cl14  1  0.098487  0.196974  0.221426  1
  Cl  Cl15  1  0.227354  0.772646  0.735117  1
  Cl  Cl16  1  0.561647  0.438353  0.749597  1
  Cl  Cl17  1  0.227354  0.454710  0.735117  1
  Cl  Cl18  1  0.123295  0.561647  0.250403  1
  Cl  Cl19  1  0.196974  0.098487  0.778574  1
  Cl  Cl20  1  0.098487  0.901513  0.221426  1
  Cl  Cl21  1  0.545290  0.772646  0.735117  1
  Cl  Cl22  1  0.438353  0.876705  0.250403  1
  Cl  Cl23  1  0.901513  0.098487  0.778574  1
  Cl  Cl24  1  0.876705  0.438353  0.749597  1
  Cl  Cl25  1  0.454710  0.227354  0.264883  1
  Cl  Cl26  1  0.901513  0.803026  0.778574  1
