# generated using pymatgen
data_Pa4CdInCo4
_symmetry_space_group_name_H-M   'P 1'
_cell_length_a   7.31063500
_cell_length_b   7.31063500
_cell_length_c   3.43019900
_cell_angle_alpha   90.00000000
_cell_angle_beta   90.00000000
_cell_angle_gamma   90.00000000
_symmetry_Int_Tables_number   1
_chemical_formula_structural   Pa4CdInCo4
_chemical_formula_sum   'Pa4 Cd1 In1 Co4'
_cell_volume   183.32830311
_cell_formula_units_Z   1
loop_
 _symmetry_equiv_pos_site_id
 _symmetry_equiv_pos_as_xyz
  1  'x, y, z'
loop_
 _atom_site_type_symbol
 _atom_site_label
 _atom_site_symmetry_multiplicity
 _atom_site_fract_x
 _atom_site_fract_y
 _atom_site_fract_z
 _atom_site_occupancy
  Pa  Pa0  1  0.665856  0.165207  0.500000  1
  Pa  Pa1  1  0.165207  0.334144  0.500000  1
  Pa  Pa2  1  0.834793  0.665856  0.500000  1
  Pa  Pa3  1  0.334144  0.834793  0.500000  1
  Cd  Cd4  1  0.000000  0.000000  0.000000  1
  In  In5  1  0.500000  0.500000  0.000000  1
  Co  Co6  1  0.864999  0.368080  0.000000  1
  Co  Co7  1  0.631920  0.864999  0.000000  1
  Co  Co8  1  0.135001  0.631920  0.000000  1
  Co  Co9  1  0.368080  0.135001  0.000000  1
