# generated using pymatgen
data_Cs12V3TcSe16
_symmetry_space_group_name_H-M   'P 1'
_cell_length_a   10.02981237
_cell_length_b   10.12875409
_cell_length_c   11.79584200
_cell_angle_alpha   90.00000000
_cell_angle_beta   90.00000000
_cell_angle_gamma   90.17059541
_symmetry_Int_Tables_number   1
_chemical_formula_structural   Cs12V3TcSe16
_chemical_formula_sum   'Cs12 V3 Tc1 Se16'
_cell_volume   1198.32841492
_cell_formula_units_Z   1
loop_
 _symmetry_equiv_pos_site_id
 _symmetry_equiv_pos_as_xyz
  1  'x, y, z'
loop_
 _atom_site_type_symbol
 _atom_site_label
 _atom_site_symmetry_multiplicity
 _atom_site_fract_x
 _atom_site_fract_y
 _atom_site_fract_z
 _atom_site_occupancy
  Cs  Cs0  1  0.546345  0.702768  0.039466  1
  Cs  Cs1  1  0.045394  0.794299  0.458018  1
  Cs  Cs2  1  0.456161  0.297771  0.539077  1
  Cs  Cs3  1  0.953261  0.203348  0.960602  1
  Cs  Cs4  1  0.456161  0.297771  0.960923  1
  Cs  Cs5  1  0.953261  0.203348  0.539398  1
  Cs  Cs6  1  0.546345  0.702768  0.460534  1
  Cs  Cs7  1  0.045394  0.794299  0.041982  1
  Cs  Cs8  1  0.348843  0.091798  0.250000  1
  Cs  Cs9  1  0.850833  0.408845  0.250000  1
  Cs  Cs10  1  0.648378  0.911531  0.750000  1
  Cs  Cs11  1  0.149325  0.590506  0.750000  1
  V  V12  1  0.276766  0.518821  0.250000  1
  V  V13  1  0.774595  0.980306  0.250000  1
  V  V14  1  0.724229  0.481836  0.750000  1
  Tc  Tc15  1  0.225050  0.018310  0.750000  1
  Se  Se16  1  0.293320  0.744087  0.250000  1
  Se  Se17  1  0.789883  0.754960  0.250000  1
  Se  Se18  1  0.708538  0.256609  0.750000  1
  Se  Se19  1  0.207240  0.249076  0.750000  1
  Se  Se20  1  0.487980  0.430895  0.250000  1
  Se  Se21  1  0.986126  0.069207  0.250000  1
  Se  Se22  1  0.512994  0.570026  0.750000  1
  Se  Se23  1  0.009042  0.926465  0.750000  1
  Se  Se24  1  0.166736  0.454409  0.089308  1
  Se  Se25  1  0.664951  0.044426  0.410765  1
  Se  Se26  1  0.834367  0.545319  0.589057  1
  Se  Se27  1  0.336214  0.956020  0.916459  1
  Se  Se28  1  0.834367  0.545319  0.910943  1
  Se  Se29  1  0.336214  0.956020  0.583541  1
  Se  Se30  1  0.166736  0.454409  0.410692  1
  Se  Se31  1  0.664951  0.044426  0.089235  1
