# generated using pymatgen
data_Dy5Y4Ho11Bi12
_symmetry_space_group_name_H-M   'P 1'
_cell_length_a   8.25156003
_cell_length_b   9.50639300
_cell_length_c   12.05747804
_cell_angle_alpha   89.99943162
_cell_angle_beta   90.00910733
_cell_angle_gamma   89.99984529
_symmetry_Int_Tables_number   1
_chemical_formula_structural   Dy5Y4Ho11Bi12
_chemical_formula_sum   'Dy5 Y4 Ho11 Bi12'
_cell_volume   945.81958284
_cell_formula_units_Z   1
loop_
 _symmetry_equiv_pos_site_id
 _symmetry_equiv_pos_as_xyz
  1  'x, y, z'
loop_
 _atom_site_type_symbol
 _atom_site_label
 _atom_site_symmetry_multiplicity
 _atom_site_fract_x
 _atom_site_fract_y
 _atom_site_fract_z
 _atom_site_occupancy
  Dy  Dy0  1  0.186328  0.750002  0.718979  1
  Dy  Dy1  1  0.686364  0.750004  0.781026  1
  Dy  Dy2  1  0.813634  0.249967  0.280993  1
  Dy  Dy3  1  0.313642  0.250000  0.218970  1
  Dy  Dy4  1  0.806267  0.436842  0.559701  1
  Y  Y5  1  0.353928  0.749990  0.215254  1
  Y  Y6  1  0.853908  0.749976  0.284751  1
  Y  Y7  1  0.646006  0.249947  0.784790  1
  Y  Y8  1  0.146122  0.249960  0.715285  1
  Ho  Ho9  1  0.026059  0.749986  0.988652  1
  Ho  Ho10  1  0.526034  0.750014  0.511360  1
  Ho  Ho11  1  0.973925  0.249999  0.011366  1
  Ho  Ho12  1  0.473840  0.249964  0.488617  1
  Ho  Ho13  1  0.306248  0.436744  0.940300  1
  Ho  Ho14  1  0.806284  0.063182  0.559696  1
  Ho  Ho15  1  0.693757  0.936739  0.059703  1
  Ho  Ho16  1  0.193727  0.563263  0.440301  1
  Ho  Ho17  1  0.693745  0.563273  0.059716  1
  Ho  Ho18  1  0.193767  0.936758  0.440290  1
  Ho  Ho19  1  0.306241  0.063265  0.940294  1
  Bi  Bi20  1  0.433496  0.003632  0.673698  1
  Bi  Bi21  1  0.933534  0.496351  0.826356  1
  Bi  Bi22  1  0.566493  0.503633  0.326269  1
  Bi  Bi23  1  0.066506  0.996353  0.173679  1
  Bi  Bi24  1  0.566490  0.996348  0.326305  1
  Bi  Bi25  1  0.066522  0.503638  0.173672  1
  Bi  Bi26  1  0.433438  0.496357  0.673719  1
  Bi  Bi27  1  0.933512  0.003631  0.826327  1
  Bi  Bi28  1  0.409337  0.750001  0.957903  1
  Bi  Bi29  1  0.909428  0.750288  0.542068  1
  Bi  Bi30  1  0.590651  0.250001  0.042101  1
  Bi  Bi31  1  0.090766  0.249895  0.457856  1
