# generated using pymatgen
data_Ti12Tc6SnRu5
_symmetry_space_group_name_H-M   'P 1'
_cell_length_a   4.39243600
_cell_length_b   6.27708600
_cell_length_c   13.20376700
_cell_angle_alpha   90.00000000
_cell_angle_beta   89.99874470
_cell_angle_gamma   90.00000000
_symmetry_Int_Tables_number   1
_chemical_formula_structural   Ti12Tc6SnRu5
_chemical_formula_sum   'Ti12 Tc6 Sn1 Ru5'
_cell_volume   364.05028303
_cell_formula_units_Z   1
loop_
 _symmetry_equiv_pos_site_id
 _symmetry_equiv_pos_as_xyz
  1  'x, y, z'
loop_
 _atom_site_type_symbol
 _atom_site_label
 _atom_site_symmetry_multiplicity
 _atom_site_fract_x
 _atom_site_fract_y
 _atom_site_fract_z
 _atom_site_occupancy
  Ti  Ti0  1  0.500008  0.229595  0.999998  1
  Ti  Ti1  1  0.500008  0.770404  0.999998  1
  Ti  Ti2  1  0.000041  0.241821  0.175746  1
  Ti  Ti3  1  0.000041  0.758178  0.175746  1
  Ti  Ti4  1  0.500040  0.250727  0.335994  1
  Ti  Ti5  1  0.500040  0.749273  0.335994  1
  Ti  Ti6  1  0.999989  0.250130  0.500002  1
  Ti  Ti7  1  0.999989  0.749871  0.500002  1
  Ti  Ti8  1  0.499945  0.250724  0.664007  1
  Ti  Ti9  1  0.499945  0.749276  0.664007  1
  Ti  Ti10  1  0.999937  0.241815  0.824253  1
  Ti  Ti11  1  0.999937  0.758184  0.824253  1
  Tc  Tc12  1  0.000002  0.000000  0.999997  1
  Tc  Tc13  1  0.500032  0.500000  0.163979  1
  Tc  Tc14  1  0.000029  0.000000  0.335017  1
  Tc  Tc15  1  0.499996  0.500000  0.500004  1
  Tc  Tc16  1  0.999953  0.000000  0.664985  1
  Tc  Tc17  1  0.499948  0.500000  0.836019  1
  Sn  Sn18  1  0.999992  0.500000  0.000001  1
  Ru  Ru19  1  0.500037  0.000000  0.168721  1
  Ru  Ru20  1  0.000033  0.500000  0.333176  1
  Ru  Ru21  1  0.499972  0.000000  0.500002  1
  Ru  Ru22  1  0.999945  0.500000  0.666824  1
  Ru  Ru23  1  0.499940  0.000000  0.831275  1
