# generated using pymatgen
data_LaPr15Mg3CdIr4
_symmetry_space_group_name_H-M   'P 1'
_cell_length_a   10.10768319
_cell_length_b   10.10911318
_cell_length_c   10.10911286
_cell_angle_alpha   59.95752314
_cell_angle_beta   59.84393050
_cell_angle_gamma   59.84392451
_symmetry_Int_Tables_number   1
_chemical_formula_structural   LaPr15Mg3CdIr4
_chemical_formula_sum   'La1 Pr15 Mg3 Cd1 Ir4'
_cell_volume   728.44241238
_cell_formula_units_Z   1
loop_
 _symmetry_equiv_pos_site_id
 _symmetry_equiv_pos_as_xyz
  1  'x, y, z'
loop_
 _atom_site_type_symbol
 _atom_site_label
 _atom_site_symmetry_multiplicity
 _atom_site_fract_x
 _atom_site_fract_y
 _atom_site_fract_z
 _atom_site_occupancy
  La  La0  1  0.345031  0.345322  0.345322  1
  Pr  Pr1  1  0.347418  0.348090  0.956944  1
  Pr  Pr2  1  0.347418  0.956944  0.348090  1
  Pr  Pr3  1  0.958079  0.347521  0.347521  1
  Pr  Pr4  1  0.812221  0.188283  0.188283  1
  Pr  Pr5  1  0.189822  0.809121  0.809121  1
  Pr  Pr6  1  0.189757  0.810613  0.189554  1
  Pr  Pr7  1  0.810978  0.187596  0.810577  1
  Pr  Pr8  1  0.189757  0.189554  0.810613  1
  Pr  Pr9  1  0.810978  0.810577  0.187596  1
  Pr  Pr10  1  0.940846  0.561441  0.561441  1
  Pr  Pr11  1  0.559217  0.939491  0.939491  1
  Pr  Pr12  1  0.562548  0.938706  0.561754  1
  Pr  Pr13  1  0.941323  0.558805  0.938591  1
  Pr  Pr14  1  0.562548  0.561754  0.938706  1
  Pr  Pr15  1  0.941323  0.938591  0.558805  1
  Mg  Mg16  1  0.576095  0.579032  0.579032  1
  Mg  Mg17  1  0.576358  0.579319  0.264958  1
  Mg  Mg18  1  0.576358  0.264958  0.579319  1
  Cd  Cd19  1  0.258051  0.580970  0.580970  1
  Ir  Ir20  1  0.142277  0.141764  0.141764  1
  Ir  Ir21  1  0.143168  0.143385  0.575085  1
  Ir  Ir22  1  0.143168  0.575085  0.143385  1
  Ir  Ir23  1  0.575257  0.143075  0.143075  1
