# generated using pymatgen
data_Y4CSe3
_symmetry_space_group_name_H-M   'P 1'
_cell_length_a   6.96436024
_cell_length_b   6.96435983
_cell_length_c   7.00617449
_cell_angle_alpha   79.32192287
_cell_angle_beta   79.32192389
_cell_angle_gamma   32.45002496
_symmetry_Int_Tables_number   1
_chemical_formula_structural   Y4CSe3
_chemical_formula_sum   'Y4 C1 Se3'
_cell_volume   178.90552762
_cell_formula_units_Z   1
loop_
 _symmetry_equiv_pos_site_id
 _symmetry_equiv_pos_as_xyz
  1  'x, y, z'
loop_
 _atom_site_type_symbol
 _atom_site_label
 _atom_site_symmetry_multiplicity
 _atom_site_fract_x
 _atom_site_fract_y
 _atom_site_fract_z
 _atom_site_occupancy
  Y  Y0  1  0.230117  0.230117  0.224285  1
  Y  Y1  1  0.512312  0.512312  0.453833  1
  Y  Y2  1  0.737633  0.737633  0.796145  1
  Y  Y3  1  0.019860  0.019860  0.025529  1
  C  C4  1  0.625072  0.625072  0.125123  1
  Se  Se5  1  0.865525  0.865525  0.379075  1
  Se  Se6  1  0.125005  0.125005  0.625030  1
  Se  Se7  1  0.384475  0.384475  0.870981  1
