# generated using pymatgen
data_La5CoHg2
_symmetry_space_group_name_H-M   'P 1'
_cell_length_a   9.01154900
_cell_length_b   8.45089200
_cell_length_c   12.74045700
_cell_angle_alpha   90.00000000
_cell_angle_beta   90.00000000
_cell_angle_gamma   90.00000000
_symmetry_Int_Tables_number   1
_chemical_formula_structural   La5CoHg2
_chemical_formula_sum   'La20 Co4 Hg8'
_cell_volume   970.25749558
_cell_formula_units_Z   4
loop_
 _symmetry_equiv_pos_site_id
 _symmetry_equiv_pos_as_xyz
  1  'x, y, z'
loop_
 _atom_site_type_symbol
 _atom_site_label
 _atom_site_symmetry_multiplicity
 _atom_site_fract_x
 _atom_site_fract_y
 _atom_site_fract_z
 _atom_site_occupancy
  La  La0  1  0.332263  0.750000  0.706674  1
  La  La1  1  0.667737  0.250000  0.293326  1
  La  La2  1  0.832263  0.250000  0.793326  1
  La  La3  1  0.167737  0.750000  0.206674  1
  La  La4  1  0.890671  0.750000  0.800677  1
  La  La5  1  0.109329  0.250000  0.199323  1
  La  La6  1  0.390671  0.250000  0.699323  1
  La  La7  1  0.609329  0.750000  0.300677  1
  La  La8  1  0.670008  0.537653  0.567189  1
  La  La9  1  0.329992  0.462347  0.432811  1
  La  La10  1  0.170008  0.462347  0.932811  1
  La  La11  1  0.329992  0.037653  0.432811  1
  La  La12  1  0.829992  0.537653  0.067189  1
  La  La13  1  0.670008  0.962347  0.567189  1
  La  La14  1  0.829992  0.962347  0.067189  1
  La  La15  1  0.170008  0.037653  0.932811  1
  La  La16  1  0.059157  0.750000  0.513931  1
  La  La17  1  0.940843  0.250000  0.486069  1
  La  La18  1  0.559157  0.250000  0.986069  1
  La  La19  1  0.440843  0.750000  0.013931  1
  Co  Co20  1  0.079861  0.750000  0.982285  1
  Co  Co21  1  0.920139  0.250000  0.017715  1
  Co  Co22  1  0.579861  0.250000  0.517715  1
  Co  Co23  1  0.420139  0.750000  0.482285  1
  Hg  Hg24  1  0.580443  0.542363  0.826563  1
  Hg  Hg25  1  0.419557  0.457637  0.173437  1
  Hg  Hg26  1  0.080443  0.457637  0.673437  1
  Hg  Hg27  1  0.419557  0.042363  0.173437  1
  Hg  Hg28  1  0.919557  0.542363  0.326563  1
  Hg  Hg29  1  0.580443  0.957637  0.826563  1
  Hg  Hg30  1  0.919557  0.957637  0.326563  1
  Hg  Hg31  1  0.080443  0.042363  0.673437  1
