# generated using pymatgen
data_Eu5Lu5Sn8
_symmetry_space_group_name_H-M   'P 1'
_cell_length_a   8.12339200
_cell_length_b   8.24733927
_cell_length_c   15.59504800
_cell_angle_alpha   90.01469329
_cell_angle_beta   90.00000000
_cell_angle_gamma   90.00000000
_symmetry_Int_Tables_number   1
_chemical_formula_structural   Eu5Lu5Sn8
_chemical_formula_sum   'Eu10 Lu10 Sn16'
_cell_volume   1044.81156939
_cell_formula_units_Z   2
loop_
 _symmetry_equiv_pos_site_id
 _symmetry_equiv_pos_as_xyz
  1  'x, y, z'
loop_
 _atom_site_type_symbol
 _atom_site_label
 _atom_site_symmetry_multiplicity
 _atom_site_fract_x
 _atom_site_fract_y
 _atom_site_fract_z
 _atom_site_occupancy
  Eu  Eu0  1  0.338879  0.834121  0.619763  1
  Eu  Eu1  1  0.838879  0.665879  0.880237  1
  Eu  Eu2  1  0.507126  0.325102  0.908723  1
  Eu  Eu3  1  0.007126  0.174898  0.591277  1
  Eu  Eu4  1  0.494754  0.675647  0.405786  1
  Eu  Eu5  1  0.994754  0.824353  0.094214  1
  Eu  Eu6  1  0.495950  0.675046  0.094709  1
  Eu  Eu7  1  0.995950  0.824954  0.405291  1
  Eu  Eu8  1  0.502850  0.320784  0.590810  1
  Eu  Eu9  1  0.002850  0.179216  0.909190  1
  Lu  Lu10  1  0.338231  0.835040  0.876561  1
  Lu  Lu11  1  0.838231  0.664960  0.623439  1
  Lu  Lu12  1  0.662831  0.161958  0.374436  1
  Lu  Lu13  1  0.162831  0.338042  0.125564  1
  Lu  Lu14  1  0.661170  0.162480  0.126920  1
  Lu  Lu15  1  0.161170  0.337520  0.373080  1
  Lu  Lu16  1  0.173031  0.497207  0.750466  1
  Lu  Lu17  1  0.673031  0.002793  0.749534  1
  Lu  Lu18  1  0.825482  0.502348  0.251640  1
  Lu  Lu19  1  0.325482  0.997652  0.248360  1
  Sn  Sn20  1  0.327835  0.040367  0.043090  1
  Sn  Sn21  1  0.827835  0.459633  0.456910  1
  Sn  Sn22  1  0.682009  0.963060  0.539790  1
  Sn  Sn23  1  0.182009  0.536940  0.960210  1
  Sn  Sn24  1  0.660853  0.966428  0.959939  1
  Sn  Sn25  1  0.160853  0.533572  0.540061  1
  Sn  Sn26  1  0.330618  0.044295  0.450595  1
  Sn  Sn27  1  0.830618  0.455705  0.049405  1
  Sn  Sn28  1  0.537520  0.613887  0.747984  1
  Sn  Sn29  1  0.037520  0.886113  0.752016  1
  Sn  Sn30  1  0.463998  0.377217  0.250175  1
  Sn  Sn31  1  0.963998  0.122783  0.249825  1
  Sn  Sn32  1  0.304160  0.139711  0.752451  1
  Sn  Sn33  1  0.804160  0.360289  0.747549  1
  Sn  Sn34  1  0.692704  0.861778  0.250641  1
  Sn  Sn35  1  0.192704  0.638222  0.249359  1
