# generated using pymatgen
data_Hf5ZrAs2
_symmetry_space_group_name_H-M   'P 1'
_cell_length_a   8.25024426
_cell_length_b   8.25005897
_cell_length_c   15.43865722
_cell_angle_alpha   89.98915631
_cell_angle_beta   89.99325422
_cell_angle_gamma   38.28061662
_symmetry_Int_Tables_number   1
_chemical_formula_structural   Hf5ZrAs2
_chemical_formula_sum   'Hf20 Zr4 As8'
_cell_volume   651.00474300
_cell_formula_units_Z   4
loop_
 _symmetry_equiv_pos_site_id
 _symmetry_equiv_pos_as_xyz
  1  'x, y, z'
loop_
 _atom_site_type_symbol
 _atom_site_label
 _atom_site_symmetry_multiplicity
 _atom_site_fract_x
 _atom_site_fract_y
 _atom_site_fract_z
 _atom_site_occupancy
  Hf  Hf0  1  0.050678  0.471778  0.906262  1
  Hf  Hf1  1  0.540648  0.575440  0.666409  1
  Hf  Hf2  1  0.430053  0.881687  0.990569  1
  Hf  Hf3  1  0.200837  0.701731  0.017491  1
  Hf  Hf4  1  0.570307  0.116992  0.011240  1
  Hf  Hf5  1  0.115849  0.570896  0.510333  1
  Hf  Hf6  1  0.948264  0.530043  0.095204  1
  Hf  Hf7  1  0.880499  0.430668  0.489688  1
  Hf  Hf8  1  0.003208  0.529446  0.301165  1
  Hf  Hf9  1  0.996327  0.471258  0.698727  1
  Hf  Hf10  1  0.799483  0.298081  0.983229  1
  Hf  Hf11  1  0.527925  0.948801  0.594332  1
  Hf  Hf12  1  0.044785  0.120631  0.308689  1
  Hf  Hf13  1  0.701104  0.200428  0.517002  1
  Hf  Hf14  1  0.297357  0.799172  0.482655  1
  Hf  Hf15  1  0.879119  0.955990  0.191094  1
  Hf  Hf16  1  0.470876  0.997106  0.198976  1
  Hf  Hf17  1  0.575936  0.539399  0.167080  1
  Hf  Hf18  1  0.529018  0.003986  0.801472  1
  Hf  Hf19  1  0.469515  0.051258  0.405366  1
  Zr  Zr20  1  0.120616  0.043262  0.808255  1
  Zr  Zr21  1  0.424454  0.461265  0.832324  1
  Zr  Zr22  1  0.957523  0.879111  0.691545  1
  Zr  Zr23  1  0.462457  0.424085  0.331624  1
  As  As24  1  0.335527  0.419268  0.166061  1
  As  As25  1  0.894199  0.933994  0.873334  1
  As  As26  1  0.104197  0.065093  0.128648  1
  As  As27  1  0.666226  0.580962  0.833210  1
  As  As28  1  0.580882  0.665184  0.332913  1
  As  As29  1  0.419180  0.334465  0.665806  1
  As  As30  1  0.935848  0.894347  0.371985  1
  As  As31  1  0.067101  0.104174  0.627313  1
