# generated using pymatgen
data_KRu2Cl11
_symmetry_space_group_name_H-M   'P 1'
_cell_length_a   7.01319414
_cell_length_b   7.09293097
_cell_length_c   17.30412652
_cell_angle_alpha   79.00601702
_cell_angle_beta   78.71917868
_cell_angle_gamma   88.21943855
_symmetry_Int_Tables_number   1
_chemical_formula_structural   KRu2Cl11
_chemical_formula_sum   'K2 Ru4 Cl22'
_cell_volume   828.63832122
_cell_formula_units_Z   2
loop_
 _symmetry_equiv_pos_site_id
 _symmetry_equiv_pos_as_xyz
  1  'x, y, z'
loop_
 _atom_site_type_symbol
 _atom_site_label
 _atom_site_symmetry_multiplicity
 _atom_site_fract_x
 _atom_site_fract_y
 _atom_site_fract_z
 _atom_site_occupancy
  K  K0  1  0.746492  0.747279  0.504330  1
  K  K1  1  0.253508  0.252721  0.495670  1
  Ru  Ru2  1  0.322970  0.820386  0.342987  1
  Ru  Ru3  1  0.677030  0.179614  0.657013  1
  Ru  Ru4  1  0.840589  0.337346  0.083187  1
  Ru  Ru5  1  0.159411  0.662654  0.916813  1
  Cl  Cl6  1  0.252797  0.773357  0.487456  1
  Cl  Cl7  1  0.747203  0.226643  0.512544  1
  Cl  Cl8  1  0.573720  0.023065  0.345564  1
  Cl  Cl9  1  0.426280  0.976935  0.654436  1
  Cl  Cl10  1  0.533369  0.560684  0.354480  1
  Cl  Cl11  1  0.466631  0.439316  0.645520  1
  Cl  Cl12  1  0.387072  0.861363  0.208009  1
  Cl  Cl13  1  0.612928  0.138637  0.791991  1
  Cl  Cl14  1  0.067115  0.608884  0.354406  1
  Cl  Cl15  1  0.932885  0.391116  0.645594  1
  Cl  Cl16  1  0.109240  0.075049  0.341708  1
  Cl  Cl17  1  0.890760  0.924951  0.658292  1
  Cl  Cl18  1  0.895759  0.040107  0.147033  1
  Cl  Cl19  1  0.104241  0.959893  0.852967  1
  Cl  Cl20  1  0.537310  0.378759  0.149033  1
  Cl  Cl21  1  0.462690  0.621241  0.850967  1
  Cl  Cl22  1  0.723046  0.216995  0.988051  1
  Cl  Cl23  1  0.276954  0.783005  0.011949  1
  Cl  Cl24  1  0.971197  0.473717  0.170484  1
  Cl  Cl25  1  0.028803  0.526283  0.829516  1
  Cl  Cl26  1  0.167443  0.340655  0.999426  1
  Cl  Cl27  1  0.832557  0.659345  0.000574  1
