# generated using pymatgen
data_NdSmEr6(BeSi3)4
_symmetry_space_group_name_H-M   'P 1'
_cell_length_a   7.85079800
_cell_length_b   7.85068722
_cell_length_c   8.09198400
_cell_angle_alpha   90.00000000
_cell_angle_beta   90.00000000
_cell_angle_gamma   119.99930765
_symmetry_Int_Tables_number   1
_chemical_formula_structural   NdSmEr6(BeSi3)4
_chemical_formula_sum   'Nd1 Sm1 Er6 Be4 Si12'
_cell_volume   431.92680303
_cell_formula_units_Z   1
loop_
 _symmetry_equiv_pos_site_id
 _symmetry_equiv_pos_as_xyz
  1  'x, y, z'
loop_
 _atom_site_type_symbol
 _atom_site_label
 _atom_site_symmetry_multiplicity
 _atom_site_fract_x
 _atom_site_fract_y
 _atom_site_fract_z
 _atom_site_occupancy
  Nd  Nd0  1  0.999997  0.999995  0.250000  1
  Sm  Sm1  1  0.000001  0.999996  0.750000  1
  Er  Er2  1  0.499105  0.500893  0.750000  1
  Er  Er3  1  0.500937  0.499127  0.250000  1
  Er  Er4  1  0.001762  0.500869  0.750000  1
  Er  Er5  1  0.998160  0.499077  0.250000  1
  Er  Er6  1  0.499134  0.998253  0.750000  1
  Er  Er7  1  0.500938  0.001817  0.250000  1
  Be  Be8  1  0.666657  0.333331  0.997020  1
  Be  Be9  1  0.333324  0.666665  0.002872  1
  Be  Be10  1  0.333324  0.666665  0.497128  1
  Be  Be11  1  0.666657  0.333331  0.502980  1
  Si  Si12  1  0.826335  0.173664  0.998146  1
  Si  Si13  1  0.173684  0.826314  0.999282  1
  Si  Si14  1  0.347326  0.173663  0.998153  1
  Si  Si15  1  0.173684  0.826314  0.500718  1
  Si  Si16  1  0.652643  0.826322  0.999272  1
  Si  Si17  1  0.826335  0.173664  0.501854  1
  Si  Si18  1  0.826333  0.652666  0.998145  1
  Si  Si19  1  0.652643  0.826322  0.500728  1
  Si  Si20  1  0.173681  0.347363  0.999289  1
  Si  Si21  1  0.347326  0.173663  0.501847  1
  Si  Si22  1  0.173681  0.347363  0.500711  1
  Si  Si23  1  0.826333  0.652666  0.501855  1
