# generated using pymatgen
data_Dy6Co2Mo(P4Rh5)3
_symmetry_space_group_name_H-M   'P 1'
_cell_length_a   3.86667200
_cell_length_b   11.11567200
_cell_length_c   12.76796700
_cell_angle_alpha   90.00000000
_cell_angle_beta   90.00000000
_cell_angle_gamma   90.00000000
_symmetry_Int_Tables_number   1
_chemical_formula_structural   Dy6Co2Mo(P4Rh5)3
_chemical_formula_sum   'Dy6 Co2 Mo1 P12 Rh15'
_cell_volume   548.77561894
_cell_formula_units_Z   1
loop_
 _symmetry_equiv_pos_site_id
 _symmetry_equiv_pos_as_xyz
  1  'x, y, z'
loop_
 _atom_site_type_symbol
 _atom_site_label
 _atom_site_symmetry_multiplicity
 _atom_site_fract_x
 _atom_site_fract_y
 _atom_site_fract_z
 _atom_site_occupancy
  Dy  Dy0  1  0.000000  0.500000  0.521053  1
  Dy  Dy1  1  0.500000  0.000000  0.477311  1
  Dy  Dy2  1  0.500000  0.814955  0.203046  1
  Dy  Dy3  1  0.500000  0.185045  0.203046  1
  Dy  Dy4  1  0.000000  0.683132  0.799876  1
  Dy  Dy5  1  0.000000  0.316868  0.799876  1
  Co  Co6  1  0.000000  0.500000  0.989568  1
  Co  Co7  1  0.500000  0.000000  0.020497  1
  Mo  Mo8  1  0.500000  0.500000  0.156056  1
  P  P9  1  0.500000  0.500000  0.881091  1
  P  P10  1  0.000000  0.000000  0.119021  1
  P  P11  1  0.500000  0.500000  0.346248  1
  P  P12  1  0.000000  0.000000  0.649183  1
  P  P13  1  0.500000  0.315982  0.619696  1
  P  P14  1  0.500000  0.684018  0.619696  1
  P  P15  1  0.000000  0.185331  0.380870  1
  P  P16  1  0.000000  0.814669  0.380870  1
  P  P17  1  0.500000  0.854788  0.893917  1
  P  P18  1  0.500000  0.145212  0.893917  1
  P  P19  1  0.000000  0.649571  0.106154  1
  P  P20  1  0.000000  0.350429  0.106154  1
  Rh  Rh21  1  0.000000  0.000000  0.833334  1
  Rh  Rh22  1  0.500000  0.500000  0.702383  1
  Rh  Rh23  1  0.000000  0.000000  0.296814  1
  Rh  Rh24  1  0.500000  0.334047  0.989252  1
  Rh  Rh25  1  0.500000  0.665953  0.989252  1
  Rh  Rh26  1  0.000000  0.163559  0.008831  1
  Rh  Rh27  1  0.000000  0.836441  0.008831  1
  Rh  Rh28  1  0.500000  0.293409  0.431903  1
  Rh  Rh29  1  0.500000  0.706591  0.431903  1
  Rh  Rh30  1  0.000000  0.204368  0.569875  1
  Rh  Rh31  1  0.000000  0.795632  0.569875  1
  Rh  Rh32  1  0.500000  0.873671  0.711512  1
  Rh  Rh33  1  0.500000  0.126329  0.711512  1
  Rh  Rh34  1  0.000000  0.625380  0.288787  1
  Rh  Rh35  1  0.000000  0.374620  0.288787  1
