# generated using pymatgen
data_CeZrReB6
_symmetry_space_group_name_H-M   'P 1'
_cell_length_a   3.65314800
_cell_length_b   9.08668900
_cell_length_c   11.49009800
_cell_angle_alpha   90.00000000
_cell_angle_beta   90.00000000
_cell_angle_gamma   90.00000000
_symmetry_Int_Tables_number   1
_chemical_formula_structural   CeZrReB6
_chemical_formula_sum   'Ce4 Zr4 Re4 B24'
_cell_volume   381.41403000
_cell_formula_units_Z   4
loop_
 _symmetry_equiv_pos_site_id
 _symmetry_equiv_pos_as_xyz
  1  'x, y, z'
loop_
 _atom_site_type_symbol
 _atom_site_label
 _atom_site_symmetry_multiplicity
 _atom_site_fract_x
 _atom_site_fract_y
 _atom_site_fract_z
 _atom_site_occupancy
  Ce  Ce0  1  0.000000  0.321650  0.414070  1
  Ce  Ce1  1  0.000000  0.678350  0.585930  1
  Ce  Ce2  1  0.000000  0.821650  0.085930  1
  Ce  Ce3  1  0.000000  0.178350  0.914070  1
  Zr  Zr4  1  0.000000  0.944892  0.373956  1
  Zr  Zr5  1  0.000000  0.055108  0.626044  1
  Zr  Zr6  1  0.000000  0.444892  0.126044  1
  Zr  Zr7  1  0.000000  0.555108  0.873956  1
  Re  Re8  1  0.000000  0.641438  0.317937  1
  Re  Re9  1  0.000000  0.358562  0.682063  1
  Re  Re10  1  0.000000  0.141438  0.182063  1
  Re  Re11  1  0.000000  0.858562  0.817937  1
  B  B12  1  0.500000  0.555027  0.432153  1
  B  B13  1  0.500000  0.444973  0.567847  1
  B  B14  1  0.500000  0.055027  0.067847  1
  B  B15  1  0.500000  0.944973  0.932153  1
  B  B16  1  0.500000  0.752140  0.417763  1
  B  B17  1  0.500000  0.247860  0.582237  1
  B  B18  1  0.500000  0.252140  0.082237  1
  B  B19  1  0.500000  0.747860  0.917763  1
  B  B20  1  0.500000  0.794485  0.264389  1
  B  B21  1  0.500000  0.205515  0.735611  1
  B  B22  1  0.500000  0.294485  0.235611  1
  B  B23  1  0.500000  0.705515  0.764389  1
  B  B24  1  0.500000  0.630080  0.183539  1
  B  B25  1  0.500000  0.369920  0.816461  1
  B  B26  1  0.500000  0.130080  0.316461  1
  B  B27  1  0.500000  0.869920  0.683539  1
  B  B28  1  0.500000  0.982535  0.213722  1
  B  B29  1  0.500000  0.017465  0.786278  1
  B  B30  1  0.500000  0.482535  0.286278  1
  B  B31  1  0.500000  0.517465  0.713722  1
  B  B32  1  0.500000  0.600484  0.027080  1
  B  B33  1  0.500000  0.399516  0.972920  1
  B  B34  1  0.500000  0.100484  0.472920  1
  B  B35  1  0.500000  0.899516  0.527080  1
