# generated using pymatgen
data_CaPr5YCoI12
_symmetry_space_group_name_H-M   'P 1'
_cell_length_a   9.92593908
_cell_length_b   10.04806004
_cell_length_c   10.02823175
_cell_angle_alpha   106.79577318
_cell_angle_beta   107.02984764
_cell_angle_gamma   107.03833888
_symmetry_Int_Tables_number   1
_chemical_formula_structural   CaPr5YCoI12
_chemical_formula_sum   'Ca1 Pr5 Y1 Co1 I12'
_cell_volume   833.98402871
_cell_formula_units_Z   1
loop_
 _symmetry_equiv_pos_site_id
 _symmetry_equiv_pos_as_xyz
  1  'x, y, z'
loop_
 _atom_site_type_symbol
 _atom_site_label
 _atom_site_symmetry_multiplicity
 _atom_site_fract_x
 _atom_site_fract_y
 _atom_site_fract_z
 _atom_site_occupancy
  Ca  Ca0  1  0.500535  0.500110  0.499556  1
  Pr  Pr1  1  0.025623  0.099626  0.305546  1
  Pr  Pr2  1  0.100322  0.303520  0.025306  1
  Pr  Pr3  1  0.290086  0.024764  0.093571  1
  Pr  Pr4  1  0.899596  0.695997  0.974500  1
  Pr  Pr5  1  0.708908  0.974235  0.902487  1
  Y  Y6  1  0.973846  0.902173  0.704301  1
  Co  Co7  1  0.999117  0.999501  0.999711  1
  I  I8  1  0.534336  0.615832  0.839587  1
  I  I9  1  0.465523  0.384274  0.159617  1
  I  I10  1  0.308843  0.924653  0.768143  1
  I  I11  1  0.385940  0.158645  0.461832  1
  I  I12  1  0.927816  0.775154  0.325735  1
  I  I13  1  0.677862  0.072314  0.223170  1
  I  I14  1  0.069652  0.214412  0.678551  1
  I  I15  1  0.771347  0.319060  0.925548  1
  I  I16  1  0.228533  0.680963  0.074105  1
  I  I17  1  0.848976  0.548789  0.617153  1
  I  I18  1  0.157292  0.462728  0.382868  1
  I  I19  1  0.625846  0.843250  0.538713  1
