# generated using pymatgen
data_CeOsSeBr12
_symmetry_space_group_name_H-M   'P 1'
_cell_length_a   9.63279270
_cell_length_b   9.63279244
_cell_length_c   7.25929057
_cell_angle_alpha   71.56687800
_cell_angle_beta   71.56687380
_cell_angle_gamma   81.04492206
_symmetry_Int_Tables_number   1
_chemical_formula_structural   CeOsSeBr12
_chemical_formula_sum   'Ce1 Os1 Se1 Br12'
_cell_volume   605.08678143
_cell_formula_units_Z   1
loop_
 _symmetry_equiv_pos_site_id
 _symmetry_equiv_pos_as_xyz
  1  'x, y, z'
loop_
 _atom_site_type_symbol
 _atom_site_label
 _atom_site_symmetry_multiplicity
 _atom_site_fract_x
 _atom_site_fract_y
 _atom_site_fract_z
 _atom_site_occupancy
  Ce  Ce0  1  0.265948  0.265948  0.742950  1
  Os  Os1  1  0.002944  0.002944  0.999297  1
  Se  Se2  1  0.723273  0.723273  0.268939  1
  Br  Br3  1  0.958811  0.247900  0.756888  1
  Br  Br4  1  0.247900  0.958811  0.756888  1
  Br  Br5  1  0.037059  0.760385  0.239450  1
  Br  Br6  1  0.760385  0.037059  0.239450  1
  Br  Br7  1  0.201496  0.534671  0.797024  1
  Br  Br8  1  0.534671  0.201496  0.797024  1
  Br  Br9  1  0.780006  0.488367  0.209894  1
  Br  Br10  1  0.488367  0.780006  0.209894  1
  Br  Br11  1  0.120706  0.120706  0.173228  1
  Br  Br12  1  0.881503  0.881503  0.842039  1
  Br  Br13  1  0.651107  0.651107  0.632317  1
  Br  Br14  1  0.345824  0.345824  0.334716  1
