# generated using pymatgen
data_Ti6ZnPO2
_symmetry_space_group_name_H-M   'P 1'
_cell_length_a   5.45687172
_cell_length_b   5.45687282
_cell_length_c   7.98506400
_cell_angle_alpha   90.00000000
_cell_angle_beta   90.00000000
_cell_angle_gamma   146.28083019
_symmetry_Int_Tables_number   1
_chemical_formula_structural   Ti6ZnPO2
_chemical_formula_sum   'Ti6 Zn1 P1 O2'
_cell_volume   131.99424695
_cell_formula_units_Z   1
loop_
 _symmetry_equiv_pos_site_id
 _symmetry_equiv_pos_as_xyz
  1  'x, y, z'
loop_
 _atom_site_type_symbol
 _atom_site_label
 _atom_site_symmetry_multiplicity
 _atom_site_fract_x
 _atom_site_fract_y
 _atom_site_fract_z
 _atom_site_occupancy
  Ti  Ti0  1  0.638383  0.361617  0.564040  1
  Ti  Ti1  1  0.368618  0.631382  0.041411  1
  Ti  Ti2  1  0.368618  0.631382  0.458589  1
  Ti  Ti3  1  0.638383  0.361617  0.935960  1
  Ti  Ti4  1  0.936786  0.063214  0.750000  1
  Ti  Ti5  1  0.045170  0.954830  0.250000  1
  Zn  Zn6  1  0.745731  0.254269  0.250000  1
  P  P7  1  0.257229  0.742771  0.750000  1
  O  O8  1  0.000542  0.999458  0.504112  1
  O  O9  1  0.000542  0.999458  0.995888  1
