# generated using pymatgen
data_Tb3Gd2Np2O12
_symmetry_space_group_name_H-M   'P 1'
_cell_length_a   6.56220311
_cell_length_b   6.65848367
_cell_length_c   6.57538600
_cell_angle_alpha   99.70411364
_cell_angle_beta   98.79231232
_cell_angle_gamma   99.00612551
_symmetry_Int_Tables_number   1
_chemical_formula_structural   Tb3Gd2Np2O12
_chemical_formula_sum   'Tb3 Gd2 Np2 O12'
_cell_volume   274.92327048
_cell_formula_units_Z   1
loop_
 _symmetry_equiv_pos_site_id
 _symmetry_equiv_pos_as_xyz
  1  'x, y, z'
loop_
 _atom_site_type_symbol
 _atom_site_label
 _atom_site_symmetry_multiplicity
 _atom_site_fract_x
 _atom_site_fract_y
 _atom_site_fract_z
 _atom_site_occupancy
  Tb  Tb0  1  0.303816  0.610529  0.140212  1
  Tb  Tb1  1  0.144024  0.312008  0.607721  1
  Tb  Tb2  1  0.607388  0.135770  0.311271  1
  Gd  Gd3  1  0.859212  0.692548  0.393957  1
  Gd  Gd4  1  0.391854  0.856707  0.686602  1
  Np  Np5  1  0.692439  0.398549  0.862277  1
  Np  Np6  1  0.001606  0.004431  0.001173  1
  O  O7  1  0.436813  0.179685  0.594319  1
  O  O8  1  0.584547  0.420700  0.162595  1
  O  O9  1  0.176483  0.578095  0.432620  1
  O  O10  1  0.563550  0.819720  0.405270  1
  O  O11  1  0.427105  0.569791  0.823323  1
  O  O12  1  0.812125  0.415745  0.576220  1
  O  O13  1  0.070170  0.319984  0.939662  1
  O  O14  1  0.691467  0.052257  0.929405  1
  O  O15  1  0.052546  0.925727  0.686716  1
  O  O16  1  0.928255  0.682304  0.055296  1
  O  O17  1  0.310648  0.947450  0.074053  1
  O  O18  1  0.945951  0.078002  0.317306  1
