# generated using pymatgen
data_KHf8Cu2(PO4)12
_symmetry_space_group_name_H-M   'P 1'
_cell_length_a   8.74548620
_cell_length_b   9.10425678
_cell_length_c   15.30551700
_cell_angle_alpha   92.14752353
_cell_angle_beta   106.54484728
_cell_angle_gamma   118.52325056
_symmetry_Int_Tables_number   1
_chemical_formula_structural   KHf8Cu2(PO4)12
_chemical_formula_sum   'K1 Hf8 Cu2 P12 O48'
_cell_volume   1004.39562816
_cell_formula_units_Z   1
loop_
 _symmetry_equiv_pos_site_id
 _symmetry_equiv_pos_as_xyz
  1  'x, y, z'
loop_
 _atom_site_type_symbol
 _atom_site_label
 _atom_site_symmetry_multiplicity
 _atom_site_fract_x
 _atom_site_fract_y
 _atom_site_fract_z
 _atom_site_occupancy
  K  K0  1  0.500000  0.500000  0.000000  1
  Hf  Hf1  1  0.153379  0.119166  0.682277  1
  Hf  Hf2  1  0.363598  0.656320  0.562043  1
  Hf  Hf3  1  0.136985  0.603176  0.175475  1
  Hf  Hf4  1  0.355249  0.132083  0.083022  1
  Hf  Hf5  1  0.636402  0.343680  0.437957  1
  Hf  Hf6  1  0.846621  0.880834  0.317723  1
  Hf  Hf7  1  0.644751  0.867917  0.916978  1
  Hf  Hf8  1  0.863015  0.396824  0.824525  1
  Cu  Cu9  1  0.104282  0.339658  0.323971  1
  Cu  Cu10  1  0.895718  0.660342  0.676029  1
  P  P11  1  0.762496  0.763125  0.523553  1
  P  P12  1  0.018675  0.612376  0.370377  1
  P  P13  1  0.474407  0.993914  0.721798  1
  P  P14  1  0.525593  0.006086  0.278202  1
  P  P15  1  0.981325  0.387624  0.629623  1
  P  P16  1  0.742928  0.265854  0.015622  1
  P  P17  1  0.237504  0.236875  0.476447  1
  P  P18  1  0.049228  0.134062  0.879224  1
  P  P19  1  0.451986  0.473727  0.244323  1
  P  P20  1  0.548014  0.526273  0.755677  1
  P  P21  1  0.950772  0.865938  0.120776  1
  P  P22  1  0.257072  0.734146  0.984378  1
  O  O23  1  0.254841  0.415107  0.472576  1
  O  O24  1  0.511695  0.588703  0.664411  1
  O  O25  1  0.905703  0.867676  0.624399  1
  O  O26  1  0.148906  0.528775  0.611459  1
  O  O27  1  0.839049  0.841923  0.448887  1
  O  O28  1  0.577027  0.751906  0.509735  1
  O  O29  1  0.054426  0.523570  0.294321  1
  O  O30  1  0.192537  0.695624  0.457991  1
  O  O31  1  0.362504  0.822692  0.259771  1
  O  O32  1  0.473993  0.884688  0.642678  1
  O  O33  1  0.712151  0.011759  0.308455  1
  O  O34  1  0.013351  0.249022  0.668335  1
  O  O35  1  0.272142  0.907625  0.002474  1
  O  O36  1  0.986649  0.750978  0.331665  1
  O  O37  1  0.287849  0.988241  0.691545  1
  O  O38  1  0.526007  0.115312  0.357322  1
  O  O39  1  0.637496  0.177308  0.740229  1
  O  O40  1  0.508981  0.080763  0.190039  1
  O  O41  1  0.807463  0.304376  0.542009  1
  O  O42  1  0.911996  0.376374  0.102877  1
  O  O43  1  0.133705  0.023134  0.126422  1
  O  O44  1  0.945574  0.476430  0.705679  1
  O  O45  1  0.765229  0.353732  0.931547  1
  O  O46  1  0.422973  0.248094  0.490265  1
  O  O47  1  0.569287  0.248930  0.030954  1
  O  O48  1  0.160951  0.158077  0.551113  1
  O  O49  1  0.118279  0.088319  0.806373  1
  O  O50  1  0.851094  0.471225  0.388541  1
  O  O51  1  0.094297  0.132324  0.375601  1
  O  O52  1  0.199312  0.190552  0.975806  1
  O  O53  1  0.488305  0.411297  0.335589  1
  O  O54  1  0.400636  0.338182  0.744161  1
  O  O55  1  0.451874  0.368678  0.163223  1
  O  O56  1  0.742183  0.545282  0.777501  1
  O  O57  1  0.980246  0.713760  0.139279  1
  O  O58  1  0.745159  0.584893  0.527424  1
  O  O59  1  0.019754  0.286240  0.860721  1
  O  O60  1  0.257817  0.454718  0.222499  1
  O  O61  1  0.548126  0.631322  0.836777  1
  O  O62  1  0.599364  0.661818  0.255839  1
  O  O63  1  0.800688  0.809448  0.024194  1
  O  O64  1  0.881721  0.911681  0.193627  1
  O  O65  1  0.430713  0.751070  0.969046  1
  O  O66  1  0.234771  0.646268  0.068453  1
  O  O67  1  0.866295  0.976866  0.873578  1
  O  O68  1  0.088004  0.623626  0.897123  1
  O  O69  1  0.491019  0.919237  0.809961  1
  O  O70  1  0.727858  0.092375  0.997526  1
