# generated using pymatgen
data_HfBe2(Nb3Sn2)3
_symmetry_space_group_name_H-M   'P 1'
_cell_length_a   8.28954400
_cell_length_b   8.27211903
_cell_length_c   5.56772800
_cell_angle_alpha   90.00000000
_cell_angle_beta   90.00000000
_cell_angle_gamma   120.06970596
_symmetry_Int_Tables_number   1
_chemical_formula_structural   HfBe2(Nb3Sn2)3
_chemical_formula_sum   'Hf1 Be2 Nb9 Sn6'
_cell_volume   330.40801945
_cell_formula_units_Z   1
loop_
 _symmetry_equiv_pos_site_id
 _symmetry_equiv_pos_as_xyz
  1  'x, y, z'
loop_
 _atom_site_type_symbol
 _atom_site_label
 _atom_site_symmetry_multiplicity
 _atom_site_fract_x
 _atom_site_fract_y
 _atom_site_fract_z
 _atom_site_occupancy
  Hf  Hf0  1  0.748602  0.000000  0.750000  1
  Be  Be1  1  0.003904  0.000000  0.005429  1
  Be  Be2  1  0.003904  0.000000  0.494571  1
  Nb  Nb3  1  0.334014  0.666927  0.999487  1
  Nb  Nb4  1  0.667088  0.333073  0.500513  1
  Nb  Nb5  1  0.667088  0.333073  0.999487  1
  Nb  Nb6  1  0.334014  0.666927  0.500513  1
  Nb  Nb7  1  0.252100  0.000000  0.250000  1
  Nb  Nb8  1  0.246613  0.248918  0.750000  1
  Nb  Nb9  1  0.997694  0.751082  0.750000  1
  Nb  Nb10  1  0.999799  0.248733  0.250000  1
  Nb  Nb11  1  0.751066  0.751267  0.250000  1
  Sn  Sn12  1  0.605915  0.000000  0.250000  1
  Sn  Sn13  1  0.604712  0.603329  0.750000  1
  Sn  Sn14  1  0.001383  0.396671  0.750000  1
  Sn  Sn15  1  0.999960  0.606840  0.250000  1
  Sn  Sn16  1  0.393120  0.393160  0.250000  1
  Sn  Sn17  1  0.389024  0.000000  0.750000  1
