# generated using pymatgen
data_Tb5Y3Hf10(ZrSi8)2
_symmetry_space_group_name_H-M   'P 1'
_cell_length_a   7.29756003
_cell_length_b   7.29709951
_cell_length_c   13.41363402
_cell_angle_alpha   90.00331210
_cell_angle_beta   89.99389159
_cell_angle_gamma   89.96777577
_symmetry_Int_Tables_number   1
_chemical_formula_structural   Tb5Y3Hf10(ZrSi8)2
_chemical_formula_sum   'Tb5 Y3 Hf10 Zr2 Si16'
_cell_volume   714.28959917
_cell_formula_units_Z   1
loop_
 _symmetry_equiv_pos_site_id
 _symmetry_equiv_pos_as_xyz
  1  'x, y, z'
loop_
 _atom_site_type_symbol
 _atom_site_label
 _atom_site_symmetry_multiplicity
 _atom_site_fract_x
 _atom_site_fract_y
 _atom_site_fract_z
 _atom_site_occupancy
  Tb  Tb0  1  0.503613  0.843802  0.034992  1
  Tb  Tb1  1  0.843883  0.503577  0.965017  1
  Tb  Tb2  1  0.496387  0.156181  0.534959  1
  Tb  Tb3  1  0.343738  0.996360  0.784925  1
  Tb  Tb4  1  0.656219  0.003624  0.284940  1
  Y  Y5  1  0.996478  0.343792  0.215107  1
  Y  Y6  1  0.003569  0.656170  0.715047  1
  Y  Y7  1  0.156090  0.496494  0.465035  1
  Hf  Hf8  1  0.325430  0.674619  0.249986  1
  Hf  Hf9  1  0.674622  0.325450  0.749989  1
  Hf  Hf10  1  0.149224  0.995327  0.374499  1
  Hf  Hf11  1  0.850810  0.004739  0.874441  1
  Hf  Hf12  1  0.504431  0.649631  0.624341  1
  Hf  Hf13  1  0.350297  0.495642  0.875708  1
  Hf  Hf14  1  0.495558  0.350354  0.124369  1
  Hf  Hf15  1  0.649581  0.504378  0.375741  1
  Hf  Hf16  1  0.995468  0.149124  0.625556  1
  Hf  Hf17  1  0.004681  0.850794  0.125611  1
  Zr  Zr18  1  0.174302  0.174334  0.999940  1
  Zr  Zr19  1  0.825652  0.825663  0.499966  1
  Si  Si20  1  0.363307  0.295118  0.317016  1
  Si  Si21  1  0.636657  0.704899  0.816952  1
  Si  Si22  1  0.206012  0.863344  0.567145  1
  Si  Si23  1  0.136613  0.793887  0.932874  1
  Si  Si24  1  0.793964  0.136633  0.067163  1
  Si  Si25  1  0.863407  0.206114  0.432861  1
  Si  Si26  1  0.295037  0.363363  0.683004  1
  Si  Si27  1  0.704901  0.636573  0.183012  1
  Si  Si28  1  0.295509  0.048242  0.186377  1
  Si  Si29  1  0.704478  0.951759  0.686383  1
  Si  Si30  1  0.450209  0.794739  0.435468  1
  Si  Si31  1  0.205215  0.549730  0.064497  1
  Si  Si32  1  0.549777  0.205248  0.935492  1
  Si  Si33  1  0.794845  0.450304  0.564466  1
  Si  Si34  1  0.048196  0.295611  0.813552  1
  Si  Si35  1  0.951841  0.704379  0.313571  1
