# generated using pymatgen
data_Tb5Dy3(TmPb3)2
_symmetry_space_group_name_H-M   'P 1'
_cell_length_a   9.06640619
_cell_length_b   9.06640587
_cell_length_c   6.64115800
_cell_angle_alpha   89.99983394
_cell_angle_beta   89.99983154
_cell_angle_gamma   119.97632857
_symmetry_Int_Tables_number   1
_chemical_formula_structural   Tb5Dy3(TmPb3)2
_chemical_formula_sum   'Tb5 Dy3 Tm2 Pb6'
_cell_volume   472.87713590
_cell_formula_units_Z   1
loop_
 _symmetry_equiv_pos_site_id
 _symmetry_equiv_pos_as_xyz
  1  'x, y, z'
loop_
 _atom_site_type_symbol
 _atom_site_label
 _atom_site_symmetry_multiplicity
 _atom_site_fract_x
 _atom_site_fract_y
 _atom_site_fract_z
 _atom_site_occupancy
  Tb  Tb0  1  0.238486  0.999937  0.750559  1
  Tb  Tb1  1  0.999937  0.238486  0.750559  1
  Tb  Tb2  1  0.238680  0.238680  0.249440  1
  Tb  Tb3  1  0.761427  0.999934  0.249441  1
  Tb  Tb4  1  0.999934  0.761427  0.249441  1
  Dy  Dy5  1  0.333383  0.666682  0.500022  1
  Dy  Dy6  1  0.666682  0.333383  0.500022  1
  Dy  Dy7  1  0.761382  0.761382  0.750570  1
  Tm  Tm8  1  0.666683  0.333375  0.999978  1
  Tm  Tm9  1  0.333375  0.666683  0.999978  1
  Pb  Pb10  1  0.395638  0.395638  0.751882  1
  Pb  Pb11  1  0.604669  0.999789  0.751872  1
  Pb  Pb12  1  0.999789  0.604669  0.751872  1
  Pb  Pb13  1  0.604507  0.604507  0.248118  1
  Pb  Pb14  1  0.395446  0.999983  0.248123  1
  Pb  Pb15  1  0.999983  0.395446  0.248123  1
