# generated using pymatgen
data_Er6Al19Si5Os8
_symmetry_space_group_name_H-M   'P 1'
_cell_length_a   8.68820800
_cell_length_b   8.67391485
_cell_length_c   9.56940400
_cell_angle_alpha   90.00000000
_cell_angle_beta   90.00000000
_cell_angle_gamma   120.05452481
_symmetry_Int_Tables_number   1
_chemical_formula_structural   Er6Al19Si5Os8
_chemical_formula_sum   'Er6 Al19 Si5 Os8'
_cell_volume   624.19747840
_cell_formula_units_Z   1
loop_
 _symmetry_equiv_pos_site_id
 _symmetry_equiv_pos_as_xyz
  1  'x, y, z'
loop_
 _atom_site_type_symbol
 _atom_site_label
 _atom_site_symmetry_multiplicity
 _atom_site_fract_x
 _atom_site_fract_y
 _atom_site_fract_z
 _atom_site_occupancy
  Er  Er0  1  0.196197  0.392396  0.250000  1
  Er  Er1  1  0.804393  0.608785  0.750000  1
  Er  Er2  1  0.605729  0.805219  0.250000  1
  Er  Er3  1  0.391890  0.196046  0.750000  1
  Er  Er4  1  0.199489  0.805219  0.250000  1
  Er  Er5  1  0.804157  0.196046  0.750000  1
  Al  Al6  1  0.164434  0.328868  0.578891  1
  Al  Al7  1  0.834980  0.669959  0.421122  1
  Al  Al8  1  0.670429  0.835619  0.577824  1
  Al  Al9  1  0.834980  0.669959  0.078878  1
  Al  Al10  1  0.328708  0.165400  0.421178  1
  Al  Al11  1  0.164434  0.328868  0.921109  1
  Al  Al12  1  0.165190  0.835619  0.577824  1
  Al  Al13  1  0.328708  0.165400  0.078822  1
  Al  Al14  1  0.836692  0.165400  0.421178  1
  Al  Al15  1  0.670429  0.835619  0.922176  1
  Al  Al16  1  0.836692  0.165400  0.078822  1
  Al  Al17  1  0.165190  0.835619  0.922176  1
  Al  Al18  1  0.437097  0.874193  0.750000  1
  Al  Al19  1  0.872808  0.433628  0.250000  1
  Al  Al20  1  0.127333  0.564005  0.750000  1
  Al  Al21  1  0.560820  0.433628  0.250000  1
  Al  Al22  1  0.436671  0.564005  0.750000  1
  Al  Al23  1  0.000117  0.000234  0.250000  1
  Al  Al24  1  0.000342  0.000684  0.750000  1
  Si  Si25  1  0.332598  0.665197  0.036905  1
  Si  Si26  1  0.667274  0.334546  0.961474  1
  Si  Si27  1  0.667274  0.334546  0.538526  1
  Si  Si28  1  0.332598  0.665197  0.463095  1
  Si  Si29  1  0.563723  0.127447  0.250000  1
  Os  Os30  1  0.500672  0.001343  0.006542  1
  Os  Os31  1  0.998988  0.499025  0.000411  1
  Os  Os32  1  0.500672  0.001343  0.493458  1
  Os  Os33  1  0.500037  0.499025  0.000411  1
  Os  Os34  1  0.998988  0.499025  0.499589  1
  Os  Os35  1  0.500037  0.499025  0.499589  1
  Os  Os36  1  0.999616  0.999231  0.000010  1
  Os  Os37  1  0.999616  0.999231  0.499990  1
