# generated using pymatgen
data_Eu4Y3Ho(BO4)4
_symmetry_space_group_name_H-M   'P 1'
_cell_length_a   3.66607900
_cell_length_b   9.69570966
_cell_length_c   10.90673675
_cell_angle_alpha   89.95760746
_cell_angle_beta   90.00000000
_cell_angle_gamma   90.00000000
_symmetry_Int_Tables_number   1
_chemical_formula_structural   Eu4Y3Ho(BO4)4
_chemical_formula_sum   'Eu4 Y3 Ho1 B4 O16'
_cell_volume   387.68244284
_cell_formula_units_Z   1
loop_
 _symmetry_equiv_pos_site_id
 _symmetry_equiv_pos_as_xyz
  1  'x, y, z'
loop_
 _atom_site_type_symbol
 _atom_site_label
 _atom_site_symmetry_multiplicity
 _atom_site_fract_x
 _atom_site_fract_y
 _atom_site_fract_z
 _atom_site_occupancy
  Eu  Eu0  1  0.250000  0.655934  0.081496  1
  Eu  Eu1  1  0.750000  0.344360  0.918809  1
  Eu  Eu2  1  0.750000  0.154781  0.418339  1
  Eu  Eu3  1  0.250000  0.844910  0.581131  1
  Y  Y4  1  0.750000  0.916641  0.890137  1
  Y  Y5  1  0.750000  0.583308  0.389103  1
  Y  Y6  1  0.250000  0.416265  0.610608  1
  Ho  Ho7  1  0.250000  0.084087  0.110254  1
  B  B8  1  0.250000  0.363144  0.207004  1
  B  B9  1  0.750000  0.636248  0.792743  1
  B  B10  1  0.750000  0.864751  0.292092  1
  B  B11  1  0.250000  0.135567  0.707504  1
  O  O12  1  0.250000  0.491161  0.263539  1
  O  O13  1  0.750000  0.508271  0.736216  1
  O  O14  1  0.750000  0.992229  0.234488  1
  O  O15  1  0.250000  0.007884  0.764792  1
  O  O16  1  0.250000  0.240319  0.273566  1
  O  O17  1  0.750000  0.758930  0.726013  1
  O  O18  1  0.750000  0.741564  0.226122  1
  O  O19  1  0.250000  0.258373  0.773928  1
  O  O20  1  0.250000  0.354587  0.078526  1
  O  O21  1  0.750000  0.644703  0.921331  1
  O  O22  1  0.750000  0.857459  0.420709  1
  O  O23  1  0.250000  0.143201  0.578990  1
  O  O24  1  0.250000  0.615250  0.502974  1
  O  O25  1  0.750000  0.384502  0.496660  1
  O  O26  1  0.750000  0.115357  0.998279  1
  O  O27  1  0.250000  0.886214  0.004646  1
