# generated using pymatgen
data_Nd2Zn5Si
_symmetry_space_group_name_H-M   'P 1'
_cell_length_a   8.35251615
_cell_length_b   8.35251555
_cell_length_c   8.86018000
_cell_angle_alpha   90.00000000
_cell_angle_beta   90.00000000
_cell_angle_gamma   149.23520215
_symmetry_Int_Tables_number   1
_chemical_formula_structural   Nd2Zn5Si
_chemical_formula_sum   'Nd4 Zn10 Si2'
_cell_volume   316.18084801
_cell_formula_units_Z   2
loop_
 _symmetry_equiv_pos_site_id
 _symmetry_equiv_pos_as_xyz
  1  'x, y, z'
loop_
 _atom_site_type_symbol
 _atom_site_label
 _atom_site_symmetry_multiplicity
 _atom_site_fract_x
 _atom_site_fract_y
 _atom_site_fract_z
 _atom_site_occupancy
  Nd  Nd0  1  0.202947  0.797053  0.250000  1
  Nd  Nd1  1  0.797053  0.202947  0.750000  1
  Nd  Nd2  1  0.000000  0.000000  0.500000  1
  Nd  Nd3  1  0.000000  0.000000  0.000000  1
  Zn  Zn4  1  0.814131  0.185869  0.393049  1
  Zn  Zn5  1  0.185869  0.814131  0.606951  1
  Zn  Zn6  1  0.814131  0.185869  0.106951  1
  Zn  Zn7  1  0.185869  0.814131  0.893049  1
  Zn  Zn8  1  0.649361  0.350639  0.476280  1
  Zn  Zn9  1  0.350639  0.649361  0.523720  1
  Zn  Zn10  1  0.649361  0.350639  0.023720  1
  Zn  Zn11  1  0.350639  0.649361  0.976280  1
  Zn  Zn12  1  0.405106  0.594894  0.250000  1
  Zn  Zn13  1  0.594894  0.405106  0.750000  1
  Si  Si14  1  0.557236  0.442764  0.250000  1
  Si  Si15  1  0.442764  0.557236  0.750000  1
