# generated using pymatgen
data_Dy16In4IrOs3
_symmetry_space_group_name_H-M   'P 1'
_cell_length_a   9.60724829
_cell_length_b   9.66238733
_cell_length_c   9.66238700
_cell_angle_alpha   59.99999771
_cell_angle_beta   59.80996033
_cell_angle_gamma   59.80995943
_symmetry_Int_Tables_number   1
_chemical_formula_structural   Dy16In4IrOs3
_chemical_formula_sum   'Dy16 In4 Ir1 Os3'
_cell_volume   632.41097490
_cell_formula_units_Z   1
loop_
 _symmetry_equiv_pos_site_id
 _symmetry_equiv_pos_as_xyz
  1  'x, y, z'
loop_
 _atom_site_type_symbol
 _atom_site_label
 _atom_site_symmetry_multiplicity
 _atom_site_fract_x
 _atom_site_fract_y
 _atom_site_fract_z
 _atom_site_occupancy
  Dy  Dy0  1  0.598425  0.599023  0.599023  1
  Dy  Dy1  1  0.598425  0.599023  0.203528  1
  Dy  Dy2  1  0.598425  0.203528  0.599023  1
  Dy  Dy3  1  0.205195  0.598268  0.598268  1
  Dy  Dy4  1  0.060513  0.440834  0.440834  1
  Dy  Dy5  1  0.439455  0.059190  0.059190  1
  Dy  Dy6  1  0.439455  0.059190  0.442166  1
  Dy  Dy7  1  0.060513  0.440834  0.057819  1
  Dy  Dy8  1  0.439455  0.442166  0.059190  1
  Dy  Dy9  1  0.060513  0.057819  0.440834  1
  Dy  Dy10  1  0.190648  0.808816  0.808816  1
  Dy  Dy11  1  0.808277  0.190102  0.190102  1
  Dy  Dy12  1  0.808277  0.190102  0.811519  1
  Dy  Dy13  1  0.190648  0.808816  0.191721  1
  Dy  Dy14  1  0.808277  0.811519  0.190102  1
  Dy  Dy15  1  0.190648  0.191721  0.808816  1
  In  In16  1  0.831902  0.832381  0.832381  1
  In  In17  1  0.831902  0.832381  0.503335  1
  In  In18  1  0.831902  0.503335  0.832381  1
  In  In19  1  0.503339  0.832220  0.832220  1
  Ir  Ir20  1  0.827595  0.390802  0.390802  1
  Os  Os21  1  0.392070  0.389499  0.389499  1
  Os  Os22  1  0.392070  0.389499  0.828934  1
  Os  Os23  1  0.392070  0.828934  0.389499  1
