# generated using pymatgen
data_Pr2AlCo6SiB2
_symmetry_space_group_name_H-M   'P 1'
_cell_length_a   5.28938600
_cell_length_b   5.28938681
_cell_length_c   6.59964600
_cell_angle_alpha   90.00000000
_cell_angle_beta   90.00000000
_cell_angle_gamma   120.00000747
_symmetry_Int_Tables_number   1
_chemical_formula_structural   Pr2AlCo6SiB2
_chemical_formula_sum   'Pr2 Al1 Co6 Si1 B2'
_cell_volume   159.90492092
_cell_formula_units_Z   1
loop_
 _symmetry_equiv_pos_site_id
 _symmetry_equiv_pos_as_xyz
  1  'x, y, z'
loop_
 _atom_site_type_symbol
 _atom_site_label
 _atom_site_symmetry_multiplicity
 _atom_site_fract_x
 _atom_site_fract_y
 _atom_site_fract_z
 _atom_site_occupancy
  Pr  Pr0  1  0.000000  0.000000  0.500000  1
  Pr  Pr1  1  0.000000  0.000000  0.000000  1
  Al  Al2  1  0.666667  0.333333  0.000000  1
  Co  Co3  1  0.498054  0.996108  0.290628  1
  Co  Co4  1  0.498054  0.501946  0.290628  1
  Co  Co5  1  0.003892  0.501946  0.290628  1
  Co  Co6  1  0.498054  0.996108  0.709372  1
  Co  Co7  1  0.498054  0.501946  0.709372  1
  Co  Co8  1  0.003892  0.501946  0.709372  1
  Si  Si9  1  0.333333  0.666667  0.000000  1
  B  B10  1  0.666667  0.333333  0.500000  1
  B  B11  1  0.333333  0.666667  0.500000  1
