# generated using pymatgen
data_Ho10In8CoIrPt2
_symmetry_space_group_name_H-M   'P 1'
_cell_length_a   3.61179300
_cell_length_b   8.07279411
_cell_length_c   18.11413869
_cell_angle_alpha   89.91078751
_cell_angle_beta   90.00000000
_cell_angle_gamma   90.00000000
_symmetry_Int_Tables_number   1
_chemical_formula_structural   Ho10In8CoIrPt2
_chemical_formula_sum   'Ho10 In8 Co1 Ir1 Pt2'
_cell_volume   528.15803392
_cell_formula_units_Z   1
loop_
 _symmetry_equiv_pos_site_id
 _symmetry_equiv_pos_as_xyz
  1  'x, y, z'
loop_
 _atom_site_type_symbol
 _atom_site_label
 _atom_site_symmetry_multiplicity
 _atom_site_fract_x
 _atom_site_fract_y
 _atom_site_fract_z
 _atom_site_occupancy
  Ho  Ho0  1  0.000000  0.110926  0.408519  1
  Ho  Ho1  1  0.000000  0.885875  0.585944  1
  Ho  Ho2  1  0.000000  0.383869  0.913604  1
  Ho  Ho3  1  0.000000  0.616902  0.087912  1
  Ho  Ho4  1  0.000000  0.232592  0.224110  1
  Ho  Ho5  1  0.000000  0.765313  0.777681  1
  Ho  Ho6  1  0.000000  0.251807  0.720599  1
  Ho  Ho7  1  0.000000  0.753859  0.279664  1
  Ho  Ho8  1  0.000000  0.000336  0.001198  1
  Ho  Ho9  1  0.000000  0.499916  0.498986  1
  In  In10  1  0.500000  0.422604  0.351481  1
  In  In11  1  0.500000  0.576314  0.647409  1
  In  In12  1  0.500000  0.072141  0.851620  1
  In  In13  1  0.500000  0.928983  0.152456  1
  In  In14  1  0.500000  0.291506  0.067894  1
  In  In15  1  0.500000  0.708840  0.934538  1
  In  In16  1  0.500000  0.207615  0.565624  1
  In  In17  1  0.500000  0.794094  0.429841  1
  Co  Co18  1  0.500000  0.015799  0.304988  1
  Ir  Ir19  1  0.500000  0.981232  0.695208  1
  Pt  Pt20  1  0.500000  0.481071  0.803390  1
  Pt  Pt21  1  0.500000  0.518405  0.197334  1
