# generated using pymatgen
data_Er8Ta3Ti(Si2W)8
_symmetry_space_group_name_H-M   'P 1'
_cell_length_a   6.89095198
_cell_length_b   6.89454084
_cell_length_c   12.82066528
_cell_angle_alpha   89.97436820
_cell_angle_beta   90.23767664
_cell_angle_gamma   89.85961903
_symmetry_Int_Tables_number   1
_chemical_formula_structural   Er8Ta3Ti(Si2W)8
_chemical_formula_sum   'Er8 Ta3 Ti1 Si16 W8'
_cell_volume   609.10203183
_cell_formula_units_Z   1
loop_
 _symmetry_equiv_pos_site_id
 _symmetry_equiv_pos_as_xyz
  1  'x, y, z'
loop_
 _atom_site_type_symbol
 _atom_site_label
 _atom_site_symmetry_multiplicity
 _atom_site_fract_x
 _atom_site_fract_y
 _atom_site_fract_z
 _atom_site_occupancy
  Er  Er0  1  0.338872  0.998234  0.468257  1
  Er  Er1  1  0.501453  0.836814  0.718517  1
  Er  Er2  1  0.500326  0.163627  0.219791  1
  Er  Er3  1  0.836405  0.502030  0.281076  1
  Er  Er4  1  0.163208  0.498773  0.780624  1
  Er  Er5  1  0.662930  0.999793  0.968947  1
  Er  Er6  1  0.999174  0.336793  0.531817  1
  Er  Er7  1  0.000213  0.663479  0.031138  1
  Ta  Ta8  1  0.333112  0.333626  0.999718  1
  Ta  Ta9  1  0.167487  0.831447  0.251155  1
  Ta  Ta10  1  0.830386  0.167028  0.749332  1
  Ti  Ti11  1  0.993404  0.839520  0.625499  1
  Si  Si12  1  0.205310  0.124830  0.681554  1
  Si  Si13  1  0.372122  0.705034  0.932140  1
  Si  Si14  1  0.628228  0.299177  0.433521  1
  Si  Si15  1  0.704192  0.372008  0.068275  1
  Si  Si16  1  0.300873  0.626640  0.566942  1
  Si  Si17  1  0.794680  0.873001  0.181799  1
  Si  Si18  1  0.127081  0.206641  0.318082  1
  Si  Si19  1  0.872405  0.794728  0.817013  1
  Si  Si20  1  0.292786  0.961711  0.063518  1
  Si  Si21  1  0.541806  0.790990  0.315485  1
  Si  Si22  1  0.461120  0.208050  0.812750  1
  Si  Si23  1  0.790558  0.539461  0.685526  1
  Si  Si24  1  0.208044  0.461846  0.186717  1
  Si  Si25  1  0.708697  0.036252  0.561035  1
  Si  Si26  1  0.960441  0.294725  0.936761  1
  Si  Si27  1  0.034437  0.707898  0.438440  1
  W  W28  1  0.666636  0.665059  0.499838  1
  W  W29  1  0.160518  0.007622  0.875043  1
  W  W30  1  0.497084  0.663429  0.124295  1
  W  W31  1  0.503053  0.332466  0.623469  1
  W  W32  1  0.660253  0.495771  0.877523  1
  W  W33  1  0.335974  0.502300  0.375900  1
  W  W34  1  0.842080  0.999303  0.372526  1
  W  W35  1  0.004650  0.159891  0.125970  1
