# generated using pymatgen
data_Hf10AlSn7
_symmetry_space_group_name_H-M   'P 1'
_cell_length_a   5.86964101
_cell_length_b   8.72858420
_cell_length_c   8.72867800
_cell_angle_alpha   119.99964077
_cell_angle_beta   89.99916413
_cell_angle_gamma   90.00166737
_symmetry_Int_Tables_number   1
_chemical_formula_structural   Hf10AlSn7
_chemical_formula_sum   'Hf10 Al1 Sn7'
_cell_volume   387.28976743
_cell_formula_units_Z   1
loop_
 _symmetry_equiv_pos_site_id
 _symmetry_equiv_pos_as_xyz
  1  'x, y, z'
loop_
 _atom_site_type_symbol
 _atom_site_label
 _atom_site_symmetry_multiplicity
 _atom_site_fract_x
 _atom_site_fract_y
 _atom_site_fract_z
 _atom_site_occupancy
  Hf  Hf0  1  0.500001  0.333344  0.666684  1
  Hf  Hf1  1  0.500001  0.666660  0.333316  1
  Hf  Hf2  1  0.000000  0.666661  0.333327  1
  Hf  Hf3  1  0.000000  0.333335  0.666673  1
  Hf  Hf4  1  0.737621  0.276689  0.000000  1
  Hf  Hf5  1  0.737643  0.723324  0.723296  1
  Hf  Hf6  1  0.737643  0.000028  0.276704  1
  Hf  Hf7  1  0.262371  0.723314  0.000000  1
  Hf  Hf8  1  0.262360  0.276675  0.276704  1
  Hf  Hf9  1  0.262360  0.999971  0.723296  1
  Al  Al10  1  0.500000  0.000000  0.000000  1
  Sn  Sn11  1  0.752787  0.612945  0.000000  1
  Sn  Sn12  1  0.752762  0.387081  0.387085  1
  Sn  Sn13  1  0.752762  0.999996  0.612915  1
  Sn  Sn14  1  0.247210  0.387055  0.000000  1
  Sn  Sn15  1  0.247240  0.612918  0.612913  1
  Sn  Sn16  1  0.247240  0.000005  0.387087  1
  Sn  Sn17  1  0.999999  0.000001  0.000000  1
