# generated using pymatgen
data_DyHo7B24IrRu3
_symmetry_space_group_name_H-M   'P 1'
_cell_length_a   3.64857400
_cell_length_b   9.13360393
_cell_length_c   11.48307400
_cell_angle_alpha   90.04424454
_cell_angle_beta   90.00000000
_cell_angle_gamma   90.00000000
_symmetry_Int_Tables_number   1
_chemical_formula_structural   DyHo7B24IrRu3
_chemical_formula_sum   'Dy1 Ho7 B24 Ir1 Ru3'
_cell_volume   382.66907616
_cell_formula_units_Z   1
loop_
 _symmetry_equiv_pos_site_id
 _symmetry_equiv_pos_as_xyz
  1  'x, y, z'
loop_
 _atom_site_type_symbol
 _atom_site_label
 _atom_site_symmetry_multiplicity
 _atom_site_fract_x
 _atom_site_fract_y
 _atom_site_fract_z
 _atom_site_occupancy
  Dy  Dy0  1  0.000000  0.319899  0.414346  1
  Ho  Ho1  1  0.000000  0.678430  0.588954  1
  Ho  Ho2  1  0.000000  0.823825  0.084235  1
  Ho  Ho3  1  0.000000  0.177945  0.913159  1
  Ho  Ho4  1  0.000000  0.945812  0.373141  1
  Ho  Ho5  1  0.000000  0.055812  0.627023  1
  Ho  Ho6  1  0.000000  0.442161  0.125645  1
  Ho  Ho7  1  0.000000  0.555823  0.873279  1
  B  B8  1  0.500000  0.553668  0.433629  1
  B  B9  1  0.500000  0.446073  0.567107  1
  B  B10  1  0.500000  0.054087  0.066869  1
  B  B11  1  0.500000  0.946161  0.932917  1
  B  B12  1  0.500000  0.749456  0.421102  1
  B  B13  1  0.500000  0.251513  0.580223  1
  B  B14  1  0.500000  0.247976  0.079774  1
  B  B15  1  0.500000  0.752002  0.920082  1
  B  B16  1  0.500000  0.792251  0.265688  1
  B  B17  1  0.500000  0.208693  0.733639  1
  B  B18  1  0.500000  0.291431  0.233810  1
  B  B19  1  0.500000  0.708455  0.766416  1
  B  B20  1  0.500000  0.632405  0.183764  1
  B  B21  1  0.500000  0.368037  0.814730  1
  B  B22  1  0.500000  0.132090  0.314900  1
  B  B23  1  0.500000  0.867662  0.685335  1
  B  B24  1  0.500000  0.983585  0.212868  1
  B  B25  1  0.500000  0.016434  0.786999  1
  B  B26  1  0.500000  0.482571  0.286800  1
  B  B27  1  0.500000  0.516552  0.713103  1
  B  B28  1  0.500000  0.610134  0.030596  1
  B  B29  1  0.500000  0.389932  0.969742  1
  B  B30  1  0.500000  0.109498  0.469873  1
  B  B31  1  0.500000  0.889653  0.529944  1
  Ir  Ir32  1  0.000000  0.637810  0.321626  1
  Ru  Ru33  1  0.000000  0.362249  0.678557  1
  Ru  Ru34  1  0.000000  0.138128  0.178994  1
  Ru  Ru35  1  0.000000  0.861788  0.821128  1
