# generated using pymatgen
data_Nb8Cr2SiB4P
_symmetry_space_group_name_H-M   'P 1'
_cell_length_a   6.07416746
_cell_length_b   6.07416814
_cell_length_c   7.20700814
_cell_angle_alpha   114.92345201
_cell_angle_beta   114.92345180
_cell_angle_gamma   89.99999025
_symmetry_Int_Tables_number   1
_chemical_formula_structural   Nb8Cr2SiB4P
_chemical_formula_sum   'Nb8 Cr2 Si1 B4 P1'
_cell_volume   213.52658993
_cell_formula_units_Z   1
loop_
 _symmetry_equiv_pos_site_id
 _symmetry_equiv_pos_as_xyz
  1  'x, y, z'
loop_
 _atom_site_type_symbol
 _atom_site_label
 _atom_site_symmetry_multiplicity
 _atom_site_fract_x
 _atom_site_fract_y
 _atom_site_fract_z
 _atom_site_occupancy
  Nb  Nb0  1  0.032488  0.535611  0.725899  1
  Nb  Nb1  1  0.693411  0.190288  0.725899  1
  Nb  Nb2  1  0.190288  0.032488  0.725899  1
  Nb  Nb3  1  0.535611  0.693411  0.725899  1
  Nb  Nb4  1  0.964389  0.467512  0.274101  1
  Nb  Nb5  1  0.309712  0.806589  0.274101  1
  Nb  Nb6  1  0.806589  0.964389  0.274101  1
  Nb  Nb7  1  0.467512  0.309712  0.274101  1
  Cr  Cr8  1  0.498281  0.498281  0.996562  1
  Cr  Cr9  1  0.001719  0.001719  0.003438  1
  Si  Si10  1  0.250000  0.250000  0.500000  1
  B  B11  1  0.381323  0.881323  0.000000  1
  B  B12  1  0.618677  0.118677  0.000000  1
  B  B13  1  0.118677  0.381323  0.000000  1
  B  B14  1  0.881323  0.618677  0.000000  1
  P  P15  1  0.750000  0.750000  0.500000  1
