# generated using pymatgen
data_Dy4Lu2Si24Os5Ru3
_symmetry_space_group_name_H-M   'P 1'
_cell_length_a   10.10077713
_cell_length_b   10.10077597
_cell_length_c   8.14256100
_cell_angle_alpha   90.00098934
_cell_angle_beta   90.00098475
_cell_angle_gamma   132.45440806
_symmetry_Int_Tables_number   1
_chemical_formula_structural   Dy4Lu2Si24Os5Ru3
_chemical_formula_sum   'Dy4 Lu2 Si24 Os5 Ru3'
_cell_volume   612.93983326
_cell_formula_units_Z   1
loop_
 _symmetry_equiv_pos_site_id
 _symmetry_equiv_pos_as_xyz
  1  'x, y, z'
loop_
 _atom_site_type_symbol
 _atom_site_label
 _atom_site_symmetry_multiplicity
 _atom_site_fract_x
 _atom_site_fract_y
 _atom_site_fract_z
 _atom_site_occupancy
  Dy  Dy0  1  0.501516  0.001400  0.749479  1
  Dy  Dy1  1  0.998395  0.498610  0.250504  1
  Dy  Dy2  1  0.498610  0.998395  0.250504  1
  Dy  Dy3  1  0.001400  0.501516  0.749479  1
  Lu  Lu4  1  0.499372  0.499372  0.500068  1
  Lu  Lu5  1  0.000022  0.000022  0.999257  1
  Si  Si6  1  0.795647  0.204543  0.500180  1
  Si  Si7  1  0.295960  0.704046  0.000201  1
  Si  Si8  1  0.204543  0.795647  0.500180  1
  Si  Si9  1  0.704046  0.295960  0.000201  1
  Si  Si10  1  0.332776  0.332776  0.833216  1
  Si  Si11  1  0.667782  0.667782  0.167276  1
  Si  Si12  1  0.166641  0.166641  0.331075  1
  Si  Si13  1  0.830701  0.830701  0.666140  1
  Si  Si14  1  0.120284  0.886389  0.728269  1
  Si  Si15  1  0.114022  0.880821  0.271882  1
  Si  Si16  1  0.611089  0.378561  0.228705  1
  Si  Si17  1  0.622187  0.389059  0.771564  1
  Si  Si18  1  0.880821  0.114022  0.271882  1
  Si  Si19  1  0.886389  0.120284  0.728269  1
  Si  Si20  1  0.389059  0.622187  0.771564  1
  Si  Si21  1  0.378561  0.611089  0.228705  1
  Si  Si22  1  0.345156  0.111990  0.503635  1
  Si  Si23  1  0.887782  0.655273  0.496906  1
  Si  Si24  1  0.387634  0.154908  0.005735  1
  Si  Si25  1  0.845059  0.612935  0.994812  1
  Si  Si26  1  0.655273  0.887782  0.496906  1
  Si  Si27  1  0.111990  0.345156  0.503635  1
  Si  Si28  1  0.612935  0.845059  0.994812  1
  Si  Si29  1  0.154908  0.387634  0.005735  1
  Os  Os30  1  0.668980  0.331039  0.499902  1
  Os  Os31  1  0.169411  0.830438  0.000053  1
  Os  Os32  1  0.331039  0.668980  0.499902  1
  Os  Os33  1  0.830438  0.169411  0.000053  1
  Os  Os34  1  0.126444  0.126444  0.627124  1
  Ru  Ru35  1  0.873402  0.873402  0.372498  1
  Ru  Ru36  1  0.372339  0.372339  0.127924  1
  Ru  Ru37  1  0.627380  0.627380  0.871770  1
