# generated using pymatgen
data_Ho3Sc2GaPt3
_symmetry_space_group_name_H-M   'P 1'
_cell_length_a   7.23623107
_cell_length_b   7.23623076
_cell_length_c   4.32196700
_cell_angle_alpha   90.00000000
_cell_angle_beta   90.00000000
_cell_angle_gamma   121.37386488
_symmetry_Int_Tables_number   1
_chemical_formula_structural   Ho3Sc2GaPt3
_chemical_formula_sum   'Ho3 Sc2 Ga1 Pt3'
_cell_volume   193.22197311
_cell_formula_units_Z   1
loop_
 _symmetry_equiv_pos_site_id
 _symmetry_equiv_pos_as_xyz
  1  'x, y, z'
loop_
 _atom_site_type_symbol
 _atom_site_label
 _atom_site_symmetry_multiplicity
 _atom_site_fract_x
 _atom_site_fract_y
 _atom_site_fract_z
 _atom_site_occupancy
  Ho  Ho0  1  0.588781  0.983197  0.499999  1
  Ho  Ho1  1  0.433059  0.433058  0.499999  1
  Ho  Ho2  1  0.983197  0.588782  0.499999  1
  Sc  Sc3  1  0.243011  0.993329  0.000000  1
  Sc  Sc4  1  0.993329  0.243012  0.000000  1
  Ga  Ga5  1  0.754928  0.754927  0.000000  1
  Pt  Pt6  1  0.660605  0.329809  0.000000  1
  Pt  Pt7  1  0.329809  0.660606  0.000000  1
  Pt  Pt8  1  0.013280  0.013280  0.499999  1
