# generated using pymatgen
data_Li4Pr2ThSn4
_symmetry_space_group_name_H-M   'P 1'
_cell_length_a   8.86238109
_cell_length_b   8.86237970
_cell_length_c   8.86238090
_cell_angle_alpha   149.04615890
_cell_angle_beta   131.47681492
_cell_angle_gamma   58.67453123
_symmetry_Int_Tables_number   1
_chemical_formula_structural   Li4Pr2ThSn4
_chemical_formula_sum   'Li4 Pr2 Th1 Sn4'
_cell_volume   266.14033335
_cell_formula_units_Z   1
loop_
 _symmetry_equiv_pos_site_id
 _symmetry_equiv_pos_as_xyz
  1  'x, y, z'
loop_
 _atom_site_type_symbol
 _atom_site_label
 _atom_site_symmetry_multiplicity
 _atom_site_fract_x
 _atom_site_fract_y
 _atom_site_fract_z
 _atom_site_occupancy
  Li  Li0  1  0.640904  0.328190  0.312714  1
  Li  Li1  1  0.360279  0.671443  0.688835  1
  Li  Li2  1  0.015475  0.328190  0.687286  1
  Li  Li3  1  0.982609  0.671443  0.311165  1
  Pr  Pr4  1  0.628739  0.128739  0.500000  1
  Pr  Pr5  1  0.000586  0.000586  0.000000  1
  Th  Th6  1  0.371579  0.871579  0.500000  1
  Sn  Sn7  1  0.217328  0.217328  0.000000  1
  Sn  Sn8  1  0.786411  0.786411  0.000000  1
  Sn  Sn9  1  0.694923  0.498045  0.196879  1
  Sn  Sn10  1  0.301166  0.498045  0.803121  1
