# generated using pymatgen
data_Ho3ErGa20(OsRu2)2
_symmetry_space_group_name_H-M   'P 1'
_cell_length_a   8.90344019
_cell_length_b   8.90344019
_cell_length_c   6.41094000
_cell_angle_alpha   90.00000000
_cell_angle_beta   90.00000000
_cell_angle_gamma   90.02370743
_symmetry_Int_Tables_number   1
_chemical_formula_structural   Ho3ErGa20(OsRu2)2
_chemical_formula_sum   'Ho3 Er1 Ga20 Os2 Ru4'
_cell_volume   508.20316619
_cell_formula_units_Z   1
loop_
 _symmetry_equiv_pos_site_id
 _symmetry_equiv_pos_as_xyz
  1  'x, y, z'
loop_
 _atom_site_type_symbol
 _atom_site_label
 _atom_site_symmetry_multiplicity
 _atom_site_fract_x
 _atom_site_fract_y
 _atom_site_fract_z
 _atom_site_occupancy
  Ho  Ho0  1  0.683191  0.183187  0.000000  1
  Ho  Ho1  1  0.316813  0.816809  0.000000  1
  Ho  Ho2  1  0.816794  0.683206  0.000000  1
  Er  Er3  1  0.183222  0.316778  0.000000  1
  Ga  Ga4  1  0.938768  0.206956  0.293552  1
  Ga  Ga5  1  0.706906  0.438669  0.293700  1
  Ga  Ga6  1  0.499996  0.000004  0.285771  1
  Ga  Ga7  1  0.561326  0.706907  0.706300  1
  Ga  Ga8  1  0.293044  0.561232  0.706448  1
  Ga  Ga9  1  0.793093  0.938674  0.293700  1
  Ga  Ga10  1  0.938768  0.206956  0.706448  1
  Ga  Ga11  1  0.293044  0.561232  0.293552  1
  Ga  Ga12  1  0.061331  0.793094  0.293700  1
  Ga  Ga13  1  0.706906  0.438669  0.706300  1
  Ga  Ga14  1  0.438506  0.293067  0.706510  1
  Ga  Ga15  1  0.061331  0.793094  0.706300  1
  Ga  Ga16  1  0.206933  0.061494  0.706510  1
  Ga  Ga17  1  0.793093  0.938674  0.706300  1
  Ga  Ga18  1  0.206933  0.061494  0.293490  1
  Ga  Ga19  1  0.000116  0.499884  0.714528  1
  Ga  Ga20  1  0.000116  0.499884  0.285472  1
  Ga  Ga21  1  0.561326  0.706907  0.293700  1
  Ga  Ga22  1  0.438506  0.293067  0.293490  1
  Ga  Ga23  1  0.499996  0.000004  0.714229  1
  Os  Os24  1  0.000105  0.000181  0.000000  1
  Os  Os25  1  0.499819  0.499895  0.000000  1
  Ru  Ru26  1  0.678158  0.178167  0.500000  1
  Ru  Ru27  1  0.821875  0.678125  0.500000  1
  Ru  Ru28  1  0.178151  0.321849  0.500000  1
  Ru  Ru29  1  0.321833  0.821842  0.500000  1
