# generated using pymatgen
data_Tm8Sc12Ga7Si8As
_symmetry_space_group_name_H-M   'P 1'
_cell_length_a   7.13078712
_cell_length_b   7.39284195
_cell_length_c   14.16068811
_cell_angle_alpha   90.04037589
_cell_angle_beta   89.87624996
_cell_angle_gamma   90.49548883
_symmetry_Int_Tables_number   1
_chemical_formula_structural   Tm8Sc12Ga7Si8As
_chemical_formula_sum   'Tm8 Sc12 Ga7 Si8 As1'
_cell_volume   746.47608016
_cell_formula_units_Z   1
loop_
 _symmetry_equiv_pos_site_id
 _symmetry_equiv_pos_as_xyz
  1  'x, y, z'
loop_
 _atom_site_type_symbol
 _atom_site_label
 _atom_site_symmetry_multiplicity
 _atom_site_fract_x
 _atom_site_fract_y
 _atom_site_fract_z
 _atom_site_occupancy
  Tm  Tm0  1  0.012628  0.174494  0.098508  1
  Tm  Tm1  1  0.991591  0.821345  0.900397  1
  Tm  Tm2  1  0.489862  0.675970  0.902238  1
  Tm  Tm3  1  0.991363  0.822076  0.600858  1
  Tm  Tm4  1  0.510306  0.322077  0.099272  1
  Tm  Tm5  1  0.010154  0.176417  0.400291  1
  Tm  Tm6  1  0.510121  0.322780  0.399580  1
  Tm  Tm7  1  0.491144  0.675324  0.599183  1
  Sc  Sc8  1  0.163357  0.503791  0.750006  1
  Sc  Sc9  1  0.835311  0.499246  0.249868  1
  Sc  Sc10  1  0.335031  0.002221  0.248838  1
  Sc  Sc11  1  0.659149  0.997576  0.749617  1
  Sc  Sc12  1  0.331202  0.171867  0.627394  1
  Sc  Sc13  1  0.669005  0.827634  0.373123  1
  Sc  Sc14  1  0.168795  0.673110  0.373501  1
  Sc  Sc15  1  0.668047  0.825751  0.126612  1
  Sc  Sc16  1  0.827072  0.330683  0.625240  1
  Sc  Sc17  1  0.331052  0.172261  0.873696  1
  Sc  Sc18  1  0.825981  0.330873  0.875313  1
  Sc  Sc19  1  0.171725  0.674968  0.125082  1
  Ga  Ga20  1  0.162079  0.461727  0.539353  1
  Ga  Ga21  1  0.837532  0.538096  0.460043  1
  Ga  Ga22  1  0.337606  0.963676  0.460939  1
  Ga  Ga23  1  0.838065  0.539245  0.040376  1
  Ga  Ga24  1  0.662944  0.037169  0.539295  1
  Ga  Ga25  1  0.161206  0.460684  0.961041  1
  Ga  Ga26  1  0.661737  0.037987  0.961292  1
  Si  Si27  1  0.967997  0.886773  0.249406  1
  Si  Si28  1  0.466689  0.611114  0.249467  1
  Si  Si29  1  0.530020  0.386106  0.750459  1
  Si  Si30  1  0.297937  0.858672  0.750897  1
  Si  Si31  1  0.714772  0.129336  0.248865  1
  Si  Si32  1  0.213882  0.371492  0.249231  1
  Si  Si33  1  0.787214  0.630594  0.750675  1
  Si  Si34  1  0.342540  0.964948  0.039160  1
  As  As35  1  0.024882  0.121917  0.750888  1
