# generated using pymatgen
data_HoLuPa2(Al3Ir)6
_symmetry_space_group_name_H-M   'P 1'
_cell_length_a   7.58815804
_cell_length_b   7.59824597
_cell_length_c   9.34627300
_cell_angle_alpha   90.00000000
_cell_angle_beta   90.00000000
_cell_angle_gamma   119.71107169
_symmetry_Int_Tables_number   1
_chemical_formula_structural   HoLuPa2(Al3Ir)6
_chemical_formula_sum   'Ho1 Lu1 Pa2 Al18 Ir6'
_cell_volume   468.03235944
_cell_formula_units_Z   1
loop_
 _symmetry_equiv_pos_site_id
 _symmetry_equiv_pos_as_xyz
  1  'x, y, z'
loop_
 _atom_site_type_symbol
 _atom_site_label
 _atom_site_symmetry_multiplicity
 _atom_site_fract_x
 _atom_site_fract_y
 _atom_site_fract_z
 _atom_site_occupancy
  Ho  Ho0  1  0.669549  0.993233  0.250000  1
  Lu  Lu1  1  0.330206  0.006824  0.750000  1
  Pa  Pa2  1  0.998042  0.670995  0.250000  1
  Pa  Pa3  1  0.001959  0.328980  0.750000  1
  Al  Al4  1  0.130978  0.127080  0.250000  1
  Al  Al5  1  0.869602  0.873095  0.750000  1
  Al  Al6  1  0.000389  0.331199  0.078286  1
  Al  Al7  1  0.000283  0.669429  0.921166  1
  Al  Al8  1  0.000283  0.669429  0.578834  1
  Al  Al9  1  0.338375  0.003221  0.426102  1
  Al  Al10  1  0.000389  0.331199  0.421714  1
  Al  Al11  1  0.660981  0.996732  0.575027  1
  Al  Al12  1  0.660981  0.996732  0.924973  1
  Al  Al13  1  0.338375  0.003221  0.073898  1
  Al  Al14  1  0.335176  0.332783  0.554477  1
  Al  Al15  1  0.664838  0.666731  0.446181  1
  Al  Al16  1  0.664838  0.666731  0.053819  1
  Al  Al17  1  0.335176  0.332783  0.945523  1
  Al  Al18  1  0.341491  0.547882  0.250000  1
  Al  Al19  1  0.657975  0.451386  0.750000  1
  Al  Al20  1  0.548685  0.340266  0.250000  1
  Al  Al21  1  0.451091  0.659901  0.750000  1
  Ir  Ir22  1  0.675960  0.329517  0.999374  1
  Ir  Ir23  1  0.323852  0.670489  0.000221  1
  Ir  Ir24  1  0.323852  0.670489  0.499779  1
  Ir  Ir25  1  0.675960  0.329517  0.500626  1
  Ir  Ir26  1  0.000357  0.000078  0.999724  1
  Ir  Ir27  1  0.000357  0.000078  0.500276  1
