# generated using pymatgen
data_Y8GePtBr12
_symmetry_space_group_name_H-M   'P 1'
_cell_length_a   4.07775600
_cell_length_b   13.36613299
_cell_length_c   14.17396120
_cell_angle_alpha   90.19330738
_cell_angle_beta   90.00000000
_cell_angle_gamma   90.00000000
_symmetry_Int_Tables_number   1
_chemical_formula_structural   Y8GePtBr12
_chemical_formula_sum   'Y8 Ge1 Pt1 Br12'
_cell_volume   772.53076048
_cell_formula_units_Z   1
loop_
 _symmetry_equiv_pos_site_id
 _symmetry_equiv_pos_as_xyz
  1  'x, y, z'
loop_
 _atom_site_type_symbol
 _atom_site_label
 _atom_site_symmetry_multiplicity
 _atom_site_fract_x
 _atom_site_fract_y
 _atom_site_fract_z
 _atom_site_occupancy
  Y  Y0  1  0.500000  0.118423  0.341077  1
  Y  Y1  1  0.500000  0.881577  0.658923  1
  Y  Y2  1  0.500000  0.618983  0.159875  1
  Y  Y3  1  0.500000  0.381017  0.840125  1
  Y  Y4  1  0.000000  0.116959  0.578435  1
  Y  Y5  1  0.000000  0.883041  0.421565  1
  Y  Y6  1  0.000000  0.618716  0.921074  1
  Y  Y7  1  0.000000  0.381284  0.078926  1
  Ge  Ge8  1  0.500000  0.500000  0.000000  1
  Pt  Pt9  1  0.500000  0.000000  0.500000  1
  Br  Br10  1  0.500000  0.245203  0.161863  1
  Br  Br11  1  0.500000  0.754797  0.838137  1
  Br  Br12  1  0.500000  0.741876  0.335368  1
  Br  Br13  1  0.500000  0.258124  0.664632  1
  Br  Br14  1  0.000000  0.256613  0.409928  1
  Br  Br15  1  0.000000  0.743387  0.590072  1
  Br  Br16  1  0.000000  0.754321  0.088687  1
  Br  Br17  1  0.000000  0.245679  0.911313  1
  Br  Br18  1  0.000000  0.002956  0.241355  1
  Br  Br19  1  0.000000  0.997044  0.758645  1
  Br  Br20  1  0.000000  0.501911  0.255548  1
  Br  Br21  1  0.000000  0.498089  0.744452  1
