# generated using pymatgen
data_TbYAl8SiIr3
_symmetry_space_group_name_H-M   'P 1'
_cell_length_a   7.54753000
_cell_length_b   7.54753052
_cell_length_c   9.36808000
_cell_angle_alpha   90.00000000
_cell_angle_beta   90.00000000
_cell_angle_gamma   119.66216179
_symmetry_Int_Tables_number   1
_chemical_formula_structural   TbYAl8SiIr3
_chemical_formula_sum   'Tb2 Y2 Al16 Si2 Ir6'
_cell_volume   463.72377822
_cell_formula_units_Z   2
loop_
 _symmetry_equiv_pos_site_id
 _symmetry_equiv_pos_as_xyz
  1  'x, y, z'
loop_
 _atom_site_type_symbol
 _atom_site_label
 _atom_site_symmetry_multiplicity
 _atom_site_fract_x
 _atom_site_fract_y
 _atom_site_fract_z
 _atom_site_occupancy
  Tb  Tb0  1  0.994885  0.674496  0.250000  1
  Tb  Tb1  1  0.005115  0.325504  0.750000  1
  Y  Y2  1  0.674496  0.994885  0.250000  1
  Y  Y3  1  0.325504  0.005115  0.750000  1
  Al  Al4  1  0.001166  0.336209  0.076283  1
  Al  Al5  1  0.998834  0.663791  0.923717  1
  Al  Al6  1  0.998834  0.663791  0.576283  1
  Al  Al7  1  0.336209  0.001166  0.423717  1
  Al  Al8  1  0.001166  0.336209  0.423717  1
  Al  Al9  1  0.663791  0.998834  0.576283  1
  Al  Al10  1  0.663791  0.998834  0.923717  1
  Al  Al11  1  0.336209  0.001166  0.076283  1
  Al  Al12  1  0.335598  0.335598  0.556426  1
  Al  Al13  1  0.664402  0.664402  0.443574  1
  Al  Al14  1  0.664402  0.664402  0.056426  1
  Al  Al15  1  0.335598  0.335598  0.943574  1
  Al  Al16  1  0.335751  0.548234  0.250000  1
  Al  Al17  1  0.664249  0.451766  0.750000  1
  Al  Al18  1  0.548234  0.335751  0.250000  1
  Al  Al19  1  0.451766  0.664249  0.750000  1
  Si  Si20  1  0.128437  0.128437  0.250000  1
  Si  Si21  1  0.871563  0.871563  0.750000  1
  Ir  Ir22  1  0.671652  0.328348  0.000000  1
  Ir  Ir23  1  0.328348  0.671652  0.000000  1
  Ir  Ir24  1  0.328348  0.671652  0.500000  1
  Ir  Ir25  1  0.671652  0.328348  0.500000  1
  Ir  Ir26  1  0.000000  0.000000  0.000000  1
  Ir  Ir27  1  0.000000  0.000000  0.500000  1
