# generated using pymatgen
data_TbTm3(CuP2)4
_symmetry_space_group_name_H-M   'P 1'
_cell_length_a   3.69175000
_cell_length_b   3.73393809
_cell_length_c   19.37519995
_cell_angle_alpha   89.96168061
_cell_angle_beta   90.00000000
_cell_angle_gamma   90.00000000
_symmetry_Int_Tables_number   1
_chemical_formula_structural   TbTm3(CuP2)4
_chemical_formula_sum   'Tb1 Tm3 Cu4 P8'
_cell_volume   267.08253674
_cell_formula_units_Z   1
loop_
 _symmetry_equiv_pos_site_id
 _symmetry_equiv_pos_as_xyz
  1  'x, y, z'
loop_
 _atom_site_type_symbol
 _atom_site_label
 _atom_site_symmetry_multiplicity
 _atom_site_fract_x
 _atom_site_fract_y
 _atom_site_fract_z
 _atom_site_occupancy
  Tb  Tb0  1  0.250000  0.723164  0.383378  1
  Tm  Tm1  1  0.250000  0.776198  0.883024  1
  Tm  Tm2  1  0.750000  0.277441  0.618415  1
  Tm  Tm3  1  0.750000  0.223471  0.116058  1
  Cu  Cu4  1  0.250000  0.226448  0.248284  1
  Cu  Cu5  1  0.750000  0.773502  0.750550  1
  Cu  Cu6  1  0.250000  0.274480  0.750152  1
  Cu  Cu7  1  0.750000  0.725229  0.248898  1
  P  P8  1  0.750000  0.798937  0.503523  1
  P  P9  1  0.750000  0.702748  0.000777  1
  P  P10  1  0.250000  0.201373  0.501062  1
  P  P11  1  0.250000  0.297284  0.998476  1
  P  P12  1  0.250000  0.725123  0.169144  1
  P  P13  1  0.750000  0.224089  0.327242  1
  P  P14  1  0.750000  0.274567  0.830046  1
  P  P15  1  0.250000  0.775945  0.670968  1
