# generated using pymatgen
data_Dy7Lu3(In2Rh)4
_symmetry_space_group_name_H-M   'P 1'
_cell_length_a   3.62299000
_cell_length_b   7.99806685
_cell_length_c   18.20523973
_cell_angle_alpha   90.01910135
_cell_angle_beta   90.00000000
_cell_angle_gamma   90.00000000
_symmetry_Int_Tables_number   1
_chemical_formula_structural   Dy7Lu3(In2Rh)4
_chemical_formula_sum   'Dy7 Lu3 In8 Rh4'
_cell_volume   527.53167694
_cell_formula_units_Z   1
loop_
 _symmetry_equiv_pos_site_id
 _symmetry_equiv_pos_as_xyz
  1  'x, y, z'
loop_
 _atom_site_type_symbol
 _atom_site_label
 _atom_site_symmetry_multiplicity
 _atom_site_fract_x
 _atom_site_fract_y
 _atom_site_fract_z
 _atom_site_occupancy
  Dy  Dy0  1  0.000000  0.616769  0.087871  1
  Dy  Dy1  1  0.000000  0.244869  0.220865  1
  Dy  Dy2  1  0.000000  0.755796  0.779449  1
  Dy  Dy3  1  0.000000  0.255603  0.719948  1
  Dy  Dy4  1  0.000000  0.744269  0.280482  1
  Dy  Dy5  1  0.000000  0.999737  0.999587  1
  Dy  Dy6  1  0.000000  0.500090  0.500202  1
  Lu  Lu7  1  0.000000  0.116063  0.411089  1
  Lu  Lu8  1  0.000000  0.884045  0.589135  1
  Lu  Lu9  1  0.000000  0.383912  0.910321  1
  In  In10  1  0.500000  0.422648  0.350555  1
  In  In11  1  0.500000  0.577168  0.650306  1
  In  In12  1  0.500000  0.076773  0.849347  1
  In  In13  1  0.500000  0.925965  0.150848  1
  In  In14  1  0.500000  0.294028  0.066138  1
  In  In15  1  0.500000  0.703579  0.932352  1
  In  In16  1  0.500000  0.202308  0.565594  1
  In  In17  1  0.500000  0.797979  0.434615  1
  Rh  Rh18  1  0.500000  0.025349  0.306334  1
  Rh  Rh19  1  0.500000  0.974894  0.693751  1
  Rh  Rh20  1  0.500000  0.473984  0.805594  1
  Rh  Rh21  1  0.500000  0.524173  0.195618  1
