# generated using pymatgen
data_TbDyTh(GaPt)3
_symmetry_space_group_name_H-M   'P 1'
_cell_length_a   7.40060947
_cell_length_b   7.38660787
_cell_length_c   3.90219200
_cell_angle_alpha   90.00000000
_cell_angle_beta   90.00000000
_cell_angle_gamma   119.96759810
_symmetry_Int_Tables_number   1
_chemical_formula_structural   TbDyTh(GaPt)3
_chemical_formula_sum   'Tb1 Dy1 Th1 Ga3 Pt3'
_cell_volume   184.79639842
_cell_formula_units_Z   1
loop_
 _symmetry_equiv_pos_site_id
 _symmetry_equiv_pos_as_xyz
  1  'x, y, z'
loop_
 _atom_site_type_symbol
 _atom_site_label
 _atom_site_symmetry_multiplicity
 _atom_site_fract_x
 _atom_site_fract_y
 _atom_site_fract_z
 _atom_site_occupancy
  Tb  Tb0  1  0.407465  0.408254  0.500000  1
  Dy  Dy1  1  0.592721  0.000792  0.500000  1
  Th  Th2  1  0.000019  0.588083  0.500000  1
  Ga  Ga3  1  0.740223  0.751948  0.000000  1
  Ga  Ga4  1  0.259861  0.011456  0.000000  1
  Ga  Ga5  1  0.999765  0.239934  0.000000  1
  Pt  Pt6  1  0.670516  0.336476  0.000000  1
  Pt  Pt7  1  0.329769  0.666944  0.000000  1
  Pt  Pt8  1  0.999663  0.996111  0.500000  1
