# generated using pymatgen
data_Ti2InTc2C3
_symmetry_space_group_name_H-M   'P 1'
_cell_length_a   3.04984200
_cell_length_b   3.04984180
_cell_length_c   24.05067000
_cell_angle_alpha   90.00000000
_cell_angle_beta   90.00000000
_cell_angle_gamma   119.99998044
_symmetry_Int_Tables_number   1
_chemical_formula_structural   Ti2InTc2C3
_chemical_formula_sum   'Ti4 In2 Tc4 C6'
_cell_volume   193.73699110
_cell_formula_units_Z   2
loop_
 _symmetry_equiv_pos_site_id
 _symmetry_equiv_pos_as_xyz
  1  'x, y, z'
loop_
 _atom_site_type_symbol
 _atom_site_label
 _atom_site_symmetry_multiplicity
 _atom_site_fract_x
 _atom_site_fract_y
 _atom_site_fract_z
 _atom_site_occupancy
  Ti  Ti0  1  0.333333  0.666667  0.447984  1
  Ti  Ti1  1  0.666667  0.333333  0.552016  1
  Ti  Ti2  1  0.666667  0.333333  0.947984  1
  Ti  Ti3  1  0.333333  0.666667  0.052016  1
  In  In4  1  0.333333  0.666667  0.250000  1
  In  In5  1  0.666667  0.333333  0.750000  1
  Tc  Tc6  1  0.000000  0.000000  0.348783  1
  Tc  Tc7  1  0.000000  0.000000  0.651217  1
  Tc  Tc8  1  0.000000  0.000000  0.848783  1
  Tc  Tc9  1  0.000000  0.000000  0.151217  1
  C  C10  1  0.000000  0.000000  0.500000  1
  C  C11  1  0.000000  0.000000  0.000000  1
  C  C12  1  0.666667  0.333333  0.393935  1
  C  C13  1  0.333333  0.666667  0.606065  1
  C  C14  1  0.333333  0.666667  0.893935  1
  C  C15  1  0.666667  0.333333  0.106065  1
