# generated using pymatgen
data_CaLuTh2(Ga3Ir)6
_symmetry_space_group_name_H-M   'P 1'
_cell_length_a   7.64403011
_cell_length_b   7.64756669
_cell_length_c   9.51580100
_cell_angle_alpha   90.00000000
_cell_angle_beta   90.00000000
_cell_angle_gamma   119.62038222
_symmetry_Int_Tables_number   1
_chemical_formula_structural   CaLuTh2(Ga3Ir)6
_chemical_formula_sum   'Ca1 Lu1 Th2 Ga18 Ir6'
_cell_volume   483.58215416
_cell_formula_units_Z   1
loop_
 _symmetry_equiv_pos_site_id
 _symmetry_equiv_pos_as_xyz
  1  'x, y, z'
loop_
 _atom_site_type_symbol
 _atom_site_label
 _atom_site_symmetry_multiplicity
 _atom_site_fract_x
 _atom_site_fract_y
 _atom_site_fract_z
 _atom_site_occupancy
  Ca  Ca0  1  0.002474  0.329102  0.750000  1
  Lu  Lu1  1  0.327936  0.000612  0.750000  1
  Th  Th2  1  0.995845  0.670206  0.250000  1
  Th  Th3  1  0.671428  0.997057  0.250000  1
  Ga  Ga4  1  0.134863  0.135073  0.250000  1
  Ga  Ga5  1  0.874427  0.874713  0.750000  1
  Ga  Ga6  1  0.005880  0.335947  0.073498  1
  Ga  Ga7  1  0.003143  0.664766  0.912302  1
  Ga  Ga8  1  0.003143  0.664766  0.587698  1
  Ga  Ga9  1  0.335615  0.005271  0.425785  1
  Ga  Ga10  1  0.005880  0.335947  0.426502  1
  Ga  Ga11  1  0.664228  0.002781  0.587149  1
  Ga  Ga12  1  0.664228  0.002781  0.912851  1
  Ga  Ga13  1  0.335615  0.005271  0.074215  1
  Ga  Ga14  1  0.329250  0.328757  0.569336  1
  Ga  Ga15  1  0.662545  0.662845  0.445898  1
  Ga  Ga16  1  0.662545  0.662845  0.054102  1
  Ga  Ga17  1  0.329250  0.328757  0.930664  1
  Ga  Ga18  1  0.340699  0.543533  0.250000  1
  Ga  Ga19  1  0.656953  0.447292  0.750000  1
  Ga  Ga20  1  0.542463  0.340325  0.250000  1
  Ga  Ga21  1  0.449937  0.660596  0.750000  1
  Ir  Ir22  1  0.672072  0.329422  0.002257  1
  Ir  Ir23  1  0.330846  0.674974  0.001975  1
  Ir  Ir24  1  0.330846  0.674974  0.498025  1
  Ir  Ir25  1  0.672072  0.329422  0.497743  1
  Ir  Ir26  1  0.997910  0.995983  0.002545  1
  Ir  Ir27  1  0.997910  0.995983  0.497455  1
