# generated using pymatgen
data_Pr5TaPdO12
_symmetry_space_group_name_H-M   'P 1'
_cell_length_a   7.16652687
_cell_length_b   7.16652622
_cell_length_c   7.73019701
_cell_angle_alpha   74.33630605
_cell_angle_beta   74.33630612
_cell_angle_gamma   50.31789748
_symmetry_Int_Tables_number   1
_chemical_formula_structural   Pr5TaPdO12
_chemical_formula_sum   'Pr5 Ta1 Pd1 O12'
_cell_volume   291.63350956
_cell_formula_units_Z   1
loop_
 _symmetry_equiv_pos_site_id
 _symmetry_equiv_pos_as_xyz
  1  'x, y, z'
loop_
 _atom_site_type_symbol
 _atom_site_label
 _atom_site_symmetry_multiplicity
 _atom_site_fract_x
 _atom_site_fract_y
 _atom_site_fract_z
 _atom_site_occupancy
  Pr  Pr0  1  0.312623  0.295007  0.358385  1
  Pr  Pr1  1  0.704993  0.687377  0.641615  1
  Pr  Pr2  1  0.700966  0.687211  0.165572  1
  Pr  Pr3  1  0.312789  0.299034  0.834428  1
  Pr  Pr4  1  0.998517  0.001483  0.500000  1
  Ta  Ta5  1  0.221488  0.778512  0.000000  1
  Pd  Pd6  1  0.745165  0.254835  0.000000  1
  O  O7  1  0.101196  0.594882  0.575215  1
  O  O8  1  0.999381  0.999784  0.182832  1
  O  O9  1  0.405118  0.898804  0.424785  1
  O  O10  1  0.494089  0.506897  0.173715  1
  O  O11  1  0.104201  0.579670  0.079392  1
  O  O12  1  0.909661  0.401554  0.422378  1
  O  O13  1  0.000216  0.000619  0.817168  1
  O  O14  1  0.598446  0.090338  0.577622  1
  O  O15  1  0.493103  0.505911  0.826285  1
  O  O16  1  0.574458  0.096739  0.081690  1
  O  O17  1  0.420330  0.895799  0.920608  1
  O  O18  1  0.903261  0.425542  0.918310  1
