# generated using pymatgen
data_Sc4Cu2B4Ir3Rh7
_symmetry_space_group_name_H-M   'P 1'
_cell_length_a   9.35991835
_cell_length_b   3.04585200
_cell_length_c   9.36726835
_cell_angle_alpha   90.00000000
_cell_angle_beta   90.03115793
_cell_angle_gamma   90.00000000
_symmetry_Int_Tables_number   1
_chemical_formula_structural   Sc4Cu2B4Ir3Rh7
_chemical_formula_sum   'Sc4 Cu2 B4 Ir3 Rh7'
_cell_volume   267.05072075
_cell_formula_units_Z   1
loop_
 _symmetry_equiv_pos_site_id
 _symmetry_equiv_pos_as_xyz
  1  'x, y, z'
loop_
 _atom_site_type_symbol
 _atom_site_label
 _atom_site_symmetry_multiplicity
 _atom_site_fract_x
 _atom_site_fract_y
 _atom_site_fract_z
 _atom_site_occupancy
  Sc  Sc0  1  0.677040  0.000000  0.177115  1
  Sc  Sc1  1  0.177215  0.000000  0.323113  1
  Sc  Sc2  1  0.822719  0.000000  0.677355  1
  Sc  Sc3  1  0.322716  0.000000  0.822837  1
  Cu  Cu4  1  0.999862  0.000000  0.999883  1
  Cu  Cu5  1  0.500001  0.000000  0.500139  1
  B  B6  1  0.372403  0.000000  0.126353  1
  B  B7  1  0.873232  0.000000  0.373531  1
  B  B8  1  0.126488  0.000000  0.626647  1
  B  B9  1  0.626590  0.000000  0.873527  1
  Ir  Ir10  1  0.501010  0.499999  0.999627  1
  Ir  Ir11  1  0.215476  0.499999  0.069753  1
  Ir  Ir12  1  0.999802  0.499999  0.500276  1
  Rh  Rh13  1  0.930392  0.499999  0.216462  1
  Rh  Rh14  1  0.430344  0.499999  0.284339  1
  Rh  Rh15  1  0.716104  0.499999  0.429499  1
  Rh  Rh16  1  0.283706  0.499999  0.570142  1
  Rh  Rh17  1  0.570328  0.499999  0.715865  1
  Rh  Rh18  1  0.070475  0.499999  0.783700  1
  Rh  Rh19  1  0.784101  0.499999  0.929842  1
