# generated using pymatgen
data_Ho2Tm8Cd3Ni
_symmetry_space_group_name_H-M   'P 1'
_cell_length_a   9.49759710
_cell_length_b   9.49759887
_cell_length_c   9.62643400
_cell_angle_alpha   90.00000000
_cell_angle_beta   90.00000000
_cell_angle_gamma   119.98361304
_symmetry_Int_Tables_number   1
_chemical_formula_structural   Ho2Tm8Cd3Ni
_chemical_formula_sum   'Ho4 Tm16 Cd6 Ni2'
_cell_volume   752.13417851
_cell_formula_units_Z   2
loop_
 _symmetry_equiv_pos_site_id
 _symmetry_equiv_pos_as_xyz
  1  'x, y, z'
loop_
 _atom_site_type_symbol
 _atom_site_label
 _atom_site_symmetry_multiplicity
 _atom_site_fract_x
 _atom_site_fract_y
 _atom_site_fract_z
 _atom_site_occupancy
  Ho  Ho0  1  0.542787  0.457213  0.250000  1
  Ho  Ho1  1  0.542848  0.085675  0.250000  1
  Ho  Ho2  1  0.914325  0.457152  0.250000  1
  Ho  Ho3  1  0.456762  0.543238  0.750000  1
  Tm  Tm4  1  0.999957  0.000043  0.499777  1
  Tm  Tm5  1  0.999957  0.000043  0.000223  1
  Tm  Tm6  1  0.456779  0.914081  0.750000  1
  Tm  Tm7  1  0.085919  0.543221  0.750000  1
  Tm  Tm8  1  0.211193  0.788807  0.438855  1
  Tm  Tm9  1  0.211013  0.422409  0.438563  1
  Tm  Tm10  1  0.577591  0.788987  0.438563  1
  Tm  Tm11  1  0.788947  0.211053  0.562129  1
  Tm  Tm12  1  0.789388  0.577846  0.561983  1
  Tm  Tm13  1  0.422154  0.210612  0.561983  1
  Tm  Tm14  1  0.788947  0.211053  0.937871  1
  Tm  Tm15  1  0.789388  0.577846  0.938017  1
  Tm  Tm16  1  0.422154  0.210612  0.938017  1
  Tm  Tm17  1  0.211193  0.788807  0.061145  1
  Tm  Tm18  1  0.211013  0.422409  0.061437  1
  Tm  Tm19  1  0.577591  0.788987  0.061437  1
  Cd  Cd20  1  0.885567  0.114433  0.250000  1
  Cd  Cd21  1  0.885765  0.771383  0.250000  1
  Cd  Cd22  1  0.228617  0.114235  0.250000  1
  Cd  Cd23  1  0.114920  0.885080  0.750000  1
  Cd  Cd24  1  0.114425  0.229379  0.750000  1
  Cd  Cd25  1  0.770621  0.885575  0.750000  1
  Ni  Ni26  1  0.333387  0.666613  0.250000  1
  Ni  Ni27  1  0.666792  0.333208  0.750000  1
