# generated using pymatgen
data_LaSm(Sn2Rh)2
_symmetry_space_group_name_H-M   'P 1'
_cell_length_a   8.84871731
_cell_length_b   8.84871713
_cell_length_c   9.71567600
_cell_angle_alpha   90.00000000
_cell_angle_beta   90.00000000
_cell_angle_gamma   149.42468038
_symmetry_Int_Tables_number   1
_chemical_formula_structural   LaSm(Sn2Rh)2
_chemical_formula_sum   'La2 Sm2 Sn8 Rh4'
_cell_volume   386.96375980
_cell_formula_units_Z   2
loop_
 _symmetry_equiv_pos_site_id
 _symmetry_equiv_pos_as_xyz
  1  'x, y, z'
loop_
 _atom_site_type_symbol
 _atom_site_label
 _atom_site_symmetry_multiplicity
 _atom_site_fract_x
 _atom_site_fract_y
 _atom_site_fract_z
 _atom_site_occupancy
  La  La0  1  0.500000  0.500000  0.500000  1
  La  La1  1  0.500000  0.500000  0.000000  1
  Sm  Sm2  1  0.296501  0.703499  0.250000  1
  Sm  Sm3  1  0.703499  0.296501  0.750000  1
  Sn  Sn4  1  0.907922  0.092078  0.750000  1
  Sn  Sn5  1  0.924477  0.075523  0.250000  1
  Sn  Sn6  1  0.092078  0.907922  0.250000  1
  Sn  Sn7  1  0.075523  0.924477  0.750000  1
  Sn  Sn8  1  0.698265  0.301735  0.410112  1
  Sn  Sn9  1  0.301735  0.698265  0.589888  1
  Sn  Sn10  1  0.301735  0.698265  0.910112  1
  Sn  Sn11  1  0.698265  0.301735  0.089888  1
  Rh  Rh12  1  0.147380  0.852620  0.505252  1
  Rh  Rh13  1  0.852620  0.147380  0.005252  1
  Rh  Rh14  1  0.147380  0.852620  0.994748  1
  Rh  Rh15  1  0.852620  0.147380  0.494748  1
