# generated using pymatgen
data_Sc8Ta3Nb8Si16Ru
_symmetry_space_group_name_H-M   'P 1'
_cell_length_a   6.66698428
_cell_length_b   6.91034482
_cell_length_c   13.11075100
_cell_angle_alpha   90.00000000
_cell_angle_beta   90.00000000
_cell_angle_gamma   90.18220164
_symmetry_Int_Tables_number   1
_chemical_formula_structural   Sc8Ta3Nb8Si16Ru
_chemical_formula_sum   'Sc8 Ta3 Nb8 Si16 Ru1'
_cell_volume   604.02445731
_cell_formula_units_Z   1
loop_
 _symmetry_equiv_pos_site_id
 _symmetry_equiv_pos_as_xyz
  1  'x, y, z'
loop_
 _atom_site_type_symbol
 _atom_site_label
 _atom_site_symmetry_multiplicity
 _atom_site_fract_x
 _atom_site_fract_y
 _atom_site_fract_z
 _atom_site_occupancy
  Sc  Sc0  1  0.496383  0.675632  0.593539  1
  Sc  Sc1  1  0.001436  0.827405  0.906566  1
  Sc  Sc2  1  0.499651  0.326049  0.094958  1
  Sc  Sc3  1  0.998849  0.174353  0.404280  1
  Sc  Sc4  1  0.499651  0.326049  0.405042  1
  Sc  Sc5  1  0.998849  0.174353  0.095720  1
  Sc  Sc6  1  0.496383  0.675632  0.906461  1
  Sc  Sc7  1  0.001436  0.827405  0.593434  1
  Ta  Ta8  1  0.338309  0.002719  0.750000  1
  Ta  Ta9  1  0.163108  0.507148  0.250000  1
  Ta  Ta10  1  0.662308  0.994105  0.250000  1
  Nb  Nb11  1  0.666287  0.169550  0.626659  1
  Nb  Nb12  1  0.164658  0.326200  0.873127  1
  Nb  Nb13  1  0.336182  0.825634  0.124505  1
  Nb  Nb14  1  0.836807  0.672577  0.376860  1
  Nb  Nb15  1  0.336182  0.825634  0.375495  1
  Nb  Nb16  1  0.836807  0.672577  0.123140  1
  Nb  Nb17  1  0.666287  0.169550  0.873341  1
  Nb  Nb18  1  0.164658  0.326200  0.626873  1
  Si  Si19  1  0.669960  0.967055  0.460070  1
  Si  Si20  1  0.169460  0.532720  0.038482  1
  Si  Si21  1  0.331664  0.033974  0.959902  1
  Si  Si22  1  0.830577  0.466021  0.543766  1
  Si  Si23  1  0.331664  0.033974  0.540098  1
  Si  Si24  1  0.830577  0.466021  0.956234  1
  Si  Si25  1  0.669960  0.967055  0.039930  1
  Si  Si26  1  0.169460  0.532720  0.461518  1
  Si  Si27  1  0.471680  0.391196  0.750000  1
  Si  Si28  1  0.960125  0.108989  0.750000  1
  Si  Si29  1  0.540735  0.613935  0.250000  1
  Si  Si30  1  0.038379  0.887197  0.250000  1
  Si  Si31  1  0.706665  0.852590  0.750000  1
  Si  Si32  1  0.194426  0.635976  0.750000  1
  Si  Si33  1  0.294950  0.138903  0.250000  1
  Si  Si34  1  0.794568  0.362092  0.250000  1
  Ru  Ru35  1  0.830919  0.510811  0.750000  1
