# generated using pymatgen
data_Lu4InPd5Pt6
_symmetry_space_group_name_H-M   'P 1'
_cell_length_a   4.11887100
_cell_length_b   5.71594352
_cell_length_c   11.40363400
_cell_angle_alpha   87.18292416
_cell_angle_beta   90.00000000
_cell_angle_gamma   90.00000000
_symmetry_Int_Tables_number   1
_chemical_formula_structural   Lu4InPd5Pt6
_chemical_formula_sum   'Lu4 In1 Pd5 Pt6'
_cell_volume   268.15397685
_cell_formula_units_Z   1
loop_
 _symmetry_equiv_pos_site_id
 _symmetry_equiv_pos_as_xyz
  1  'x, y, z'
loop_
 _atom_site_type_symbol
 _atom_site_label
 _atom_site_symmetry_multiplicity
 _atom_site_fract_x
 _atom_site_fract_y
 _atom_site_fract_z
 _atom_site_occupancy
  Lu  Lu0  1  0.500000  0.756876  0.375793  1
  Lu  Lu1  1  0.500000  0.714045  0.861031  1
  Lu  Lu2  1  0.500000  0.285539  0.139722  1
  Lu  Lu3  1  0.500000  0.243401  0.624169  1
  In  In4  1  0.000000  0.000147  0.999855  1
  Pd  Pd5  1  0.000000  0.500593  0.499894  1
  Pd  Pd6  1  0.500000  0.256027  0.377989  1
  Pd  Pd7  1  0.500000  0.223708  0.881856  1
  Pd  Pd8  1  0.500000  0.776024  0.117933  1
  Pd  Pd9  1  0.000000  0.999669  0.499853  1
  Pt  Pt10  1  0.000000  0.016269  0.250421  1
  Pt  Pt11  1  0.000000  0.983426  0.749529  1
  Pt  Pt12  1  0.000000  0.499701  0.000153  1
  Pt  Pt13  1  0.000000  0.520743  0.250503  1
  Pt  Pt14  1  0.000000  0.479521  0.749534  1
  Pt  Pt15  1  0.500000  0.744312  0.621764  1
