# generated using pymatgen
data_K2Rb2Si2Au7
_symmetry_space_group_name_H-M   'P 1'
_cell_length_a   10.02010833
_cell_length_b   10.02010796
_cell_length_c   10.02010838
_cell_angle_alpha   38.45082754
_cell_angle_beta   38.45082955
_cell_angle_gamma   38.45082611
_symmetry_Int_Tables_number   1
_chemical_formula_structural   K2Rb2Si2Au7
_chemical_formula_sum   'K2 Rb2 Si2 Au7'
_cell_volume   349.49810042
_cell_formula_units_Z   1
loop_
 _symmetry_equiv_pos_site_id
 _symmetry_equiv_pos_as_xyz
  1  'x, y, z'
loop_
 _atom_site_type_symbol
 _atom_site_label
 _atom_site_symmetry_multiplicity
 _atom_site_fract_x
 _atom_site_fract_y
 _atom_site_fract_z
 _atom_site_occupancy
  K  K0  1  0.808992  0.808992  0.808992  1
  K  K1  1  0.191008  0.191008  0.191008  1
  Rb  Rb2  1  0.683094  0.683094  0.683094  1
  Rb  Rb3  1  0.316906  0.316906  0.316906  1
  Si  Si4  1  0.543956  0.543956  0.543956  1
  Si  Si5  1  0.456044  0.456044  0.456044  1
  Au  Au6  1  0.000000  0.000000  0.000000  1
  Au  Au7  1  0.228937  0.228937  0.799110  1
  Au  Au8  1  0.799110  0.228937  0.228937  1
  Au  Au9  1  0.228937  0.799110  0.228937  1
  Au  Au10  1  0.771063  0.200890  0.771063  1
  Au  Au11  1  0.771063  0.771063  0.200890  1
  Au  Au12  1  0.200890  0.771063  0.771063  1
