# generated using pymatgen
data_Tb7DyC10
_symmetry_space_group_name_H-M   'P 1'
_cell_length_a   3.69895400
_cell_length_b   6.62886203
_cell_length_c   12.02593415
_cell_angle_alpha   88.77789045
_cell_angle_beta   90.00000000
_cell_angle_gamma   90.00000000
_symmetry_Int_Tables_number   1
_chemical_formula_structural   Tb7DyC10
_chemical_formula_sum   'Tb7 Dy1 C10'
_cell_volume   294.80709468
_cell_formula_units_Z   1
loop_
 _symmetry_equiv_pos_site_id
 _symmetry_equiv_pos_as_xyz
  1  'x, y, z'
loop_
 _atom_site_type_symbol
 _atom_site_label
 _atom_site_symmetry_multiplicity
 _atom_site_fract_x
 _atom_site_fract_y
 _atom_site_fract_z
 _atom_site_occupancy
  Tb  Tb0  1  0.000000  0.254479  0.543670  1
  Tb  Tb1  1  0.000000  0.743256  0.456538  1
  Tb  Tb2  1  0.000000  0.755972  0.958033  1
  Tb  Tb3  1  0.000000  0.245347  0.041947  1
  Tb  Tb4  1  0.500000  0.895180  0.197260  1
  Tb  Tb5  1  0.500000  0.610577  0.696059  1
  Tb  Tb6  1  0.500000  0.389327  0.303685  1
  Dy  Dy7  1  0.500000  0.104568  0.803446  1
  C  C8  1  0.500000  0.498581  0.499797  1
  C  C9  1  0.500000  0.001406  0.999539  1
  C  C10  1  0.000000  0.356375  0.738984  1
  C  C11  1  0.000000  0.641898  0.261622  1
  C  C12  1  0.000000  0.866086  0.764499  1
  C  C13  1  0.000000  0.135987  0.235522  1
  C  C14  1  0.000000  0.424199  0.842082  1
  C  C15  1  0.000000  0.578862  0.157577  1
  C  C16  1  0.000000  0.108283  0.345832  1
  C  C17  1  0.000000  0.889617  0.653905  1
