# generated using pymatgen
data_Tb3Ga2SnRu2
_symmetry_space_group_name_H-M   'P 1'
_cell_length_a   5.82534504
_cell_length_b   5.82534537
_cell_length_c   14.78803500
_cell_angle_alpha   90.00000000
_cell_angle_beta   90.00000000
_cell_angle_gamma   136.09349244
_symmetry_Int_Tables_number   1
_chemical_formula_structural   Tb3Ga2SnRu2
_chemical_formula_sum   'Tb6 Ga4 Sn2 Ru4'
_cell_volume   348.00864832
_cell_formula_units_Z   2
loop_
 _symmetry_equiv_pos_site_id
 _symmetry_equiv_pos_as_xyz
  1  'x, y, z'
loop_
 _atom_site_type_symbol
 _atom_site_label
 _atom_site_symmetry_multiplicity
 _atom_site_fract_x
 _atom_site_fract_y
 _atom_site_fract_z
 _atom_site_occupancy
  Tb  Tb0  1  0.911539  0.088461  0.396748  1
  Tb  Tb1  1  0.088461  0.911539  0.603252  1
  Tb  Tb2  1  0.911539  0.088461  0.103252  1
  Tb  Tb3  1  0.088461  0.911539  0.896748  1
  Tb  Tb4  1  0.625416  0.374584  0.250000  1
  Tb  Tb5  1  0.374584  0.625416  0.750000  1
  Ga  Ga6  1  0.615698  0.384302  0.456344  1
  Ga  Ga7  1  0.384302  0.615698  0.543656  1
  Ga  Ga8  1  0.615698  0.384302  0.043656  1
  Ga  Ga9  1  0.384302  0.615698  0.956344  1
  Sn  Sn10  1  0.331339  0.668661  0.250000  1
  Sn  Sn11  1  0.668661  0.331339  0.750000  1
  Ru  Ru12  1  0.783598  0.216402  0.917212  1
  Ru  Ru13  1  0.216402  0.783598  0.082788  1
  Ru  Ru14  1  0.783598  0.216402  0.582788  1
  Ru  Ru15  1  0.216402  0.783598  0.417212  1
