# generated using pymatgen
data_Pr16Nd4Pt3Rh13
_symmetry_space_group_name_H-M   'P 1'
_cell_length_a   7.65181361
_cell_length_b   7.77935076
_cell_length_c   15.16740470
_cell_angle_alpha   89.89367234
_cell_angle_beta   89.90562778
_cell_angle_gamma   89.97439815
_symmetry_Int_Tables_number   1
_chemical_formula_structural   Pr16Nd4Pt3Rh13
_chemical_formula_sum   'Pr16 Nd4 Pt3 Rh13'
_cell_volume   902.85421795
_cell_formula_units_Z   1
loop_
 _symmetry_equiv_pos_site_id
 _symmetry_equiv_pos_as_xyz
  1  'x, y, z'
loop_
 _atom_site_type_symbol
 _atom_site_label
 _atom_site_symmetry_multiplicity
 _atom_site_fract_x
 _atom_site_fract_y
 _atom_site_fract_z
 _atom_site_occupancy
  Pr  Pr0  1  0.662333  0.171869  0.624741  1
  Pr  Pr1  1  0.159088  0.332676  0.873546  1
  Pr  Pr2  1  0.341043  0.833274  0.126039  1
  Pr  Pr3  1  0.839492  0.662042  0.376802  1
  Pr  Pr4  1  0.332378  0.830517  0.377468  1
  Pr  Pr5  1  0.834403  0.670131  0.123118  1
  Pr  Pr6  1  0.666021  0.170416  0.877307  1
  Pr  Pr7  1  0.162031  0.331924  0.621442  1
  Pr  Pr8  1  0.515012  0.681943  0.594423  1
  Pr  Pr9  1  0.011680  0.817062  0.902656  1
  Pr  Pr10  1  0.489794  0.316890  0.096603  1
  Pr  Pr11  1  0.986947  0.183449  0.405525  1
  Pr  Pr12  1  0.482774  0.318220  0.407288  1
  Pr  Pr13  1  0.984038  0.180997  0.093687  1
  Pr  Pr14  1  0.516008  0.681059  0.905309  1
  Pr  Pr15  1  0.015794  0.816952  0.593226  1
  Nd  Nd16  1  0.823327  0.514629  0.748482  1
  Nd  Nd17  1  0.325183  0.987444  0.748726  1
  Nd  Nd18  1  0.176802  0.486120  0.249304  1
  Nd  Nd19  1  0.677902  0.012006  0.251591  1
  Pt  Pt20  1  0.672824  0.967537  0.458827  1
  Pt  Pt21  1  0.173529  0.530214  0.041509  1
  Pt  Pt22  1  0.325818  0.030208  0.958056  1
  Rh  Rh23  1  0.824573  0.470731  0.542989  1
  Rh  Rh24  1  0.325419  0.028310  0.542852  1
  Rh  Rh25  1  0.826402  0.472753  0.957471  1
  Rh  Rh26  1  0.673255  0.973308  0.043522  1
  Rh  Rh27  1  0.172706  0.527555  0.456009  1
  Rh  Rh28  1  0.457052  0.401338  0.750954  1
  Rh  Rh29  1  0.958272  0.097871  0.749464  1
  Rh  Rh30  1  0.542392  0.598333  0.251126  1
  Rh  Rh31  1  0.042654  0.901430  0.249339  1
  Rh  Rh32  1  0.698723  0.854786  0.750548  1
  Rh  Rh33  1  0.199646  0.646661  0.749418  1
  Rh  Rh34  1  0.302885  0.146308  0.250699  1
  Rh  Rh35  1  0.801801  0.353034  0.249936  1
