# generated using pymatgen
data_Sr2Zr6BCl17
_symmetry_space_group_name_H-M   'P 1'
_cell_length_a   9.76763035
_cell_length_b   9.76763076
_cell_length_c   9.76763088
_cell_angle_alpha   104.89877030
_cell_angle_beta   104.89877725
_cell_angle_gamma   119.06331437
_symmetry_Int_Tables_number   1
_chemical_formula_structural   Sr2Zr6BCl17
_chemical_formula_sum   'Sr2 Zr6 B1 Cl17'
_cell_volume   702.07290538
_cell_formula_units_Z   1
loop_
 _symmetry_equiv_pos_site_id
 _symmetry_equiv_pos_as_xyz
  1  'x, y, z'
loop_
 _atom_site_type_symbol
 _atom_site_label
 _atom_site_symmetry_multiplicity
 _atom_site_fract_x
 _atom_site_fract_y
 _atom_site_fract_z
 _atom_site_occupancy
  Sr  Sr0  1  0.250000  0.750000  0.500000  1
  Sr  Sr1  1  0.750000  0.250000  0.500000  1
  Zr  Zr2  1  0.234750  0.234750  0.000000  1
  Zr  Zr3  1  0.765250  0.765250  0.000000  1
  Zr  Zr4  1  0.187366  0.049077  0.236445  1
  Zr  Zr5  1  0.950923  0.187366  0.138289  1
  Zr  Zr6  1  0.812634  0.950923  0.763555  1
  Zr  Zr7  1  0.049077  0.812634  0.861711  1
  B  B8  1  0.000000  0.000000  0.000000  1
  Cl  Cl9  1  0.846677  0.737843  0.584520  1
  Cl  Cl10  1  0.262157  0.846677  0.108834  1
  Cl  Cl11  1  0.106870  0.592323  0.699192  1
  Cl  Cl12  1  0.531500  0.692260  0.737876  1
  Cl  Cl13  1  0.893130  0.407677  0.300808  1
  Cl  Cl14  1  0.468500  0.307740  0.262124  1
  Cl  Cl15  1  0.793624  0.531500  0.839241  1
  Cl  Cl16  1  0.407677  0.106870  0.514547  1
  Cl  Cl17  1  0.592323  0.893130  0.485453  1
  Cl  Cl18  1  0.153323  0.262157  0.415480  1
  Cl  Cl19  1  0.307740  0.045617  0.839241  1
  Cl  Cl20  1  0.954383  0.793624  0.262124  1
  Cl  Cl21  1  0.737843  0.153323  0.891166  1
  Cl  Cl22  1  0.500000  0.500000  0.000000  1
  Cl  Cl23  1  0.206376  0.468500  0.160759  1
  Cl  Cl24  1  0.045617  0.206376  0.737876  1
  Cl  Cl25  1  0.692260  0.954383  0.160759  1
