# generated using pymatgen
data_RbBaB5O9
_symmetry_space_group_name_H-M   'P 1'
_cell_length_a   8.50327600
_cell_length_b   6.79400922
_cell_length_c   14.50371100
_cell_angle_alpha   87.00511731
_cell_angle_beta   90.00000000
_cell_angle_gamma   90.00000000
_symmetry_Int_Tables_number   1
_chemical_formula_structural   RbBaB5O9
_chemical_formula_sum   'Rb4 Ba4 B20 O36'
_cell_volume   836.75435736
_cell_formula_units_Z   4
loop_
 _symmetry_equiv_pos_site_id
 _symmetry_equiv_pos_as_xyz
  1  'x, y, z'
loop_
 _atom_site_type_symbol
 _atom_site_label
 _atom_site_symmetry_multiplicity
 _atom_site_fract_x
 _atom_site_fract_y
 _atom_site_fract_z
 _atom_site_occupancy
  Rb  Rb0  1  0.849974  0.510851  0.597154  1
  Rb  Rb1  1  0.349974  0.489149  0.902846  1
  Rb  Rb2  1  0.150026  0.489149  0.402846  1
  Rb  Rb3  1  0.650026  0.510851  0.097154  1
  Ba  Ba4  1  0.531307  0.072837  0.728278  1
  Ba  Ba5  1  0.468693  0.927163  0.271722  1
  Ba  Ba6  1  0.031307  0.927163  0.771722  1
  Ba  Ba7  1  0.968693  0.072837  0.228278  1
  B  B8  1  0.722974  0.201991  0.396336  1
  B  B9  1  0.193288  0.158187  0.574798  1
  B  B10  1  0.693288  0.841813  0.925202  1
  B  B11  1  0.696863  0.059682  0.054838  1
  B  B12  1  0.777026  0.201991  0.896336  1
  B  B13  1  0.018708  0.601435  0.192090  1
  B  B14  1  0.196863  0.940318  0.445162  1
  B  B15  1  0.981292  0.398565  0.807910  1
  B  B16  1  0.790659  0.536935  0.320041  1
  B  B17  1  0.806712  0.841813  0.425202  1
  B  B18  1  0.303137  0.940318  0.945162  1
  B  B19  1  0.222974  0.798009  0.103664  1
  B  B20  1  0.277026  0.798009  0.603664  1
  B  B21  1  0.518708  0.398565  0.307910  1
  B  B22  1  0.803137  0.059682  0.554838  1
  B  B23  1  0.481292  0.601435  0.692090  1
  B  B24  1  0.709341  0.536935  0.820041  1
  B  B25  1  0.290659  0.463065  0.179959  1
  B  B26  1  0.209341  0.463065  0.679959  1
  B  B27  1  0.306712  0.158187  0.074798  1
  O  O28  1  0.157111  0.120490  0.484475  1
  O  O29  1  0.557270  0.244387  0.369356  1
  O  O30  1  0.881985  0.559022  0.794260  1
  O  O31  1  0.252500  0.008239  0.134503  1
  O  O32  1  0.747500  0.991761  0.865497  1
  O  O33  1  0.326623  0.347217  0.099149  1
  O  O34  1  0.842889  0.879510  0.515525  1
  O  O35  1  0.820909  0.079651  0.645694  1
  O  O36  1  0.170216  0.668360  0.658050  1
  O  O37  1  0.057270  0.755613  0.130644  1
  O  O38  1  0.240631  0.792402  0.004125  1
  O  O39  1  0.173377  0.347217  0.599149  1
  O  O40  1  0.942730  0.244387  0.869356  1
  O  O41  1  0.247500  0.008239  0.634503  1
  O  O42  1  0.378684  0.379511  0.261889  1
  O  O43  1  0.829784  0.331640  0.341950  1
  O  O44  1  0.752500  0.991761  0.365497  1
  O  O45  1  0.826623  0.652783  0.400851  1
  O  O46  1  0.179091  0.920349  0.354306  1
  O  O47  1  0.740631  0.207598  0.495875  1
  O  O48  1  0.618015  0.559022  0.294260  1
  O  O49  1  0.381985  0.440978  0.705740  1
  O  O50  1  0.878684  0.620489  0.238111  1
  O  O51  1  0.679091  0.079651  0.145694  1
  O  O52  1  0.329784  0.668360  0.158050  1
  O  O53  1  0.759369  0.207598  0.995875  1
  O  O54  1  0.621316  0.620489  0.738111  1
  O  O55  1  0.342889  0.120490  0.984475  1
  O  O56  1  0.442730  0.755613  0.630644  1
  O  O57  1  0.259369  0.792402  0.504125  1
  O  O58  1  0.657111  0.879510  0.015525  1
  O  O59  1  0.673377  0.652783  0.900851  1
  O  O60  1  0.121316  0.379511  0.761889  1
  O  O61  1  0.670216  0.331640  0.841950  1
  O  O62  1  0.320909  0.920349  0.854306  1
  O  O63  1  0.118015  0.440978  0.205740  1
