# generated using pymatgen
data_CaPaAl16Pt9
_symmetry_space_group_name_H-M   'P 1'
_cell_length_a   11.13713961
_cell_length_b   11.13714010
_cell_length_c   11.13714100
_cell_angle_alpha   158.66219346
_cell_angle_beta   114.71257207
_cell_angle_gamma   69.54217961
_symmetry_Int_Tables_number   1
_chemical_formula_structural   CaPaAl16Pt9
_chemical_formula_sum   'Ca1 Pa1 Al16 Pt9'
_cell_volume   453.27480151
_cell_formula_units_Z   1
loop_
 _symmetry_equiv_pos_site_id
 _symmetry_equiv_pos_as_xyz
  1  'x, y, z'
loop_
 _atom_site_type_symbol
 _atom_site_label
 _atom_site_symmetry_multiplicity
 _atom_site_fract_x
 _atom_site_fract_y
 _atom_site_fract_z
 _atom_site_occupancy
  Ca  Ca0  1  0.227602  0.227602  0.000000  1
  Pa  Pa1  1  0.774014  0.774014  0.000000  1
  Al  Al2  1  0.269108  0.389705  0.879402  1
  Al  Al3  1  0.093236  0.920707  0.172528  1
  Al  Al4  1  0.510092  0.203480  0.306612  1
  Al  Al5  1  0.250205  0.079130  0.171074  1
  Al  Al6  1  0.914912  0.414912  0.500000  1
  Al  Al7  1  0.726659  0.608813  0.117847  1
  Al  Al8  1  0.896867  0.203480  0.693388  1
  Al  Al9  1  0.487336  0.795467  0.691868  1
  Al  Al10  1  0.387381  0.000124  0.387257  1
  Al  Al11  1  0.612867  0.000124  0.612743  1
  Al  Al12  1  0.490966  0.608813  0.882153  1
  Al  Al13  1  0.103600  0.795467  0.308132  1
  Al  Al14  1  0.908057  0.079130  0.828926  1
  Al  Al15  1  0.748179  0.920707  0.827472  1
  Al  Al16  1  0.510303  0.389705  0.120598  1
  Al  Al17  1  0.088452  0.588452  0.500000  1
  Pt  Pt18  1  0.745975  0.499354  0.246621  1
  Pt  Pt19  1  0.017826  0.338641  0.679185  1
  Pt  Pt20  1  0.629764  0.129764  0.500000  1
  Pt  Pt21  1  0.252733  0.499354  0.753379  1
  Pt  Pt22  1  0.375310  0.875310  0.500000  1
  Pt  Pt23  1  0.999611  0.999611  0.000000  1
  Pt  Pt24  1  0.659456  0.338641  0.320815  1
  Pt  Pt25  1  0.346853  0.659746  0.687107  1
  Pt  Pt26  1  0.972640  0.659746  0.312893  1
