# generated using pymatgen
data_DyYSn(PRh2)6
_symmetry_space_group_name_H-M   'P 1'
_cell_length_a   9.78059500
_cell_length_b   9.78059461
_cell_length_c   3.87784500
_cell_angle_alpha   90.00000000
_cell_angle_beta   90.00000000
_cell_angle_gamma   120.00000469
_symmetry_Int_Tables_number   1
_chemical_formula_structural   DyYSn(PRh2)6
_chemical_formula_sum   'Dy1 Y1 Sn1 P6 Rh12'
_cell_volume   321.25625452
_cell_formula_units_Z   1
loop_
 _symmetry_equiv_pos_site_id
 _symmetry_equiv_pos_as_xyz
  1  'x, y, z'
loop_
 _atom_site_type_symbol
 _atom_site_label
 _atom_site_symmetry_multiplicity
 _atom_site_fract_x
 _atom_site_fract_y
 _atom_site_fract_z
 _atom_site_occupancy
  Dy  Dy0  1  0.666667  0.333333  0.249199  1
  Y  Y1  1  0.333333  0.666667  0.750799  1
  Sn  Sn2  1  0.000000  0.000000  0.500018  1
  P  P3  1  0.405937  0.287715  0.746771  1
  P  P4  1  0.712285  0.118222  0.746771  1
  P  P5  1  0.881778  0.594063  0.746771  1
  P  P6  1  0.594106  0.712300  0.253233  1
  P  P7  1  0.287700  0.881806  0.253233  1
  P  P8  1  0.118194  0.405894  0.253233  1
  Rh  Rh9  1  0.453319  0.067379  0.747315  1
  Rh  Rh10  1  0.932621  0.385939  0.747315  1
  Rh  Rh11  1  0.614061  0.546681  0.747315  1
  Rh  Rh12  1  0.546743  0.932715  0.252683  1
  Rh  Rh13  1  0.067285  0.614029  0.252683  1
  Rh  Rh14  1  0.385971  0.453257  0.252683  1
  Rh  Rh15  1  0.161846  0.287387  0.759131  1
  Rh  Rh16  1  0.712613  0.874460  0.759131  1
  Rh  Rh17  1  0.125540  0.838154  0.759131  1
  Rh  Rh18  1  0.838128  0.712581  0.240863  1
  Rh  Rh19  1  0.287419  0.125546  0.240863  1
  Rh  Rh20  1  0.874454  0.161872  0.240863  1
