# generated using pymatgen
data_LiTb13Er3In3Rh4
_symmetry_space_group_name_H-M   'P 1'
_cell_length_a   9.67132195
_cell_length_b   9.67650866
_cell_length_c   9.67808663
_cell_angle_alpha   59.86234992
_cell_angle_beta   59.89536898
_cell_angle_gamma   59.83148188
_symmetry_Int_Tables_number   1
_chemical_formula_structural   LiTb13Er3In3Rh4
_chemical_formula_sum   'Li1 Tb13 Er3 In3 Rh4'
_cell_volume   638.45044119
_cell_formula_units_Z   1
loop_
 _symmetry_equiv_pos_site_id
 _symmetry_equiv_pos_as_xyz
  1  'x, y, z'
loop_
 _atom_site_type_symbol
 _atom_site_label
 _atom_site_symmetry_multiplicity
 _atom_site_fract_x
 _atom_site_fract_y
 _atom_site_fract_z
 _atom_site_occupancy
  Li  Li0  1  0.428353  0.429014  0.429388  1
  Tb  Tb1  1  0.649422  0.048919  0.650113  1
  Tb  Tb2  1  0.060528  0.061501  0.438861  1
  Tb  Tb3  1  0.437368  0.435867  0.062771  1
  Tb  Tb4  1  0.651003  0.649316  0.650219  1
  Tb  Tb5  1  0.814544  0.186290  0.185725  1
  Tb  Tb6  1  0.189918  0.810326  0.808981  1
  Tb  Tb7  1  0.047190  0.649354  0.650727  1
  Tb  Tb8  1  0.439183  0.061201  0.060559  1
  Tb  Tb9  1  0.437439  0.062440  0.437269  1
  Tb  Tb10  1  0.061129  0.438041  0.061586  1
  Tb  Tb11  1  0.650504  0.649943  0.047925  1
  Tb  Tb12  1  0.186746  0.814199  0.186711  1
  Tb  Tb13  1  0.062900  0.435913  0.437276  1
  Er  Er14  1  0.808218  0.808882  0.190602  1
  Er  Er15  1  0.809368  0.190591  0.808561  1
  Er  Er16  1  0.186796  0.187134  0.813961  1
  In  In17  1  0.418078  0.418104  0.745619  1
  In  In18  1  0.418073  0.745810  0.417904  1
  In  In19  1  0.745653  0.418587  0.418121  1
  Rh  Rh20  1  0.858909  0.424268  0.856879  1
  Rh  Rh21  1  0.855892  0.858069  0.858063  1
  Rh  Rh22  1  0.856765  0.856884  0.425353  1
  Rh  Rh23  1  0.426022  0.859347  0.856826  1
