# generated using pymatgen
data_AcP12IrOs3
_symmetry_space_group_name_H-M   'P 1'
_cell_length_a   7.08756749
_cell_length_b   7.07682275
_cell_length_c   7.07682300
_cell_angle_alpha   109.44045387
_cell_angle_beta   109.50197062
_cell_angle_gamma   109.50197470
_symmetry_Int_Tables_number   1
_chemical_formula_structural   AcP12IrOs3
_chemical_formula_sum   'Ac1 P12 Ir1 Os3'
_cell_volume   273.14105891
_cell_formula_units_Z   1
loop_
 _symmetry_equiv_pos_site_id
 _symmetry_equiv_pos_as_xyz
  1  'x, y, z'
loop_
 _atom_site_type_symbol
 _atom_site_label
 _atom_site_symmetry_multiplicity
 _atom_site_fract_x
 _atom_site_fract_y
 _atom_site_fract_z
 _atom_site_occupancy
  Ac  Ac0  1  0.000000  0.000000  0.000000  1
  P  P1  1  0.855495  0.643292  0.499193  1
  P  P2  1  0.144505  0.356708  0.500807  1
  P  P3  1  0.141083  0.640612  0.785841  1
  P  P4  1  0.858917  0.359388  0.214159  1
  P  P5  1  0.643699  0.499193  0.855901  1
  P  P6  1  0.356301  0.500807  0.144099  1
  P  P7  1  0.644758  0.785841  0.145228  1
  P  P8  1  0.355242  0.214159  0.854772  1
  P  P9  1  0.499530  0.854772  0.640612  1
  P  P10  1  0.500470  0.145228  0.359388  1
  P  P11  1  0.787799  0.144099  0.643292  1
  P  P12  1  0.212201  0.855901  0.356708  1
  Ir  Ir13  1  0.500000  0.000000  0.000000  1
  Os  Os14  1  0.500000  0.500000  0.500000  1
  Os  Os15  1  0.000000  0.500000  0.000000  1
  Os  Os16  1  0.000000  0.000000  0.500000  1
