# generated using pymatgen
data_ErAl10FeRh
_symmetry_space_group_name_H-M   'P 1'
_cell_length_a   6.79126027
_cell_length_b   6.79126130
_cell_length_c   9.06874601
_cell_angle_alpha   90.27283687
_cell_angle_beta   90.27282673
_cell_angle_gamma   97.14324680
_symmetry_Int_Tables_number   1
_chemical_formula_structural   ErAl10FeRh
_chemical_formula_sum   'Er2 Al20 Fe2 Rh2'
_cell_volume   415.00451520
_cell_formula_units_Z   2
loop_
 _symmetry_equiv_pos_site_id
 _symmetry_equiv_pos_as_xyz
  1  'x, y, z'
loop_
 _atom_site_type_symbol
 _atom_site_label
 _atom_site_symmetry_multiplicity
 _atom_site_fract_x
 _atom_site_fract_y
 _atom_site_fract_z
 _atom_site_occupancy
  Er  Er0  1  0.872337  0.127663  0.750000  1
  Er  Er1  1  0.127663  0.872337  0.250000  1
  Al  Al2  1  0.620500  0.372121  0.549779  1
  Al  Al3  1  0.379500  0.627879  0.450221  1
  Al  Al4  1  0.372121  0.620500  0.049779  1
  Al  Al5  1  0.627879  0.379500  0.950221  1
  Al  Al6  1  0.228650  0.221082  0.496578  1
  Al  Al7  1  0.771350  0.778918  0.503422  1
  Al  Al8  1  0.778918  0.771350  0.003422  1
  Al  Al9  1  0.221082  0.228650  0.996578  1
  Al  Al10  1  0.848744  0.159731  0.099652  1
  Al  Al11  1  0.151256  0.840269  0.900348  1
  Al  Al12  1  0.159731  0.848744  0.599652  1
  Al  Al13  1  0.840269  0.151256  0.400348  1
  Al  Al14  1  0.860731  0.586082  0.753780  1
  Al  Al15  1  0.139269  0.413918  0.246220  1
  Al  Al16  1  0.413918  0.139269  0.746220  1
  Al  Al17  1  0.586082  0.860731  0.253780  1
  Al  Al18  1  0.223112  0.479515  0.754881  1
  Al  Al19  1  0.776888  0.520485  0.245119  1
  Al  Al20  1  0.520485  0.776888  0.745119  1
  Al  Al21  1  0.479515  0.223112  0.254881  1
  Fe  Fe22  1  0.000000  0.500000  0.000000  1
  Fe  Fe23  1  0.500000  0.000000  0.500000  1
  Rh  Rh24  1  0.000000  0.500000  0.500000  1
  Rh  Rh25  1  0.500000  0.000000  0.000000  1
