# generated using pymatgen
data_CeU7AlSe17
_symmetry_space_group_name_H-M   'P 1'
_cell_length_a   8.25564267
_cell_length_b   8.24593005
_cell_length_c   10.89575500
_cell_angle_alpha   80.67552353
_cell_angle_beta   80.31984837
_cell_angle_gamma   64.57959235
_symmetry_Int_Tables_number   1
_chemical_formula_structural   CeU7AlSe17
_chemical_formula_sum   'Ce1 U7 Al1 Se17'
_cell_volume   657.01095398
_cell_formula_units_Z   1
loop_
 _symmetry_equiv_pos_site_id
 _symmetry_equiv_pos_as_xyz
  1  'x, y, z'
loop_
 _atom_site_type_symbol
 _atom_site_label
 _atom_site_symmetry_multiplicity
 _atom_site_fract_x
 _atom_site_fract_y
 _atom_site_fract_z
 _atom_site_occupancy
  Ce  Ce0  1  0.815143  0.306926  0.299220  1
  U  U1  1  0.303971  0.819005  0.300706  1
  U  U2  1  0.181216  0.694263  0.699190  1
  U  U3  1  0.696588  0.180662  0.700708  1
  U  U4  1  0.202711  0.200805  0.542228  1
  U  U5  1  0.799189  0.794901  0.458711  1
  U  U6  1  0.676871  0.680424  0.985509  1
  U  U7  1  0.319304  0.321995  0.015394  1
  Al  Al8  1  0.999440  0.001010  0.000945  1
  Se  Se9  1  0.822382  0.433876  0.540505  1
  Se  Se10  1  0.434652  0.817371  0.537672  1
  Se  Se11  1  0.181554  0.563833  0.463234  1
  Se  Se12  1  0.566439  0.174575  0.467328  1
  Se  Se13  1  0.946831  0.325124  0.024226  1
  Se  Se14  1  0.321723  0.948842  0.028229  1
  Se  Se15  1  0.052805  0.678837  0.968668  1
  Se  Se16  1  0.677661  0.055910  0.970580  1
  Se  Se17  1  0.221626  0.209380  0.277947  1
  Se  Se18  1  0.786205  0.786145  0.722746  1
  Se  Se19  1  0.057044  0.054460  0.772652  1
  Se  Se20  1  0.948958  0.937862  0.228137  1
  Se  Se21  1  0.300757  0.299717  0.754197  1
  Se  Se22  1  0.694623  0.708590  0.244093  1
  Se  Se23  1  0.519708  0.521396  0.828776  1
  Se  Se24  1  0.471150  0.486903  0.166084  1
  Se  Se25  1  0.001453  0.997190  0.502313  1
