# generated using pymatgen
data_Zr3TaTiSn3N
_symmetry_space_group_name_H-M   'P 1'
_cell_length_a   8.33750300
_cell_length_b   8.33750240
_cell_length_c   5.60703800
_cell_angle_alpha   90.00000000
_cell_angle_beta   90.00000000
_cell_angle_gamma   119.99999841
_symmetry_Int_Tables_number   1
_chemical_formula_structural   Zr3TaTiSn3N
_chemical_formula_sum   'Zr6 Ta2 Ti2 Sn6 N2'
_cell_volume   337.54844629
_cell_formula_units_Z   2
loop_
 _symmetry_equiv_pos_site_id
 _symmetry_equiv_pos_as_xyz
  1  'x, y, z'
loop_
 _atom_site_type_symbol
 _atom_site_label
 _atom_site_symmetry_multiplicity
 _atom_site_fract_x
 _atom_site_fract_y
 _atom_site_fract_z
 _atom_site_occupancy
  Zr  Zr0  1  0.776578  0.776578  0.750942  1
  Zr  Zr1  1  0.223422  0.000000  0.750942  1
  Zr  Zr2  1  0.000000  0.223422  0.750942  1
  Zr  Zr3  1  0.223422  0.223422  0.249058  1
  Zr  Zr4  1  0.776578  0.000000  0.249058  1
  Zr  Zr5  1  0.000000  0.776578  0.249058  1
  Ta  Ta6  1  0.666667  0.333333  0.000000  1
  Ta  Ta7  1  0.333333  0.666667  0.000000  1
  Ti  Ti8  1  0.333333  0.666667  0.500000  1
  Ti  Ti9  1  0.666667  0.333333  0.500000  1
  Sn  Sn10  1  0.410263  0.410263  0.747487  1
  Sn  Sn11  1  0.589737  0.000000  0.747487  1
  Sn  Sn12  1  0.000000  0.589737  0.747487  1
  Sn  Sn13  1  0.589737  0.589737  0.252513  1
  Sn  Sn14  1  0.410263  0.000000  0.252513  1
  Sn  Sn15  1  0.000000  0.410263  0.252513  1
  N  N16  1  0.000000  0.000000  0.000000  1
  N  N17  1  0.000000  0.000000  0.500000  1
