# generated using pymatgen
data_Sm3Ga4Co7(NiB)2
_symmetry_space_group_name_H-M   'P 1'
_cell_length_a   5.24861500
_cell_length_b   5.23983055
_cell_length_c   10.41714200
_cell_angle_alpha   90.00000000
_cell_angle_beta   90.00000000
_cell_angle_gamma   119.94465948
_symmetry_Int_Tables_number   1
_chemical_formula_structural   Sm3Ga4Co7(NiB)2
_chemical_formula_sum   'Sm3 Ga4 Co7 Ni2 B2'
_cell_volume   248.24647450
_cell_formula_units_Z   1
loop_
 _symmetry_equiv_pos_site_id
 _symmetry_equiv_pos_as_xyz
  1  'x, y, z'
loop_
 _atom_site_type_symbol
 _atom_site_label
 _atom_site_symmetry_multiplicity
 _atom_site_fract_x
 _atom_site_fract_y
 _atom_site_fract_z
 _atom_site_occupancy
  Sm  Sm0  1  0.000000  0.000000  0.673630  1
  Sm  Sm1  1  0.000000  0.000000  0.326370  1
  Sm  Sm2  1  0.000000  0.000000  0.000000  1
  Ga  Ga3  1  0.669280  0.334639  0.685258  1
  Ga  Ga4  1  0.330720  0.665361  0.685258  1
  Ga  Ga5  1  0.330720  0.665361  0.314742  1
  Ga  Ga6  1  0.669280  0.334639  0.314742  1
  Co  Co7  1  0.500000  0.500000  0.870364  1
  Co  Co8  1  0.500000  0.000000  0.870364  1
  Co  Co9  1  0.000000  0.500000  0.870781  1
  Co  Co10  1  0.500000  0.500000  0.129636  1
  Co  Co11  1  0.500000  0.000000  0.129636  1
  Co  Co12  1  0.000000  0.500000  0.129219  1
  Co  Co13  1  0.000000  0.500000  0.500000  1
  Ni  Ni14  1  0.500000  0.500000  0.500000  1
  Ni  Ni15  1  0.500000  0.000000  0.500000  1
  B  B16  1  0.666113  0.333056  0.000000  1
  B  B17  1  0.333887  0.666944  0.000000  1
