# generated using pymatgen
data_Tm2Lu2Al15(SiRh2)3
_symmetry_space_group_name_H-M   'P 1'
_cell_length_a   7.51419930
_cell_length_b   7.46475586
_cell_length_c   9.32797502
_cell_angle_alpha   89.98939018
_cell_angle_beta   89.93164386
_cell_angle_gamma   119.79614763
_symmetry_Int_Tables_number   1
_chemical_formula_structural   Tm2Lu2Al15(SiRh2)3
_chemical_formula_sum   'Tm2 Lu2 Al15 Si3 Rh6'
_cell_volume   454.05063498
_cell_formula_units_Z   1
loop_
 _symmetry_equiv_pos_site_id
 _symmetry_equiv_pos_as_xyz
  1  'x, y, z'
loop_
 _atom_site_type_symbol
 _atom_site_label
 _atom_site_symmetry_multiplicity
 _atom_site_fract_x
 _atom_site_fract_y
 _atom_site_fract_z
 _atom_site_occupancy
  Tm  Tm0  1  0.994261  0.664687  0.247352  1
  Tm  Tm1  1  0.006240  0.342017  0.754509  1
  Lu  Lu2  1  0.676483  0.001907  0.247676  1
  Lu  Lu3  1  0.317554  0.990458  0.749531  1
  Al  Al4  1  0.128198  0.125591  0.249906  1
  Al  Al5  1  0.871706  0.871994  0.749157  1
  Al  Al6  1  0.339242  0.002342  0.421893  1
  Al  Al7  1  0.000858  0.330304  0.428349  1
  Al  Al8  1  0.665882  0.002746  0.576550  1
  Al  Al9  1  0.661761  0.998864  0.921356  1
  Al  Al10  1  0.339317  0.002184  0.078092  1
  Al  Al11  1  0.332622  0.330382  0.557352  1
  Al  Al12  1  0.664117  0.668641  0.444033  1
  Al  Al13  1  0.663917  0.668444  0.057263  1
  Al  Al14  1  0.335348  0.330999  0.943245  1
  Al  Al15  1  0.338436  0.552207  0.250233  1
  Al  Al16  1  0.661103  0.448593  0.750353  1
  Al  Al17  1  0.549432  0.343236  0.249877  1
  Al  Al18  1  0.454181  0.658081  0.749650  1
  Si  Si19  1  0.001907  0.328679  0.077851  1
  Si  Si20  1  0.997730  0.672008  0.929185  1
  Si  Si21  1  0.998546  0.665580  0.566661  1
  Rh  Rh22  1  0.690519  0.337339  0.001588  1
  Rh  Rh23  1  0.309984  0.663087  0.996948  1
  Rh  Rh24  1  0.318507  0.670885  0.502922  1
  Rh  Rh25  1  0.680708  0.335739  0.499410  1
  Rh  Rh26  1  0.000397  0.000013  0.999020  1
  Rh  Rh27  1  0.001047  0.992993  0.500038  1
