# generated using pymatgen
data_Zn3CdP6SeN12
_symmetry_space_group_name_H-M   'P 1'
_cell_length_a   7.27166381
_cell_length_b   7.24028844
_cell_length_c   7.24028722
_cell_angle_alpha   109.38326957
_cell_angle_beta   109.55902058
_cell_angle_gamma   109.55902871
_symmetry_Int_Tables_number   1
_chemical_formula_structural   Zn3CdP6SeN12
_chemical_formula_sum   'Zn3 Cd1 P6 Se1 N12'
_cell_volume   293.12430553
_cell_formula_units_Z   1
loop_
 _symmetry_equiv_pos_site_id
 _symmetry_equiv_pos_as_xyz
  1  'x, y, z'
loop_
 _atom_site_type_symbol
 _atom_site_label
 _atom_site_symmetry_multiplicity
 _atom_site_fract_x
 _atom_site_fract_y
 _atom_site_fract_z
 _atom_site_occupancy
  Zn  Zn0  1  0.002967  0.357303  0.000000  1
  Zn  Zn1  1  0.002967  0.000000  0.357303  1
  Zn  Zn2  1  0.645662  0.642696  0.642696  1
  Cd  Cd3  1  0.308131  0.000000  0.000000  1
  P  P4  1  0.755530  0.501569  0.250001  1
  P  P5  1  0.505529  0.749998  0.251567  1
  P  P6  1  0.755530  0.250001  0.501569  1
  P  P7  1  0.253962  0.748432  0.498431  1
  P  P8  1  0.505529  0.251567  0.749998  1
  P  P9  1  0.253962  0.498431  0.748432  1
  Se  Se10  1  0.957332  0.000000  0.000000  1
  N  N11  1  0.565802  0.281145  0.000000  1
  N  N12  1  0.280063  0.557761  0.000000  1
  N  N13  1  0.565802  0.000000  0.281145  1
  N  N14  1  0.003722  0.561344  0.272720  1
  N  N15  1  0.731003  0.727280  0.288623  1
  N  N16  1  0.722302  0.442238  0.442238  1
  N  N17  1  0.442378  0.711376  0.438655  1
  N  N18  1  0.280063  0.000000  0.557761  1
  N  N19  1  0.003722  0.272720  0.561344  1
  N  N20  1  0.442378  0.438655  0.711376  1
  N  N21  1  0.731003  0.288623  0.727280  1
  N  N22  1  0.284656  0.718855  0.718855  1
