# generated using pymatgen
data_BiSb(SeO3)4
_symmetry_space_group_name_H-M   'P 1'
_cell_length_a   8.53306200
_cell_length_b   9.00810167
_cell_length_c   8.60318885
_cell_angle_alpha   91.05186790
_cell_angle_beta   90.00000000
_cell_angle_gamma   90.00000000
_symmetry_Int_Tables_number   1
_chemical_formula_structural   BiSb(SeO3)4
_chemical_formula_sum   'Bi2 Sb2 Se8 O24'
_cell_volume   661.18721226
_cell_formula_units_Z   2
loop_
 _symmetry_equiv_pos_site_id
 _symmetry_equiv_pos_as_xyz
  1  'x, y, z'
loop_
 _atom_site_type_symbol
 _atom_site_label
 _atom_site_symmetry_multiplicity
 _atom_site_fract_x
 _atom_site_fract_y
 _atom_site_fract_z
 _atom_site_occupancy
  Bi  Bi0  1  0.000000  0.500000  0.000000  1
  Bi  Bi1  1  0.500000  0.500000  0.500000  1
  Sb  Sb2  1  0.000000  0.000000  0.500000  1
  Sb  Sb3  1  0.500000  0.000000  0.000000  1
  Se  Se4  1  0.346822  0.694671  0.162810  1
  Se  Se5  1  0.846822  0.305329  0.337190  1
  Se  Se6  1  0.696549  0.846569  0.690202  1
  Se  Se7  1  0.196549  0.153431  0.809798  1
  Se  Se8  1  0.653178  0.305329  0.837190  1
  Se  Se9  1  0.153178  0.694671  0.662810  1
  Se  Se10  1  0.303451  0.153431  0.309798  1
  Se  Se11  1  0.803451  0.846569  0.190202  1
  O  O12  1  0.257971  0.574471  0.036903  1
  O  O13  1  0.757971  0.425529  0.463097  1
  O  O14  1  0.769626  0.981050  0.558487  1
  O  O15  1  0.269626  0.018950  0.941513  1
  O  O16  1  0.554926  0.971010  0.771831  1
  O  O17  1  0.485530  0.587524  0.247391  1
  O  O18  1  0.985530  0.412476  0.252609  1
  O  O19  1  0.054926  0.028990  0.728169  1
  O  O20  1  0.978079  0.218199  0.477157  1
  O  O21  1  0.581553  0.746090  0.570382  1
  O  O22  1  0.478079  0.781801  0.022843  1
  O  O23  1  0.081553  0.253910  0.929618  1
  O  O24  1  0.742029  0.425529  0.963097  1
  O  O25  1  0.242029  0.574471  0.536903  1
  O  O26  1  0.230374  0.018950  0.441513  1
  O  O27  1  0.730374  0.981050  0.058487  1
  O  O28  1  0.445074  0.028990  0.228169  1
  O  O29  1  0.514470  0.412476  0.752609  1
  O  O30  1  0.014470  0.587524  0.747391  1
  O  O31  1  0.945074  0.971010  0.271831  1
  O  O32  1  0.021921  0.781801  0.522843  1
  O  O33  1  0.418447  0.253910  0.429618  1
  O  O34  1  0.521921  0.218199  0.977157  1
  O  O35  1  0.918447  0.746090  0.070382  1
