# generated using pymatgen
data_Pr7YCd2PdRu
_symmetry_space_group_name_H-M   'P 1'
_cell_length_a   9.99442379
_cell_length_b   9.97088777
_cell_length_c   9.99442289
_cell_angle_alpha   60.07787648
_cell_angle_beta   60.36812267
_cell_angle_gamma   60.07787383
_symmetry_Int_Tables_number   1
_chemical_formula_structural   Pr7YCd2PdRu
_chemical_formula_sum   'Pr14 Y2 Cd4 Pd2 Ru2'
_cell_volume   707.03524370
_cell_formula_units_Z   2
loop_
 _symmetry_equiv_pos_site_id
 _symmetry_equiv_pos_as_xyz
  1  'x, y, z'
loop_
 _atom_site_type_symbol
 _atom_site_label
 _atom_site_symmetry_multiplicity
 _atom_site_fract_x
 _atom_site_fract_y
 _atom_site_fract_z
 _atom_site_occupancy
  Pr  Pr0  1  0.439055  0.437494  0.063836  1
  Pr  Pr1  1  0.063836  0.059615  0.439055  1
  Pr  Pr2  1  0.439055  0.059615  0.063836  1
  Pr  Pr3  1  0.849860  0.847826  0.849860  1
  Pr  Pr4  1  0.688244  0.317985  0.304931  1
  Pr  Pr5  1  0.063836  0.437494  0.439055  1
  Pr  Pr6  1  0.304931  0.688839  0.688244  1
  Pr  Pr7  1  0.304931  0.317985  0.688244  1
  Pr  Pr8  1  0.862063  0.846649  0.444641  1
  Pr  Pr9  1  0.688244  0.688839  0.304931  1
  Pr  Pr10  1  0.444641  0.846649  0.862063  1
  Pr  Pr11  1  0.061023  0.438977  0.061023  1
  Pr  Pr12  1  0.849860  0.452453  0.849860  1
  Pr  Pr13  1  0.440235  0.059765  0.440235  1
  Y  Y14  1  0.310237  0.689763  0.310237  1
  Y  Y15  1  0.692803  0.307197  0.692803  1
  Cd  Cd16  1  0.081154  0.759195  0.081154  1
  Cd  Cd17  1  0.076965  0.081353  0.760329  1
  Cd  Cd18  1  0.760329  0.081353  0.076965  1
  Cd  Cd19  1  0.081154  0.078496  0.081154  1
  Pd  Pd20  1  0.641804  0.075209  0.641804  1
  Pd  Pd21  1  0.641804  0.641182  0.641804  1
  Ru  Ru22  1  0.637871  0.643031  0.076066  1
  Ru  Ru23  1  0.076066  0.643031  0.637871  1
