# generated using pymatgen
data_GaSi15Mo2(Pt6W)2
_symmetry_space_group_name_H-M   'P 1'
_cell_length_a   3.52666300
_cell_length_b   5.57257300
_cell_length_c   24.67357691
_cell_angle_alpha   90.02318887
_cell_angle_beta   90.00000000
_cell_angle_gamma   90.00000000
_symmetry_Int_Tables_number   1
_chemical_formula_structural   GaSi15Mo2(Pt6W)2
_chemical_formula_sum   'Ga1 Si15 Mo2 Pt12 W2'
_cell_volume   484.89957747
_cell_formula_units_Z   1
loop_
 _symmetry_equiv_pos_site_id
 _symmetry_equiv_pos_as_xyz
  1  'x, y, z'
loop_
 _atom_site_type_symbol
 _atom_site_label
 _atom_site_symmetry_multiplicity
 _atom_site_fract_x
 _atom_site_fract_y
 _atom_site_fract_z
 _atom_site_occupancy
  Ga  Ga0  1  0.250000  0.183401  0.520331  1
  Si  Si1  1  0.750000  0.320785  0.019492  1
  Si  Si2  1  0.250000  0.679629  0.980422  1
  Si  Si3  1  0.750000  0.824238  0.480915  1
  Si  Si4  1  0.750000  0.320540  0.644835  1
  Si  Si5  1  0.250000  0.179545  0.145203  1
  Si  Si6  1  0.750000  0.819105  0.854671  1
  Si  Si7  1  0.250000  0.679368  0.353470  1
  Si  Si8  1  0.250000  0.665043  0.609913  1
  Si  Si9  1  0.750000  0.839209  0.109232  1
  Si  Si10  1  0.250000  0.160927  0.890642  1
  Si  Si11  1  0.750000  0.334686  0.389970  1
  Si  Si12  1  0.750000  0.828913  0.726904  1
  Si  Si13  1  0.250000  0.669159  0.225744  1
  Si  Si14  1  0.750000  0.327463  0.774228  1
  Si  Si15  1  0.250000  0.170404  0.273851  1
  Mo  Mo16  1  0.250000  0.002907  0.790534  1
  Mo  Mo17  1  0.750000  0.495197  0.288817  1
  Pt  Pt18  1  0.750000  0.992101  0.578464  1
  Pt  Pt19  1  0.250000  0.497677  0.074370  1
  Pt  Pt20  1  0.750000  0.502272  0.925574  1
  Pt  Pt21  1  0.250000  0.999254  0.423368  1
  Pt  Pt22  1  0.250000  0.003257  0.672316  1
  Pt  Pt23  1  0.750000  0.496434  0.169435  1
  Pt  Pt24  1  0.250000  0.502769  0.830324  1
  Pt  Pt25  1  0.750000  0.994963  0.328698  1
  Pt  Pt26  1  0.750000  0.507690  0.549508  1
  Pt  Pt27  1  0.250000  0.996984  0.048347  1
  Pt  Pt28  1  0.750000  0.002920  0.951804  1
  Pt  Pt29  1  0.250000  0.505073  0.448471  1
  W  W30  1  0.250000  0.501551  0.710446  1
  W  W31  1  0.750000  0.996536  0.209699  1
