# generated using pymatgen
data_Li2Ni9Mo2As7Ru
_symmetry_space_group_name_H-M   'P 1'
_cell_length_a   9.47517999
_cell_length_b   9.45217249
_cell_length_c   3.74661600
_cell_angle_alpha   90.00000000
_cell_angle_beta   90.00000000
_cell_angle_gamma   120.22264296
_symmetry_Int_Tables_number   1
_chemical_formula_structural   Li2Ni9Mo2As7Ru
_chemical_formula_sum   'Li2 Ni9 Mo2 As7 Ru1'
_cell_volume   289.94138229
_cell_formula_units_Z   1
loop_
 _symmetry_equiv_pos_site_id
 _symmetry_equiv_pos_as_xyz
  1  'x, y, z'
loop_
 _atom_site_type_symbol
 _atom_site_label
 _atom_site_symmetry_multiplicity
 _atom_site_fract_x
 _atom_site_fract_y
 _atom_site_fract_z
 _atom_site_occupancy
  Li  Li0  1  0.336347  0.665888  0.000000  1
  Li  Li1  1  0.997867  0.000815  0.500000  1
  Ni  Ni2  1  0.282440  0.385346  0.500000  1
  Ni  Ni3  1  0.614538  0.894821  0.500000  1
  Ni  Ni4  1  0.101946  0.721339  0.500000  1
  Ni  Ni5  1  0.499686  0.453659  0.000000  1
  Ni  Ni6  1  0.543746  0.048056  0.000000  1
  Ni  Ni7  1  0.957693  0.500442  0.000000  1
  Ni  Ni8  1  0.723549  0.764658  0.000000  1
  Ni  Ni9  1  0.235874  0.957278  0.000000  1
  Ni  Ni10  1  0.040549  0.277407  0.000000  1
  Mo  Mo11  1  0.446292  0.209494  0.500000  1
  Mo  Mo12  1  0.788007  0.238601  0.500000  1
  As  As13  1  0.959238  0.751917  0.000000  1
  As  As14  1  0.243401  0.206578  0.000000  1
  As  As15  1  0.790706  0.037279  0.000000  1
  As  As16  1  0.669569  0.338390  0.000000  1
  As  As17  1  0.542979  0.623568  0.500000  1
  As  As18  1  0.375273  0.912181  0.500000  1
  As  As19  1  0.087919  0.462744  0.500000  1
  Ru  Ru20  1  0.762383  0.549537  0.500000  1
