# generated using pymatgen
data_LaNdAlGaNi8
_symmetry_space_group_name_H-M   'P 1'
_cell_length_a   4.06218000
_cell_length_b   5.13857900
_cell_length_c   8.52778900
_cell_angle_alpha   90.00000000
_cell_angle_beta   90.00000000
_cell_angle_gamma   90.00000000
_symmetry_Int_Tables_number   1
_chemical_formula_structural   LaNdAlGaNi8
_chemical_formula_sum   'La1 Nd1 Al1 Ga1 Ni8'
_cell_volume   178.00764210
_cell_formula_units_Z   1
loop_
 _symmetry_equiv_pos_site_id
 _symmetry_equiv_pos_as_xyz
  1  'x, y, z'
loop_
 _atom_site_type_symbol
 _atom_site_label
 _atom_site_symmetry_multiplicity
 _atom_site_fract_x
 _atom_site_fract_y
 _atom_site_fract_z
 _atom_site_occupancy
  La  La0  1  0.000000  0.000000  0.000000  1
  Nd  Nd1  1  0.000000  0.500000  0.500000  1
  Al  Al2  1  0.500000  0.000000  0.500000  1
  Ga  Ga3  1  0.500000  0.500000  0.000000  1
  Ni  Ni4  1  0.000000  0.000000  0.330069  1
  Ni  Ni5  1  0.000000  0.500000  0.830487  1
  Ni  Ni6  1  0.000000  0.500000  0.169513  1
  Ni  Ni7  1  0.000000  0.000000  0.669931  1
  Ni  Ni8  1  0.500000  0.251420  0.252225  1
  Ni  Ni9  1  0.500000  0.748580  0.747775  1
  Ni  Ni10  1  0.500000  0.748580  0.252225  1
  Ni  Ni11  1  0.500000  0.251420  0.747775  1
