# generated using pymatgen
data_TaCl30
_symmetry_space_group_name_H-M   'P 1'
_cell_length_a   13.78514755
_cell_length_b   13.78514830
_cell_length_c   16.12467486
_cell_angle_alpha   83.71140389
_cell_angle_beta   83.71140386
_cell_angle_gamma   124.70422513
_symmetry_Int_Tables_number   1
_chemical_formula_structural   TaCl30
_chemical_formula_sum   'Ta1 Cl30'
_cell_volume   2447.87873358
_cell_formula_units_Z   1
loop_
 _symmetry_equiv_pos_site_id
 _symmetry_equiv_pos_as_xyz
  1  'x, y, z'
loop_
 _atom_site_type_symbol
 _atom_site_label
 _atom_site_symmetry_multiplicity
 _atom_site_fract_x
 _atom_site_fract_y
 _atom_site_fract_z
 _atom_site_occupancy
  Ta  Ta0  1  0.000000  0.000000  0.000000  1
  Cl  Cl1  1  0.944995  0.944995  0.153962  1
  Cl  Cl2  1  0.055005  0.055005  0.846038  1
  Cl  Cl3  1  0.060159  0.195960  0.005386  1
  Cl  Cl4  1  0.939841  0.804040  0.994614  1
  Cl  Cl5  1  0.195960  0.060159  0.005386  1
  Cl  Cl6  1  0.804040  0.939841  0.994614  1
  Cl  Cl7  1  0.203560  0.743424  0.063465  1
  Cl  Cl8  1  0.796440  0.256576  0.936535  1
  Cl  Cl9  1  0.701144  0.077273  0.262327  1
  Cl  Cl10  1  0.256576  0.796440  0.936535  1
  Cl  Cl11  1  0.298856  0.922727  0.737673  1
  Cl  Cl12  1  0.743424  0.203560  0.063465  1
  Cl  Cl13  1  0.977750  0.198569  0.780655  1
  Cl  Cl14  1  0.922727  0.298856  0.737673  1
  Cl  Cl15  1  0.022250  0.801431  0.219345  1
  Cl  Cl16  1  0.077273  0.701144  0.262327  1
  Cl  Cl17  1  0.801431  0.022250  0.219345  1
  Cl  Cl18  1  0.198569  0.977750  0.780655  1
  Cl  Cl19  1  0.465033  0.546533  0.259226  1
  Cl  Cl20  1  0.534967  0.453467  0.740774  1
  Cl  Cl21  1  0.507671  0.206366  0.451246  1
  Cl  Cl22  1  0.453467  0.534967  0.740774  1
  Cl  Cl23  1  0.492329  0.793634  0.548754  1
  Cl  Cl24  1  0.546533  0.465033  0.259226  1
  Cl  Cl25  1  0.239819  0.429451  0.543763  1
  Cl  Cl26  1  0.793634  0.492329  0.548754  1
  Cl  Cl27  1  0.760181  0.570549  0.456237  1
  Cl  Cl28  1  0.206366  0.507671  0.451246  1
  Cl  Cl29  1  0.570549  0.760181  0.456237  1
  Cl  Cl30  1  0.429451  0.239819  0.543763  1
