# generated using pymatgen
data_Tb4TiNb5Si8
_symmetry_space_group_name_H-M   'P 1'
_cell_length_a   7.09012007
_cell_length_b   7.08366707
_cell_length_c   13.05962300
_cell_angle_alpha   90.00000000
_cell_angle_beta   90.00000000
_cell_angle_gamma   89.98401644
_symmetry_Int_Tables_number   1
_chemical_formula_structural   Tb4TiNb5Si8
_chemical_formula_sum   'Tb8 Ti2 Nb10 Si16'
_cell_volume   655.90713363
_cell_formula_units_Z   2
loop_
 _symmetry_equiv_pos_site_id
 _symmetry_equiv_pos_as_xyz
  1  'x, y, z'
loop_
 _atom_site_type_symbol
 _atom_site_label
 _atom_site_symmetry_multiplicity
 _atom_site_fract_x
 _atom_site_fract_y
 _atom_site_fract_z
 _atom_site_occupancy
  Tb  Tb0  1  0.341454  0.002207  0.467224  1
  Tb  Tb1  1  0.498377  0.841785  0.717394  1
  Tb  Tb2  1  0.501623  0.158215  0.217394  1
  Tb  Tb3  1  0.841881  0.498615  0.282927  1
  Tb  Tb4  1  0.158119  0.501385  0.782927  1
  Tb  Tb5  1  0.658546  0.997793  0.967224  1
  Tb  Tb6  1  0.002365  0.340482  0.532468  1
  Tb  Tb7  1  0.997635  0.659518  0.032468  1
  Ti  Ti8  1  0.009080  0.153958  0.125649  1
  Ti  Ti9  1  0.990920  0.846042  0.625649  1
  Nb  Nb10  1  0.328704  0.328897  0.999840  1
  Nb  Nb11  1  0.172875  0.827025  0.249900  1
  Nb  Nb12  1  0.827125  0.172975  0.749900  1
  Nb  Nb13  1  0.671296  0.671103  0.499840  1
  Nb  Nb14  1  0.153312  0.007487  0.874233  1
  Nb  Nb15  1  0.492616  0.653051  0.124393  1
  Nb  Nb16  1  0.507384  0.346949  0.624393  1
  Nb  Nb17  1  0.652783  0.491155  0.875852  1
  Nb  Nb18  1  0.347217  0.508845  0.375852  1
  Nb  Nb19  1  0.846688  0.992513  0.374233  1
  Si  Si20  1  0.201810  0.130349  0.682996  1
  Si  Si21  1  0.367504  0.704755  0.933090  1
  Si  Si22  1  0.632496  0.295245  0.433090  1
  Si  Si23  1  0.704956  0.366240  0.067330  1
  Si  Si24  1  0.295044  0.633760  0.567330  1
  Si  Si25  1  0.798190  0.869651  0.182996  1
  Si  Si26  1  0.132321  0.202856  0.316278  1
  Si  Si27  1  0.867679  0.797144  0.816278  1
  Si  Si28  1  0.291348  0.954145  0.064178  1
  Si  Si29  1  0.546805  0.793072  0.313496  1
  Si  Si30  1  0.453195  0.206928  0.813496  1
  Si  Si31  1  0.794356  0.547985  0.685622  1
  Si  Si32  1  0.205644  0.452015  0.185622  1
  Si  Si33  1  0.708652  0.045855  0.564178  1
  Si  Si34  1  0.953766  0.292388  0.937131  1
  Si  Si35  1  0.046234  0.707612  0.437131  1
