# generated using pymatgen
data_Y7Hf(Ta3Ge4)4
_symmetry_space_group_name_H-M   'P 1'
_cell_length_a   6.98937382
_cell_length_b   7.13687555
_cell_length_c   13.51501272
_cell_angle_alpha   90.12594209
_cell_angle_beta   90.09721329
_cell_angle_gamma   90.05874835
_symmetry_Int_Tables_number   1
_chemical_formula_structural   Y7Hf(Ta3Ge4)4
_chemical_formula_sum   'Y7 Hf1 Ta12 Ge16'
_cell_volume   674.15684383
_cell_formula_units_Z   1
loop_
 _symmetry_equiv_pos_site_id
 _symmetry_equiv_pos_as_xyz
  1  'x, y, z'
loop_
 _atom_site_type_symbol
 _atom_site_label
 _atom_site_symmetry_multiplicity
 _atom_site_fract_x
 _atom_site_fract_y
 _atom_site_fract_z
 _atom_site_occupancy
  Y  Y0  1  0.492577  0.675090  0.593631  1
  Y  Y1  1  0.993992  0.826314  0.906476  1
  Y  Y2  1  0.506259  0.326364  0.094114  1
  Y  Y3  1  0.006490  0.172978  0.407267  1
  Y  Y4  1  0.505799  0.325571  0.407131  1
  Y  Y5  1  0.005886  0.174341  0.094090  1
  Y  Y6  1  0.493441  0.674561  0.904730  1
  Hf  Hf7  1  0.989158  0.822831  0.595620  1
  Ta  Ta8  1  0.661412  0.165026  0.625376  1
  Ta  Ta9  1  0.157911  0.332025  0.871641  1
  Ta  Ta10  1  0.342425  0.831938  0.126513  1
  Ta  Ta11  1  0.844398  0.671300  0.375777  1
  Ta  Ta12  1  0.342087  0.831954  0.373774  1
  Ta  Ta13  1  0.841795  0.667878  0.127010  1
  Ta  Ta14  1  0.660467  0.166988  0.872580  1
  Ta  Ta15  1  0.158336  0.331353  0.625416  1
  Ta  Ta16  1  0.836258  0.487392  0.747816  1
  Ta  Ta17  1  0.333026  0.013278  0.748399  1
  Ta  Ta18  1  0.165151  0.515199  0.250870  1
  Ta  Ta19  1  0.665928  0.986219  0.251196  1
  Ge  Ge20  1  0.681195  0.959427  0.460054  1
  Ge  Ge21  1  0.176975  0.539668  0.041912  1
  Ge  Ge22  1  0.323658  0.040801  0.957333  1
  Ge  Ge23  1  0.824680  0.463533  0.542773  1
  Ge  Ge24  1  0.313132  0.034822  0.542779  1
  Ge  Ge25  1  0.822276  0.459561  0.957736  1
  Ge  Ge26  1  0.676907  0.959837  0.042266  1
  Ge  Ge27  1  0.176075  0.543024  0.460059  1
  Ge  Ge28  1  0.459825  0.378426  0.748959  1
  Ge  Ge29  1  0.959591  0.117675  0.748378  1
  Ge  Ge30  1  0.542150  0.621064  0.250669  1
  Ge  Ge31  1  0.041587  0.880181  0.249957  1
  Ge  Ge32  1  0.695311  0.856759  0.748882  1
  Ge  Ge33  1  0.190673  0.645418  0.747563  1
  Ge  Ge34  1  0.306568  0.142462  0.250263  1
  Ge  Ge35  1  0.806603  0.358745  0.250993  1
