# generated using pymatgen
data_Cs4Zn3Cd(SiAs2)4
_symmetry_space_group_name_H-M   'P 1'
_cell_length_a   8.83847225
_cell_length_b   8.41378318
_cell_length_c   8.60170752
_cell_angle_alpha   70.71679923
_cell_angle_beta   76.17806631
_cell_angle_gamma   73.40006361
_symmetry_Int_Tables_number   1
_chemical_formula_structural   Cs4Zn3Cd(SiAs2)4
_chemical_formula_sum   'Cs4 Zn3 Cd1 Si4 As8'
_cell_volume   571.17867097
_cell_formula_units_Z   1
loop_
 _symmetry_equiv_pos_site_id
 _symmetry_equiv_pos_as_xyz
  1  'x, y, z'
loop_
 _atom_site_type_symbol
 _atom_site_label
 _atom_site_symmetry_multiplicity
 _atom_site_fract_x
 _atom_site_fract_y
 _atom_site_fract_z
 _atom_site_occupancy
  Cs  Cs0  1  0.449987  0.765503  0.318681  1
  Cs  Cs1  1  0.550799  0.233734  0.682310  1
  Cs  Cs2  1  0.432336  0.803653  0.816730  1
  Cs  Cs3  1  0.565306  0.201987  0.183723  1
  Zn  Zn4  1  0.999081  0.890304  0.683564  1
  Zn  Zn5  1  0.005586  0.107273  0.314799  1
  Zn  Zn6  1  0.961498  0.806337  0.176655  1
  Cd  Cd7  1  0.027835  0.172463  0.834501  1
  Si  Si8  1  0.964165  0.587996  0.593398  1
  Si  Si9  1  0.035774  0.411629  0.406575  1
  Si  Si10  1  0.138371  0.449799  0.980696  1
  Si  Si11  1  0.863280  0.552455  0.020474  1
  As  As12  1  0.834906  0.875146  0.449134  1
  As  As13  1  0.171972  0.120694  0.532504  1
  As  As14  1  0.802038  0.401668  0.311395  1
  As  As15  1  0.197978  0.597894  0.688635  1
  As  As16  1  0.799255  0.863832  0.954175  1
  As  As17  1  0.211563  0.140769  0.052363  1
  As  As18  1  0.780966  0.457745  0.823466  1
  As  As19  1  0.207305  0.559120  0.176222  1
