# generated using pymatgen
data_Tb8Y3HoRh4
_symmetry_space_group_name_H-M   'P 1'
_cell_length_a   6.28235501
_cell_length_b   7.19377283
_cell_length_c   9.55171588
_cell_angle_alpha   89.97124438
_cell_angle_beta   89.93401921
_cell_angle_gamma   89.84143265
_symmetry_Int_Tables_number   1
_chemical_formula_structural   Tb8Y3HoRh4
_chemical_formula_sum   'Tb8 Y3 Ho1 Rh4'
_cell_volume   431.67667630
_cell_formula_units_Z   1
loop_
 _symmetry_equiv_pos_site_id
 _symmetry_equiv_pos_as_xyz
  1  'x, y, z'
loop_
 _atom_site_type_symbol
 _atom_site_label
 _atom_site_symmetry_multiplicity
 _atom_site_fract_x
 _atom_site_fract_y
 _atom_site_fract_z
 _atom_site_occupancy
  Tb  Tb0  1  0.170210  0.177467  0.436525  1
  Tb  Tb1  1  0.669707  0.322253  0.563773  1
  Tb  Tb2  1  0.829730  0.822376  0.936907  1
  Tb  Tb3  1  0.669706  0.322463  0.936419  1
  Tb  Tb4  1  0.829926  0.822506  0.563320  1
  Tb  Tb5  1  0.329949  0.677407  0.436123  1
  Tb  Tb6  1  0.170325  0.177495  0.063425  1
  Tb  Tb7  1  0.364663  0.967098  0.750191  1
  Y  Y8  1  0.865400  0.532843  0.249716  1
  Y  Y9  1  0.634622  0.032273  0.249803  1
  Y  Y10  1  0.134871  0.467809  0.750191  1
  Ho  Ho11  1  0.329896  0.677200  0.064070  1
  Rh  Rh12  1  0.063473  0.881734  0.249659  1
  Rh  Rh13  1  0.436953  0.382692  0.249556  1
  Rh  Rh14  1  0.938593  0.117463  0.749952  1
  Rh  Rh15  1  0.561976  0.618921  0.750371  1
