# generated using pymatgen
data_Mn4Cu2SiPt9
_symmetry_space_group_name_H-M   'P 1'
_cell_length_a   6.75210309
_cell_length_b   6.75210247
_cell_length_c   6.75210200
_cell_angle_alpha   106.35063550
_cell_angle_beta   106.35063396
_cell_angle_gamma   115.91073894
_symmetry_Int_Tables_number   1
_chemical_formula_structural   Mn4Cu2SiPt9
_chemical_formula_sum   'Mn4 Cu2 Si1 Pt9'
_cell_volume   234.70131086
_cell_formula_units_Z   1
loop_
 _symmetry_equiv_pos_site_id
 _symmetry_equiv_pos_as_xyz
  1  'x, y, z'
loop_
 _atom_site_type_symbol
 _atom_site_label
 _atom_site_symmetry_multiplicity
 _atom_site_fract_x
 _atom_site_fract_y
 _atom_site_fract_z
 _atom_site_occupancy
  Mn  Mn0  1  0.234042  0.234042  0.468086  1
  Mn  Mn1  1  0.765958  0.765958  0.531914  1
  Mn  Mn2  1  0.234042  0.765958  0.000000  1
  Mn  Mn3  1  0.765958  0.234042  0.000000  1
  Cu  Cu4  1  0.500000  0.000000  0.500000  1
  Cu  Cu5  1  0.000000  0.500000  0.500000  1
  Si  Si6  1  0.500000  0.500000  0.000000  1
  Pt  Pt7  1  0.522044  0.272894  0.249149  1
  Pt  Pt8  1  0.477956  0.727106  0.750851  1
  Pt  Pt9  1  0.023745  0.272894  0.750851  1
  Pt  Pt10  1  0.272894  0.023745  0.750851  1
  Pt  Pt11  1  0.976255  0.727106  0.249149  1
  Pt  Pt12  1  0.727106  0.976255  0.249149  1
  Pt  Pt13  1  0.272894  0.522044  0.249149  1
  Pt  Pt14  1  0.727106  0.477956  0.750851  1
  Pt  Pt15  1  0.000000  0.000000  0.000000  1
