# generated using pymatgen
data_Li3La3PtAu2
_symmetry_space_group_name_H-M   'P 1'
_cell_length_a   7.63613700
_cell_length_b   7.63613844
_cell_length_c   4.16974800
_cell_angle_alpha   90.00000000
_cell_angle_beta   90.00000000
_cell_angle_gamma   119.99999810
_symmetry_Int_Tables_number   1
_chemical_formula_structural   Li3La3PtAu2
_chemical_formula_sum   'Li3 La3 Pt1 Au2'
_cell_volume   210.56585773
_cell_formula_units_Z   1
loop_
 _symmetry_equiv_pos_site_id
 _symmetry_equiv_pos_as_xyz
  1  'x, y, z'
loop_
 _atom_site_type_symbol
 _atom_site_label
 _atom_site_symmetry_multiplicity
 _atom_site_fract_x
 _atom_site_fract_y
 _atom_site_fract_z
 _atom_site_occupancy
  Li  Li0  1  0.998379  0.235770  0.000000  1
  Li  Li1  1  0.764230  0.762608  0.000000  1
  Li  Li2  1  0.237392  0.001621  0.000000  1
  La  La3  1  0.594907  0.011339  0.500000  1
  La  La4  1  0.416432  0.405093  0.500000  1
  La  La5  1  0.988661  0.583568  0.500000  1
  Pt  Pt6  1  0.666667  0.333333  0.000000  1
  Au  Au7  1  0.333333  0.666667  0.000000  1
  Au  Au8  1  0.000000  0.000000  0.500000  1
