# generated using pymatgen
data_Ho20Cd3Fe2Cu3
_symmetry_space_group_name_H-M   'P 1'
_cell_length_a   9.51491600
_cell_length_b   9.51490464
_cell_length_c   9.51041800
_cell_angle_alpha   90.00000000
_cell_angle_beta   90.00000000
_cell_angle_gamma   120.00020636
_symmetry_Int_Tables_number   1
_chemical_formula_structural   Ho20Cd3Fe2Cu3
_chemical_formula_sum   'Ho20 Cd3 Fe2 Cu3'
_cell_volume   745.65637076
_cell_formula_units_Z   1
loop_
 _symmetry_equiv_pos_site_id
 _symmetry_equiv_pos_as_xyz
  1  'x, y, z'
loop_
 _atom_site_type_symbol
 _atom_site_label
 _atom_site_symmetry_multiplicity
 _atom_site_fract_x
 _atom_site_fract_y
 _atom_site_fract_z
 _atom_site_occupancy
  Ho  Ho0  1  0.000024  0.999940  0.443994  1
  Ho  Ho1  1  0.000024  0.999940  0.056006  1
  Ho  Ho2  1  0.540565  0.459440  0.250000  1
  Ho  Ho3  1  0.540575  0.081161  0.250000  1
  Ho  Ho4  1  0.918786  0.459433  0.250000  1
  Ho  Ho5  1  0.458115  0.541784  0.750000  1
  Ho  Ho6  1  0.458214  0.916363  0.750000  1
  Ho  Ho7  1  0.083697  0.541758  0.750000  1
  Ho  Ho8  1  0.211560  0.788461  0.436141  1
  Ho  Ho9  1  0.211514  0.422990  0.436104  1
  Ho  Ho10  1  0.577073  0.788498  0.436125  1
  Ho  Ho11  1  0.789748  0.210255  0.560541  1
  Ho  Ho12  1  0.789687  0.579323  0.560588  1
  Ho  Ho13  1  0.420602  0.210266  0.560556  1
  Ho  Ho14  1  0.789748  0.210255  0.939459  1
  Ho  Ho15  1  0.789687  0.579323  0.939412  1
  Ho  Ho16  1  0.420602  0.210266  0.939444  1
  Ho  Ho17  1  0.211560  0.788461  0.063859  1
  Ho  Ho18  1  0.211514  0.422990  0.063896  1
  Ho  Ho19  1  0.577073  0.788498  0.063875  1
  Cd  Cd20  1  0.108355  0.891591  0.750000  1
  Cd  Cd21  1  0.108364  0.216729  0.750000  1
  Cd  Cd22  1  0.783314  0.891654  0.750000  1
  Fe  Fe23  1  0.333645  0.666848  0.250000  1
  Fe  Fe24  1  0.666548  0.333071  0.750000  1
  Cu  Cu25  1  0.866316  0.133618  0.250000  1
  Cu  Cu26  1  0.865955  0.733250  0.250000  1
  Cu  Cu27  1  0.267133  0.133837  0.250000  1
