# generated using pymatgen
data_Lu7Mg3(Sn3C)2
_symmetry_space_group_name_H-M   'P 1'
_cell_length_a   8.75223400
_cell_length_b   8.75223488
_cell_length_c   6.14952500
_cell_angle_alpha   90.00000000
_cell_angle_beta   90.00000000
_cell_angle_gamma   119.99999667
_symmetry_Int_Tables_number   1
_chemical_formula_structural   Lu7Mg3(Sn3C)2
_chemical_formula_sum   'Lu7 Mg3 Sn6 C2'
_cell_volume   407.95297281
_cell_formula_units_Z   1
loop_
 _symmetry_equiv_pos_site_id
 _symmetry_equiv_pos_as_xyz
  1  'x, y, z'
loop_
 _atom_site_type_symbol
 _atom_site_label
 _atom_site_symmetry_multiplicity
 _atom_site_fract_x
 _atom_site_fract_y
 _atom_site_fract_z
 _atom_site_occupancy
  Lu  Lu0  1  0.666667  0.333333  0.000000  1
  Lu  Lu1  1  0.787083  0.787423  0.247064  1
  Lu  Lu2  1  0.212577  0.999660  0.247064  1
  Lu  Lu3  1  0.000340  0.212917  0.247064  1
  Lu  Lu4  1  0.212577  0.212917  0.752936  1
  Lu  Lu5  1  0.787083  0.999660  0.752936  1
  Lu  Lu6  1  0.000340  0.787423  0.752936  1
  Mg  Mg7  1  0.666667  0.333333  0.500000  1
  Mg  Mg8  1  0.333333  0.666667  0.500000  1
  Mg  Mg9  1  0.333333  0.666667  0.000000  1
  Sn  Sn10  1  0.411825  0.413953  0.244510  1
  Sn  Sn11  1  0.586047  0.997872  0.244510  1
  Sn  Sn12  1  0.002128  0.588175  0.244510  1
  Sn  Sn13  1  0.586047  0.588175  0.755490  1
  Sn  Sn14  1  0.411825  0.997872  0.755490  1
  Sn  Sn15  1  0.002128  0.413953  0.755490  1
  C  C16  1  0.000000  0.000000  0.500000  1
  C  C17  1  0.000000  0.000000  0.000000  1
