# generated using pymatgen
data_Ca10TaMoN10
_symmetry_space_group_name_H-M   'P 1'
_cell_length_a   6.94453668
_cell_length_b   6.94453581
_cell_length_c   8.90735826
_cell_angle_alpha   80.51887545
_cell_angle_beta   80.51887704
_cell_angle_gamma   59.74743892
_symmetry_Int_Tables_number   1
_chemical_formula_structural   Ca10TaMoN10
_chemical_formula_sum   'Ca10 Ta1 Mo1 N10'
_cell_volume   364.31261700
_cell_formula_units_Z   1
loop_
 _symmetry_equiv_pos_site_id
 _symmetry_equiv_pos_as_xyz
  1  'x, y, z'
loop_
 _atom_site_type_symbol
 _atom_site_label
 _atom_site_symmetry_multiplicity
 _atom_site_fract_x
 _atom_site_fract_y
 _atom_site_fract_z
 _atom_site_occupancy
  Ca  Ca0  1  0.875642  0.352426  0.834060  1
  Ca  Ca1  1  0.874045  0.874045  0.824543  1
  Ca  Ca2  1  0.739001  0.739001  0.528603  1
  Ca  Ca3  1  0.753599  0.248626  0.506368  1
  Ca  Ca4  1  0.629369  0.136954  0.151131  1
  Ca  Ca5  1  0.352426  0.875642  0.834060  1
  Ca  Ca6  1  0.248626  0.753599  0.506368  1
  Ca  Ca7  1  0.240709  0.240709  0.495275  1
  Ca  Ca8  1  0.141378  0.141378  0.159937  1
  Ca  Ca9  1  0.136954  0.629369  0.151131  1
  Ta  Ta10  1  0.369473  0.369473  0.774134  1
  Mo  Mo11  1  0.632421  0.632421  0.225239  1
  N  N12  1  0.909044  0.470257  0.319788  1
  N  N13  1  0.996756  0.996756  0.017150  1
  N  N14  1  0.678988  0.678988  0.014275  1
  N  N15  1  0.535474  0.535474  0.693174  1
  N  N16  1  0.470257  0.909044  0.319788  1
  N  N17  1  0.537658  0.085271  0.676475  1
  N  N18  1  0.472653  0.472653  0.295929  1
  N  N19  1  0.320786  0.320786  0.995718  1
  N  N20  1  0.061759  0.061759  0.646183  1
  N  N21  1  0.085271  0.537658  0.676475  1
