# generated using pymatgen
data_ThZr2Fe8Os
_symmetry_space_group_name_H-M   'P 1'
_cell_length_a   8.72690622
_cell_length_b   8.72690556
_cell_length_c   8.72690533
_cell_angle_alpha   33.45709215
_cell_angle_beta   33.45708512
_cell_angle_gamma   33.45708361
_symmetry_Int_Tables_number   1
_chemical_formula_structural   ThZr2Fe8Os
_chemical_formula_sum   'Th1 Zr2 Fe8 Os1'
_cell_volume   179.90681709
_cell_formula_units_Z   1
loop_
 _symmetry_equiv_pos_site_id
 _symmetry_equiv_pos_as_xyz
  1  'x, y, z'
loop_
 _atom_site_type_symbol
 _atom_site_label
 _atom_site_symmetry_multiplicity
 _atom_site_fract_x
 _atom_site_fract_y
 _atom_site_fract_z
 _atom_site_occupancy
  Th  Th0  1  0.000000  0.000000  0.000000  1
  Zr  Zr1  1  0.856481  0.856481  0.856481  1
  Zr  Zr2  1  0.143519  0.143519  0.143519  1
  Fe  Fe3  1  0.414563  0.921363  0.414563  1
  Fe  Fe4  1  0.414563  0.414563  0.921363  1
  Fe  Fe5  1  0.921363  0.414563  0.414563  1
  Fe  Fe6  1  0.585437  0.078637  0.585437  1
  Fe  Fe7  1  0.585437  0.585437  0.078637  1
  Fe  Fe8  1  0.078637  0.585437  0.585437  1
  Fe  Fe9  1  0.666945  0.666945  0.666945  1
  Fe  Fe10  1  0.333055  0.333055  0.333055  1
  Os  Os11  1  0.500000  0.500000  0.500000  1
