# generated using pymatgen
data_NaDy(CN2)2
_symmetry_space_group_name_H-M   'P 1'
_cell_length_a   6.36521300
_cell_length_b   7.46285400
_cell_length_c   9.94455800
_cell_angle_alpha   90.00000000
_cell_angle_beta   90.00000000
_cell_angle_gamma   90.00000000
_symmetry_Int_Tables_number   1
_chemical_formula_structural   NaDy(CN2)2
_chemical_formula_sum   'Na4 Dy4 C8 N16'
_cell_volume   472.39291076
_cell_formula_units_Z   4
loop_
 _symmetry_equiv_pos_site_id
 _symmetry_equiv_pos_as_xyz
  1  'x, y, z'
loop_
 _atom_site_type_symbol
 _atom_site_label
 _atom_site_symmetry_multiplicity
 _atom_site_fract_x
 _atom_site_fract_y
 _atom_site_fract_z
 _atom_site_occupancy
  Na  Na0  1  0.250000  0.622073  0.000000  1
  Na  Na1  1  0.750000  0.877927  0.500000  1
  Na  Na2  1  0.750000  0.377927  0.000000  1
  Na  Na3  1  0.250000  0.122073  0.500000  1
  Dy  Dy4  1  0.250000  0.129920  0.000000  1
  Dy  Dy5  1  0.750000  0.370080  0.500000  1
  Dy  Dy6  1  0.750000  0.870080  0.000000  1
  Dy  Dy7  1  0.250000  0.629920  0.500000  1
  C  C8  1  0.418242  0.379987  0.748576  1
  C  C9  1  0.918242  0.120013  0.751424  1
  C  C10  1  0.581758  0.120013  0.248576  1
  C  C11  1  0.081758  0.379987  0.251424  1
  C  C12  1  0.581758  0.620013  0.251424  1
  C  C13  1  0.081758  0.879987  0.248576  1
  C  C14  1  0.418242  0.879987  0.751424  1
  C  C15  1  0.918242  0.620013  0.748576  1
  N  N16  1  0.400494  0.356914  0.869846  1
  N  N17  1  0.900494  0.143086  0.630154  1
  N  N18  1  0.599506  0.143086  0.369846  1
  N  N19  1  0.099506  0.356914  0.130154  1
  N  N20  1  0.599506  0.643086  0.130154  1
  N  N21  1  0.099506  0.856914  0.369846  1
  N  N22  1  0.400494  0.856914  0.630154  1
  N  N23  1  0.900494  0.643086  0.869846  1
  N  N24  1  0.436124  0.403850  0.625038  1
  N  N25  1  0.936124  0.096150  0.874962  1
  N  N26  1  0.563876  0.096150  0.125038  1
  N  N27  1  0.063876  0.403850  0.374962  1
  N  N28  1  0.563876  0.596150  0.374962  1
  N  N29  1  0.063876  0.903850  0.125038  1
  N  N30  1  0.436124  0.903850  0.874962  1
  N  N31  1  0.936124  0.596150  0.625038  1
