# generated using pymatgen
data_Gd8MgSi5Ir8
_symmetry_space_group_name_H-M   'P 1'
_cell_length_a   10.97316941
_cell_length_b   10.97316995
_cell_length_c   7.88010500
_cell_angle_alpha   71.40552953
_cell_angle_beta   71.40552859
_cell_angle_gamma   30.26928358
_symmetry_Int_Tables_number   1
_chemical_formula_structural   Gd8MgSi5Ir8
_chemical_formula_sum   'Gd8 Mg1 Si5 Ir8'
_cell_volume   451.43305082
_cell_formula_units_Z   1
loop_
 _symmetry_equiv_pos_site_id
 _symmetry_equiv_pos_as_xyz
  1  'x, y, z'
loop_
 _atom_site_type_symbol
 _atom_site_label
 _atom_site_symmetry_multiplicity
 _atom_site_fract_x
 _atom_site_fract_y
 _atom_site_fract_z
 _atom_site_occupancy
  Gd  Gd0  1  0.212484  0.442545  0.400475  1
  Gd  Gd1  1  0.557455  0.787516  0.099525  1
  Gd  Gd2  1  0.441421  0.213325  0.901821  1
  Gd  Gd3  1  0.925420  0.213949  0.331146  1
  Gd  Gd4  1  0.786051  0.074580  0.168854  1
  Gd  Gd5  1  0.078258  0.781742  0.663396  1
  Gd  Gd6  1  0.218258  0.921742  0.836604  1
  Gd  Gd7  1  0.786675  0.558579  0.598179  1
  Mg  Mg8  1  0.621224  0.378776  0.750000  1
  Si  Si9  1  0.399761  0.600239  0.250000  1
  Si  Si10  1  0.301912  0.047391  0.436293  1
  Si  Si11  1  0.952609  0.698088  0.063707  1
  Si  Si12  1  0.695978  0.952347  0.565071  1
  Si  Si13  1  0.047653  0.304022  0.934929  1
  Ir  Ir14  1  0.271927  0.599405  0.043286  1
  Ir  Ir15  1  0.583620  0.282798  0.515309  1
  Ir  Ir16  1  0.717202  0.416380  0.984691  1
  Ir  Ir17  1  0.076362  0.362677  0.184950  1
  Ir  Ir18  1  0.637323  0.923638  0.315050  1
  Ir  Ir19  1  0.400595  0.728073  0.456714  1
  Ir  Ir20  1  0.925502  0.637692  0.814901  1
  Ir  Ir21  1  0.362308  0.074498  0.685099  1
