# generated using pymatgen
data_SrHo3MgAl17Pd6
_symmetry_space_group_name_H-M   'P 1'
_cell_length_a   7.67809681
_cell_length_b   7.69810581
_cell_length_c   9.55740253
_cell_angle_alpha   90.21661053
_cell_angle_beta   89.86202184
_cell_angle_gamma   119.47945216
_symmetry_Int_Tables_number   1
_chemical_formula_structural   SrHo3MgAl17Pd6
_chemical_formula_sum   'Sr1 Ho3 Mg1 Al17 Pd6'
_cell_volume   491.76657389
_cell_formula_units_Z   1
loop_
 _symmetry_equiv_pos_site_id
 _symmetry_equiv_pos_as_xyz
  1  'x, y, z'
loop_
 _atom_site_type_symbol
 _atom_site_label
 _atom_site_symmetry_multiplicity
 _atom_site_fract_x
 _atom_site_fract_y
 _atom_site_fract_z
 _atom_site_occupancy
  Sr  Sr0  1  0.996098  0.674248  0.250937  1
  Ho  Ho1  1  0.003703  0.330749  0.748013  1
  Ho  Ho2  1  0.664472  0.987725  0.252111  1
  Ho  Ho3  1  0.330394  0.005316  0.749812  1
  Mg  Mg4  1  0.996217  0.333345  0.076641  1
  Al  Al5  1  0.132306  0.134746  0.251093  1
  Al  Al6  1  0.870141  0.872610  0.751101  1
  Al  Al7  1  0.000011  0.663762  0.917829  1
  Al  Al8  1  0.999565  0.664831  0.582085  1
  Al  Al9  1  0.338080  0.004012  0.429754  1
  Al  Al10  1  0.000844  0.331151  0.424140  1
  Al  Al11  1  0.665508  0.000475  0.577332  1
  Al  Al12  1  0.667347  0.003102  0.923901  1
  Al  Al13  1  0.337428  0.003782  0.069890  1
  Al  Al14  1  0.331955  0.332352  0.560854  1
  Al  Al15  1  0.664398  0.665783  0.450660  1
  Al  Al16  1  0.664714  0.666229  0.047227  1
  Al  Al17  1  0.329172  0.332396  0.938277  1
  Al  Al18  1  0.350972  0.547743  0.250686  1
  Al  Al19  1  0.657792  0.451947  0.749073  1
  Al  Al20  1  0.545177  0.329509  0.249240  1
  Al  Al21  1  0.453711  0.663524  0.750697  1
  Pd  Pd22  1  0.660971  0.326701  0.993625  1
  Pd  Pd23  1  0.335043  0.678833  0.997636  1
  Pd  Pd24  1  0.328392  0.671652  0.503260  1
  Pd  Pd25  1  0.671908  0.327737  0.502640  1
  Pd  Pd26  1  0.002092  0.995481  0.997479  1
  Pd  Pd27  1  0.001591  0.000262  0.504006  1
