# generated using pymatgen
data_Tm4Sc8TlNi4Sn
_symmetry_space_group_name_H-M   'P 1'
_cell_length_a   8.01394455
_cell_length_b   8.01377772
_cell_length_c   8.00884607
_cell_angle_alpha   106.84312128
_cell_angle_beta   109.75703449
_cell_angle_gamma   111.86817524
_symmetry_Int_Tables_number   1
_chemical_formula_structural   Tm4Sc8TlNi4Sn
_chemical_formula_sum   'Tm4 Sc8 Tl1 Ni4 Sn1'
_cell_volume   395.10118538
_cell_formula_units_Z   1
loop_
 _symmetry_equiv_pos_site_id
 _symmetry_equiv_pos_as_xyz
  1  'x, y, z'
loop_
 _atom_site_type_symbol
 _atom_site_label
 _atom_site_symmetry_multiplicity
 _atom_site_fract_x
 _atom_site_fract_y
 _atom_site_fract_z
 _atom_site_occupancy
  Tm  Tm0  1  0.607605  0.796566  0.811304  1
  Tm  Tm1  1  0.985289  0.796327  0.188723  1
  Tm  Tm2  1  0.014771  0.203764  0.811274  1
  Tm  Tm3  1  0.392414  0.203513  0.188660  1
  Sc  Sc4  1  0.712331  0.273184  0.985621  1
  Sc  Sc5  1  0.287702  0.726839  0.014443  1
  Sc  Sc6  1  0.712332  0.727007  0.439444  1
  Sc  Sc7  1  0.287757  0.272870  0.560533  1
  Sc  Sc8  1  0.802317  0.126598  0.324241  1
  Sc  Sc9  1  0.802443  0.478191  0.675770  1
  Sc  Sc10  1  0.197546  0.873258  0.675748  1
  Sc  Sc11  1  0.197601  0.521915  0.324300  1
  Tl  Tl12  1  0.500083  0.500073  0.999991  1
  Ni  Ni13  1  0.860711  0.500026  0.360866  1
  Ni  Ni14  1  0.139161  0.499675  0.639052  1
  Ni  Ni15  1  0.000485  0.136865  0.137304  1
  Ni  Ni16  1  0.999437  0.863319  0.862695  1
  Sn  Sn17  1  0.500013  0.000013  0.500030  1
