# generated using pymatgen
data_Mo5W7Br24
_symmetry_space_group_name_H-M   'P 1'
_cell_length_a   10.05106306
_cell_length_b   10.05106259
_cell_length_c   12.22430218
_cell_angle_alpha   89.95988806
_cell_angle_beta   89.95988890
_cell_angle_gamma   106.15634576
_symmetry_Int_Tables_number   1
_chemical_formula_structural   Mo5W7Br24
_chemical_formula_sum   'Mo5 W7 Br24'
_cell_volume   1186.17243392
_cell_formula_units_Z   1
loop_
 _symmetry_equiv_pos_site_id
 _symmetry_equiv_pos_as_xyz
  1  'x, y, z'
loop_
 _atom_site_type_symbol
 _atom_site_label
 _atom_site_symmetry_multiplicity
 _atom_site_fract_x
 _atom_site_fract_y
 _atom_site_fract_z
 _atom_site_occupancy
  Mo  Mo0  1  0.072162  0.072162  0.862510  1
  Mo  Mo1  1  0.428552  0.428552  0.361275  1
  Mo  Mo2  1  0.570267  0.570267  0.638125  1
  Mo  Mo3  1  0.929196  0.929196  0.138102  1
  Mo  Mo4  1  0.861627  0.861627  0.930142  1
  W  W5  1  0.637272  0.637272  0.430772  1
  W  W6  1  0.361504  0.361504  0.568485  1
  W  W7  1  0.138432  0.138432  0.069597  1
  W  W8  1  0.382906  0.615804  0.499681  1
  W  W9  1  0.116719  0.884386  0.000314  1
  W  W10  1  0.615804  0.382906  0.499681  1
  W  W11  1  0.884386  0.116719  0.000314  1
  Br  Br12  1  0.655928  0.655928  0.843038  1
  Br  Br13  1  0.842362  0.842362  0.344123  1
  Br  Br14  1  0.157292  0.157292  0.655929  1
  Br  Br15  1  0.342969  0.342969  0.155074  1
  Br  Br16  1  0.222457  0.775986  0.500251  1
  Br  Br17  1  0.277089  0.724636  0.000939  1
  Br  Br18  1  0.775986  0.222457  0.500251  1
  Br  Br19  1  0.724636  0.277089  0.000939  1
  Br  Br20  1  0.325172  0.093504  0.933162  1
  Br  Br21  1  0.175121  0.406603  0.431981  1
  Br  Br22  1  0.592212  0.823541  0.567210  1
  Br  Br23  1  0.908102  0.677011  0.067221  1
  Br  Br24  1  0.952916  0.184047  0.206019  1
  Br  Br25  1  0.545860  0.314105  0.705215  1
  Br  Br26  1  0.684602  0.452810  0.294078  1
  Br  Br27  1  0.817645  0.049206  0.795343  1
  Br  Br28  1  0.049206  0.817645  0.795343  1
  Br  Br29  1  0.452810  0.684602  0.294078  1
  Br  Br30  1  0.314105  0.545860  0.705215  1
  Br  Br31  1  0.184047  0.952916  0.206019  1
  Br  Br32  1  0.093504  0.325172  0.933162  1
  Br  Br33  1  0.406603  0.175121  0.431981  1
  Br  Br34  1  0.823541  0.592212  0.567210  1
  Br  Br35  1  0.677011  0.908102  0.067221  1
