# generated using pymatgen
data_LuCr3P4IrRh2
_symmetry_space_group_name_H-M   'P 1'
_cell_length_a   6.96070393
_cell_length_b   6.96968762
_cell_length_c   3.60541100
_cell_angle_alpha   90.00000000
_cell_angle_beta   90.00000000
_cell_angle_gamma   120.04268818
_symmetry_Int_Tables_number   1
_chemical_formula_structural   LuCr3P4IrRh2
_chemical_formula_sum   'Lu1 Cr3 P4 Ir1 Rh2'
_cell_volume   151.41360925
_cell_formula_units_Z   1
loop_
 _symmetry_equiv_pos_site_id
 _symmetry_equiv_pos_as_xyz
  1  'x, y, z'
loop_
 _atom_site_type_symbol
 _atom_site_label
 _atom_site_symmetry_multiplicity
 _atom_site_fract_x
 _atom_site_fract_y
 _atom_site_fract_z
 _atom_site_occupancy
  Lu  Lu0  1  0.333803  0.666902  0.000000  1
  Cr  Cr1  1  0.251539  0.125770  0.000000  1
  Cr  Cr2  1  0.874263  0.748200  0.000000  1
  Cr  Cr3  1  0.874263  0.126063  0.000000  1
  P  P4  1  0.666537  0.333268  0.000000  1
  P  P5  1  0.717669  0.858835  0.500000  1
  P  P6  1  0.141320  0.282382  0.500000  1
  P  P7  1  0.141320  0.858939  0.500000  1
  Ir  Ir8  1  0.939816  0.469908  0.500000  1
  Rh  Rh9  1  0.529734  0.059972  0.500000  1
  Rh  Rh10  1  0.529734  0.469762  0.500000  1
