# generated using pymatgen
data_Nd7ThTe12
_symmetry_space_group_name_H-M   'P 1'
_cell_length_a   4.40611500
_cell_length_b   12.08138418
_cell_length_c   12.32511308
_cell_angle_alpha   89.73098315
_cell_angle_beta   90.00000000
_cell_angle_gamma   90.00000000
_symmetry_Int_Tables_number   1
_chemical_formula_structural   Nd7ThTe12
_chemical_formula_sum   'Nd7 Th1 Te12'
_cell_volume   656.08279387
_cell_formula_units_Z   1
loop_
 _symmetry_equiv_pos_site_id
 _symmetry_equiv_pos_as_xyz
  1  'x, y, z'
loop_
 _atom_site_type_symbol
 _atom_site_label
 _atom_site_symmetry_multiplicity
 _atom_site_fract_x
 _atom_site_fract_y
 _atom_site_fract_z
 _atom_site_occupancy
  Nd  Nd0  1  0.750000  0.505171  0.301500  1
  Nd  Nd1  1  0.750000  0.007141  0.804674  1
  Nd  Nd2  1  0.250000  0.999321  0.195856  1
  Nd  Nd3  1  0.250000  0.184867  0.515859  1
  Nd  Nd4  1  0.750000  0.813261  0.482266  1
  Nd  Nd5  1  0.750000  0.691596  0.982076  1
  Nd  Nd6  1  0.250000  0.309493  0.021833  1
  Th  Th7  1  0.250000  0.489469  0.696536  1
  Te  Te8  1  0.250000  0.878451  0.952611  1
  Te  Te9  1  0.750000  0.122966  0.044941  1
  Te  Te10  1  0.750000  0.376139  0.542987  1
  Te  Te11  1  0.250000  0.622252  0.460031  1
  Te  Te12  1  0.250000  0.208595  0.772842  1
  Te  Te13  1  0.750000  0.799328  0.225241  1
  Te  Te14  1  0.750000  0.687109  0.719525  1
  Te  Te15  1  0.250000  0.304724  0.278575  1
  Te  Te16  1  0.250000  0.555081  0.116577  1
  Te  Te17  1  0.750000  0.445815  0.884064  1
  Te  Te18  1  0.750000  0.055958  0.379217  1
  Te  Te19  1  0.250000  0.943262  0.622788  1
