# generated using pymatgen
data_Li3Sm4ZnPt4
_symmetry_space_group_name_H-M   'P 1'
_cell_length_a   4.07302700
_cell_length_b   7.15755564
_cell_length_c   8.55908301
_cell_angle_alpha   89.91431206
_cell_angle_beta   90.00000000
_cell_angle_gamma   90.00000000
_symmetry_Int_Tables_number   1
_chemical_formula_structural   Li3Sm4ZnPt4
_chemical_formula_sum   'Li3 Sm4 Zn1 Pt4'
_cell_volume   249.52196082
_cell_formula_units_Z   1
loop_
 _symmetry_equiv_pos_site_id
 _symmetry_equiv_pos_as_xyz
  1  'x, y, z'
loop_
 _atom_site_type_symbol
 _atom_site_label
 _atom_site_symmetry_multiplicity
 _atom_site_fract_x
 _atom_site_fract_y
 _atom_site_fract_z
 _atom_site_occupancy
  Li  Li0  1  0.250000  0.624638  0.558044  1
  Li  Li1  1  0.750000  0.374713  0.441404  1
  Li  Li2  1  0.750000  0.877815  0.054312  1
  Sm  Sm3  1  0.250000  0.548101  0.183822  1
  Sm  Sm4  1  0.750000  0.447272  0.819110  1
  Sm  Sm5  1  0.750000  0.954835  0.685846  1
  Sm  Sm6  1  0.250000  0.049708  0.313775  1
  Zn  Zn7  1  0.250000  0.123388  0.940804  1
  Pt  Pt8  1  0.250000  0.747412  0.881385  1
  Pt  Pt9  1  0.750000  0.250399  0.118523  1
  Pt  Pt10  1  0.750000  0.756599  0.379312  1
  Pt  Pt11  1  0.250000  0.245118  0.623661  1
