# generated using pymatgen
data_NdB4(IrRh)2
_symmetry_space_group_name_H-M   'P 1'
_cell_length_a   7.65156834
_cell_length_b   7.64636020
_cell_length_c   4.00932207
_cell_angle_alpha   89.99812947
_cell_angle_beta   90.02222757
_cell_angle_gamma   89.97392520
_symmetry_Int_Tables_number   1
_chemical_formula_structural   NdB4(IrRh)2
_chemical_formula_sum   'Nd2 B8 Ir4 Rh4'
_cell_volume   234.57195187
_cell_formula_units_Z   2
loop_
 _symmetry_equiv_pos_site_id
 _symmetry_equiv_pos_as_xyz
  1  'x, y, z'
loop_
 _atom_site_type_symbol
 _atom_site_label
 _atom_site_symmetry_multiplicity
 _atom_site_fract_x
 _atom_site_fract_y
 _atom_site_fract_z
 _atom_site_occupancy
  Nd  Nd0  1  0.498378  0.500200  0.998230  1
  Nd  Nd1  1  0.998280  0.999691  0.498266  1
  B  B2  1  0.656792  0.782264  0.606369  1
  B  B3  1  0.160943  0.285076  0.891916  1
  B  B4  1  0.289408  0.837395  0.109348  1
  B  B5  1  0.716699  0.159997  0.108227  1
  B  B6  1  0.339880  0.217042  0.608048  1
  B  B7  1  0.836354  0.715423  0.891152  1
  B  B8  1  0.222480  0.657602  0.394424  1
  B  B9  1  0.783408  0.339219  0.392338  1
  Ir  Ir10  1  0.157965  0.390674  0.389721  1
  Ir  Ir11  1  0.841345  0.611130  0.391318  1
  Ir  Ir12  1  0.889558  0.341242  0.891250  1
  Ir  Ir13  1  0.389156  0.844806  0.610847  1
  Rh  Rh14  1  0.342895  0.111559  0.107134  1
  Rh  Rh15  1  0.656340  0.890525  0.108010  1
  Rh  Rh16  1  0.610317  0.156198  0.608698  1
  Rh  Rh17  1  0.109801  0.659958  0.894702  1
