# generated using pymatgen
data_K4Ba2HfSb4
_symmetry_space_group_name_H-M   'P 1'
_cell_length_a   11.18376993
_cell_length_b   11.18376956
_cell_length_c   8.63356629
_cell_angle_alpha   88.99141523
_cell_angle_beta   88.99142000
_cell_angle_gamma   119.87025734
_symmetry_Int_Tables_number   1
_chemical_formula_structural   K4Ba2HfSb4
_chemical_formula_sum   'K8 Ba4 Hf2 Sb8'
_cell_volume   935.82654820
_cell_formula_units_Z   2
loop_
 _symmetry_equiv_pos_site_id
 _symmetry_equiv_pos_as_xyz
  1  'x, y, z'
loop_
 _atom_site_type_symbol
 _atom_site_label
 _atom_site_symmetry_multiplicity
 _atom_site_fract_x
 _atom_site_fract_y
 _atom_site_fract_z
 _atom_site_occupancy
  K  K0  1  0.056023  0.526179  0.622953  1
  K  K1  1  0.526179  0.056023  0.122953  1
  K  K2  1  0.278320  0.135973  0.820902  1
  K  K3  1  0.868728  0.724746  0.779705  1
  K  K4  1  0.860680  0.145469  0.801576  1
  K  K5  1  0.724746  0.868728  0.279705  1
  K  K6  1  0.135973  0.278320  0.320902  1
  K  K7  1  0.145469  0.860680  0.301576  1
  Ba  Ba8  1  0.468839  0.941341  0.617402  1
  Ba  Ba9  1  0.468749  0.523034  0.624745  1
  Ba  Ba10  1  0.941341  0.468839  0.117402  1
  Ba  Ba11  1  0.523034  0.468749  0.124745  1
  Hf  Hf12  1  0.667741  0.335956  0.514593  1
  Hf  Hf13  1  0.335956  0.667741  0.014593  1
  Sb  Sb14  1  0.607096  0.797458  0.888954  1
  Sb  Sb15  1  0.197858  0.389768  0.923644  1
  Sb  Sb16  1  0.193799  0.798685  0.909629  1
  Sb  Sb17  1  0.389768  0.197858  0.423644  1
  Sb  Sb18  1  0.797458  0.607096  0.388954  1
  Sb  Sb19  1  0.798685  0.193799  0.409629  1
  Sb  Sb20  1  0.667670  0.345447  0.841532  1
  Sb  Sb21  1  0.345447  0.667670  0.341532  1
