# generated using pymatgen
data_DyNb3(PO4)6
_symmetry_space_group_name_H-M   'P 1'
_cell_length_a   8.92992920
_cell_length_b   9.16740190
_cell_length_c   8.92991900
_cell_angle_alpha   89.99642820
_cell_angle_beta   59.99856229
_cell_angle_gamma   119.14310150
_symmetry_Int_Tables_number   1
_chemical_formula_structural   DyNb3(PO4)6
_chemical_formula_sum   'Dy1 Nb3 P6 O24'
_cell_volume   523.49188640
_cell_formula_units_Z   1
loop_
 _symmetry_equiv_pos_site_id
 _symmetry_equiv_pos_as_xyz
  1  'x, y, z'
loop_
 _atom_site_type_symbol
 _atom_site_label
 _atom_site_symmetry_multiplicity
 _atom_site_fract_x
 _atom_site_fract_y
 _atom_site_fract_z
 _atom_site_occupancy
  Dy  Dy0  1  0.724317  0.086448  0.637767  1
  Nb  Nb1  1  0.282726  0.923958  0.358637  1
  Nb  Nb2  1  0.284791  0.427044  0.857609  1
  Nb  Nb3  1  0.716542  0.574740  0.141665  1
  P  P4  1  0.786505  0.748091  0.748042  1
  P  P5  1  0.484313  0.251352  0.535202  1
  P  P6  1  0.496349  0.748172  0.465338  1
  P  P7  1  0.231964  0.251476  0.232850  1
  P  P8  1  0.786685  0.251399  0.980416  1
  P  P9  1  0.213638  0.748125  0.038247  1
  O  O10  1  0.648747  0.910468  0.477001  1
  O  O11  1  0.998473  0.708585  0.092990  1
  O  O12  1  0.221176  0.584008  0.005102  1
  O  O13  1  0.220886  0.775882  0.208673  1
  O  O14  1  0.984924  0.275721  0.955353  1
  O  O15  1  0.790908  0.416213  0.022133  1
  O  O16  1  0.795848  0.241229  0.808774  1
  O  O17  1  0.801896  0.708854  0.908429  1
  O  O18  1  0.984627  0.775748  0.570366  1
  O  O19  1  0.636896  0.241530  0.554383  1
  O  O20  1  0.784379  0.910215  0.738238  1
  O  O21  1  0.589187  0.583832  0.773879  1
  O  O22  1  0.589573  0.084409  0.148668  1
  O  O23  1  0.602845  0.416054  0.374616  1
  O  O24  1  0.230960  0.275498  0.059772  1
  O  O25  1  0.335386  0.275584  0.709168  1
  O  O26  1  0.617418  0.708754  0.289687  1
  O  O27  1  0.346298  0.084218  0.505176  1
  O  O28  1  0.387481  0.910306  0.874012  1
  O  O29  1  0.358051  0.584076  0.636965  1
  O  O30  1  0.233270  0.084541  0.261882  1
  O  O31  1  0.438593  0.416419  0.186573  1
  O  O32  1  0.346227  0.775642  0.444887  1
  O  O33  1  0.050252  0.241405  0.395367  1
