# generated using pymatgen
data_Ho3Tm5(SiI6)2
_symmetry_space_group_name_H-M   'P 1'
_cell_length_a   4.18087500
_cell_length_b   13.82490704
_cell_length_c   14.62371505
_cell_angle_alpha   90.00918388
_cell_angle_beta   90.00000000
_cell_angle_gamma   90.00000000
_symmetry_Int_Tables_number   1
_chemical_formula_structural   Ho3Tm5(SiI6)2
_chemical_formula_sum   'Ho3 Tm5 Si2 I12'
_cell_volume   845.25376409
_cell_formula_units_Z   1
loop_
 _symmetry_equiv_pos_site_id
 _symmetry_equiv_pos_as_xyz
  1  'x, y, z'
loop_
 _atom_site_type_symbol
 _atom_site_label
 _atom_site_symmetry_multiplicity
 _atom_site_fract_x
 _atom_site_fract_y
 _atom_site_fract_z
 _atom_site_occupancy
  Ho  Ho0  1  0.500000  0.113915  0.347481  1
  Ho  Ho1  1  0.500000  0.886024  0.652486  1
  Ho  Ho2  1  0.000000  0.110080  0.573719  1
  Tm  Tm3  1  0.500000  0.613487  0.151904  1
  Tm  Tm4  1  0.500000  0.386493  0.848056  1
  Tm  Tm5  1  0.000000  0.890128  0.426459  1
  Tm  Tm6  1  0.000000  0.609479  0.926746  1
  Tm  Tm7  1  0.000000  0.390521  0.073250  1
  Si  Si8  1  0.500000  0.999174  0.499447  1
  Si  Si9  1  0.500000  0.500004  0.000002  1
  I  I10  1  0.500000  0.248036  0.161761  1
  I  I11  1  0.500000  0.751944  0.838217  1
  I  I12  1  0.500000  0.747500  0.337614  1
  I  I13  1  0.500000  0.253339  0.662917  1
  I  I14  1  0.000000  0.259499  0.414497  1
  I  I15  1  0.000000  0.740801  0.584961  1
  I  I16  1  0.000000  0.758132  0.085610  1
  I  I17  1  0.000000  0.241874  0.914411  1
  I  I18  1  0.000000  0.998747  0.240012  1
  I  I19  1  0.000000  0.000795  0.760434  1
  I  I20  1  0.000000  0.499747  0.259288  1
  I  I21  1  0.000000  0.500283  0.740727  1
