# generated using pymatgen
data_Li5Al17Pt7
_symmetry_space_group_name_H-M   'P 1'
_cell_length_a   8.55956635
_cell_length_b   8.61556254
_cell_length_c   8.61553164
_cell_angle_alpha   59.57057872
_cell_angle_beta   60.21489556
_cell_angle_gamma   60.21434067
_symmetry_Int_Tables_number   1
_chemical_formula_structural   Li5Al17Pt7
_chemical_formula_sum   'Li5 Al17 Pt7'
_cell_volume   449.22658695
_cell_formula_units_Z   1
loop_
 _symmetry_equiv_pos_site_id
 _symmetry_equiv_pos_as_xyz
  1  'x, y, z'
loop_
 _atom_site_type_symbol
 _atom_site_label
 _atom_site_symmetry_multiplicity
 _atom_site_fract_x
 _atom_site_fract_y
 _atom_site_fract_z
 _atom_site_occupancy
  Li  Li0  1  0.768714  0.231286  0.231322  1
  Li  Li1  1  0.764181  0.235819  0.748880  1
  Li  Li2  1  0.764163  0.748886  0.235819  1
  Li  Li3  1  0.251131  0.748869  0.235835  1
  Li  Li4  1  0.251114  0.235837  0.748868  1
  Al  Al5  1  0.883946  0.852584  0.852562  1
  Al  Al6  1  0.870047  0.847913  0.411972  1
  Al  Al7  1  0.410906  0.852615  0.852585  1
  Al  Al8  1  0.870021  0.411977  0.847955  1
  Al  Al9  1  0.152087  0.129953  0.129932  1
  Al  Al10  1  0.147416  0.116054  0.589091  1
  Al  Al11  1  0.147385  0.589094  0.116106  1
  Al  Al12  1  0.588023  0.129979  0.129953  1
  Al  Al13  1  0.621936  0.620667  0.620674  1
  Al  Al14  1  0.634992  0.619269  0.110759  1
  Al  Al15  1  0.136718  0.620659  0.620666  1
  Al  Al16  1  0.634998  0.110762  0.619254  1
  Al  Al17  1  0.380731  0.365008  0.365018  1
  Al  Al18  1  0.379333  0.378064  0.863277  1
  Al  Al19  1  0.379341  0.863282  0.378042  1
  Al  Al20  1  0.889238  0.365002  0.365013  1
  Al  Al21  1  0.005822  0.994178  0.994177  1
  Pt  Pt22  1  0.010099  0.489855  0.489918  1
  Pt  Pt23  1  0.510145  0.989901  0.989872  1
  Pt  Pt24  1  0.510479  0.992573  0.489521  1
  Pt  Pt25  1  0.510452  0.489548  0.992586  1
  Pt  Pt26  1  0.007427  0.489521  0.992572  1
  Pt  Pt27  1  0.007441  0.992559  0.489495  1
  Pt  Pt28  1  0.511716  0.488284  0.488275  1
