# generated using pymatgen
data_Er3Co8TcP6
_symmetry_space_group_name_H-M   'P 1'
_cell_length_a   3.71135200
_cell_length_b   10.49238900
_cell_length_c   12.18932700
_cell_angle_alpha   90.00000000
_cell_angle_beta   90.00000000
_cell_angle_gamma   90.00000000
_symmetry_Int_Tables_number   1
_chemical_formula_structural   Er3Co8TcP6
_chemical_formula_sum   'Er6 Co16 Tc2 P12'
_cell_volume   474.66395983
_cell_formula_units_Z   2
loop_
 _symmetry_equiv_pos_site_id
 _symmetry_equiv_pos_as_xyz
  1  'x, y, z'
loop_
 _atom_site_type_symbol
 _atom_site_label
 _atom_site_symmetry_multiplicity
 _atom_site_fract_x
 _atom_site_fract_y
 _atom_site_fract_z
 _atom_site_occupancy
  Er  Er0  1  0.750000  0.250000  0.476045  1
  Er  Er1  1  0.250000  0.750000  0.523955  1
  Er  Er2  1  0.250000  0.931840  0.793899  1
  Er  Er3  1  0.250000  0.568160  0.793899  1
  Er  Er4  1  0.750000  0.068160  0.206101  1
  Er  Er5  1  0.750000  0.431840  0.206101  1
  Co  Co6  1  0.250000  0.250000  0.297561  1
  Co  Co7  1  0.750000  0.750000  0.702439  1
  Co  Co8  1  0.750000  0.250000  0.012909  1
  Co  Co9  1  0.250000  0.750000  0.987091  1
  Co  Co10  1  0.250000  0.417688  0.010491  1
  Co  Co11  1  0.250000  0.082312  0.010491  1
  Co  Co12  1  0.750000  0.582312  0.989509  1
  Co  Co13  1  0.750000  0.917688  0.989509  1
  Co  Co14  1  0.250000  0.453292  0.568759  1
  Co  Co15  1  0.250000  0.046708  0.568759  1
  Co  Co16  1  0.750000  0.546708  0.431241  1
  Co  Co17  1  0.750000  0.953292  0.431241  1
  Co  Co18  1  0.250000  0.871636  0.292236  1
  Co  Co19  1  0.250000  0.628364  0.292236  1
  Co  Co20  1  0.750000  0.128364  0.707764  1
  Co  Co21  1  0.750000  0.371636  0.707764  1
  Tc  Tc22  1  0.250000  0.250000  0.843401  1
  Tc  Tc23  1  0.750000  0.750000  0.156599  1
  P  P24  1  0.250000  0.250000  0.119806  1
  P  P25  1  0.750000  0.750000  0.880194  1
  P  P26  1  0.250000  0.250000  0.650894  1
  P  P27  1  0.750000  0.750000  0.349106  1
  P  P28  1  0.250000  0.437428  0.383616  1
  P  P29  1  0.250000  0.062572  0.383616  1
  P  P30  1  0.750000  0.562572  0.616384  1
  P  P31  1  0.750000  0.937428  0.616384  1
  P  P32  1  0.250000  0.904188  0.107511  1
  P  P33  1  0.250000  0.595812  0.107511  1
  P  P34  1  0.750000  0.095812  0.892489  1
  P  P35  1  0.750000  0.404188  0.892489  1
