# generated using pymatgen
data_Ta8V2Ga5GeB2
_symmetry_space_group_name_H-M   'P 1'
_cell_length_a   7.73293510
_cell_length_b   7.73818256
_cell_length_c   5.22306812
_cell_angle_alpha   90.02526343
_cell_angle_beta   89.98736138
_cell_angle_gamma   120.02244056
_symmetry_Int_Tables_number   1
_chemical_formula_structural   Ta8V2Ga5GeB2
_chemical_formula_sum   'Ta8 V2 Ga5 Ge1 B2'
_cell_volume   270.60845802
_cell_formula_units_Z   1
loop_
 _symmetry_equiv_pos_site_id
 _symmetry_equiv_pos_as_xyz
  1  'x, y, z'
loop_
 _atom_site_type_symbol
 _atom_site_label
 _atom_site_symmetry_multiplicity
 _atom_site_fract_x
 _atom_site_fract_y
 _atom_site_fract_z
 _atom_site_occupancy
  Ta  Ta0  1  0.332500  0.665948  0.000714  1
  Ta  Ta1  1  0.667500  0.333446  0.000714  1
  Ta  Ta2  1  0.755966  0.755873  0.245816  1
  Ta  Ta3  1  0.244034  0.999907  0.245816  1
  Ta  Ta4  1  0.000000  0.244999  0.247018  1
  Ta  Ta5  1  0.242787  0.243306  0.753843  1
  Ta  Ta6  1  0.757213  0.000519  0.753843  1
  Ta  Ta7  1  0.000000  0.756770  0.753734  1
  V  V8  1  0.668606  0.333427  0.499668  1
  V  V9  1  0.331394  0.664823  0.499668  1
  Ga  Ga10  1  0.405090  0.404194  0.263950  1
  Ga  Ga11  1  0.594910  0.999103  0.263950  1
  Ga  Ga12  1  0.000000  0.597540  0.263154  1
  Ga  Ga13  1  0.595188  0.595018  0.736087  1
  Ga  Ga14  1  0.404812  0.999831  0.736087  1
  Ge  Ge15  1  0.000000  0.405763  0.735995  1
  B  B16  1  0.000000  0.999584  0.498717  1
  B  B17  1  0.000000  0.999949  0.001226  1
