# generated using pymatgen
data_Sr2Mg2CdGa5
_symmetry_space_group_name_H-M   'P 1'
_cell_length_a   4.48325200
_cell_length_b   4.48325200
_cell_length_c   11.70271700
_cell_angle_alpha   90.00000000
_cell_angle_beta   90.00000000
_cell_angle_gamma   90.00000000
_symmetry_Int_Tables_number   1
_chemical_formula_structural   Sr2Mg2CdGa5
_chemical_formula_sum   'Sr2 Mg2 Cd1 Ga5'
_cell_volume   235.21932787
_cell_formula_units_Z   1
loop_
 _symmetry_equiv_pos_site_id
 _symmetry_equiv_pos_as_xyz
  1  'x, y, z'
loop_
 _atom_site_type_symbol
 _atom_site_label
 _atom_site_symmetry_multiplicity
 _atom_site_fract_x
 _atom_site_fract_y
 _atom_site_fract_z
 _atom_site_occupancy
  Sr  Sr0  1  0.500000  0.000000  0.757069  1
  Sr  Sr1  1  0.000000  0.500000  0.242931  1
  Mg  Mg2  1  0.000000  0.000000  0.000000  1
  Mg  Mg3  1  0.500000  0.500000  0.500000  1
  Cd  Cd4  1  0.000000  0.000000  0.500000  1
  Ga  Ga5  1  0.500000  0.000000  0.137562  1
  Ga  Ga6  1  0.000000  0.500000  0.646252  1
  Ga  Ga7  1  0.000000  0.500000  0.862438  1
  Ga  Ga8  1  0.500000  0.000000  0.353748  1
  Ga  Ga9  1  0.500000  0.500000  0.000000  1
