# generated using pymatgen
data_Sc8C4Se3
_symmetry_space_group_name_H-M   'P 1'
_cell_length_a   3.48443995
_cell_length_b   7.62975259
_cell_length_c   11.61680788
_cell_angle_alpha   73.43534693
_cell_angle_beta   89.97404657
_cell_angle_gamma   117.14701456
_symmetry_Int_Tables_number   1
_chemical_formula_structural   Sc8C4Se3
_chemical_formula_sum   'Sc8 C4 Se3'
_cell_volume   260.30718553
_cell_formula_units_Z   1
loop_
 _symmetry_equiv_pos_site_id
 _symmetry_equiv_pos_as_xyz
  1  'x, y, z'
loop_
 _atom_site_type_symbol
 _atom_site_label
 _atom_site_symmetry_multiplicity
 _atom_site_fract_x
 _atom_site_fract_y
 _atom_site_fract_z
 _atom_site_occupancy
  Sc  Sc0  1  0.351881  0.531646  0.698048  1
  Sc  Sc1  1  0.969501  0.149115  0.602711  1
  Sc  Sc2  1  0.843919  0.523756  0.450508  1
  Sc  Sc3  1  0.470058  0.149394  0.356399  1
  Sc  Sc4  1  0.953032  0.132059  0.101035  1
  Sc  Sc5  1  0.471294  0.150637  0.848603  1
  Sc  Sc6  1  0.830311  0.509729  0.953839  1
  Sc  Sc7  1  0.323743  0.503054  0.197084  1
  C  C8  1  0.626182  0.305512  0.155640  1
  C  C9  1  0.165273  0.344938  0.398348  1
  C  C10  1  0.668287  0.347820  0.648484  1
  C  C11  1  0.149881  0.329133  0.901679  1
  Se  Se12  1  0.144784  0.823420  0.078050  1
  Se  Se13  1  0.653495  0.832948  0.451784  1
  Se  Se14  1  0.154759  0.834431  0.742179  1
