# generated using pymatgen
data_Pr2Al3Si2Pt2Rh
_symmetry_space_group_name_H-M   'P 1'
_cell_length_a   8.48595491
_cell_length_b   8.48595539
_cell_length_c   8.48595487
_cell_angle_alpha   138.82113424
_cell_angle_beta   103.62154817
_cell_angle_gamma   90.67808869
_symmetry_Int_Tables_number   1
_chemical_formula_structural   Pr2Al3Si2Pt2Rh
_chemical_formula_sum   'Pr4 Al6 Si4 Pt4 Rh2'
_cell_volume   373.56627761
_cell_formula_units_Z   2
loop_
 _symmetry_equiv_pos_site_id
 _symmetry_equiv_pos_as_xyz
  1  'x, y, z'
loop_
 _atom_site_type_symbol
 _atom_site_label
 _atom_site_symmetry_multiplicity
 _atom_site_fract_x
 _atom_site_fract_y
 _atom_site_fract_z
 _atom_site_occupancy
  Pr  Pr0  1  0.870291  0.628306  0.241986  1
  Pr  Pr1  1  0.129709  0.371694  0.758014  1
  Pr  Pr2  1  0.386320  0.128306  0.258014  1
  Pr  Pr3  1  0.613680  0.871694  0.741986  1
  Al  Al4  1  0.500000  0.750000  0.250000  1
  Al  Al5  1  0.500000  0.250000  0.750000  1
  Al  Al6  1  0.237634  0.987634  0.750000  1
  Al  Al7  1  0.762366  0.512366  0.750000  1
  Al  Al8  1  0.762366  0.012366  0.250000  1
  Al  Al9  1  0.237634  0.487634  0.250000  1
  Si  Si10  1  0.033302  0.892182  0.141120  1
  Si  Si11  1  0.966698  0.107818  0.858880  1
  Si  Si12  1  0.751062  0.392182  0.358880  1
  Si  Si13  1  0.248938  0.607818  0.641120  1
  Pt  Pt14  1  0.238599  0.867554  0.371047  1
  Pt  Pt15  1  0.761401  0.132446  0.628953  1
  Pt  Pt16  1  0.496507  0.367554  0.128953  1
  Pt  Pt17  1  0.503493  0.632446  0.871047  1
  Rh  Rh18  1  0.000000  0.750000  0.750000  1
  Rh  Rh19  1  0.000000  0.250000  0.250000  1
