# generated using pymatgen
data_CeTh3Si7
_symmetry_space_group_name_H-M   'P 1'
_cell_length_a   7.92210904
_cell_length_b   7.92211076
_cell_length_c   8.59945301
_cell_angle_alpha   90.00384323
_cell_angle_beta   89.99617150
_cell_angle_gamma   119.87211057
_symmetry_Int_Tables_number   1
_chemical_formula_structural   CeTh3Si7
_chemical_formula_sum   'Ce2 Th6 Si14'
_cell_volume   467.99521960
_cell_formula_units_Z   2
loop_
 _symmetry_equiv_pos_site_id
 _symmetry_equiv_pos_as_xyz
  1  'x, y, z'
loop_
 _atom_site_type_symbol
 _atom_site_label
 _atom_site_symmetry_multiplicity
 _atom_site_fract_x
 _atom_site_fract_y
 _atom_site_fract_z
 _atom_site_occupancy
  Ce  Ce0  1  0.258055  0.258054  0.999999  1
  Ce  Ce1  1  0.741945  0.741946  0.000001  1
  Th  Th2  1  0.744178  0.744178  0.500000  1
  Th  Th3  1  0.255822  0.255822  0.500000  1
  Th  Th4  1  0.251183  0.748817  0.496342  1
  Th  Th5  1  0.748817  0.251183  0.503658  1
  Th  Th6  1  0.748950  0.251050  0.995826  1
  Th  Th7  1  0.251050  0.748950  0.004174  1
  Si  Si8  1  0.059154  0.368144  0.248220  1
  Si  Si9  1  0.940846  0.631856  0.751780  1
  Si  Si10  1  0.583899  0.416101  0.247272  1
  Si  Si11  1  0.416101  0.583899  0.752728  1
  Si  Si12  1  0.410931  0.589069  0.248057  1
  Si  Si13  1  0.589069  0.410931  0.751943  1
  Si  Si14  1  0.060868  0.939132  0.246624  1
  Si  Si15  1  0.939132  0.060868  0.753376  1
  Si  Si16  1  0.631855  0.940845  0.248220  1
  Si  Si17  1  0.368145  0.059155  0.751780  1
  Si  Si18  1  0.928158  0.589386  0.249567  1
  Si  Si19  1  0.071842  0.410614  0.750433  1
  Si  Si20  1  0.410613  0.071842  0.249567  1
  Si  Si21  1  0.589387  0.928158  0.750433  1
