# generated using pymatgen
data_Rb8Ga11
_symmetry_space_group_name_H-M   'P 1'
_cell_length_a   9.82245706
_cell_length_b   9.82245724
_cell_length_c   17.64749400
_cell_angle_alpha   90.00000000
_cell_angle_beta   106.15854000
_cell_angle_gamma   120.00000029
_symmetry_Int_Tables_number   1
_chemical_formula_structural   Rb8Ga11
_chemical_formula_sum   'Rb16 Ga22'
_cell_volume   1396.32341284
_cell_formula_units_Z   2
loop_
 _symmetry_equiv_pos_site_id
 _symmetry_equiv_pos_as_xyz
  1  'x, y, z'
loop_
 _atom_site_type_symbol
 _atom_site_label
 _atom_site_symmetry_multiplicity
 _atom_site_fract_x
 _atom_site_fract_y
 _atom_site_fract_z
 _atom_site_occupancy
  Rb  Rb0  1  0.973335  0.656195  0.069477  1
  Rb  Rb1  1  0.413283  0.317140  0.069477  1
  Rb  Rb2  1  0.752337  0.096142  0.069477  1
  Rb  Rb3  1  0.156075  0.078038  0.234113  1
  Rb  Rb4  1  0.843924  0.421962  0.265887  1
  Rb  Rb5  1  0.247663  0.843805  0.430523  1
  Rb  Rb6  1  0.586718  0.403858  0.430523  1
  Rb  Rb7  1  0.026665  0.182860  0.430523  1
  Rb  Rb8  1  0.973335  0.817140  0.569477  1
  Rb  Rb9  1  0.413282  0.596141  0.569477  1
  Rb  Rb10  1  0.752337  0.156195  0.569477  1
  Rb  Rb11  1  0.156075  0.578037  0.734113  1
  Rb  Rb12  1  0.843925  0.921963  0.765887  1
  Rb  Rb13  1  0.247663  0.903858  0.930523  1
  Rb  Rb14  1  0.586718  0.682860  0.930523  1
  Rb  Rb15  1  0.026664  0.343804  0.930523  1
  Ga  Ga16  1  0.410036  0.705019  0.115056  1
  Ga  Ga17  1  0.439848  0.979858  0.166789  1
  Ga  Ga18  1  0.706799  0.726940  0.166789  1
  Ga  Ga19  1  0.186931  0.459990  0.166789  1
  Ga  Ga20  1  0.693567  0.943568  0.250000  1
  Ga  Ga21  1  0.306433  0.750000  0.250000  1
  Ga  Ga22  1  0.500000  0.556433  0.250000  1
  Ga  Ga23  1  0.813069  0.773059  0.333211  1
  Ga  Ga24  1  0.293201  0.520142  0.333211  1
  Ga  Ga25  1  0.560151  0.040011  0.333211  1
  Ga  Ga26  1  0.589964  0.794982  0.384944  1
  Ga  Ga27  1  0.410036  0.205019  0.615056  1
  Ga  Ga28  1  0.439849  0.959990  0.666789  1
  Ga  Ga29  1  0.706799  0.479859  0.666789  1
  Ga  Ga30  1  0.186931  0.226940  0.666789  1
  Ga  Ga31  1  0.500000  0.443567  0.750000  1
  Ga  Ga32  1  0.693567  0.250000  0.750000  1
  Ga  Ga33  1  0.306433  0.056433  0.750000  1
  Ga  Ga34  1  0.813069  0.540010  0.833211  1
  Ga  Ga35  1  0.293202  0.273060  0.833211  1
  Ga  Ga36  1  0.560152  0.020142  0.833211  1
  Ga  Ga37  1  0.589964  0.294981  0.884944  1
