# generated using pymatgen
data_YbHoLu8(In2Pt)4
_symmetry_space_group_name_H-M   'P 1'
_cell_length_a   3.59882300
_cell_length_b   8.04329775
_cell_length_c   18.02811704
_cell_angle_alpha   89.89011880
_cell_angle_beta   90.00000000
_cell_angle_gamma   90.00000000
_symmetry_Int_Tables_number   1
_chemical_formula_structural   YbHoLu8(In2Pt)4
_chemical_formula_sum   'Yb1 Ho1 Lu8 In8 Pt4'
_cell_volume   521.84821660
_cell_formula_units_Z   1
loop_
 _symmetry_equiv_pos_site_id
 _symmetry_equiv_pos_as_xyz
  1  'x, y, z'
loop_
 _atom_site_type_symbol
 _atom_site_label
 _atom_site_symmetry_multiplicity
 _atom_site_fract_x
 _atom_site_fract_y
 _atom_site_fract_z
 _atom_site_occupancy
  Yb  Yb0  1  0.000000  0.000000  0.000000  1
  Ho  Ho1  1  0.000000  0.500000  0.500000  1
  Lu  Lu2  1  0.000000  0.117836  0.413275  1
  Lu  Lu3  1  0.000000  0.882164  0.586725  1
  Lu  Lu4  1  0.000000  0.381020  0.913317  1
  Lu  Lu5  1  0.000000  0.618980  0.086683  1
  Lu  Lu6  1  0.000000  0.243833  0.221331  1
  Lu  Lu7  1  0.000000  0.756167  0.778669  1
  Lu  Lu8  1  0.000000  0.255900  0.721633  1
  Lu  Lu9  1  0.000000  0.744100  0.278367  1
  In  In10  1  0.500000  0.424746  0.351467  1
  In  In11  1  0.500000  0.575254  0.648533  1
  In  In12  1  0.500000  0.072809  0.851454  1
  In  In13  1  0.500000  0.927191  0.148546  1
  In  In14  1  0.500000  0.295588  0.066588  1
  In  In15  1  0.500000  0.704412  0.933412  1
  In  In16  1  0.500000  0.205424  0.566383  1
  In  In17  1  0.500000  0.794576  0.433617  1
  Pt  Pt18  1  0.500000  0.024592  0.304309  1
  Pt  Pt19  1  0.500000  0.975408  0.695691  1
  Pt  Pt20  1  0.500000  0.476449  0.803166  1
  Pt  Pt21  1  0.500000  0.523551  0.196834  1
