# generated using pymatgen
data_ThZnSiOsPt
_symmetry_space_group_name_H-M   'P 1'
_cell_length_a   4.21065500
_cell_length_b   4.21065500
_cell_length_c   10.43026800
_cell_angle_alpha   90.00000000
_cell_angle_beta   90.00000000
_cell_angle_gamma   90.00000000
_symmetry_Int_Tables_number   1
_chemical_formula_structural   ThZnSiOsPt
_chemical_formula_sum   'Th2 Zn2 Si2 Os2 Pt2'
_cell_volume   184.92464150
_cell_formula_units_Z   2
loop_
 _symmetry_equiv_pos_site_id
 _symmetry_equiv_pos_as_xyz
  1  'x, y, z'
loop_
 _atom_site_type_symbol
 _atom_site_label
 _atom_site_symmetry_multiplicity
 _atom_site_fract_x
 _atom_site_fract_y
 _atom_site_fract_z
 _atom_site_occupancy
  Th  Th0  1  0.000000  0.500000  0.235715  1
  Th  Th1  1  0.500000  0.000000  0.764285  1
  Zn  Zn2  1  0.000000  0.000000  0.500000  1
  Zn  Zn3  1  0.500000  0.500000  0.500000  1
  Si  Si4  1  0.000000  0.500000  0.886202  1
  Si  Si5  1  0.500000  0.000000  0.113798  1
  Os  Os6  1  0.000000  0.000000  0.000000  1
  Os  Os7  1  0.500000  0.500000  0.000000  1
  Pt  Pt8  1  0.000000  0.500000  0.654555  1
  Pt  Pt9  1  0.500000  0.000000  0.345445  1
