# generated using pymatgen
data_YHo9(SnSb)3
_symmetry_space_group_name_H-M   'P 1'
_cell_length_a   6.37613200
_cell_length_b   8.96199334
_cell_length_c   8.95615200
_cell_angle_alpha   119.98008440
_cell_angle_beta   90.00005648
_cell_angle_gamma   90.00140266
_symmetry_Int_Tables_number   1
_chemical_formula_structural   YHo9(SnSb)3
_chemical_formula_sum   'Y1 Ho9 Sn3 Sb3'
_cell_volume   443.30346322
_cell_formula_units_Z   1
loop_
 _symmetry_equiv_pos_site_id
 _symmetry_equiv_pos_as_xyz
  1  'x, y, z'
loop_
 _atom_site_type_symbol
 _atom_site_label
 _atom_site_symmetry_multiplicity
 _atom_site_fract_x
 _atom_site_fract_y
 _atom_site_fract_z
 _atom_site_occupancy
  Y  Y0  1  0.750002  0.000003  0.241161  1
  Ho  Ho1  1  0.500861  0.333330  0.666709  1
  Ho  Ho2  1  0.500863  0.666673  0.333387  1
  Ho  Ho3  1  0.999139  0.666675  0.333391  1
  Ho  Ho4  1  0.999137  0.333329  0.666704  1
  Ho  Ho5  1  0.750001  0.241385  0.999937  1
  Ho  Ho6  1  0.749997  0.758630  0.758569  1
  Ho  Ho7  1  0.250000  0.757870  0.999783  1
  Ho  Ho8  1  0.250000  0.242110  0.241894  1
  Ho  Ho9  1  0.250008  0.999998  0.758199  1
  Sn  Sn10  1  0.750001  0.606642  0.999676  1
  Sn  Sn11  1  0.750001  0.393360  0.393037  1
  Sn  Sn12  1  0.749996  0.000009  0.607419  1
  Sb  Sb13  1  0.249997  0.391467  0.000045  1
  Sb  Sb14  1  0.250000  0.608526  0.608578  1
  Sb  Sb15  1  0.249999  0.999992  0.391511  1
