# generated using pymatgen
data_Ac7La(InSi2)4
_symmetry_space_group_name_H-M   'P 1'
_cell_length_a   4.56693400
_cell_length_b   7.96441858
_cell_length_c   15.26952076
_cell_angle_alpha   90.21507529
_cell_angle_beta   90.00000000
_cell_angle_gamma   90.00000000
_symmetry_Int_Tables_number   1
_chemical_formula_structural   Ac7La(InSi2)4
_chemical_formula_sum   'Ac7 La1 In4 Si8'
_cell_volume   555.39396893
_cell_formula_units_Z   1
loop_
 _symmetry_equiv_pos_site_id
 _symmetry_equiv_pos_as_xyz
  1  'x, y, z'
loop_
 _atom_site_type_symbol
 _atom_site_label
 _atom_site_symmetry_multiplicity
 _atom_site_fract_x
 _atom_site_fract_y
 _atom_site_fract_z
 _atom_site_occupancy
  Ac  Ac0  1  0.500000  0.747159  0.033644  1
  Ac  Ac1  1  0.500000  0.248080  0.962779  1
  Ac  Ac2  1  0.500000  0.251209  0.467715  1
  Ac  Ac3  1  0.500000  0.753202  0.536046  1
  Ac  Ac4  1  0.500000  0.616835  0.283385  1
  Ac  Ac5  1  0.500000  0.385670  0.718714  1
  Ac  Ac6  1  0.500000  0.116851  0.215837  1
  La  La7  1  0.500000  0.884873  0.783438  1
  In  In8  1  0.000000  0.937003  0.374978  1
  In  In9  1  0.000000  0.057061  0.629730  1
  In  In10  1  0.000000  0.437682  0.124947  1
  In  In11  1  0.000000  0.570886  0.873326  1
  Si  Si12  1  0.000000  0.550868  0.425764  1
  Si  Si13  1  0.000000  0.457206  0.577532  1
  Si  Si14  1  0.000000  0.045826  0.072099  1
  Si  Si15  1  0.000000  0.942177  0.920526  1
  Si  Si16  1  0.000000  0.828093  0.182196  1
  Si  Si17  1  0.000000  0.160506  0.813091  1
  Si  Si18  1  0.000000  0.328143  0.317948  1
  Si  Si19  1  0.000000  0.680670  0.686306  1
