# generated using pymatgen
data_Lu4Al18ReNi5
_symmetry_space_group_name_H-M   'P 1'
_cell_length_a   7.44781628
_cell_length_b   7.44745794
_cell_length_c   9.25136464
_cell_angle_alpha   89.74429419
_cell_angle_beta   89.74890336
_cell_angle_gamma   119.88035855
_symmetry_Int_Tables_number   1
_chemical_formula_structural   Lu4Al18ReNi5
_chemical_formula_sum   'Lu4 Al18 Re1 Ni5'
_cell_volume   444.91682923
_cell_formula_units_Z   1
loop_
 _symmetry_equiv_pos_site_id
 _symmetry_equiv_pos_as_xyz
  1  'x, y, z'
loop_
 _atom_site_type_symbol
 _atom_site_label
 _atom_site_symmetry_multiplicity
 _atom_site_fract_x
 _atom_site_fract_y
 _atom_site_fract_z
 _atom_site_occupancy
  Lu  Lu0  1  0.988447  0.662255  0.252808  1
  Lu  Lu1  1  0.999642  0.328228  0.747687  1
  Lu  Lu2  1  0.671749  0.000331  0.252286  1
  Lu  Lu3  1  0.337675  0.011488  0.747174  1
  Al  Al4  1  0.119383  0.119688  0.249102  1
  Al  Al5  1  0.880430  0.880745  0.750832  1
  Al  Al6  1  0.998085  0.335489  0.072713  1
  Al  Al7  1  0.005812  0.669690  0.925617  1
  Al  Al8  1  0.006373  0.667373  0.574646  1
  Al  Al9  1  0.332628  0.993578  0.425301  1
  Al  Al10  1  0.006944  0.333954  0.426520  1
  Al  Al11  1  0.666012  0.992985  0.573422  1
  Al  Al12  1  0.664494  0.001865  0.927292  1
  Al  Al13  1  0.330297  0.994146  0.074386  1
  Al  Al14  1  0.331988  0.330155  0.549903  1
  Al  Al15  1  0.669874  0.668053  0.450059  1
  Al  Al16  1  0.667976  0.670550  0.051656  1
  Al  Al17  1  0.329420  0.331998  0.948350  1
  Al  Al18  1  0.338514  0.556864  0.249253  1
  Al  Al19  1  0.661545  0.455208  0.753691  1
  Al  Al20  1  0.544752  0.338417  0.246300  1
  Al  Al21  1  0.443056  0.661434  0.750711  1
  Re  Re22  1  0.674514  0.325480  0.499986  1
  Ni  Ni23  1  0.671562  0.328311  0.000006  1
  Ni  Ni24  1  0.327321  0.672497  0.000054  1
  Ni  Ni25  1  0.330274  0.668283  0.499524  1
  Ni  Ni26  1  0.998605  0.002113  0.000912  1
  Ni  Ni27  1  0.002629  0.998822  0.499808  1
