# generated using pymatgen
data_Cs3Na9(SbS3)4
_symmetry_space_group_name_H-M   'P 1'
_cell_length_a   10.38368798
_cell_length_b   10.38368821
_cell_length_c   10.38368824
_cell_angle_alpha   111.06394216
_cell_angle_beta   111.06393567
_cell_angle_gamma   106.33069353
_symmetry_Int_Tables_number   1
_chemical_formula_structural   Cs3Na9(SbS3)4
_chemical_formula_sum   'Cs3 Na9 Sb4 S12'
_cell_volume   859.92423679
_cell_formula_units_Z   1
loop_
 _symmetry_equiv_pos_site_id
 _symmetry_equiv_pos_as_xyz
  1  'x, y, z'
loop_
 _atom_site_type_symbol
 _atom_site_label
 _atom_site_symmetry_multiplicity
 _atom_site_fract_x
 _atom_site_fract_y
 _atom_site_fract_z
 _atom_site_occupancy
  Cs  Cs0  1  0.000000  0.000000  0.000000  1
  Cs  Cs1  1  0.329765  0.329765  0.000000  1
  Cs  Cs2  1  0.670235  0.670235  0.000000  1
  Na  Na3  1  0.250000  0.750000  0.500000  1
  Na  Na4  1  0.316512  0.443982  0.446420  1
  Na  Na5  1  0.997562  0.870093  0.553580  1
  Na  Na6  1  0.478951  0.008086  0.161021  1
  Na  Na7  1  0.847065  0.317931  0.838979  1
  Na  Na8  1  0.682069  0.521049  0.529135  1
  Na  Na9  1  0.991914  0.152935  0.470865  1
  Na  Na10  1  0.556018  0.002438  0.872530  1
  Na  Na11  1  0.129907  0.683488  0.127470  1
  Sb  Sb12  1  0.143033  0.620036  0.766506  1
  Sb  Sb13  1  0.853530  0.376527  0.233494  1
  Sb  Sb14  1  0.623473  0.856967  0.477003  1
  Sb  Sb15  1  0.379964  0.146470  0.522997  1
  S  S16  1  0.659219  0.312760  0.972375  1
  S  S17  1  0.340385  0.686844  0.027625  1
  S  S18  1  0.313156  0.340781  0.653541  1
  S  S19  1  0.687240  0.659615  0.346459  1
  S  S20  1  0.410793  0.222734  0.331459  1
  S  S21  1  0.891275  0.079335  0.668541  1
  S  S22  1  0.237645  0.882669  0.795624  1
  S  S23  1  0.087046  0.442022  0.204376  1
  S  S24  1  0.557978  0.762355  0.645024  1
  S  S25  1  0.117331  0.912954  0.354976  1
  S  S26  1  0.777266  0.108725  0.188061  1
  S  S27  1  0.920665  0.589207  0.811939  1
