# generated using pymatgen
data_Dy5Y3Cd2OsPt
_symmetry_space_group_name_H-M   'P 1'
_cell_length_a   9.66663210
_cell_length_b   9.66665807
_cell_length_c   9.73392801
_cell_angle_alpha   59.77134212
_cell_angle_beta   59.77131023
_cell_angle_gamma   59.66262161
_symmetry_Int_Tables_number   1
_chemical_formula_structural   Dy5Y3Cd2OsPt
_chemical_formula_sum   'Dy10 Y6 Cd4 Os2 Pt2'
_cell_volume   639.29747970
_cell_formula_units_Z   2
loop_
 _symmetry_equiv_pos_site_id
 _symmetry_equiv_pos_as_xyz
  1  'x, y, z'
loop_
 _atom_site_type_symbol
 _atom_site_label
 _atom_site_symmetry_multiplicity
 _atom_site_fract_x
 _atom_site_fract_y
 _atom_site_fract_z
 _atom_site_occupancy
  Dy  Dy0  1  0.349453  0.349453  0.352061  1
  Dy  Dy1  1  0.349442  0.349441  0.949062  1
  Dy  Dy2  1  0.345952  0.955455  0.349289  1
  Dy  Dy3  1  0.955457  0.345952  0.349288  1
  Dy  Dy4  1  0.813930  0.188054  0.191500  1
  Dy  Dy5  1  0.188052  0.813920  0.806521  1
  Dy  Dy6  1  0.188052  0.813932  0.191500  1
  Dy  Dy7  1  0.813920  0.188053  0.806521  1
  Dy  Dy8  1  0.188480  0.188481  0.811519  1
  Dy  Dy9  1  0.808154  0.808154  0.191838  1
  Y  Y10  1  0.938729  0.556440  0.566111  1
  Y  Y11  1  0.556446  0.938724  0.938711  1
  Y  Y12  1  0.556441  0.938729  0.566111  1
  Y  Y13  1  0.938725  0.556443  0.938713  1
  Y  Y14  1  0.562684  0.562684  0.937318  1
  Y  Y15  1  0.940263  0.940262  0.559742  1
  Cd  Cd16  1  0.580222  0.580222  0.580942  1
  Cd  Cd17  1  0.580222  0.580222  0.258615  1
  Cd  Cd18  1  0.581322  0.255195  0.581746  1
  Cd  Cd19  1  0.255195  0.581321  0.581746  1
  Os  Os20  1  0.144456  0.144457  0.136294  1
  Os  Os21  1  0.144456  0.144456  0.574788  1
  Pt  Pt22  1  0.145233  0.574718  0.140034  1
  Pt  Pt23  1  0.574717  0.145233  0.140034  1
