# generated using pymatgen
data_Ho3ZnCd(HgAu)2
_symmetry_space_group_name_H-M   'P 1'
_cell_length_a   7.90790575
_cell_length_b   7.90790523
_cell_length_c   3.74593800
_cell_angle_alpha   90.00000000
_cell_angle_beta   90.00000000
_cell_angle_gamma   120.21368685
_symmetry_Int_Tables_number   1
_chemical_formula_structural   Ho3ZnCd(HgAu)2
_chemical_formula_sum   'Ho3 Zn1 Cd1 Hg2 Au2'
_cell_volume   202.43004862
_cell_formula_units_Z   1
loop_
 _symmetry_equiv_pos_site_id
 _symmetry_equiv_pos_as_xyz
  1  'x, y, z'
loop_
 _atom_site_type_symbol
 _atom_site_label
 _atom_site_symmetry_multiplicity
 _atom_site_fract_x
 _atom_site_fract_y
 _atom_site_fract_z
 _atom_site_occupancy
  Ho  Ho0  1  0.589179  0.002044  0.000000  1
  Ho  Ho1  1  0.002044  0.589179  0.000000  1
  Ho  Ho2  1  0.405749  0.405749  0.000000  1
  Zn  Zn3  1  0.998847  0.998847  0.000000  1
  Cd  Cd4  1  0.742392  0.742392  0.500000  1
  Hg  Hg5  1  0.258399  0.998652  0.500000  1
  Hg  Hg6  1  0.998652  0.258399  0.500000  1
  Au  Au7  1  0.337622  0.667115  0.500000  1
  Au  Au8  1  0.667115  0.337622  0.500000  1
