# generated using pymatgen
data_Zr6Nb4Ga12Ir4Ru3
_symmetry_space_group_name_H-M   'P 1'
_cell_length_a   8.85873767
_cell_length_b   8.85381590
_cell_length_c   8.85113296
_cell_angle_alpha   60.05443089
_cell_angle_beta   59.97157366
_cell_angle_gamma   59.98161697
_symmetry_Int_Tables_number   1
_chemical_formula_structural   Zr6Nb4Ga12Ir4Ru3
_chemical_formula_sum   'Zr6 Nb4 Ga12 Ir4 Ru3'
_cell_volume   490.91993500
_cell_formula_units_Z   1
loop_
 _symmetry_equiv_pos_site_id
 _symmetry_equiv_pos_as_xyz
  1  'x, y, z'
loop_
 _atom_site_type_symbol
 _atom_site_label
 _atom_site_symmetry_multiplicity
 _atom_site_fract_x
 _atom_site_fract_y
 _atom_site_fract_z
 _atom_site_occupancy
  Zr  Zr0  1  0.696573  0.696346  0.303819  1
  Zr  Zr1  1  0.303263  0.696346  0.303819  1
  Zr  Zr2  1  0.689715  0.309823  0.310748  1
  Zr  Zr3  1  0.304347  0.304260  0.695406  1
  Zr  Zr4  1  0.695987  0.304260  0.695406  1
  Zr  Zr5  1  0.309983  0.690260  0.689773  1
  Nb  Nb6  1  0.876745  0.880646  0.365864  1
  Nb  Nb7  1  0.878483  0.364683  0.878350  1
  Nb  Nb8  1  0.365210  0.879625  0.875451  1
  Nb  Nb9  1  0.879716  0.879625  0.875451  1
  Ga  Ga10  1  0.122170  0.117793  0.637867  1
  Ga  Ga11  1  0.119771  0.640260  0.120198  1
  Ga  Ga12  1  0.638953  0.118263  0.123621  1
  Ga  Ga13  1  0.119162  0.118263  0.123621  1
  Ga  Ga14  1  0.655357  0.656797  0.032487  1
  Ga  Ga15  1  0.657400  0.028850  0.656348  1
  Ga  Ga16  1  0.030728  0.657701  0.655146  1
  Ga  Ga17  1  0.656423  0.657701  0.655146  1
  Ga  Ga18  1  0.341981  0.340961  0.975079  1
  Ga  Ga19  1  0.340131  0.977869  0.341872  1
  Ga  Ga20  1  0.976376  0.339518  0.342572  1
  Ga  Ga21  1  0.341534  0.339518  0.342572  1
  Ir  Ir22  1  0.996937  0.502923  0.503203  1
  Ir  Ir23  1  0.503112  0.502932  0.996717  1
  Ir  Ir24  1  0.997240  0.502932  0.996717  1
  Ir  Ir25  1  0.503060  0.997318  0.996561  1
  Ru  Ru26  1  0.999920  0.001731  0.998428  1
  Ru  Ru27  1  0.996302  0.996399  0.503878  1
  Ru  Ru28  1  0.503421  0.996399  0.503878  1
