# generated using pymatgen
data_Nd3SmPd3RuO14
_symmetry_space_group_name_H-M   'P 1'
_cell_length_a   7.38620324
_cell_length_b   7.43290310
_cell_length_c   7.38620300
_cell_angle_alpha   60.20762399
_cell_angle_beta   60.00000555
_cell_angle_gamma   60.20762472
_symmetry_Int_Tables_number   1
_chemical_formula_structural   Nd3SmPd3RuO14
_chemical_formula_sum   'Nd3 Sm1 Pd3 Ru1 O14'
_cell_volume   287.63504619
_cell_formula_units_Z   1
loop_
 _symmetry_equiv_pos_site_id
 _symmetry_equiv_pos_as_xyz
  1  'x, y, z'
loop_
 _atom_site_type_symbol
 _atom_site_label
 _atom_site_symmetry_multiplicity
 _atom_site_fract_x
 _atom_site_fract_y
 _atom_site_fract_z
 _atom_site_occupancy
  Nd  Nd0  1  0.625000  0.625000  0.625000  1
  Nd  Nd1  1  0.125000  0.625000  0.625000  1
  Nd  Nd2  1  0.625000  0.625000  0.125000  1
  Sm  Sm3  1  0.625000  0.125000  0.625000  1
  Pd  Pd4  1  0.125000  0.125000  0.125000  1
  Pd  Pd5  1  0.625000  0.125000  0.125000  1
  Pd  Pd6  1  0.125000  0.125000  0.625000  1
  Ru  Ru7  1  0.125000  0.625000  0.125000  1
  O  O8  1  0.501499  0.495503  0.501499  1
  O  O9  1  0.748501  0.754497  0.748501  1
  O  O10  1  0.038899  0.036224  0.462438  1
  O  O11  1  0.797521  0.789428  0.206526  1
  O  O12  1  0.462438  0.036224  0.462438  1
  O  O13  1  0.462438  0.036224  0.038899  1
  O  O14  1  0.043474  0.460572  0.452479  1
  O  O15  1  0.043474  0.460572  0.043474  1
  O  O16  1  0.452479  0.460572  0.043474  1
  O  O17  1  0.206526  0.789428  0.797521  1
  O  O18  1  0.787562  0.213776  0.211101  1
  O  O19  1  0.211101  0.213776  0.787562  1
  O  O20  1  0.206526  0.789428  0.206526  1
  O  O21  1  0.787562  0.213776  0.787562  1
