# generated using pymatgen
data_GdHoNiB10
_symmetry_space_group_name_H-M   'P 1'
_cell_length_a   4.14849500
_cell_length_b   5.57163634
_cell_length_c   11.09261559
_cell_angle_alpha   90.05083194
_cell_angle_beta   90.00000000
_cell_angle_gamma   90.00000000
_symmetry_Int_Tables_number   1
_chemical_formula_structural   GdHoNiB10
_chemical_formula_sum   'Gd2 Ho2 Ni2 B20'
_cell_volume   256.39356781
_cell_formula_units_Z   2
loop_
 _symmetry_equiv_pos_site_id
 _symmetry_equiv_pos_as_xyz
  1  'x, y, z'
loop_
 _atom_site_type_symbol
 _atom_site_label
 _atom_site_symmetry_multiplicity
 _atom_site_fract_x
 _atom_site_fract_y
 _atom_site_fract_z
 _atom_site_occupancy
  Gd  Gd0  1  0.500000  0.187196  0.361924  1
  Gd  Gd1  1  0.500000  0.812804  0.638076  1
  Ho  Ho2  1  0.500000  0.313091  0.862786  1
  Ho  Ho3  1  0.500000  0.686909  0.137214  1
  Ni  Ni4  1  0.000000  0.000000  0.000000  1
  Ni  Ni5  1  0.000000  0.500000  0.500000  1
  B  B6  1  0.000000  0.374266  0.040269  1
  B  B7  1  0.000000  0.625734  0.959731  1
  B  B8  1  0.000000  0.125555  0.541211  1
  B  B9  1  0.000000  0.874445  0.458789  1
  B  B10  1  0.000000  0.343073  0.197784  1
  B  B11  1  0.000000  0.656927  0.802216  1
  B  B12  1  0.000000  0.156945  0.698912  1
  B  B13  1  0.000000  0.843055  0.301088  1
  B  B14  1  0.000000  0.032039  0.186543  1
  B  B15  1  0.000000  0.967961  0.813457  1
  B  B16  1  0.000000  0.467898  0.687521  1
  B  B17  1  0.000000  0.532102  0.312479  1
  B  B18  1  0.301487  0.203635  0.113847  1
  B  B19  1  0.698513  0.796365  0.886153  1
  B  B20  1  0.301487  0.796365  0.886153  1
  B  B21  1  0.698636  0.297558  0.615139  1
  B  B22  1  0.698513  0.203635  0.113847  1
  B  B23  1  0.301364  0.702442  0.384861  1
  B  B24  1  0.698636  0.702442  0.384861  1
  B  B25  1  0.301364  0.297558  0.615139  1
