# generated using pymatgen
data_Sr3Hg2Pd7
_symmetry_space_group_name_H-M   'P 1'
_cell_length_a   9.61161804
_cell_length_b   9.61161854
_cell_length_c   9.61161681
_cell_angle_alpha   34.61800391
_cell_angle_beta   34.61799886
_cell_angle_gamma   34.61799996
_symmetry_Int_Tables_number   1
_chemical_formula_structural   Sr3Hg2Pd7
_chemical_formula_sum   'Sr3 Hg2 Pd7'
_cell_volume   255.71369217
_cell_formula_units_Z   1
loop_
 _symmetry_equiv_pos_site_id
 _symmetry_equiv_pos_as_xyz
  1  'x, y, z'
loop_
 _atom_site_type_symbol
 _atom_site_label
 _atom_site_symmetry_multiplicity
 _atom_site_fract_x
 _atom_site_fract_y
 _atom_site_fract_z
 _atom_site_occupancy
  Sr  Sr0  1  0.360097  0.360097  0.360097  1
  Sr  Sr1  1  0.500000  0.500000  0.500000  1
  Sr  Sr2  1  0.639903  0.639903  0.639903  1
  Hg  Hg3  1  0.166777  0.166777  0.166777  1
  Hg  Hg4  1  0.833223  0.833223  0.833223  1
  Pd  Pd5  1  0.000000  0.000000  0.000000  1
  Pd  Pd6  1  0.584140  0.084883  0.084883  1
  Pd  Pd7  1  0.084883  0.584140  0.084883  1
  Pd  Pd8  1  0.915117  0.915117  0.415860  1
  Pd  Pd9  1  0.084883  0.084883  0.584140  1
  Pd  Pd10  1  0.915117  0.415860  0.915117  1
  Pd  Pd11  1  0.415860  0.915117  0.915117  1
