# generated using pymatgen
data_Tm3In3Ir2Pb
_symmetry_space_group_name_H-M   'P 1'
_cell_length_a   7.78183900
_cell_length_b   7.78183939
_cell_length_c   3.91535000
_cell_angle_alpha   90.00000000
_cell_angle_beta   90.00000000
_cell_angle_gamma   119.99999410
_symmetry_Int_Tables_number   1
_chemical_formula_structural   Tm3In3Ir2Pb
_chemical_formula_sum   'Tm3 In3 Ir2 Pb1'
_cell_volume   205.33630961
_cell_formula_units_Z   1
loop_
 _symmetry_equiv_pos_site_id
 _symmetry_equiv_pos_as_xyz
  1  'x, y, z'
loop_
 _atom_site_type_symbol
 _atom_site_label
 _atom_site_symmetry_multiplicity
 _atom_site_fract_x
 _atom_site_fract_y
 _atom_site_fract_z
 _atom_site_occupancy
  Tm  Tm0  1  0.581259  0.616687  0.000000  1
  Tm  Tm1  1  0.383313  0.964573  0.000000  1
  Tm  Tm2  1  0.035427  0.418741  0.000000  1
  In  In3  1  0.013493  0.755884  0.500000  1
  In  In4  1  0.244116  0.257610  0.500000  1
  In  In5  1  0.742390  0.986507  0.500000  1
  Ir  Ir6  1  0.000000  0.000000  0.000000  1
  Ir  Ir7  1  0.333333  0.666667  0.500000  1
  Pb  Pb8  1  0.666667  0.333333  0.500000  1
