# generated using pymatgen
data_NaCa(YbB12)2
_symmetry_space_group_name_H-M   'P 1'
_cell_length_a   7.15772400
_cell_length_b   7.15772427
_cell_length_c   5.85457900
_cell_angle_alpha   90.00000000
_cell_angle_beta   90.00000000
_cell_angle_gamma   109.34586627
_symmetry_Int_Tables_number   1
_chemical_formula_structural   NaCa(YbB12)2
_chemical_formula_sum   'Na1 Ca1 Yb2 B24'
_cell_volume   283.01150357
_cell_formula_units_Z   1
loop_
 _symmetry_equiv_pos_site_id
 _symmetry_equiv_pos_as_xyz
  1  'x, y, z'
loop_
 _atom_site_type_symbol
 _atom_site_label
 _atom_site_symmetry_multiplicity
 _atom_site_fract_x
 _atom_site_fract_y
 _atom_site_fract_z
 _atom_site_occupancy
  Na  Na0  1  0.749086  0.250914  0.500000  1
  Ca  Ca1  1  0.997696  0.002304  0.000000  1
  Yb  Yb2  1  0.501819  0.498181  0.000000  1
  Yb  Yb3  1  0.250856  0.749144  0.500000  1
  B  B4  1  0.175621  0.326139  0.649047  1
  B  B5  1  0.925202  0.575058  0.149799  1
  B  B6  1  0.673861  0.824379  0.649047  1
  B  B7  1  0.424942  0.074798  0.149799  1
  B  B8  1  0.175621  0.326139  0.350953  1
  B  B9  1  0.925202  0.575058  0.850201  1
  B  B10  1  0.673861  0.824379  0.350953  1
  B  B11  1  0.424942  0.074798  0.850201  1
  B  B12  1  0.400639  0.399460  0.500000  1
  B  B13  1  0.150195  0.650235  0.000000  1
  B  B14  1  0.899226  0.900247  0.500000  1
  B  B15  1  0.649562  0.149520  0.000000  1
  B  B16  1  0.325376  0.174699  0.649047  1
  B  B17  1  0.076215  0.426327  0.149829  1
  B  B18  1  0.825301  0.674624  0.649047  1
  B  B19  1  0.573673  0.923785  0.149829  1
  B  B20  1  0.099753  0.100774  0.500000  1
  B  B21  1  0.850480  0.350438  0.000000  1
  B  B22  1  0.600540  0.599361  0.500000  1
  B  B23  1  0.349765  0.849805  0.000000  1
  B  B24  1  0.325376  0.174699  0.350953  1
  B  B25  1  0.076215  0.426327  0.850171  1
  B  B26  1  0.825301  0.674624  0.350953  1
  B  B27  1  0.573673  0.923785  0.850171  1
