# generated using pymatgen
data_CeDyZn3CuRu
_symmetry_space_group_name_H-M   'P 1'
_cell_length_a   7.11178200
_cell_length_b   7.09278183
_cell_length_c   5.07718025
_cell_angle_alpha   90.18027485
_cell_angle_beta   90.00000000
_cell_angle_gamma   90.00000000
_symmetry_Int_Tables_number   1
_chemical_formula_structural   CeDyZn3CuRu
_chemical_formula_sum   'Ce2 Dy2 Zn6 Cu2 Ru2'
_cell_volume   256.10347353
_cell_formula_units_Z   2
loop_
 _symmetry_equiv_pos_site_id
 _symmetry_equiv_pos_as_xyz
  1  'x, y, z'
loop_
 _atom_site_type_symbol
 _atom_site_label
 _atom_site_symmetry_multiplicity
 _atom_site_fract_x
 _atom_site_fract_y
 _atom_site_fract_z
 _atom_site_occupancy
  Ce  Ce0  1  0.000000  0.992554  0.011334  1
  Ce  Ce1  1  0.500000  0.506677  0.009422  1
  Dy  Dy2  1  0.000000  0.510175  0.758743  1
  Dy  Dy3  1  0.500000  0.993427  0.233824  1
  Zn  Zn4  1  0.814259  0.318826  0.287464  1
  Zn  Zn5  1  0.313062  0.186164  0.716277  1
  Zn  Zn6  1  0.185741  0.318826  0.287464  1
  Zn  Zn7  1  0.686938  0.186164  0.716277  1
  Zn  Zn8  1  0.689518  0.810564  0.703682  1
  Zn  Zn9  1  0.310482  0.810564  0.703682  1
  Cu  Cu10  1  0.180291  0.682174  0.281795  1
  Cu  Cu11  1  0.819709  0.682174  0.281795  1
  Ru  Ru12  1  0.500000  0.496373  0.504528  1
  Ru  Ru13  1  0.000000  0.005336  0.503713  1
