# generated using pymatgen
data_Th2Si2Hg
_symmetry_space_group_name_H-M   'P 1'
_cell_length_a   7.61455100
_cell_length_b   7.61455100
_cell_length_c   4.17800000
_cell_angle_alpha   90.00000000
_cell_angle_beta   90.00000000
_cell_angle_gamma   90.00000000
_symmetry_Int_Tables_number   1
_chemical_formula_structural   Th2Si2Hg
_chemical_formula_sum   'Th4 Si4 Hg2'
_cell_volume   242.24623460
_cell_formula_units_Z   2
loop_
 _symmetry_equiv_pos_site_id
 _symmetry_equiv_pos_as_xyz
  1  'x, y, z'
loop_
 _atom_site_type_symbol
 _atom_site_label
 _atom_site_symmetry_multiplicity
 _atom_site_fract_x
 _atom_site_fract_y
 _atom_site_fract_z
 _atom_site_occupancy
  Th  Th0  1  0.682980  0.182980  0.500000  1
  Th  Th1  1  0.317020  0.817020  0.500000  1
  Th  Th2  1  0.182980  0.317020  0.500000  1
  Th  Th3  1  0.817020  0.682980  0.500000  1
  Si  Si4  1  0.109237  0.609237  0.000000  1
  Si  Si5  1  0.890763  0.390763  0.000000  1
  Si  Si6  1  0.609237  0.890763  0.000000  1
  Si  Si7  1  0.390763  0.109237  0.000000  1
  Hg  Hg8  1  0.500000  0.500000  0.000000  1
  Hg  Hg9  1  0.000000  0.000000  0.000000  1
