# generated using pymatgen
data_Tm10Hg3Bi2Au
_symmetry_space_group_name_H-M   'P 1'
_cell_length_a   8.67308628
_cell_length_b   8.67308534
_cell_length_c   8.69578725
_cell_angle_alpha   123.87376265
_cell_angle_beta   123.87375877
_cell_angle_gamma   83.24364137
_symmetry_Int_Tables_number   1
_chemical_formula_structural   Tm10Hg3Bi2Au
_chemical_formula_sum   'Tm10 Hg3 Bi2 Au1'
_cell_volume   432.87771545
_cell_formula_units_Z   1
loop_
 _symmetry_equiv_pos_site_id
 _symmetry_equiv_pos_as_xyz
  1  'x, y, z'
loop_
 _atom_site_type_symbol
 _atom_site_label
 _atom_site_symmetry_multiplicity
 _atom_site_fract_x
 _atom_site_fract_y
 _atom_site_fract_z
 _atom_site_occupancy
  Tm  Tm0  1  0.498055  0.495649  0.993704  1
  Tm  Tm1  1  0.004351  0.001945  0.006296  1
  Tm  Tm2  1  0.502406  0.008827  0.799993  1
  Tm  Tm3  1  0.202411  0.708832  0.200007  1
  Tm  Tm4  1  0.015000  0.198513  0.500000  1
  Tm  Tm5  1  0.702234  0.507232  0.500000  1
  Tm  Tm6  1  0.491173  0.997594  0.200007  1
  Tm  Tm7  1  0.791168  0.297589  0.799993  1
  Tm  Tm8  1  0.992768  0.797766  0.500000  1
  Tm  Tm9  1  0.301487  0.485000  0.500000  1
  Hg  Hg10  1  0.140685  0.640919  0.781603  1
  Hg  Hg11  1  0.859081  0.359315  0.218397  1
  Hg  Hg12  1  0.640451  0.859549  0.500000  1
  Bi  Bi13  1  0.248450  0.251550  0.000000  1
  Bi  Bi14  1  0.748450  0.751550  0.000000  1
  Au  Au15  1  0.361829  0.138171  0.500000  1
