# generated using pymatgen
data_Pu2Ir3W
_symmetry_space_group_name_H-M   'P 1'
_cell_length_a   5.57712814
_cell_length_b   5.57712677
_cell_length_c   5.24795249
_cell_angle_alpha   57.90246056
_cell_angle_beta   57.90247578
_cell_angle_gamma   60.00000678
_symmetry_Int_Tables_number   1
_chemical_formula_structural   Pu2Ir3W
_chemical_formula_sum   'Pu2 Ir3 W1'
_cell_volume   111.62810087
_cell_formula_units_Z   1
loop_
 _symmetry_equiv_pos_site_id
 _symmetry_equiv_pos_as_xyz
  1  'x, y, z'
loop_
 _atom_site_type_symbol
 _atom_site_label
 _atom_site_symmetry_multiplicity
 _atom_site_fract_x
 _atom_site_fract_y
 _atom_site_fract_z
 _atom_site_occupancy
  Pu  Pu0  1  0.244711  0.244711  0.265868  1
  Pu  Pu1  1  0.005289  0.005289  0.984132  1
  Ir  Ir2  1  0.625000  0.125000  0.625000  1
  Ir  Ir3  1  0.125000  0.625000  0.625000  1
  Ir  Ir4  1  0.625000  0.625000  0.625000  1
  W  W5  1  0.625000  0.625000  0.125000  1
