# generated using pymatgen
data_NdSmTm2(NiP)4
_symmetry_space_group_name_H-M   'P 1'
_cell_length_a   3.91059900
_cell_length_b   3.91059955
_cell_length_c   15.69675100
_cell_angle_alpha   90.00000000
_cell_angle_beta   90.00000000
_cell_angle_gamma   119.99998690
_symmetry_Int_Tables_number   1
_chemical_formula_structural   NdSmTm2(NiP)4
_chemical_formula_sum   'Nd1 Sm1 Tm2 Ni4 P4'
_cell_volume   207.88688355
_cell_formula_units_Z   1
loop_
 _symmetry_equiv_pos_site_id
 _symmetry_equiv_pos_as_xyz
  1  'x, y, z'
loop_
 _atom_site_type_symbol
 _atom_site_label
 _atom_site_symmetry_multiplicity
 _atom_site_fract_x
 _atom_site_fract_y
 _atom_site_fract_z
 _atom_site_occupancy
  Nd  Nd0  1  0.000000  0.000000  0.000000  1
  Sm  Sm1  1  0.000000  0.000000  0.500000  1
  Tm  Tm2  1  0.000000  0.000000  0.251227  1
  Tm  Tm3  1  0.000000  0.000000  0.748773  1
  Ni  Ni4  1  0.333333  0.666667  0.365980  1
  Ni  Ni5  1  0.666667  0.333333  0.634020  1
  Ni  Ni6  1  0.666667  0.333333  0.863703  1
  Ni  Ni7  1  0.333333  0.666667  0.136297  1
  P  P8  1  0.333333  0.666667  0.871269  1
  P  P9  1  0.666667  0.333333  0.128731  1
  P  P10  1  0.666667  0.333333  0.374514  1
  P  P11  1  0.333333  0.666667  0.625486  1
