# generated using pymatgen
data_Pr2Cu18Si7Au
_symmetry_space_group_name_H-M   'P 1'
_cell_length_a   8.20619827
_cell_length_b   8.20619856
_cell_length_c   8.24481217
_cell_angle_alpha   120.63497848
_cell_angle_beta   120.63498953
_cell_angle_gamma   88.95559379
_symmetry_Int_Tables_number   1
_chemical_formula_structural   Pr2Cu18Si7Au
_chemical_formula_sum   'Pr2 Cu18 Si7 Au1'
_cell_volume   388.58102712
_cell_formula_units_Z   1
loop_
 _symmetry_equiv_pos_site_id
 _symmetry_equiv_pos_as_xyz
  1  'x, y, z'
loop_
 _atom_site_type_symbol
 _atom_site_label
 _atom_site_symmetry_multiplicity
 _atom_site_fract_x
 _atom_site_fract_y
 _atom_site_fract_z
 _atom_site_occupancy
  Pr  Pr0  1  0.747702  0.751512  0.998135  1
  Pr  Pr1  1  0.251512  0.247702  0.998135  1
  Cu  Cu2  1  0.434535  0.694756  0.144406  1
  Cu  Cu3  1  0.701629  0.561052  0.265336  1
  Cu  Cu4  1  0.295624  0.425139  0.730779  1
  Cu  Cu5  1  0.925139  0.795624  0.730779  1
  Cu  Cu6  1  0.571197  0.300486  0.863558  1
  Cu  Cu7  1  0.304383  0.548883  0.487136  1
  Cu  Cu8  1  0.048883  0.804383  0.487136  1
  Cu  Cu9  1  0.691648  0.447196  0.504342  1
  Cu  Cu10  1  0.947196  0.191648  0.504342  1
  Cu  Cu11  1  0.444704  0.944704  0.733536  1
  Cu  Cu12  1  0.189977  0.689977  0.248881  1
  Cu  Cu13  1  0.575899  0.075899  0.283878  1
  Cu  Cu14  1  0.194756  0.934535  0.144406  1
  Cu  Cu15  1  0.061052  0.201629  0.265336  1
  Cu  Cu16  1  0.991551  0.491551  0.490104  1
  Cu  Cu17  1  0.501359  0.001359  0.498707  1
  Cu  Cu18  1  0.813931  0.313931  0.754166  1
  Cu  Cu19  1  0.800486  0.071197  0.863558  1
  Si  Si20  1  0.063225  0.563225  0.850913  1
  Si  Si21  1  0.555997  0.707295  0.498414  1
  Si  Si22  1  0.793092  0.941007  0.500677  1
  Si  Si23  1  0.441007  0.293092  0.500677  1
  Si  Si24  1  0.942723  0.442723  0.149635  1
  Si  Si25  1  0.699428  0.199428  0.144652  1
  Si  Si26  1  0.207295  0.055997  0.498414  1
  Au  Au27  1  0.304070  0.804070  0.859961  1
