# generated using pymatgen
data_Ta12AlSi7(TcC)4
_symmetry_space_group_name_H-M   'P 1'
_cell_length_a   8.20520900
_cell_length_b   8.20543568
_cell_length_c   8.20535005
_cell_angle_alpha   60.12277265
_cell_angle_beta   60.12232098
_cell_angle_gamma   60.12276432
_symmetry_Int_Tables_number   1
_chemical_formula_structural   Ta12AlSi7(TcC)4
_chemical_formula_sum   'Ta12 Al1 Si7 Tc4 C4'
_cell_volume   391.72219163
_cell_formula_units_Z   1
loop_
 _symmetry_equiv_pos_site_id
 _symmetry_equiv_pos_as_xyz
  1  'x, y, z'
loop_
 _atom_site_type_symbol
 _atom_site_label
 _atom_site_symmetry_multiplicity
 _atom_site_fract_x
 _atom_site_fract_y
 _atom_site_fract_z
 _atom_site_occupancy
  Ta  Ta0  1  0.557706  0.942932  0.557632  1
  Ta  Ta1  1  0.308764  0.690886  0.690956  1
  Ta  Ta2  1  0.697257  0.306545  0.306532  1
  Ta  Ta3  1  0.306536  0.697241  0.306548  1
  Ta  Ta4  1  0.690920  0.690919  0.308738  1
  Ta  Ta5  1  0.306532  0.306557  0.697259  1
  Ta  Ta6  1  0.557663  0.557662  0.942963  1
  Ta  Ta7  1  0.942937  0.557700  0.557626  1
  Ta  Ta8  1  0.558066  0.941273  0.941288  1
  Ta  Ta9  1  0.941293  0.941267  0.558063  1
  Ta  Ta10  1  0.690880  0.308771  0.690948  1
  Ta  Ta11  1  0.941283  0.558082  0.941272  1
  Al  Al12  1  0.333409  0.333408  0.333445  1
  Si  Si13  1  0.913326  0.913342  0.913301  1
  Si  Si14  1  0.993726  0.337490  0.337527  1
  Si  Si15  1  0.337488  0.993732  0.337524  1
  Si  Si16  1  0.337513  0.337511  0.993704  1
  Si  Si17  1  0.914086  0.258135  0.914050  1
  Si  Si18  1  0.914064  0.914063  0.258162  1
  Si  Si19  1  0.258140  0.914086  0.914050  1
  Tc  Tc20  1  0.125863  0.125869  0.125866  1
  Tc  Tc21  1  0.631062  0.120819  0.120817  1
  Tc  Tc22  1  0.120818  0.631055  0.120810  1
  Tc  Tc23  1  0.120813  0.120807  0.631066  1
  C  C24  1  0.625022  0.625022  0.625024  1
  C  C25  1  0.126057  0.624386  0.624388  1
  C  C26  1  0.624387  0.126053  0.624388  1
  C  C27  1  0.624390  0.624388  0.126052  1
