# generated using pymatgen
data_Dy20Zn3Cd3Os2
_symmetry_space_group_name_H-M   'P 1'
_cell_length_a   9.53795500
_cell_length_b   9.53795446
_cell_length_c   9.71211800
_cell_angle_alpha   90.00000000
_cell_angle_beta   90.00000000
_cell_angle_gamma   119.99999839
_symmetry_Int_Tables_number   1
_chemical_formula_structural   Dy20Zn3Cd3Os2
_chemical_formula_sum   'Dy20 Zn3 Cd3 Os2'
_cell_volume   765.16501141
_cell_formula_units_Z   1
loop_
 _symmetry_equiv_pos_site_id
 _symmetry_equiv_pos_as_xyz
  1  'x, y, z'
loop_
 _atom_site_type_symbol
 _atom_site_label
 _atom_site_symmetry_multiplicity
 _atom_site_fract_x
 _atom_site_fract_y
 _atom_site_fract_z
 _atom_site_occupancy
  Dy  Dy0  1  0.000000  0.000000  0.474001  1
  Dy  Dy1  1  0.000000  0.000000  0.025999  1
  Dy  Dy2  1  0.208049  0.791951  0.439272  1
  Dy  Dy3  1  0.208049  0.416098  0.439272  1
  Dy  Dy4  1  0.583902  0.791951  0.439272  1
  Dy  Dy5  1  0.790970  0.209030  0.557202  1
  Dy  Dy6  1  0.790970  0.581939  0.557202  1
  Dy  Dy7  1  0.418061  0.209030  0.557202  1
  Dy  Dy8  1  0.790970  0.209030  0.942798  1
  Dy  Dy9  1  0.790970  0.581939  0.942798  1
  Dy  Dy10  1  0.418061  0.209030  0.942798  1
  Dy  Dy11  1  0.208049  0.791951  0.060728  1
  Dy  Dy12  1  0.208049  0.416098  0.060728  1
  Dy  Dy13  1  0.583902  0.791951  0.060728  1
  Dy  Dy14  1  0.540718  0.459282  0.250000  1
  Dy  Dy15  1  0.540718  0.081435  0.250000  1
  Dy  Dy16  1  0.918565  0.459282  0.250000  1
  Dy  Dy17  1  0.459619  0.540381  0.750000  1
  Dy  Dy18  1  0.459619  0.919238  0.750000  1
  Dy  Dy19  1  0.080762  0.540381  0.750000  1
  Zn  Zn20  1  0.878501  0.121499  0.250000  1
  Zn  Zn21  1  0.878501  0.757005  0.250000  1
  Zn  Zn22  1  0.242995  0.121499  0.250000  1
  Cd  Cd23  1  0.110352  0.889648  0.750000  1
  Cd  Cd24  1  0.110352  0.220703  0.750000  1
  Cd  Cd25  1  0.779297  0.889648  0.750000  1
  Os  Os26  1  0.333333  0.666667  0.250000  1
  Os  Os27  1  0.666667  0.333333  0.750000  1
