# generated using pymatgen
data_Dy3Ho2MoRhO12
_symmetry_space_group_name_H-M   'P 1'
_cell_length_a   6.83578995
_cell_length_b   6.83697371
_cell_length_c   7.46348412
_cell_angle_alpha   73.92273199
_cell_angle_beta   73.92931268
_cell_angle_gamma   49.89569342
_symmetry_Int_Tables_number   1
_chemical_formula_structural   Dy3Ho2MoRhO12
_chemical_formula_sum   'Dy3 Ho2 Mo1 Rh1 O12'
_cell_volume   254.05448018
_cell_formula_units_Z   1
loop_
 _symmetry_equiv_pos_site_id
 _symmetry_equiv_pos_as_xyz
  1  'x, y, z'
loop_
 _atom_site_type_symbol
 _atom_site_label
 _atom_site_symmetry_multiplicity
 _atom_site_fract_x
 _atom_site_fract_y
 _atom_site_fract_z
 _atom_site_occupancy
  Dy  Dy0  1  0.319101  0.285900  0.358347  1
  Dy  Dy1  1  0.713922  0.681005  0.640845  1
  Dy  Dy2  1  0.319191  0.305084  0.827367  1
  Ho  Ho3  1  0.695006  0.680744  0.172838  1
  Ho  Ho4  1  0.010286  0.989697  0.499773  1
  Mo  Mo5  1  0.201989  0.798138  0.000171  1
  Rh  Rh6  1  0.753044  0.246714  0.000459  1
  O  O7  1  0.910506  0.438049  0.914777  1
  O  O8  1  0.412909  0.904819  0.916057  1
  O  O9  1  0.094469  0.587761  0.084814  1
  O  O10  1  0.563822  0.087361  0.086339  1
  O  O11  1  0.110349  0.590601  0.568475  1
  O  O12  1  0.603471  0.085562  0.576422  1
  O  O13  1  0.913730  0.396933  0.422312  1
  O  O14  1  0.409709  0.888928  0.430363  1
  O  O15  1  0.996086  0.000967  0.800269  1
  O  O16  1  0.999218  0.004171  0.199857  1
  O  O17  1  0.486625  0.513991  0.820984  1
  O  O18  1  0.486566  0.513575  0.179530  1
