# generated using pymatgen
data_YbHo3FeRu7
_symmetry_space_group_name_H-M   'P 1'
_cell_length_a   5.30254034
_cell_length_b   5.19329876
_cell_length_c   8.84297205
_cell_angle_alpha   89.88118505
_cell_angle_beta   89.99020993
_cell_angle_gamma   120.52012768
_symmetry_Int_Tables_number   1
_chemical_formula_structural   YbHo3FeRu7
_chemical_formula_sum   'Yb1 Ho3 Fe1 Ru7'
_cell_volume   209.77544606
_cell_formula_units_Z   1
loop_
 _symmetry_equiv_pos_site_id
 _symmetry_equiv_pos_as_xyz
  1  'x, y, z'
loop_
 _atom_site_type_symbol
 _atom_site_label
 _atom_site_symmetry_multiplicity
 _atom_site_fract_x
 _atom_site_fract_y
 _atom_site_fract_z
 _atom_site_occupancy
  Yb  Yb0  1  0.668124  0.336033  0.565705  1
  Ho  Ho1  1  0.331722  0.664242  0.437952  1
  Ho  Ho2  1  0.331577  0.664057  0.065989  1
  Ho  Ho3  1  0.668047  0.335742  0.928896  1
  Fe  Fe4  1  0.165767  0.331173  0.749932  1
  Ru  Ru5  1  0.000768  0.002870  0.503860  1
  Ru  Ru6  1  0.002217  0.005808  0.998245  1
  Ru  Ru7  1  0.174977  0.826615  0.750285  1
  Ru  Ru8  1  0.652471  0.826290  0.750518  1
  Ru  Ru9  1  0.831682  0.663747  0.249601  1
  Ru  Ru10  1  0.826809  0.171363  0.249593  1
  Ru  Ru11  1  0.345840  0.172059  0.249422  1
