# generated using pymatgen
data_Dy8HoScIn6
_symmetry_space_group_name_H-M   'P 1'
_cell_length_a   5.93877229
_cell_length_b   9.14990883
_cell_length_c   9.14990836
_cell_angle_alpha   83.77240825
_cell_angle_beta   70.97800106
_cell_angle_gamma   70.97800731
_symmetry_Int_Tables_number   1
_chemical_formula_structural   Dy8HoScIn6
_chemical_formula_sum   'Dy8 Ho1 Sc1 In6'
_cell_volume   444.37953986
_cell_formula_units_Z   1
loop_
 _symmetry_equiv_pos_site_id
 _symmetry_equiv_pos_as_xyz
  1  'x, y, z'
loop_
 _atom_site_type_symbol
 _atom_site_label
 _atom_site_symmetry_multiplicity
 _atom_site_fract_x
 _atom_site_fract_y
 _atom_site_fract_z
 _atom_site_occupancy
  Dy  Dy0  1  0.719016  0.861696  0.697628  1
  Dy  Dy1  1  0.279107  0.138306  0.302423  1
  Dy  Dy2  1  0.780984  0.302372  0.138304  1
  Dy  Dy3  1  0.220893  0.697577  0.861694  1
  Dy  Dy4  1  0.581509  0.697866  0.138230  1
  Dy  Dy5  1  0.420292  0.302139  0.861689  1
  Dy  Dy6  1  0.079708  0.138311  0.697861  1
  Dy  Dy7  1  0.918491  0.861770  0.302134  1
  Ho  Ho8  1  0.250000  0.500124  0.499876  1
  Sc  Sc9  1  0.750000  0.499953  0.500047  1
  In  In10  1  0.156214  0.500102  0.179883  1
  In  In11  1  0.837144  0.499796  0.820186  1
  In  In12  1  0.343786  0.820117  0.499898  1
  In  In13  1  0.662856  0.179814  0.500204  1
  In  In14  1  0.250000  0.999670  0.000330  1
  In  In15  1  0.750000  0.000386  0.999614  1
