# generated using pymatgen
data_Tb6Y3Er11Pb16
_symmetry_space_group_name_H-M   'P 1'
_cell_length_a   8.18866714
_cell_length_b   8.26679467
_cell_length_c   15.59956805
_cell_angle_alpha   90.01504818
_cell_angle_beta   90.01100671
_cell_angle_gamma   90.05980926
_symmetry_Int_Tables_number   1
_chemical_formula_structural   Tb6Y3Er11Pb16
_chemical_formula_sum   'Tb6 Y3 Er11 Pb16'
_cell_volume   1055.99699460
_cell_formula_units_Z   1
loop_
 _symmetry_equiv_pos_site_id
 _symmetry_equiv_pos_as_xyz
  1  'x, y, z'
loop_
 _atom_site_type_symbol
 _atom_site_label
 _atom_site_symmetry_multiplicity
 _atom_site_fract_x
 _atom_site_fract_y
 _atom_site_fract_z
 _atom_site_occupancy
  Tb  Tb0  1  0.465479  0.676956  0.400132  1
  Tb  Tb1  1  0.965371  0.823422  0.100290  1
  Tb  Tb2  1  0.465738  0.676781  0.099879  1
  Tb  Tb3  1  0.965438  0.823085  0.400149  1
  Tb  Tb4  1  0.534349  0.322912  0.599751  1
  Tb  Tb5  1  0.034537  0.176775  0.900090  1
  Y  Y6  1  0.876587  0.659268  0.879389  1
  Y  Y7  1  0.534514  0.322847  0.900193  1
  Y  Y8  1  0.034692  0.176834  0.599712  1
  Er  Er9  1  0.376368  0.840852  0.878886  1
  Er  Er10  1  0.876349  0.658938  0.620892  1
  Er  Er11  1  0.623731  0.158984  0.379009  1
  Er  Er12  1  0.123558  0.341094  0.120904  1
  Er  Er13  1  0.623440  0.158907  0.121363  1
  Er  Er14  1  0.123666  0.340909  0.378998  1
  Er  Er15  1  0.376501  0.841132  0.620844  1
  Er  Er16  1  0.208266  0.504447  0.749830  1
  Er  Er17  1  0.707868  0.995629  0.749746  1
  Er  Er18  1  0.791887  0.495226  0.250166  1
  Er  Er19  1  0.291841  0.004562  0.249967  1
  Pb  Pb20  1  0.282545  0.034213  0.042745  1
  Pb  Pb21  1  0.782680  0.465762  0.457233  1
  Pb  Pb22  1  0.717348  0.965774  0.542700  1
  Pb  Pb23  1  0.218894  0.533676  0.957361  1
  Pb  Pb24  1  0.716459  0.967292  0.957421  1
  Pb  Pb25  1  0.217197  0.534240  0.542681  1
  Pb  Pb26  1  0.282517  0.034369  0.457254  1
  Pb  Pb27  1  0.782225  0.465011  0.043486  1
  Pb  Pb28  1  0.570807  0.627402  0.749606  1
  Pb  Pb29  1  0.071814  0.873286  0.749483  1
  Pb  Pb30  1  0.428592  0.372622  0.250065  1
  Pb  Pb31  1  0.928831  0.127386  0.250030  1
  Pb  Pb32  1  0.345624  0.152255  0.750001  1
  Pb  Pb33  1  0.845589  0.347157  0.749668  1
  Pb  Pb34  1  0.654333  0.847667  0.250036  1
  Pb  Pb35  1  0.154364  0.652328  0.250046  1
