# generated using pymatgen
data_Cs4Sb4PdPt
_symmetry_space_group_name_H-M   'P 1'
_cell_length_a   8.52728062
_cell_length_b   8.52728090
_cell_length_c   6.93953605
_cell_angle_alpha   90.11342549
_cell_angle_beta   89.88657535
_cell_angle_gamma   126.05741286
_symmetry_Int_Tables_number   1
_chemical_formula_structural   Cs4Sb4PdPt
_chemical_formula_sum   'Cs4 Sb4 Pd1 Pt1'
_cell_volume   407.93561448
_cell_formula_units_Z   1
loop_
 _symmetry_equiv_pos_site_id
 _symmetry_equiv_pos_as_xyz
  1  'x, y, z'
loop_
 _atom_site_type_symbol
 _atom_site_label
 _atom_site_symmetry_multiplicity
 _atom_site_fract_x
 _atom_site_fract_y
 _atom_site_fract_z
 _atom_site_occupancy
  Cs  Cs0  1  0.599428  0.400572  0.748881  1
  Cs  Cs1  1  0.400572  0.599428  0.251119  1
  Cs  Cs2  1  0.199306  0.800694  0.749632  1
  Cs  Cs3  1  0.800694  0.199306  0.250368  1
  Sb  Sb4  1  0.718245  0.914716  0.749915  1
  Sb  Sb5  1  0.914716  0.718245  0.250085  1
  Sb  Sb6  1  0.281755  0.085284  0.250085  1
  Sb  Sb7  1  0.085284  0.281755  0.749915  1
  Pd  Pd8  1  0.000000  0.000000  0.000000  1
  Pt  Pt9  1  0.000000  0.000000  0.500000  1
