# generated using pymatgen
data_YbDy3U4(ReB6)4
_symmetry_space_group_name_H-M   'P 1'
_cell_length_a   3.64154500
_cell_length_b   9.29551450
_cell_length_c   11.41314961
_cell_angle_alpha   89.96256652
_cell_angle_beta   90.00000000
_cell_angle_gamma   90.00000000
_symmetry_Int_Tables_number   1
_chemical_formula_structural   YbDy3U4(ReB6)4
_chemical_formula_sum   'Yb1 Dy3 U4 Re4 B24'
_cell_volume   386.33542368
_cell_formula_units_Z   1
loop_
 _symmetry_equiv_pos_site_id
 _symmetry_equiv_pos_as_xyz
  1  'x, y, z'
loop_
 _atom_site_type_symbol
 _atom_site_label
 _atom_site_symmetry_multiplicity
 _atom_site_fract_x
 _atom_site_fract_y
 _atom_site_fract_z
 _atom_site_occupancy
  Yb  Yb0  1  0.000000  0.337492  0.408013  1
  Dy  Dy1  1  0.000000  0.662258  0.591355  1
  Dy  Dy2  1  0.000000  0.836984  0.092499  1
  Dy  Dy3  1  0.000000  0.163167  0.908157  1
  U  U4  1  0.000000  0.956940  0.395399  1
  U  U5  1  0.000000  0.044940  0.603491  1
  U  U6  1  0.000000  0.456037  0.104738  1
  U  U7  1  0.000000  0.543323  0.896291  1
  Re  Re8  1  0.000000  0.646951  0.318027  1
  Re  Re9  1  0.000000  0.353932  0.682551  1
  Re  Re10  1  0.000000  0.145103  0.181187  1
  Re  Re11  1  0.000000  0.854298  0.818194  1
  B  B12  1  0.500000  0.551685  0.430634  1
  B  B13  1  0.500000  0.447522  0.568820  1
  B  B14  1  0.500000  0.051850  0.068758  1
  B  B15  1  0.500000  0.947984  0.930812  1
  B  B16  1  0.500000  0.743187  0.422918  1
  B  B17  1  0.500000  0.257071  0.577135  1
  B  B18  1  0.500000  0.242989  0.077214  1
  B  B19  1  0.500000  0.756689  0.922940  1
  B  B20  1  0.500000  0.802454  0.275217  1
  B  B21  1  0.500000  0.198145  0.724961  1
  B  B22  1  0.500000  0.301713  0.225108  1
  B  B23  1  0.500000  0.697899  0.774876  1
  B  B24  1  0.500000  0.644229  0.188953  1
  B  B25  1  0.500000  0.355952  0.811668  1
  B  B26  1  0.500000  0.143893  0.311084  1
  B  B27  1  0.500000  0.855937  0.688356  1
  B  B28  1  0.500000  0.989304  0.219340  1
  B  B29  1  0.500000  0.010848  0.780313  1
  B  B30  1  0.500000  0.489420  0.281041  1
  B  B31  1  0.500000  0.510646  0.719387  1
  B  B32  1  0.500000  0.639482  0.038874  1
  B  B33  1  0.500000  0.360545  0.961692  1
  B  B34  1  0.500000  0.138162  0.461432  1
  B  B35  1  0.500000  0.860967  0.538565  1
