# generated using pymatgen
data_NdPa5(Sb4Pt3)2
_symmetry_space_group_name_H-M   'P 1'
_cell_length_a   8.49693606
_cell_length_b   8.49693641
_cell_length_c   8.49693542
_cell_angle_alpha   109.46345644
_cell_angle_beta   109.48674390
_cell_angle_gamma   109.46346287
_symmetry_Int_Tables_number   1
_chemical_formula_structural   NdPa5(Sb4Pt3)2
_chemical_formula_sum   'Nd1 Pa5 Sb8 Pt6'
_cell_volume   472.24255489
_cell_formula_units_Z   1
loop_
 _symmetry_equiv_pos_site_id
 _symmetry_equiv_pos_as_xyz
  1  'x, y, z'
loop_
 _atom_site_type_symbol
 _atom_site_label
 _atom_site_symmetry_multiplicity
 _atom_site_fract_x
 _atom_site_fract_y
 _atom_site_fract_z
 _atom_site_occupancy
  Nd  Nd0  1  0.875000  0.250000  0.125000  1
  Pa  Pa1  1  0.625000  0.750000  0.375000  1
  Pa  Pa2  1  0.248308  0.123285  0.875939  1
  Pa  Pa3  1  0.752653  0.376715  0.625023  1
  Pa  Pa4  1  0.124061  0.872370  0.247347  1
  Pa  Pa5  1  0.374977  0.627630  0.751692  1
  Sb  Sb6  1  0.675443  0.497374  0.997181  1
  Sb  Sb7  1  0.499807  0.002626  0.678069  1
  Sb  Sb8  1  0.000651  0.676205  0.497799  1
  Sb  Sb9  1  0.821593  0.823795  0.824446  1
  Sb  Sb10  1  0.502201  0.002853  0.178407  1
  Sb  Sb11  1  0.175554  0.497147  0.999349  1
  Sb  Sb12  1  0.002819  0.178262  0.500193  1
  Sb  Sb13  1  0.321931  0.321738  0.324557  1
  Pt  Pt14  1  0.375000  0.250000  0.625000  1
  Pt  Pt15  1  0.125000  0.750000  0.875000  1
  Pt  Pt16  1  0.264131  0.634652  0.380915  1
  Pt  Pt17  1  0.746264  0.865348  0.129479  1
  Pt  Pt18  1  0.619085  0.383216  0.253736  1
  Pt  Pt19  1  0.870521  0.116784  0.735869  1
