# generated using pymatgen
data_Rb3Na(NpS3)2
_symmetry_space_group_name_H-M   'P 1'
_cell_length_a   7.19234304
_cell_length_b   7.19234232
_cell_length_c   8.00830700
_cell_angle_alpha   81.36644496
_cell_angle_beta   81.36644583
_cell_angle_gamma   119.95904866
_symmetry_Int_Tables_number   1
_chemical_formula_structural   Rb3Na(NpS3)2
_chemical_formula_sum   'Rb3 Na1 Np2 S6'
_cell_volume   342.37786991
_cell_formula_units_Z   1
loop_
 _symmetry_equiv_pos_site_id
 _symmetry_equiv_pos_as_xyz
  1  'x, y, z'
loop_
 _atom_site_type_symbol
 _atom_site_label
 _atom_site_symmetry_multiplicity
 _atom_site_fract_x
 _atom_site_fract_y
 _atom_site_fract_z
 _atom_site_occupancy
  Rb  Rb0  1  0.657068  0.342932  0.500000  1
  Rb  Rb1  1  0.342932  0.657068  0.500000  1
  Rb  Rb2  1  0.000000  0.000000  0.500000  1
  Na  Na3  1  0.500000  0.500000  0.000000  1
  Np  Np4  1  0.832681  0.167319  0.000000  1
  Np  Np5  1  0.167319  0.832681  0.000000  1
  S  S6  1  0.798925  0.798925  0.187438  1
  S  S7  1  0.201075  0.201075  0.812562  1
  S  S8  1  0.435521  0.071015  0.192195  1
  S  S9  1  0.564479  0.928985  0.807805  1
  S  S10  1  0.928985  0.564479  0.807805  1
  S  S11  1  0.071015  0.435521  0.192195  1
