# generated using pymatgen
data_BiSb3O8
_symmetry_space_group_name_H-M   'P 1'
_cell_length_a   4.93174600
_cell_length_b   5.63448000
_cell_length_c   11.90407900
_cell_angle_alpha   90.00000000
_cell_angle_beta   90.00000000
_cell_angle_gamma   90.00000000
_symmetry_Int_Tables_number   1
_chemical_formula_structural   BiSb3O8
_chemical_formula_sum   'Bi2 Sb6 O16'
_cell_volume   330.78845454
_cell_formula_units_Z   2
loop_
 _symmetry_equiv_pos_site_id
 _symmetry_equiv_pos_as_xyz
  1  'x, y, z'
loop_
 _atom_site_type_symbol
 _atom_site_label
 _atom_site_symmetry_multiplicity
 _atom_site_fract_x
 _atom_site_fract_y
 _atom_site_fract_z
 _atom_site_occupancy
  Bi  Bi0  1  0.743119  0.750000  0.500000  1
  Bi  Bi1  1  0.756881  0.750000  0.000000  1
  Sb  Sb2  1  0.750000  0.120638  0.250000  1
  Sb  Sb3  1  0.250000  0.884926  0.750000  1
  Sb  Sb4  1  0.293690  0.250000  0.500000  1
  Sb  Sb5  1  0.750000  0.379362  0.750000  1
  Sb  Sb6  1  0.206310  0.250000  0.000000  1
  Sb  Sb7  1  0.250000  0.615074  0.250000  1
  O  O8  1  0.411737  0.576956  0.404311  1
  O  O9  1  0.504459  0.638406  0.812515  1
  O  O10  1  0.000235  0.136841  0.686791  1
  O  O11  1  0.917214  0.085744  0.096112  1
  O  O12  1  0.000235  0.363159  0.313209  1
  O  O13  1  0.582786  0.085744  0.403888  1
  O  O14  1  0.088263  0.576956  0.095689  1
  O  O15  1  0.504459  0.861594  0.187485  1
  O  O16  1  0.411737  0.923044  0.595689  1
  O  O17  1  0.995541  0.861594  0.312515  1
  O  O18  1  0.499765  0.363159  0.186791  1
  O  O19  1  0.088263  0.923044  0.904311  1
  O  O20  1  0.917214  0.414256  0.903888  1
  O  O21  1  0.499765  0.136841  0.813209  1
  O  O22  1  0.995541  0.638406  0.687485  1
  O  O23  1  0.582786  0.414256  0.596112  1
