# generated using pymatgen
data_Er4Al18CuIr5
_symmetry_space_group_name_H-M   'P 1'
_cell_length_a   7.55463404
_cell_length_b   7.55463381
_cell_length_c   9.41107043
_cell_angle_alpha   90.10895957
_cell_angle_beta   90.10895624
_cell_angle_gamma   119.66503456
_symmetry_Int_Tables_number   1
_chemical_formula_structural   Er4Al18CuIr5
_chemical_formula_sum   'Er4 Al18 Cu1 Ir5'
_cell_volume   466.71247571
_cell_formula_units_Z   1
loop_
 _symmetry_equiv_pos_site_id
 _symmetry_equiv_pos_as_xyz
  1  'x, y, z'
loop_
 _atom_site_type_symbol
 _atom_site_label
 _atom_site_symmetry_multiplicity
 _atom_site_fract_x
 _atom_site_fract_y
 _atom_site_fract_z
 _atom_site_occupancy
  Er  Er0  1  0.995040  0.672035  0.750251  1
  Er  Er1  1  0.004960  0.327965  0.249749  1
  Er  Er2  1  0.672035  0.995040  0.750251  1
  Er  Er3  1  0.327965  0.004960  0.249749  1
  Al  Al4  1  0.128788  0.128788  0.750449  1
  Al  Al5  1  0.871212  0.871212  0.249551  1
  Al  Al6  1  0.000373  0.338256  0.578089  1
  Al  Al7  1  0.999627  0.661744  0.421911  1
  Al  Al8  1  0.000299  0.665426  0.074964  1
  Al  Al9  1  0.334574  0.999701  0.925036  1
  Al  Al10  1  0.999701  0.334574  0.925036  1
  Al  Al11  1  0.665426  0.000299  0.074964  1
  Al  Al12  1  0.661744  0.999627  0.421911  1
  Al  Al13  1  0.338256  0.000373  0.578089  1
  Al  Al14  1  0.332893  0.332893  0.052123  1
  Al  Al15  1  0.667107  0.667107  0.947877  1
  Al  Al16  1  0.664761  0.664761  0.554287  1
  Al  Al17  1  0.335239  0.335239  0.445713  1
  Al  Al18  1  0.339388  0.549296  0.750498  1
  Al  Al19  1  0.660612  0.450704  0.249502  1
  Al  Al20  1  0.549296  0.339388  0.750498  1
  Al  Al21  1  0.450704  0.660612  0.249502  1
  Cu  Cu22  1  0.000000  0.000000  0.500000  1
  Ir  Ir23  1  0.672134  0.327866  0.500000  1
  Ir  Ir24  1  0.327866  0.672134  0.500000  1
  Ir  Ir25  1  0.327783  0.672217  0.000000  1
  Ir  Ir26  1  0.672217  0.327783  0.000000  1
  Ir  Ir27  1  0.000000  0.000000  0.000000  1
