# generated using pymatgen
data_Sr(AlBr4)2
_symmetry_space_group_name_H-M   'P 1'
_cell_length_a   7.51856400
_cell_length_b   8.07036671
_cell_length_c   13.70350125
_cell_angle_alpha   85.50108265
_cell_angle_beta   90.00000000
_cell_angle_gamma   90.00000000
_symmetry_Int_Tables_number   1
_chemical_formula_structural   Sr(AlBr4)2
_chemical_formula_sum   'Sr2 Al4 Br16'
_cell_volume   828.93314740
_cell_formula_units_Z   2
loop_
 _symmetry_equiv_pos_site_id
 _symmetry_equiv_pos_as_xyz
  1  'x, y, z'
loop_
 _atom_site_type_symbol
 _atom_site_label
 _atom_site_symmetry_multiplicity
 _atom_site_fract_x
 _atom_site_fract_y
 _atom_site_fract_z
 _atom_site_occupancy
  Sr  Sr0  1  0.844725  0.500000  0.750000  1
  Sr  Sr1  1  0.155275  0.500000  0.250000  1
  Al  Al2  1  0.259667  0.328325  0.918118  1
  Al  Al3  1  0.740333  0.671675  0.081882  1
  Al  Al4  1  0.259667  0.671675  0.581882  1
  Al  Al5  1  0.740333  0.328325  0.418118  1
  Br  Br6  1  0.307299  0.265682  0.085421  1
  Br  Br7  1  0.177150  0.603830  0.882276  1
  Br  Br8  1  0.026318  0.170067  0.861907  1
  Br  Br9  1  0.822850  0.603830  0.382276  1
  Br  Br10  1  0.525428  0.741185  0.657099  1
  Br  Br11  1  0.474572  0.741185  0.157099  1
  Br  Br12  1  0.692701  0.265682  0.585421  1
  Br  Br13  1  0.307299  0.734318  0.414579  1
  Br  Br14  1  0.525428  0.258815  0.842901  1
  Br  Br15  1  0.474572  0.258815  0.342901  1
  Br  Br16  1  0.177150  0.396170  0.617724  1
  Br  Br17  1  0.822850  0.396170  0.117724  1
  Br  Br18  1  0.692701  0.734318  0.914579  1
  Br  Br19  1  0.973682  0.829933  0.138093  1
  Br  Br20  1  0.973682  0.170067  0.361907  1
  Br  Br21  1  0.026318  0.829933  0.638093  1
