# generated using pymatgen
data_Tb4Lu4Mn(FeB8)3
_symmetry_space_group_name_H-M   'P 1'
_cell_length_a   3.52344300
_cell_length_b   9.04162935
_cell_length_c   11.43665470
_cell_angle_alpha   90.06252686
_cell_angle_beta   90.00000000
_cell_angle_gamma   90.00000000
_symmetry_Int_Tables_number   1
_chemical_formula_structural   Tb4Lu4Mn(FeB8)3
_chemical_formula_sum   'Tb4 Lu4 Mn1 Fe3 B24'
_cell_volume   364.34490446
_cell_formula_units_Z   1
loop_
 _symmetry_equiv_pos_site_id
 _symmetry_equiv_pos_as_xyz
  1  'x, y, z'
loop_
 _atom_site_type_symbol
 _atom_site_label
 _atom_site_symmetry_multiplicity
 _atom_site_fract_x
 _atom_site_fract_y
 _atom_site_fract_z
 _atom_site_occupancy
  Tb  Tb0  1  0.000000  0.825173  0.086184  1
  Tb  Tb1  1  0.000000  0.175849  0.916076  1
  Tb  Tb2  1  0.000000  0.322759  0.413013  1
  Tb  Tb3  1  0.000000  0.675777  0.584965  1
  Lu  Lu4  1  0.000000  0.442676  0.129883  1
  Lu  Lu5  1  0.000000  0.557425  0.869491  1
  Lu  Lu6  1  0.000000  0.943859  0.369668  1
  Lu  Lu7  1  0.000000  0.057083  0.630774  1
  Mn  Mn8  1  0.000000  0.139386  0.180610  1
  Fe  Fe9  1  0.000000  0.860091  0.818822  1
  Fe  Fe10  1  0.000000  0.639515  0.319697  1
  Fe  Fe11  1  0.000000  0.360637  0.680688  1
  B  B12  1  0.500000  0.054744  0.068882  1
  B  B13  1  0.500000  0.944865  0.931020  1
  B  B14  1  0.500000  0.555176  0.431000  1
  B  B15  1  0.500000  0.444569  0.568754  1
  B  B16  1  0.500000  0.247973  0.082979  1
  B  B17  1  0.500000  0.752090  0.917206  1
  B  B18  1  0.500000  0.748252  0.417288  1
  B  B19  1  0.500000  0.251762  0.582769  1
  B  B20  1  0.500000  0.290726  0.233917  1
  B  B21  1  0.500000  0.709650  0.765983  1
  B  B22  1  0.500000  0.790433  0.266250  1
  B  B23  1  0.500000  0.209996  0.734182  1
  B  B24  1  0.500000  0.131110  0.313885  1
  B  B25  1  0.500000  0.868703  0.685571  1
  B  B26  1  0.500000  0.631124  0.185905  1
  B  B27  1  0.500000  0.369040  0.814510  1
  B  B28  1  0.500000  0.485609  0.287520  1
  B  B29  1  0.500000  0.514082  0.712275  1
  B  B30  1  0.500000  0.985274  0.212419  1
  B  B31  1  0.500000  0.014019  0.787616  1
  B  B32  1  0.500000  0.102763  0.472428  1
  B  B33  1  0.500000  0.897055  0.528296  1
  B  B34  1  0.500000  0.603072  0.027969  1
  B  B35  1  0.500000  0.397681  0.971507  1
