# generated using pymatgen
data_TbY11InCo4Au
_symmetry_space_group_name_H-M   'P 1'
_cell_length_a   8.37768089
_cell_length_b   8.38209783
_cell_length_c   8.37768144
_cell_angle_alpha   111.18456034
_cell_angle_beta   110.48034371
_cell_angle_gamma   106.76207178
_symmetry_Int_Tables_number   1
_chemical_formula_structural   TbY11InCo4Au
_chemical_formula_sum   'Tb1 Y11 In1 Co4 Au1'
_cell_volume   452.22252807
_cell_formula_units_Z   1
loop_
 _symmetry_equiv_pos_site_id
 _symmetry_equiv_pos_as_xyz
  1  'x, y, z'
loop_
 _atom_site_type_symbol
 _atom_site_label
 _atom_site_symmetry_multiplicity
 _atom_site_fract_x
 _atom_site_fract_y
 _atom_site_fract_z
 _atom_site_occupancy
  Tb  Tb0  1  0.684578  0.989392  0.304814  1
  Y  Y1  1  0.425433  0.221186  0.204028  1
  Y  Y2  1  0.575973  0.780140  0.797594  1
  Y  Y3  1  0.017158  0.221186  0.795753  1
  Y  Y4  1  0.982547  0.780140  0.204168  1
  Y  Y5  1  0.186597  0.291743  0.478637  1
  Y  Y6  1  0.812860  0.709101  0.521275  1
  Y  Y7  1  0.187826  0.709101  0.896241  1
  Y  Y8  1  0.813106  0.291743  0.105145  1
  Y  Y9  1  0.314575  0.618047  0.303471  1
  Y  Y10  1  0.684995  0.382377  0.697383  1
  Y  Y11  1  0.315532  0.011696  0.696164  1
  In  In12  1  0.500233  0.500278  0.000045  1
  Co  Co13  1  0.380779  0.998334  0.378156  1
  Co  Co14  1  0.620178  0.998334  0.617555  1
  Co  Co15  1  0.109463  0.610313  0.500850  1
  Co  Co16  1  0.887313  0.386647  0.499334  1
  Au  Au17  1  0.000853  0.000240  0.999388  1
