# generated using pymatgen
data_LiNpCo20B6W
_symmetry_space_group_name_H-M   'P 1'
_cell_length_a   7.46145871
_cell_length_b   7.46145711
_cell_length_c   7.46145700
_cell_angle_alpha   59.99999607
_cell_angle_beta   60.00000316
_cell_angle_gamma   60.00000014
_symmetry_Int_Tables_number   1
_chemical_formula_structural   LiNpCo20B6W
_chemical_formula_sum   'Li1 Np1 Co20 B6 W1'
_cell_volume   293.73522321
_cell_formula_units_Z   1
loop_
 _symmetry_equiv_pos_site_id
 _symmetry_equiv_pos_as_xyz
  1  'x, y, z'
loop_
 _atom_site_type_symbol
 _atom_site_label
 _atom_site_symmetry_multiplicity
 _atom_site_fract_x
 _atom_site_fract_y
 _atom_site_fract_z
 _atom_site_occupancy
  Li  Li0  1  0.000000  0.000000  0.000000  1
  Np  Np1  1  0.750000  0.750000  0.750000  1
  Co  Co2  1  0.853975  0.382009  0.382009  1
  Co  Co3  1  0.382009  0.853975  0.382009  1
  Co  Co4  1  0.382009  0.382009  0.853975  1
  Co  Co5  1  0.382009  0.382009  0.382009  1
  Co  Co6  1  0.152057  0.615980  0.615980  1
  Co  Co7  1  0.615980  0.152057  0.615980  1
  Co  Co8  1  0.615980  0.615980  0.152057  1
  Co  Co9  1  0.615980  0.615980  0.615980  1
  Co  Co10  1  0.657096  0.002242  0.002242  1
  Co  Co11  1  0.657096  0.002242  0.338421  1
  Co  Co12  1  0.657096  0.338421  0.002242  1
  Co  Co13  1  0.002242  0.657096  0.338421  1
  Co  Co14  1  0.002242  0.657096  0.002242  1
  Co  Co15  1  0.338421  0.657096  0.002242  1
  Co  Co16  1  0.002242  0.338421  0.657096  1
  Co  Co17  1  0.338421  0.002242  0.657096  1
  Co  Co18  1  0.002242  0.002242  0.657096  1
  Co  Co19  1  0.338421  0.002242  0.002242  1
  Co  Co20  1  0.002242  0.338421  0.002242  1
  Co  Co21  1  0.002242  0.002242  0.338421  1
  B  B22  1  0.727437  0.272563  0.272563  1
  B  B23  1  0.727437  0.272563  0.727437  1
  B  B24  1  0.727437  0.727437  0.272563  1
  B  B25  1  0.272563  0.727437  0.727437  1
  B  B26  1  0.272563  0.727437  0.272563  1
  B  B27  1  0.272563  0.272563  0.727437  1
  W  W28  1  0.250000  0.250000  0.250000  1
