# generated using pymatgen
data_Y2Al3Tc
_symmetry_space_group_name_H-M   'P 1'
_cell_length_a   5.53604100
_cell_length_b   5.53604199
_cell_length_c   8.92099600
_cell_angle_alpha   90.00000000
_cell_angle_beta   90.00000000
_cell_angle_gamma   120.00000004
_symmetry_Int_Tables_number   1
_chemical_formula_structural   Y2Al3Tc
_chemical_formula_sum   'Y4 Al6 Tc2'
_cell_volume   236.77870977
_cell_formula_units_Z   2
loop_
 _symmetry_equiv_pos_site_id
 _symmetry_equiv_pos_as_xyz
  1  'x, y, z'
loop_
 _atom_site_type_symbol
 _atom_site_label
 _atom_site_symmetry_multiplicity
 _atom_site_fract_x
 _atom_site_fract_y
 _atom_site_fract_z
 _atom_site_occupancy
  Y  Y0  1  0.666667  0.333334  0.052181  1
  Y  Y1  1  0.666667  0.333334  0.447818  1
  Y  Y2  1  0.333333  0.666666  0.552181  1
  Y  Y3  1  0.333333  0.666666  0.947819  1
  Al  Al4  1  0.162067  0.324135  0.250000  1
  Al  Al5  1  0.162068  0.837934  0.250000  1
  Al  Al6  1  0.675865  0.837934  0.250000  1
  Al  Al7  1  0.324135  0.162067  0.750000  1
  Al  Al8  1  0.837933  0.162067  0.750000  1
  Al  Al9  1  0.837933  0.675865  0.750000  1
  Tc  Tc10  1  0.000000  0.000000  0.000000  1
  Tc  Tc11  1  0.000000  0.000000  0.500000  1
