# generated using pymatgen
data_LaFeCoB2
_symmetry_space_group_name_H-M   'P 1'
_cell_length_a   5.65934953
_cell_length_b   5.65934956
_cell_length_c   5.65934878
_cell_angle_alpha   142.14885057
_cell_angle_beta   142.14884951
_cell_angle_gamma   54.60464691
_symmetry_Int_Tables_number   1
_chemical_formula_structural   LaFeCoB2
_chemical_formula_sum   'La1 Fe1 Co1 B2'
_cell_volume   67.77434336
_cell_formula_units_Z   1
loop_
 _symmetry_equiv_pos_site_id
 _symmetry_equiv_pos_as_xyz
  1  'x, y, z'
loop_
 _atom_site_type_symbol
 _atom_site_label
 _atom_site_symmetry_multiplicity
 _atom_site_fract_x
 _atom_site_fract_y
 _atom_site_fract_z
 _atom_site_occupancy
  La  La0  1  0.000000  0.000000  0.000000  1
  Fe  Fe1  1  0.750000  0.250000  0.500000  1
  Co  Co2  1  0.250000  0.750000  0.500000  1
  B  B3  1  0.674108  0.674108  0.000000  1
  B  B4  1  0.325892  0.325892  0.000000  1
