# generated using pymatgen
data_La10Nd6Cd4Co3Ni
_symmetry_space_group_name_H-M   'P 1'
_cell_length_a   9.94516306
_cell_length_b   9.99297171
_cell_length_c   9.99297100
_cell_angle_alpha   59.99999904
_cell_angle_beta   59.84084945
_cell_angle_gamma   59.84085221
_symmetry_Int_Tables_number   1
_chemical_formula_structural   La10Nd6Cd4Co3Ni
_chemical_formula_sum   'La10 Nd6 Cd4 Co3 Ni1'
_cell_volume   700.54700483
_cell_formula_units_Z   1
loop_
 _symmetry_equiv_pos_site_id
 _symmetry_equiv_pos_as_xyz
  1  'x, y, z'
loop_
 _atom_site_type_symbol
 _atom_site_label
 _atom_site_symmetry_multiplicity
 _atom_site_fract_x
 _atom_site_fract_y
 _atom_site_fract_z
 _atom_site_occupancy
  La  La0  1  0.592778  0.596861  0.596861  1
  La  La1  1  0.592778  0.596861  0.213499  1
  La  La2  1  0.592778  0.213499  0.596861  1
  La  La3  1  0.218137  0.593954  0.593954  1
  La  La4  1  0.064208  0.440850  0.440850  1
  La  La5  1  0.439750  0.060111  0.060111  1
  La  La6  1  0.439750  0.060111  0.440029  1
  La  La7  1  0.064208  0.440850  0.054091  1
  La  La8  1  0.439750  0.440029  0.060111  1
  La  La9  1  0.064208  0.054091  0.440850  1
  Nd  Nd10  1  0.183228  0.814961  0.814961  1
  Nd  Nd11  1  0.812113  0.186336  0.186336  1
  Nd  Nd12  1  0.812113  0.186336  0.815215  1
  Nd  Nd13  1  0.183228  0.814961  0.186851  1
  Nd  Nd14  1  0.812113  0.815215  0.186336  1
  Nd  Nd15  1  0.183228  0.186851  0.814961  1
  Cd  Cd16  1  0.829607  0.829559  0.829559  1
  Cd  Cd17  1  0.829607  0.829559  0.511273  1
  Cd  Cd18  1  0.829607  0.511273  0.829559  1
  Cd  Cd19  1  0.510369  0.829877  0.829877  1
  Co  Co20  1  0.392368  0.389504  0.389504  1
  Co  Co21  1  0.392368  0.389504  0.828624  1
  Co  Co22  1  0.392368  0.828624  0.389504  1
  Ni  Ni23  1  0.829334  0.390222  0.390222  1
