# generated using pymatgen
data_Cs2Yb(TaBr3)6
_symmetry_space_group_name_H-M   'P 1'
_cell_length_a   10.91252634
_cell_length_b   10.91252745
_cell_length_c   10.91252669
_cell_angle_alpha   55.15627768
_cell_angle_beta   55.15627079
_cell_angle_gamma   55.15627636
_symmetry_Int_Tables_number   1
_chemical_formula_structural   Cs2Yb(TaBr3)6
_chemical_formula_sum   'Cs2 Yb1 Ta6 Br18'
_cell_volume   815.39406063
_cell_formula_units_Z   1
loop_
 _symmetry_equiv_pos_site_id
 _symmetry_equiv_pos_as_xyz
  1  'x, y, z'
loop_
 _atom_site_type_symbol
 _atom_site_label
 _atom_site_symmetry_multiplicity
 _atom_site_fract_x
 _atom_site_fract_y
 _atom_site_fract_z
 _atom_site_occupancy
  Cs  Cs0  1  0.276794  0.276794  0.276794  1
  Cs  Cs1  1  0.723206  0.723206  0.723206  1
  Yb  Yb2  1  0.000000  0.000000  0.000000  1
  Ta  Ta3  1  0.420827  0.310270  0.639582  1
  Ta  Ta4  1  0.360418  0.579173  0.689730  1
  Ta  Ta5  1  0.689730  0.360418  0.579173  1
  Ta  Ta6  1  0.639582  0.420827  0.310270  1
  Ta  Ta7  1  0.579173  0.689730  0.360418  1
  Ta  Ta8  1  0.310270  0.639582  0.420827  1
  Br  Br9  1  0.636965  0.091791  0.772168  1
  Br  Br10  1  0.772168  0.636965  0.091791  1
  Br  Br11  1  0.091791  0.772168  0.636965  1
  Br  Br12  1  0.829857  0.311620  0.043782  1
  Br  Br13  1  0.165255  0.437210  0.575760  1
  Br  Br14  1  0.688380  0.956218  0.170143  1
  Br  Br15  1  0.908209  0.227832  0.363035  1
  Br  Br16  1  0.562790  0.424240  0.834745  1
  Br  Br17  1  0.424240  0.834745  0.562790  1
  Br  Br18  1  0.956218  0.170143  0.688380  1
  Br  Br19  1  0.170143  0.688380  0.956218  1
  Br  Br20  1  0.043782  0.829857  0.311620  1
  Br  Br21  1  0.311620  0.043782  0.829857  1
  Br  Br22  1  0.227832  0.363035  0.908209  1
  Br  Br23  1  0.575760  0.165255  0.437210  1
  Br  Br24  1  0.437210  0.575760  0.165255  1
  Br  Br25  1  0.363035  0.908209  0.227832  1
  Br  Br26  1  0.834745  0.562790  0.424240  1
