# generated using pymatgen
data_LaYb10Ho9Sn16
_symmetry_space_group_name_H-M   'P 1'
_cell_length_a   7.84396978
_cell_length_b   8.43043796
_cell_length_c   15.91641314
_cell_angle_alpha   90.02239938
_cell_angle_beta   90.12718455
_cell_angle_gamma   89.71703914
_symmetry_Int_Tables_number   1
_chemical_formula_structural   LaYb10Ho9Sn16
_chemical_formula_sum   'La1 Yb10 Ho9 Sn16'
_cell_volume   1052.50666372
_cell_formula_units_Z   1
loop_
 _symmetry_equiv_pos_site_id
 _symmetry_equiv_pos_as_xyz
  1  'x, y, z'
loop_
 _atom_site_type_symbol
 _atom_site_label
 _atom_site_symmetry_multiplicity
 _atom_site_fract_x
 _atom_site_fract_y
 _atom_site_fract_z
 _atom_site_occupancy
  La  La0  1  0.505172  0.685776  0.594382  1
  Yb  Yb1  1  0.003750  0.815572  0.908416  1
  Yb  Yb2  1  0.494396  0.311905  0.092303  1
  Yb  Yb3  1  0.996176  0.187210  0.407930  1
  Yb  Yb4  1  0.494170  0.312456  0.407399  1
  Yb  Yb5  1  0.995601  0.187177  0.091917  1
  Yb  Yb6  1  0.503960  0.687542  0.905813  1
  Yb  Yb7  1  0.004069  0.815969  0.591638  1
  Yb  Yb8  1  0.335606  0.990475  0.750588  1
  Yb  Yb9  1  0.163641  0.488088  0.249926  1
  Yb  Yb10  1  0.663404  0.009765  0.249866  1
  Ho  Ho11  1  0.674347  0.164236  0.622642  1
  Ho  Ho12  1  0.175017  0.334317  0.876844  1
  Ho  Ho13  1  0.325726  0.833108  0.122107  1
  Ho  Ho14  1  0.826460  0.664206  0.377908  1
  Ho  Ho15  1  0.325364  0.832967  0.377228  1
  Ho  Ho16  1  0.826239  0.663978  0.121639  1
  Ho  Ho17  1  0.675137  0.163369  0.877603  1
  Ho  Ho18  1  0.174675  0.333572  0.623373  1
  Ho  Ho19  1  0.837919  0.509840  0.750851  1
  Sn  Sn20  1  0.671974  0.962888  0.459383  1
  Sn  Sn21  1  0.171622  0.536773  0.040065  1
  Sn  Sn22  1  0.329007  0.036799  0.959215  1
  Sn  Sn23  1  0.829269  0.464753  0.543577  1
  Sn  Sn24  1  0.328671  0.037113  0.540718  1
  Sn  Sn25  1  0.828619  0.465743  0.956176  1
  Sn  Sn26  1  0.671792  0.962818  0.040730  1
  Sn  Sn27  1  0.172199  0.537209  0.459937  1
  Sn  Sn28  1  0.475273  0.380254  0.749863  1
  Sn  Sn29  1  0.971854  0.134060  0.749802  1
  Sn  Sn30  1  0.527935  0.624863  0.249967  1
  Sn  Sn31  1  0.027219  0.872544  0.249961  1
  Sn  Sn32  1  0.720952  0.864034  0.750200  1
  Sn  Sn33  1  0.209989  0.631237  0.749983  1
  Sn  Sn34  1  0.281015  0.126749  0.250028  1
  Sn  Sn35  1  0.781785  0.370634  0.250022  1
