# generated using pymatgen
data_Tb3HoFePt3O14
_symmetry_space_group_name_H-M   'P 1'
_cell_length_a   7.24070453
_cell_length_b   7.24070504
_cell_length_c   7.30064621
_cell_angle_alpha   60.27122780
_cell_angle_beta   60.27122651
_cell_angle_gamma   60.00000431
_symmetry_Int_Tables_number   1
_chemical_formula_structural   Tb3HoFePt3O14
_chemical_formula_sum   'Tb3 Ho1 Fe1 Pt3 O14'
_cell_volume   271.75423557
_cell_formula_units_Z   1
loop_
 _symmetry_equiv_pos_site_id
 _symmetry_equiv_pos_as_xyz
  1  'x, y, z'
loop_
 _atom_site_type_symbol
 _atom_site_label
 _atom_site_symmetry_multiplicity
 _atom_site_fract_x
 _atom_site_fract_y
 _atom_site_fract_z
 _atom_site_occupancy
  Tb  Tb0  1  0.625000  0.625000  0.625000  1
  Tb  Tb1  1  0.625000  0.125000  0.625000  1
  Tb  Tb2  1  0.125000  0.625000  0.625000  1
  Ho  Ho3  1  0.625000  0.625000  0.125000  1
  Fe  Fe4  1  0.125000  0.125000  0.625000  1
  Pt  Pt5  1  0.125000  0.125000  0.125000  1
  Pt  Pt6  1  0.625000  0.125000  0.125000  1
  Pt  Pt7  1  0.125000  0.625000  0.125000  1
  O  O8  1  0.036205  0.466238  0.461352  1
  O  O9  1  0.786347  0.786347  0.209223  1
  O  O10  1  0.786347  0.218082  0.209223  1
  O  O11  1  0.466238  0.036205  0.461352  1
  O  O12  1  0.031918  0.463653  0.040777  1
  O  O13  1  0.747344  0.747344  0.757968  1
  O  O14  1  0.036205  0.036205  0.461352  1
  O  O15  1  0.218082  0.786347  0.209223  1
  O  O16  1  0.213795  0.213795  0.788648  1
  O  O17  1  0.502656  0.502656  0.492032  1
  O  O18  1  0.783762  0.213795  0.788648  1
  O  O19  1  0.463653  0.031918  0.040777  1
  O  O20  1  0.463653  0.463653  0.040777  1
  O  O21  1  0.213795  0.783762  0.788648  1
