# generated using pymatgen
data_DyEr2Lu(Al3Ir)6
_symmetry_space_group_name_H-M   'P 1'
_cell_length_a   7.53860739
_cell_length_b   7.54237521
_cell_length_c   9.44379600
_cell_angle_alpha   90.00000000
_cell_angle_beta   90.00000000
_cell_angle_gamma   119.45582394
_symmetry_Int_Tables_number   1
_chemical_formula_structural   DyEr2Lu(Al3Ir)6
_chemical_formula_sum   'Dy1 Er2 Lu1 Al18 Ir6'
_cell_volume   467.55414374
_cell_formula_units_Z   1
loop_
 _symmetry_equiv_pos_site_id
 _symmetry_equiv_pos_as_xyz
  1  'x, y, z'
loop_
 _atom_site_type_symbol
 _atom_site_label
 _atom_site_symmetry_multiplicity
 _atom_site_fract_x
 _atom_site_fract_y
 _atom_site_fract_z
 _atom_site_occupancy
  Dy  Dy0  1  0.994667  0.672182  0.250000  1
  Er  Er1  1  0.005470  0.327097  0.750000  1
  Er  Er2  1  0.672452  0.994398  0.250000  1
  Lu  Lu3  1  0.327214  0.005608  0.750000  1
  Al  Al4  1  0.130025  0.130044  0.250000  1
  Al  Al5  1  0.870592  0.870477  0.750000  1
  Al  Al6  1  0.000822  0.335162  0.074227  1
  Al  Al7  1  0.999790  0.664761  0.924077  1
  Al  Al8  1  0.999790  0.664761  0.575923  1
  Al  Al9  1  0.335857  0.001110  0.426382  1
  Al  Al10  1  0.000822  0.335162  0.425773  1
  Al  Al11  1  0.663831  0.999368  0.575479  1
  Al  Al12  1  0.663831  0.999368  0.924521  1
  Al  Al13  1  0.335857  0.001110  0.073618  1
  Al  Al14  1  0.332960  0.332664  0.552330  1
  Al  Al15  1  0.666800  0.666968  0.450113  1
  Al  Al16  1  0.666800  0.666968  0.049887  1
  Al  Al17  1  0.332960  0.332664  0.947670  1
  Al  Al18  1  0.340733  0.549350  0.250000  1
  Al  Al19  1  0.659245  0.449784  0.750000  1
  Al  Al20  1  0.549024  0.339457  0.250000  1
  Al  Al21  1  0.450190  0.660448  0.750000  1
  Ir  Ir22  1  0.671924  0.327684  0.999444  1
  Ir  Ir23  1  0.327820  0.672325  0.999551  1
  Ir  Ir24  1  0.327820  0.672325  0.500449  1
  Ir  Ir25  1  0.671924  0.327684  0.500556  1
  Ir  Ir26  1  0.000390  0.000536  0.999369  1
  Ir  Ir27  1  0.000390  0.000536  0.500631  1
