# generated using pymatgen
data_Sm8AlAgPd23
_symmetry_space_group_name_H-M   'P 1'
_cell_length_a   8.35221200
_cell_length_b   8.40465700
_cell_length_c   8.33320700
_cell_angle_alpha   90.00000000
_cell_angle_beta   90.00000000
_cell_angle_gamma   90.00000000
_symmetry_Int_Tables_number   1
_chemical_formula_structural   Sm8AlAgPd23
_chemical_formula_sum   'Sm8 Al1 Ag1 Pd23'
_cell_volume   584.97010715
_cell_formula_units_Z   1
loop_
 _symmetry_equiv_pos_site_id
 _symmetry_equiv_pos_as_xyz
  1  'x, y, z'
loop_
 _atom_site_type_symbol
 _atom_site_label
 _atom_site_symmetry_multiplicity
 _atom_site_fract_x
 _atom_site_fract_y
 _atom_site_fract_z
 _atom_site_occupancy
  Sm  Sm0  1  0.251646  0.246348  0.257554  1
  Sm  Sm1  1  0.748313  0.748046  0.749128  1
  Sm  Sm2  1  0.748313  0.748046  0.250872  1
  Sm  Sm3  1  0.748313  0.251954  0.749128  1
  Sm  Sm4  1  0.251646  0.246348  0.742446  1
  Sm  Sm5  1  0.251646  0.753652  0.257554  1
  Sm  Sm6  1  0.251646  0.753652  0.742446  1
  Sm  Sm7  1  0.748313  0.251954  0.250872  1
  Al  Al8  1  0.997006  0.000000  0.000000  1
  Ag  Ag9  1  0.263038  0.500000  0.000000  1
  Pd  Pd10  1  0.742167  0.500000  0.000000  1
  Pd  Pd11  1  0.998177  0.260464  0.500000  1
  Pd  Pd12  1  0.498566  0.259117  0.000000  1
  Pd  Pd13  1  0.998177  0.739536  0.500000  1
  Pd  Pd14  1  0.498566  0.740883  0.000000  1
  Pd  Pd15  1  0.500475  0.000000  0.259866  1
  Pd  Pd16  1  0.259891  0.000000  0.500000  1
  Pd  Pd17  1  0.500475  0.000000  0.740134  1
  Pd  Pd18  1  0.739386  0.000000  0.500000  1
  Pd  Pd19  1  0.001685  0.500000  0.260098  1
  Pd  Pd20  1  0.001685  0.500000  0.739902  1
  Pd  Pd21  1  0.252872  0.500000  0.500000  1
  Pd  Pd22  1  0.747061  0.500000  0.500000  1
  Pd  Pd23  1  0.501516  0.254057  0.500000  1
  Pd  Pd24  1  0.501516  0.745943  0.500000  1
  Pd  Pd25  1  0.499059  0.500000  0.253966  1
  Pd  Pd26  1  0.499059  0.500000  0.746034  1
  Pd  Pd27  1  0.287270  0.000000  0.000000  1
  Pd  Pd28  1  0.708050  0.000000  0.000000  1
  Pd  Pd29  1  0.003833  0.288448  0.000000  1
  Pd  Pd30  1  0.003833  0.711552  0.000000  1
  Pd  Pd31  1  0.998403  0.000000  0.290099  1
  Pd  Pd32  1  0.998403  0.000000  0.709901  1
