# generated using pymatgen
data_PrY4MnRuO12
_symmetry_space_group_name_H-M   'P 1'
_cell_length_a   6.92900799
_cell_length_b   6.92900625
_cell_length_c   7.36482559
_cell_angle_alpha   74.57434404
_cell_angle_beta   74.57434724
_cell_angle_gamma   50.18291757
_symmetry_Int_Tables_number   1
_chemical_formula_structural   PrY4MnRuO12
_chemical_formula_sum   'Pr1 Y4 Mn1 Ru1 O12'
_cell_volume   259.61448448
_cell_formula_units_Z   1
loop_
 _symmetry_equiv_pos_site_id
 _symmetry_equiv_pos_as_xyz
  1  'x, y, z'
loop_
 _atom_site_type_symbol
 _atom_site_label
 _atom_site_symmetry_multiplicity
 _atom_site_fract_x
 _atom_site_fract_y
 _atom_site_fract_z
 _atom_site_occupancy
  Pr  Pr0  1  0.997990  0.002010  0.500000  1
  Y  Y1  1  0.308634  0.297214  0.358669  1
  Y  Y2  1  0.702786  0.691366  0.641331  1
  Y  Y3  1  0.695758  0.695552  0.163976  1
  Y  Y4  1  0.304448  0.304242  0.836024  1
  Mn  Mn5  1  0.748649  0.251351  0.000000  1
  Ru  Ru6  1  0.241696  0.758304  0.000000  1
  O  O7  1  0.098893  0.586651  0.579040  1
  O  O8  1  0.993664  0.004840  0.175014  1
  O  O9  1  0.413349  0.901107  0.420960  1
  O  O10  1  0.503379  0.497021  0.181714  1
  O  O11  1  0.098206  0.576562  0.080230  1
  O  O12  1  0.906024  0.412334  0.419873  1
  O  O13  1  0.995160  0.006336  0.824986  1
  O  O14  1  0.587666  0.093975  0.580127  1
  O  O15  1  0.502979  0.496621  0.818286  1
  O  O16  1  0.578782  0.101504  0.079267  1
  O  O17  1  0.423438  0.901794  0.919770  1
  O  O18  1  0.898496  0.421218  0.920733  1
