# generated using pymatgen
data_KLi6NpO6
_symmetry_space_group_name_H-M   'P 1'
_cell_length_a   5.50901295
_cell_length_b   5.50901322
_cell_length_c   5.50901441
_cell_angle_alpha   101.32427989
_cell_angle_beta   101.32428287
_cell_angle_gamma   101.32427958
_symmetry_Int_Tables_number   1
_chemical_formula_structural   KLi6NpO6
_chemical_formula_sum   'K1 Li6 Np1 O6'
_cell_volume   155.87529708
_cell_formula_units_Z   1
loop_
 _symmetry_equiv_pos_site_id
 _symmetry_equiv_pos_as_xyz
  1  'x, y, z'
loop_
 _atom_site_type_symbol
 _atom_site_label
 _atom_site_symmetry_multiplicity
 _atom_site_fract_x
 _atom_site_fract_y
 _atom_site_fract_z
 _atom_site_occupancy
  K  K0  1  0.500000  0.500000  0.500000  1
  Li  Li1  1  0.000000  0.348119  0.651881  1
  Li  Li2  1  0.651881  0.000000  0.348119  1
  Li  Li3  1  0.651881  0.348119  0.000000  1
  Li  Li4  1  0.348119  0.000000  0.651881  1
  Li  Li5  1  0.000000  0.651881  0.348119  1
  Li  Li6  1  0.348119  0.651881  0.000000  1
  Np  Np7  1  0.000000  0.000000  0.000000  1
  O  O8  1  0.276758  0.899727  0.276758  1
  O  O9  1  0.899727  0.276758  0.276758  1
  O  O10  1  0.723242  0.723242  0.100273  1
  O  O11  1  0.723242  0.100273  0.723242  1
  O  O12  1  0.100273  0.723242  0.723242  1
  O  O13  1  0.276758  0.276758  0.899727  1
