# generated using pymatgen
data_Er3In3CuPdPt
_symmetry_space_group_name_H-M   'P 1'
_cell_length_a   7.57380300
_cell_length_b   7.57380342
_cell_length_c   3.84755600
_cell_angle_alpha   90.00000000
_cell_angle_beta   90.00000000
_cell_angle_gamma   120.00000252
_symmetry_Int_Tables_number   1
_chemical_formula_structural   Er3In3CuPdPt
_chemical_formula_sum   'Er3 In3 Cu1 Pd1 Pt1'
_cell_volume   191.13648879
_cell_formula_units_Z   1
loop_
 _symmetry_equiv_pos_site_id
 _symmetry_equiv_pos_as_xyz
  1  'x, y, z'
loop_
 _atom_site_type_symbol
 _atom_site_label
 _atom_site_symmetry_multiplicity
 _atom_site_fract_x
 _atom_site_fract_y
 _atom_site_fract_z
 _atom_site_occupancy
  Er  Er0  1  0.995220  0.587539  0.500000  1
  Er  Er1  1  0.412461  0.407680  0.500000  1
  Er  Er2  1  0.592320  0.004780  0.500000  1
  In  In3  1  0.748479  0.750460  0.000000  1
  In  In4  1  0.001981  0.251521  0.000000  1
  In  In5  1  0.249540  0.998019  0.000000  1
  Cu  Cu6  1  0.000000  0.000000  0.500000  1
  Pd  Pd7  1  0.333333  0.666667  0.000000  1
  Pt  Pt8  1  0.666667  0.333333  0.000000  1
