# generated using pymatgen
data_LiHoCdPt3
_symmetry_space_group_name_H-M   'P 1'
_cell_length_a   5.13161097
_cell_length_b   5.13161166
_cell_length_c   5.13161151
_cell_angle_alpha   64.29113024
_cell_angle_beta   64.29113052
_cell_angle_gamma   64.29112797
_symmetry_Int_Tables_number   1
_chemical_formula_structural   LiHoCdPt3
_chemical_formula_sum   'Li1 Ho1 Cd1 Pt3'
_cell_volume   104.56198858
_cell_formula_units_Z   1
loop_
 _symmetry_equiv_pos_site_id
 _symmetry_equiv_pos_as_xyz
  1  'x, y, z'
loop_
 _atom_site_type_symbol
 _atom_site_label
 _atom_site_symmetry_multiplicity
 _atom_site_fract_x
 _atom_site_fract_y
 _atom_site_fract_z
 _atom_site_occupancy
  Li  Li0  1  0.626236  0.626236  0.626236  1
  Ho  Ho1  1  0.247533  0.247533  0.247533  1
  Cd  Cd2  1  0.998611  0.998611  0.998611  1
  Pt  Pt3  1  0.626397  0.626397  0.124827  1
  Pt  Pt4  1  0.626397  0.124827  0.626397  1
  Pt  Pt5  1  0.124827  0.626397  0.626397  1
