# generated using pymatgen
data_Er8MgHgPd2
_symmetry_space_group_name_H-M   'P 1'
_cell_length_a   9.63632201
_cell_length_b   9.63636721
_cell_length_c   9.62272217
_cell_angle_alpha   59.84149649
_cell_angle_beta   59.84127085
_cell_angle_gamma   60.04412745
_symmetry_Int_Tables_number   1
_chemical_formula_structural   Er8MgHgPd2
_chemical_formula_sum   'Er16 Mg2 Hg2 Pd4'
_cell_volume   630.53055051
_cell_formula_units_Z   2
loop_
 _symmetry_equiv_pos_site_id
 _symmetry_equiv_pos_as_xyz
  1  'x, y, z'
loop_
 _atom_site_type_symbol
 _atom_site_label
 _atom_site_symmetry_multiplicity
 _atom_site_fract_x
 _atom_site_fract_y
 _atom_site_fract_z
 _atom_site_occupancy
  Er  Er0  1  0.350272  0.350313  0.348811  1
  Er  Er1  1  0.356089  0.356107  0.939832  1
  Er  Er2  1  0.361132  0.930235  0.357755  1
  Er  Er3  1  0.930255  0.361117  0.357749  1
  Er  Er4  1  0.811223  0.188745  0.189437  1
  Er  Er5  1  0.187225  0.812148  0.811499  1
  Er  Er6  1  0.188729  0.811220  0.189422  1
  Er  Er7  1  0.812162  0.187227  0.811506  1
  Er  Er8  1  0.188283  0.188266  0.811881  1
  Er  Er9  1  0.810561  0.810578  0.189249  1
  Er  Er10  1  0.931255  0.566623  0.566877  1
  Er  Er11  1  0.564571  0.932692  0.936843  1
  Er  Er12  1  0.566629  0.931256  0.566880  1
  Er  Er13  1  0.932707  0.564589  0.936839  1
  Er  Er14  1  0.566198  0.566189  0.933991  1
  Er  Er15  1  0.934688  0.934694  0.565083  1
  Mg  Mg16  1  0.577713  0.265495  0.576799  1
  Mg  Mg17  1  0.265510  0.577689  0.576767  1
  Hg  Hg18  1  0.584144  0.584136  0.589463  1
  Hg  Hg19  1  0.583498  0.583542  0.242267  1
  Pd  Pd20  1  0.145264  0.145229  0.148759  1
  Pd  Pd21  1  0.143164  0.143186  0.564162  1
  Pd  Pd22  1  0.141478  0.567246  0.144053  1
  Pd  Pd23  1  0.567248  0.141475  0.144069  1
