# generated using pymatgen
data_YEr5Sc4(In2Cu)4
_symmetry_space_group_name_H-M   'P 1'
_cell_length_a   3.58582600
_cell_length_b   7.83525443
_cell_length_c   17.54752127
_cell_angle_alpha   90.20846232
_cell_angle_beta   90.00000000
_cell_angle_gamma   90.00000000
_symmetry_Int_Tables_number   1
_chemical_formula_structural   YEr5Sc4(In2Cu)4
_chemical_formula_sum   'Y1 Er5 Sc4 In8 Cu4'
_cell_volume   493.00942086
_cell_formula_units_Z   1
loop_
 _symmetry_equiv_pos_site_id
 _symmetry_equiv_pos_as_xyz
  1  'x, y, z'
loop_
 _atom_site_type_symbol
 _atom_site_label
 _atom_site_symmetry_multiplicity
 _atom_site_fract_x
 _atom_site_fract_y
 _atom_site_fract_z
 _atom_site_occupancy
  Y  Y0  1  0.000000  0.000000  0.000000  1
  Er  Er1  1  0.000000  0.500000  0.500000  1
  Er  Er2  1  0.000000  0.760287  0.786329  1
  Er  Er3  1  0.000000  0.239713  0.213671  1
  Er  Er4  1  0.000000  0.260326  0.712726  1
  Er  Er5  1  0.000000  0.739674  0.287274  1
  Sc  Sc6  1  0.000000  0.878100  0.584953  1
  Sc  Sc7  1  0.000000  0.121900  0.415047  1
  Sc  Sc8  1  0.000000  0.377244  0.914179  1
  Sc  Sc9  1  0.000000  0.622756  0.085821  1
  In  In10  1  0.500000  0.810261  0.440106  1
  In  In11  1  0.500000  0.189739  0.559894  1
  In  In12  1  0.500000  0.313085  0.060339  1
  In  In13  1  0.500000  0.686915  0.939661  1
  In  In14  1  0.500000  0.910442  0.153026  1
  In  In15  1  0.500000  0.089558  0.846974  1
  In  In16  1  0.500000  0.410544  0.348338  1
  In  In17  1  0.500000  0.589456  0.651662  1
  Cu  Cu18  1  0.500000  0.966764  0.694696  1
  Cu  Cu19  1  0.500000  0.033236  0.305304  1
  Cu  Cu20  1  0.500000  0.466527  0.804116  1
  Cu  Cu21  1  0.500000  0.533473  0.195884  1
