# generated using pymatgen
data_Na5Pu(CO3)4
_symmetry_space_group_name_H-M   'P 1'
_cell_length_a   10.20851700
_cell_length_b   8.87630620
_cell_length_c   12.36584000
_cell_angle_alpha   89.73186196
_cell_angle_beta   90.00000000
_cell_angle_gamma   90.00000000
_symmetry_Int_Tables_number   1
_chemical_formula_structural   Na5Pu(CO3)4
_chemical_formula_sum   'Na20 Pu4 C16 O48'
_cell_volume   1120.50500015
_cell_formula_units_Z   4
loop_
 _symmetry_equiv_pos_site_id
 _symmetry_equiv_pos_as_xyz
  1  'x, y, z'
loop_
 _atom_site_type_symbol
 _atom_site_label
 _atom_site_symmetry_multiplicity
 _atom_site_fract_x
 _atom_site_fract_y
 _atom_site_fract_z
 _atom_site_occupancy
  Na  Na0  1  0.626879  0.453949  0.070298  1
  Na  Na1  1  0.374470  0.195359  0.789082  1
  Na  Na2  1  0.821876  0.987403  0.366076  1
  Na  Na3  1  0.919882  0.576686  0.596582  1
  Na  Na4  1  0.875885  0.584425  0.897068  1
  Na  Na5  1  0.125530  0.695359  0.789082  1
  Na  Na6  1  0.080118  0.423314  0.403418  1
  Na  Na7  1  0.874470  0.304641  0.210918  1
  Na  Na8  1  0.624115  0.084425  0.897068  1
  Na  Na9  1  0.678124  0.487403  0.366076  1
  Na  Na10  1  0.126879  0.046051  0.929702  1
  Na  Na11  1  0.124115  0.415575  0.102932  1
  Na  Na12  1  0.580118  0.076686  0.596582  1
  Na  Na13  1  0.419882  0.923314  0.403418  1
  Na  Na14  1  0.873121  0.953949  0.070298  1
  Na  Na15  1  0.178124  0.012597  0.633924  1
  Na  Na16  1  0.625530  0.804641  0.210918  1
  Na  Na17  1  0.321876  0.512597  0.633924  1
  Na  Na18  1  0.373121  0.546051  0.929702  1
  Na  Na19  1  0.375885  0.915575  0.102932  1
  Pu  Pu20  1  0.377032  0.282045  0.273958  1
  Pu  Pu21  1  0.622968  0.717955  0.726042  1
  Pu  Pu22  1  0.122968  0.782045  0.273958  1
  Pu  Pu23  1  0.877032  0.217955  0.726042  1
  C  C24  1  0.863260  0.261002  0.490617  1
  C  C25  1  0.363260  0.238998  0.509383  1
  C  C26  1  0.623360  0.140006  0.215805  1
  C  C27  1  0.390992  0.247582  0.009352  1
  C  C28  1  0.871529  0.886912  0.722519  1
  C  C29  1  0.128471  0.113088  0.277481  1
  C  C30  1  0.136740  0.738998  0.509383  1
  C  C31  1  0.636740  0.761002  0.490617  1
  C  C32  1  0.628471  0.386912  0.722519  1
  C  C33  1  0.376640  0.859994  0.784195  1
  C  C34  1  0.109008  0.747582  0.009352  1
  C  C35  1  0.371529  0.613088  0.277481  1
  C  C36  1  0.123360  0.359994  0.784195  1
  C  C37  1  0.890992  0.252418  0.990648  1
  C  C38  1  0.876640  0.640006  0.215805  1
  C  C39  1  0.609008  0.752418  0.990648  1
  O  O40  1  0.838309  0.380249  0.012563  1
  O  O41  1  0.842797  0.165371  0.913680  1
  O  O42  1  0.657203  0.665371  0.913680  1
  O  O43  1  0.871540  0.741966  0.731716  1
  O  O44  1  0.741165  0.457908  0.730646  1
  O  O45  1  0.758835  0.957908  0.730646  1
  O  O46  1  0.984508  0.560009  0.223180  1
  O  O47  1  0.297242  0.353098  0.471590  1
  O  O48  1  0.371540  0.758034  0.268284  1
  O  O49  1  0.990507  0.202160  0.045472  1
  O  O50  1  0.509493  0.702160  0.045472  1
  O  O51  1  0.484508  0.939991  0.776820  1
  O  O52  1  0.976046  0.963921  0.705906  1
  O  O53  1  0.153266  0.684305  0.604118  1
  O  O54  1  0.346734  0.184305  0.604118  1
  O  O55  1  0.797242  0.146902  0.528410  1
  O  O56  1  0.702758  0.646902  0.528410  1
  O  O57  1  0.128460  0.258034  0.268284  1
  O  O58  1  0.389748  0.713344  0.776574  1
  O  O59  1  0.009493  0.797840  0.954528  1
  O  O60  1  0.952005  0.321702  0.555358  1
  O  O61  1  0.515492  0.060009  0.223180  1
  O  O62  1  0.523954  0.463921  0.705906  1
  O  O63  1  0.202758  0.853098  0.471590  1
  O  O64  1  0.735539  0.079284  0.204037  1
  O  O65  1  0.235539  0.420716  0.795963  1
  O  O66  1  0.047995  0.678298  0.444642  1
  O  O67  1  0.661691  0.880249  0.012563  1
  O  O68  1  0.490507  0.297840  0.954528  1
  O  O69  1  0.157203  0.834629  0.086320  1
  O  O70  1  0.846734  0.315695  0.395882  1
  O  O71  1  0.889748  0.786656  0.223426  1
  O  O72  1  0.764461  0.579284  0.204037  1
  O  O73  1  0.023954  0.036079  0.294094  1
  O  O74  1  0.628460  0.241966  0.731716  1
  O  O75  1  0.161691  0.619751  0.987437  1
  O  O76  1  0.015492  0.439991  0.776820  1
  O  O77  1  0.653266  0.815695  0.395882  1
  O  O78  1  0.342797  0.334629  0.086320  1
  O  O79  1  0.610252  0.286656  0.223426  1
  O  O80  1  0.264461  0.920716  0.795963  1
  O  O81  1  0.452005  0.178298  0.444642  1
  O  O82  1  0.476046  0.536079  0.294094  1
  O  O83  1  0.258835  0.542092  0.269354  1
  O  O84  1  0.547995  0.821702  0.555358  1
  O  O85  1  0.338309  0.119751  0.987437  1
  O  O86  1  0.241165  0.042092  0.269354  1
  O  O87  1  0.110252  0.213344  0.776574  1
