# generated using pymatgen
data_TbTmTc5(PRh)7
_symmetry_space_group_name_H-M   'P 1'
_cell_length_a   3.93706500
_cell_length_b   9.45985546
_cell_length_c   9.48761570
_cell_angle_alpha   119.60706170
_cell_angle_beta   89.99966008
_cell_angle_gamma   90.00129624
_symmetry_Int_Tables_number   1
_chemical_formula_structural   TbTmTc5(PRh)7
_chemical_formula_sum   'Tb1 Tm1 Tc5 P7 Rh7'
_cell_volume   307.22093970
_cell_formula_units_Z   1
loop_
 _symmetry_equiv_pos_site_id
 _symmetry_equiv_pos_as_xyz
  1  'x, y, z'
loop_
 _atom_site_type_symbol
 _atom_site_label
 _atom_site_symmetry_multiplicity
 _atom_site_fract_x
 _atom_site_fract_y
 _atom_site_fract_z
 _atom_site_occupancy
  Tb  Tb0  1  0.261952  0.668708  0.333384  1
  Tm  Tm1  1  0.762077  0.333376  0.666570  1
  Tc  Tc2  1  0.761868  0.093723  0.870616  1
  Tc  Tc3  1  0.761874  0.127740  0.219494  1
  Tc  Tc4  1  0.761844  0.780480  0.906952  1
  Tc  Tc5  1  0.261873  0.885843  0.160359  1
  Tc  Tc6  1  0.261889  0.840514  0.725951  1
  P  P7  1  0.261583  0.996559  0.997627  1
  P  P8  1  0.761915  0.881101  0.599297  1
  P  P9  1  0.761887  0.402432  0.286427  1
  P  P10  1  0.761831  0.718878  0.121095  1
  P  P11  1  0.262105  0.116135  0.411142  1
  P  P12  1  0.262008  0.586955  0.703858  1
  P  P13  1  0.261916  0.294909  0.881006  1
  Rh  Rh14  1  0.261857  0.272773  0.112388  1
  Rh  Rh15  1  0.761943  0.607509  0.556878  1
  Rh  Rh16  1  0.761856  0.443239  0.054642  1
  Rh  Rh17  1  0.761954  0.948005  0.392914  1
  Rh  Rh18  1  0.261943  0.368148  0.436762  1
  Rh  Rh19  1  0.261874  0.561314  0.930439  1
  Rh  Rh20  1  0.261952  0.071658  0.632202  1
