# generated using pymatgen
data_Nb9BiS16
_symmetry_space_group_name_H-M   'P 1'
_cell_length_a   6.66745500
_cell_length_b   6.66745540
_cell_length_c   13.38763800
_cell_angle_alpha   90.00000000
_cell_angle_beta   90.00000000
_cell_angle_gamma   120.00001292
_symmetry_Int_Tables_number   1
_chemical_formula_structural   Nb9BiS16
_chemical_formula_sum   'Nb9 Bi1 S16'
_cell_volume   515.41226379
_cell_formula_units_Z   1
loop_
 _symmetry_equiv_pos_site_id
 _symmetry_equiv_pos_as_xyz
  1  'x, y, z'
loop_
 _atom_site_type_symbol
 _atom_site_label
 _atom_site_symmetry_multiplicity
 _atom_site_fract_x
 _atom_site_fract_y
 _atom_site_fract_z
 _atom_site_occupancy
  Nb  Nb0  1  0.000000  0.000000  0.266052  1
  Nb  Nb1  1  0.000000  0.000000  0.733948  1
  Nb  Nb2  1  0.505855  0.011712  0.266735  1
  Nb  Nb3  1  0.494145  0.988288  0.733265  1
  Nb  Nb4  1  0.988288  0.494145  0.266735  1
  Nb  Nb5  1  0.011712  0.505855  0.733265  1
  Nb  Nb6  1  0.505855  0.494145  0.266735  1
  Nb  Nb7  1  0.494145  0.505855  0.733265  1
  Nb  Nb8  1  0.000000  0.000000  0.500000  1
  Bi  Bi9  1  0.000000  0.000000  0.000000  1
  S  S10  1  0.333333  0.666667  0.612693  1
  S  S11  1  0.666667  0.333333  0.387307  1
  S  S12  1  0.666667  0.333333  0.144824  1
  S  S13  1  0.333333  0.666667  0.855176  1
  S  S14  1  0.170211  0.340422  0.148957  1
  S  S15  1  0.829789  0.659578  0.851043  1
  S  S16  1  0.659578  0.829789  0.148957  1
  S  S17  1  0.832132  0.664264  0.615817  1
  S  S18  1  0.340422  0.170211  0.851043  1
  S  S19  1  0.167868  0.335736  0.384183  1
  S  S20  1  0.170211  0.829789  0.148957  1
  S  S21  1  0.335736  0.167868  0.615817  1
  S  S22  1  0.829789  0.170211  0.851043  1
  S  S23  1  0.664264  0.832132  0.384183  1
  S  S24  1  0.832132  0.167868  0.615817  1
  S  S25  1  0.167868  0.832132  0.384183  1
