# generated using pymatgen
data_Sc3Al3Ga2Ru
_symmetry_space_group_name_H-M   'P 1'
_cell_length_a   6.66719500
_cell_length_b   6.66719591
_cell_length_c   4.17597500
_cell_angle_alpha   90.00000000
_cell_angle_beta   90.00000000
_cell_angle_gamma   120.00000046
_symmetry_Int_Tables_number   1
_chemical_formula_structural   Sc3Al3Ga2Ru
_chemical_formula_sum   'Sc3 Al3 Ga2 Ru1'
_cell_volume   160.75885104
_cell_formula_units_Z   1
loop_
 _symmetry_equiv_pos_site_id
 _symmetry_equiv_pos_as_xyz
  1  'x, y, z'
loop_
 _atom_site_type_symbol
 _atom_site_label
 _atom_site_symmetry_multiplicity
 _atom_site_fract_x
 _atom_site_fract_y
 _atom_site_fract_z
 _atom_site_occupancy
  Sc  Sc0  1  0.418722  0.000000  0.000000  1
  Sc  Sc1  1  0.000000  0.418722  0.000000  1
  Sc  Sc2  1  0.581279  0.581278  0.000000  1
  Al  Al3  1  0.764815  0.000000  0.500000  1
  Al  Al4  1  0.235186  0.235186  0.500000  1
  Al  Al5  1  0.000000  0.764814  0.500000  1
  Ga  Ga6  1  0.666668  0.333334  0.500000  1
  Ga  Ga7  1  0.333333  0.666666  0.500000  1
  Ru  Ru8  1  0.000000  0.000000  0.000000  1
