# generated using pymatgen
data_Dy4Pa(TcB3)2
_symmetry_space_group_name_H-M   'P 1'
_cell_length_a   5.52719536
_cell_length_b   5.52719457
_cell_length_c   8.34903575
_cell_angle_alpha   70.67002855
_cell_angle_beta   70.67002812
_cell_angle_gamma   59.99996940
_symmetry_Int_Tables_number   1
_chemical_formula_structural   Dy4Pa(TcB3)2
_chemical_formula_sum   'Dy4 Pa1 Tc2 B6'
_cell_volume   204.11872399
_cell_formula_units_Z   1
loop_
 _symmetry_equiv_pos_site_id
 _symmetry_equiv_pos_as_xyz
  1  'x, y, z'
loop_
 _atom_site_type_symbol
 _atom_site_label
 _atom_site_symmetry_multiplicity
 _atom_site_fract_x
 _atom_site_fract_y
 _atom_site_fract_z
 _atom_site_occupancy
  Dy  Dy0  1  0.250141  0.250141  0.249578  1
  Dy  Dy1  1  0.749859  0.749859  0.750422  1
  Dy  Dy2  1  0.416092  0.416092  0.751722  1
  Dy  Dy3  1  0.583908  0.583908  0.248278  1
  Pa  Pa4  1  0.000000  0.000000  0.000000  1
  Tc  Tc5  1  0.106874  0.106874  0.679380  1
  Tc  Tc6  1  0.893126  0.893126  0.320620  1
  B  B7  1  0.171322  0.828678  0.500000  1
  B  B8  1  0.828678  0.500000  0.500000  1
  B  B9  1  0.500000  0.171322  0.500000  1
  B  B10  1  0.171322  0.500000  0.500000  1
  B  B11  1  0.500000  0.828678  0.500000  1
  B  B12  1  0.828678  0.171322  0.500000  1
