# generated using pymatgen
data_Dy10CoNiSb4
_symmetry_space_group_name_H-M   'P 1'
_cell_length_a   7.90985300
_cell_length_b   8.77359800
_cell_length_c   12.19044100
_cell_angle_alpha   90.00000000
_cell_angle_beta   90.00000000
_cell_angle_gamma   90.00000000
_symmetry_Int_Tables_number   1
_chemical_formula_structural   Dy10CoNiSb4
_chemical_formula_sum   'Dy20 Co2 Ni2 Sb8'
_cell_volume   845.99064538
_cell_formula_units_Z   2
loop_
 _symmetry_equiv_pos_site_id
 _symmetry_equiv_pos_as_xyz
  1  'x, y, z'
loop_
 _atom_site_type_symbol
 _atom_site_label
 _atom_site_symmetry_multiplicity
 _atom_site_fract_x
 _atom_site_fract_y
 _atom_site_fract_z
 _atom_site_occupancy
  Dy  Dy0  1  0.156012  0.750000  0.205567  1
  Dy  Dy1  1  0.343988  0.750000  0.705567  1
  Dy  Dy2  1  0.845432  0.250000  0.796741  1
  Dy  Dy3  1  0.654568  0.250000  0.296741  1
  Dy  Dy4  1  0.456876  0.750000  0.999456  1
  Dy  Dy5  1  0.043124  0.750000  0.499456  1
  Dy  Dy6  1  0.545051  0.250000  0.001002  1
  Dy  Dy7  1  0.954949  0.250000  0.501002  1
  Dy  Dy8  1  0.624926  0.750000  0.303329  1
  Dy  Dy9  1  0.875074  0.750000  0.803329  1
  Dy  Dy10  1  0.377649  0.250000  0.693772  1
  Dy  Dy11  1  0.122351  0.250000  0.193772  1
  Dy  Dy12  1  0.820187  0.534647  0.065380  1
  Dy  Dy13  1  0.679813  0.965353  0.565380  1
  Dy  Dy14  1  0.179756  0.041308  0.934664  1
  Dy  Dy15  1  0.320244  0.458692  0.434664  1
  Dy  Dy16  1  0.179756  0.458692  0.934664  1
  Dy  Dy17  1  0.320244  0.041308  0.434664  1
  Dy  Dy18  1  0.820187  0.965353  0.065380  1
  Dy  Dy19  1  0.679813  0.534647  0.565380  1
  Co  Co20  1  0.567368  0.250000  0.509723  1
  Co  Co21  1  0.932632  0.250000  0.009723  1
  Ni  Ni22  1  0.432133  0.750000  0.489608  1
  Ni  Ni23  1  0.067867  0.750000  0.989608  1
  Sb  Sb24  1  0.928601  0.508755  0.327031  1
  Sb  Sb25  1  0.571399  0.991245  0.827031  1
  Sb  Sb26  1  0.072022  0.008379  0.673325  1
  Sb  Sb27  1  0.427978  0.491621  0.173325  1
  Sb  Sb28  1  0.072022  0.491621  0.673325  1
  Sb  Sb29  1  0.427978  0.008379  0.173325  1
  Sb  Sb30  1  0.928601  0.991245  0.327031  1
  Sb  Sb31  1  0.571399  0.508755  0.827031  1
