# generated using pymatgen
data_Y20IrOs3Au8
_symmetry_space_group_name_H-M   'P 1'
_cell_length_a   11.40332600
_cell_length_b   11.40332600
_cell_length_c   6.35648600
_cell_angle_alpha   90.00000000
_cell_angle_beta   90.00000000
_cell_angle_gamma   90.00000000
_symmetry_Int_Tables_number   1
_chemical_formula_structural   Y20IrOs3Au8
_chemical_formula_sum   'Y20 Ir1 Os3 Au8'
_cell_volume   826.57102101
_cell_formula_units_Z   1
loop_
 _symmetry_equiv_pos_site_id
 _symmetry_equiv_pos_as_xyz
  1  'x, y, z'
loop_
 _atom_site_type_symbol
 _atom_site_label
 _atom_site_symmetry_multiplicity
 _atom_site_fract_x
 _atom_site_fract_y
 _atom_site_fract_z
 _atom_site_occupancy
  Y  Y0  1  0.301971  0.082644  0.346773  1
  Y  Y1  1  0.302343  0.917371  0.847207  1
  Y  Y2  1  0.697657  0.082629  0.847207  1
  Y  Y3  1  0.698029  0.917356  0.346773  1
  Y  Y4  1  0.582629  0.802343  0.847207  1
  Y  Y5  1  0.582644  0.198029  0.346773  1
  Y  Y6  1  0.417356  0.801971  0.346773  1
  Y  Y7  1  0.417371  0.197657  0.847207  1
  Y  Y8  1  0.199642  0.416646  0.654073  1
  Y  Y9  1  0.199499  0.583284  0.149592  1
  Y  Y10  1  0.800501  0.416716  0.149592  1
  Y  Y11  1  0.800358  0.583354  0.654073  1
  Y  Y12  1  0.916716  0.699499  0.149592  1
  Y  Y13  1  0.916646  0.300358  0.654073  1
  Y  Y14  1  0.083354  0.699642  0.654073  1
  Y  Y15  1  0.083284  0.300501  0.149592  1
  Y  Y16  1  0.000000  0.000000  0.499796  1
  Y  Y17  1  0.000000  0.000000  0.999457  1
  Y  Y18  1  0.500000  0.500000  0.999457  1
  Y  Y19  1  0.500000  0.500000  0.499796  1
  Ir  Ir20  1  0.000000  0.500000  0.402720  1
  Os  Os21  1  0.500000  0.000000  0.100283  1
  Os  Os22  1  0.500000  0.000000  0.599751  1
  Os  Os23  1  0.000000  0.500000  0.901623  1
  Au  Au24  1  0.844970  0.156368  0.251041  1
  Au  Au25  1  0.844630  0.844330  0.750594  1
  Au  Au26  1  0.155370  0.155670  0.750594  1
  Au  Au27  1  0.155030  0.843632  0.251041  1
  Au  Au28  1  0.655670  0.344630  0.750594  1
  Au  Au29  1  0.656368  0.655030  0.251041  1
  Au  Au30  1  0.343632  0.344970  0.251041  1
  Au  Au31  1  0.344330  0.655370  0.750594  1
