# generated using pymatgen
data_Tb2Mn2FeRe14C3
_symmetry_space_group_name_H-M   'P 1'
_cell_length_a   6.94268779
_cell_length_b   6.94217852
_cell_length_c   6.94268671
_cell_angle_alpha   82.40184551
_cell_angle_beta   82.39504653
_cell_angle_gamma   82.40183902
_symmetry_Int_Tables_number   1
_chemical_formula_structural   Tb2Mn2FeRe14C3
_chemical_formula_sum   'Tb2 Mn2 Fe1 Re14 C3'
_cell_volume   326.51479556
_cell_formula_units_Z   1
loop_
 _symmetry_equiv_pos_site_id
 _symmetry_equiv_pos_as_xyz
  1  'x, y, z'
loop_
 _atom_site_type_symbol
 _atom_site_label
 _atom_site_symmetry_multiplicity
 _atom_site_fract_x
 _atom_site_fract_y
 _atom_site_fract_z
 _atom_site_occupancy
  Tb  Tb0  1  0.648721  0.648488  0.648721  1
  Tb  Tb1  1  0.351279  0.351512  0.351279  1
  Mn  Mn2  1  0.000000  0.000000  0.500000  1
  Mn  Mn3  1  0.500000  0.000000  0.000000  1
  Fe  Fe4  1  0.000000  0.500000  0.000000  1
  Re  Re5  1  0.722222  0.278604  0.000229  1
  Re  Re6  1  0.999771  0.721396  0.277778  1
  Re  Re7  1  0.278541  0.000000  0.721459  1
  Re  Re8  1  0.000229  0.278604  0.722222  1
  Re  Re9  1  0.721459  0.000000  0.278541  1
  Re  Re10  1  0.277778  0.721396  0.999771  1
  Re  Re11  1  0.346017  0.346655  0.860713  1
  Re  Re12  1  0.860713  0.346655  0.346017  1
  Re  Re13  1  0.345982  0.859935  0.345982  1
  Re  Re14  1  0.653983  0.653345  0.139287  1
  Re  Re15  1  0.139287  0.653345  0.653983  1
  Re  Re16  1  0.654018  0.140065  0.654018  1
  Re  Re17  1  0.899079  0.898088  0.899079  1
  Re  Re18  1  0.100921  0.101912  0.100921  1
  C  C19  1  0.500000  0.500000  0.000000  1
  C  C20  1  0.000000  0.500000  0.500000  1
  C  C21  1  0.500000  0.000000  0.500000  1
