# generated using pymatgen
data_Ta4Al4V2ReAg
_symmetry_space_group_name_H-M   'P 1'
_cell_length_a   5.07710892
_cell_length_b   5.12948612
_cell_length_c   8.47043500
_cell_angle_alpha   90.00000000
_cell_angle_beta   90.00000000
_cell_angle_gamma   120.28112834
_symmetry_Int_Tables_number   1
_chemical_formula_structural   Ta4Al4V2ReAg
_chemical_formula_sum   'Ta4 Al4 V2 Re1 Ag1'
_cell_volume   190.49755992
_cell_formula_units_Z   1
loop_
 _symmetry_equiv_pos_site_id
 _symmetry_equiv_pos_as_xyz
  1  'x, y, z'
loop_
 _atom_site_type_symbol
 _atom_site_label
 _atom_site_symmetry_multiplicity
 _atom_site_fract_x
 _atom_site_fract_y
 _atom_site_fract_z
 _atom_site_occupancy
  Ta  Ta0  1  0.666710  0.332983  0.549391  1
  Ta  Ta1  1  0.326246  0.664496  0.431515  1
  Ta  Ta2  1  0.326246  0.664496  0.068485  1
  Ta  Ta3  1  0.666710  0.332983  0.950609  1
  Al  Al4  1  0.999080  0.004203  0.497496  1
  Al  Al5  1  0.999080  0.004203  0.002504  1
  Al  Al6  1  0.184431  0.350507  0.750000  1
  Al  Al7  1  0.183308  0.835405  0.750000  1
  V  V8  1  0.816497  0.160057  0.250000  1
  V  V9  1  0.335374  0.160387  0.250000  1
  Re  Re10  1  0.822361  0.653329  0.250000  1
  Ag  Ag11  1  0.673960  0.836952  0.750000  1
