# generated using pymatgen
data_Mn2HSe2
_symmetry_space_group_name_H-M   'P 1'
_cell_length_a   3.62464727
_cell_length_b   3.63786592
_cell_length_c   7.50782652
_cell_angle_alpha   110.58431038
_cell_angle_beta   78.05906580
_cell_angle_gamma   89.98641184
_symmetry_Int_Tables_number   1
_chemical_formula_structural   Mn2HSe2
_chemical_formula_sum   'Mn2 H1 Se2'
_cell_volume   90.38388430
_cell_formula_units_Z   1
loop_
 _symmetry_equiv_pos_site_id
 _symmetry_equiv_pos_as_xyz
  1  'x, y, z'
loop_
 _atom_site_type_symbol
 _atom_site_label
 _atom_site_symmetry_multiplicity
 _atom_site_fract_x
 _atom_site_fract_y
 _atom_site_fract_z
 _atom_site_occupancy
  Mn  Mn0  1  0.254150  0.276734  0.507755  1
  Mn  Mn1  1  0.754169  0.776806  0.507877  1
  H  H2  1  0.254600  0.775515  0.506872  1
  Se  Se3  1  0.858600  0.099903  0.263823  1
  Se  Se4  1  0.649815  0.454388  0.751442  1
