# generated using pymatgen
data_Tb5DyTiAl23Os8
_symmetry_space_group_name_H-M   'P 1'
_cell_length_a   8.85548405
_cell_length_b   8.85547649
_cell_length_c   9.57172800
_cell_angle_alpha   90.00147646
_cell_angle_beta   89.99837064
_cell_angle_gamma   120.01179573
_symmetry_Int_Tables_number   1
_chemical_formula_structural   Tb5DyTiAl23Os8
_chemical_formula_sum   'Tb5 Dy1 Ti1 Al23 Os8'
_cell_volume   649.97041081
_cell_formula_units_Z   1
loop_
 _symmetry_equiv_pos_site_id
 _symmetry_equiv_pos_as_xyz
  1  'x, y, z'
loop_
 _atom_site_type_symbol
 _atom_site_label
 _atom_site_symmetry_multiplicity
 _atom_site_fract_x
 _atom_site_fract_y
 _atom_site_fract_z
 _atom_site_occupancy
  Tb  Tb0  1  0.193708  0.387417  0.249698  1
  Tb  Tb1  1  0.807065  0.614095  0.748297  1
  Tb  Tb2  1  0.612582  0.806292  0.249697  1
  Tb  Tb3  1  0.385906  0.192936  0.748297  1
  Tb  Tb4  1  0.193727  0.806273  0.249696  1
  Dy  Dy5  1  0.806913  0.193089  0.748238  1
  Ti  Ti6  1  0.333335  0.666658  0.991559  1
  Al  Al7  1  0.666717  0.333288  0.981183  1
  Al  Al8  1  0.666716  0.333286  0.516258  1
  Al  Al9  1  0.333340  0.666660  0.482358  1
  Al  Al10  1  0.162374  0.324919  0.575074  1
  Al  Al11  1  0.837351  0.674699  0.424455  1
  Al  Al12  1  0.675082  0.837626  0.575074  1
  Al  Al13  1  0.836795  0.673598  0.076757  1
  Al  Al14  1  0.325301  0.162650  0.424455  1
  Al  Al15  1  0.159535  0.319227  0.925773  1
  Al  Al16  1  0.162472  0.837528  0.575046  1
  Al  Al17  1  0.326400  0.163206  0.076758  1
  Al  Al18  1  0.837355  0.162646  0.424559  1
  Al  Al19  1  0.680774  0.840464  0.925773  1
  Al  Al20  1  0.836804  0.163200  0.076670  1
  Al  Al21  1  0.159628  0.840369  0.925800  1
  Al  Al22  1  0.561720  0.123416  0.253242  1
  Al  Al23  1  0.441088  0.881952  0.750256  1
  Al  Al24  1  0.876585  0.438282  0.253240  1
  Al  Al25  1  0.118047  0.558911  0.750257  1
  Al  Al26  1  0.561709  0.438292  0.253237  1
  Al  Al27  1  0.440884  0.559116  0.750257  1
  Al  Al28  1  0.000009  0.999992  0.250330  1
  Al  Al29  1  0.999903  0.000098  0.749753  1
  Os  Os30  1  0.499236  0.998270  0.002771  1
  Os  Os31  1  0.001724  0.500761  0.002770  1
  Os  Os32  1  0.499745  0.999275  0.503056  1
  Os  Os33  1  0.499120  0.500880  0.002856  1
  Os  Os34  1  0.000725  0.500255  0.503057  1
  Os  Os35  1  0.499623  0.500378  0.502971  1
  Os  Os36  1  0.000003  0.999997  0.000448  1
  Os  Os37  1  0.000000  0.000000  0.500022  1
