# generated using pymatgen
data_Tb16MgCd3Co3Ni
_symmetry_space_group_name_H-M   'P 1'
_cell_length_a   9.58232803
_cell_length_b   9.58232893
_cell_length_c   9.59782503
_cell_angle_alpha   60.06159916
_cell_angle_beta   60.06159669
_cell_angle_gamma   60.00967589
_symmetry_Int_Tables_number   1
_chemical_formula_structural   Tb16MgCd3Co3Ni
_chemical_formula_sum   'Tb16 Mg1 Cd3 Co3 Ni1'
_cell_volume   623.78578045
_cell_formula_units_Z   1
loop_
 _symmetry_equiv_pos_site_id
 _symmetry_equiv_pos_as_xyz
  1  'x, y, z'
loop_
 _atom_site_type_symbol
 _atom_site_label
 _atom_site_symmetry_multiplicity
 _atom_site_fract_x
 _atom_site_fract_y
 _atom_site_fract_z
 _atom_site_occupancy
  Tb  Tb0  1  0.439163  0.439163  0.056433  1
  Tb  Tb1  1  0.594759  0.594759  0.595677  1
  Tb  Tb2  1  0.188078  0.813060  0.812144  1
  Tb  Tb3  1  0.062404  0.062404  0.435402  1
  Tb  Tb4  1  0.437929  0.061339  0.060298  1
  Tb  Tb5  1  0.813060  0.188078  0.812144  1
  Tb  Tb6  1  0.438182  0.058815  0.436737  1
  Tb  Tb7  1  0.597980  0.210894  0.599559  1
  Tb  Tb8  1  0.812877  0.812877  0.187410  1
  Tb  Tb9  1  0.210894  0.597980  0.599559  1
  Tb  Tb10  1  0.812370  0.188221  0.187469  1
  Tb  Tb11  1  0.058815  0.438182  0.436737  1
  Tb  Tb12  1  0.188221  0.812370  0.187469  1
  Tb  Tb13  1  0.599904  0.599904  0.206915  1
  Tb  Tb14  1  0.187974  0.187974  0.811792  1
  Tb  Tb15  1  0.061339  0.437929  0.060298  1
  Mg  Mg16  1  0.825437  0.825437  0.521749  1
  Cd  Cd17  1  0.831042  0.831042  0.830924  1
  Cd  Cd18  1  0.506534  0.830846  0.830760  1
  Cd  Cd19  1  0.830846  0.506534  0.830760  1
  Co  Co20  1  0.826661  0.391453  0.390891  1
  Co  Co21  1  0.391453  0.826661  0.390891  1
  Co  Co22  1  0.391390  0.391390  0.826634  1
  Ni  Ni23  1  0.392691  0.392691  0.391349  1
