# generated using pymatgen
data_Sc6Fe16Si6W
_symmetry_space_group_name_H-M   'P 1'
_cell_length_a   8.15635830
_cell_length_b   8.15635823
_cell_length_c   8.15635700
_cell_angle_alpha   59.99999283
_cell_angle_beta   59.99999311
_cell_angle_gamma   59.99999278
_symmetry_Int_Tables_number   1
_chemical_formula_structural   Sc6Fe16Si6W
_chemical_formula_sum   'Sc6 Fe16 Si6 W1'
_cell_volume   383.68405056
_cell_formula_units_Z   1
loop_
 _symmetry_equiv_pos_site_id
 _symmetry_equiv_pos_as_xyz
  1  'x, y, z'
loop_
 _atom_site_type_symbol
 _atom_site_label
 _atom_site_symmetry_multiplicity
 _atom_site_fract_x
 _atom_site_fract_y
 _atom_site_fract_z
 _atom_site_occupancy
  Sc  Sc0  1  0.285620  0.714380  0.714380  1
  Sc  Sc1  1  0.714380  0.714380  0.285620  1
  Sc  Sc2  1  0.285620  0.285620  0.714380  1
  Sc  Sc3  1  0.714380  0.285620  0.285620  1
  Sc  Sc4  1  0.714380  0.285620  0.714380  1
  Sc  Sc5  1  0.285620  0.714380  0.285620  1
  Fe  Fe6  1  0.875793  0.875793  0.875793  1
  Fe  Fe7  1  0.030771  0.323076  0.323076  1
  Fe  Fe8  1  0.124207  0.124207  0.627379  1
  Fe  Fe9  1  0.323076  0.030771  0.323076  1
  Fe  Fe10  1  0.323076  0.323076  0.323076  1
  Fe  Fe11  1  0.676924  0.676924  0.969229  1
  Fe  Fe12  1  0.875793  0.875793  0.372621  1
  Fe  Fe13  1  0.676924  0.676924  0.676924  1
  Fe  Fe14  1  0.676924  0.969229  0.676924  1
  Fe  Fe15  1  0.323076  0.323076  0.030771  1
  Fe  Fe16  1  0.875793  0.372621  0.875793  1
  Fe  Fe17  1  0.627379  0.124207  0.124207  1
  Fe  Fe18  1  0.124207  0.627379  0.124207  1
  Fe  Fe19  1  0.124207  0.124207  0.124207  1
  Fe  Fe20  1  0.969229  0.676924  0.676924  1
  Fe  Fe21  1  0.372621  0.875793  0.875793  1
  Si  Si22  1  0.000000  0.000000  0.500000  1
  Si  Si23  1  0.000000  0.500000  0.000000  1
  Si  Si24  1  0.500000  0.000000  0.500000  1
  Si  Si25  1  0.000000  0.500000  0.500000  1
  Si  Si26  1  0.500000  0.000000  0.000000  1
  Si  Si27  1  0.500000  0.500000  0.000000  1
  W  W28  1  0.000000  0.000000  0.000000  1
