# generated using pymatgen
data_Ta3Mn2GeN
_symmetry_space_group_name_H-M   'P 1'
_cell_length_a   8.06816387
_cell_length_b   8.06758533
_cell_length_c   8.06772100
_cell_angle_alpha   59.99944779
_cell_angle_beta   60.00181987
_cell_angle_gamma   60.00112858
_symmetry_Int_Tables_number   1
_chemical_formula_structural   Ta3Mn2GeN
_chemical_formula_sum   'Ta12 Mn8 Ge4 N4'
_cell_volume   371.33169103
_cell_formula_units_Z   4
loop_
 _symmetry_equiv_pos_site_id
 _symmetry_equiv_pos_as_xyz
  1  'x, y, z'
loop_
 _atom_site_type_symbol
 _atom_site_label
 _atom_site_symmetry_multiplicity
 _atom_site_fract_x
 _atom_site_fract_y
 _atom_site_fract_z
 _atom_site_occupancy
  Ta  Ta0  1  0.803863  0.803835  0.196151  1
  Ta  Ta1  1  0.196155  0.196130  0.803858  1
  Ta  Ta2  1  0.803852  0.196151  0.803836  1
  Ta  Ta3  1  0.196145  0.803857  0.196130  1
  Ta  Ta4  1  0.196145  0.803857  0.803869  1
  Ta  Ta5  1  0.803852  0.196151  0.196161  1
  Ta  Ta6  1  0.446137  0.446165  0.053849  1
  Ta  Ta7  1  0.053845  0.053870  0.446142  1
  Ta  Ta8  1  0.446148  0.053849  0.446164  1
  Ta  Ta9  1  0.053855  0.446143  0.053870  1
  Ta  Ta10  1  0.053855  0.446143  0.446131  1
  Ta  Ta11  1  0.446148  0.053849  0.053839  1
  Mn  Mn12  1  0.744870  0.418367  0.418382  1
  Mn  Mn13  1  0.418441  0.744732  0.418414  1
  Mn  Mn14  1  0.418436  0.418402  0.744750  1
  Mn  Mn15  1  0.418436  0.418402  0.418412  1
  Mn  Mn16  1  0.505130  0.831633  0.831618  1
  Mn  Mn17  1  0.831559  0.505268  0.831586  1
  Mn  Mn18  1  0.831564  0.831598  0.505250  1
  Mn  Mn19  1  0.831564  0.831598  0.831588  1
  Ge  Ge20  1  0.125000  0.625000  0.625000  1
  Ge  Ge21  1  0.625000  0.125000  0.625000  1
  Ge  Ge22  1  0.625000  0.625000  0.125000  1
  Ge  Ge23  1  0.625000  0.625000  0.625000  1
  N  N24  1  0.625000  0.125000  0.125000  1
  N  N25  1  0.125000  0.625000  0.125000  1
  N  N26  1  0.125000  0.125000  0.625000  1
  N  N27  1  0.125000  0.125000  0.125000  1
