# generated using pymatgen
data_Tm4Ga2Os5W
_symmetry_space_group_name_H-M   'P 1'
_cell_length_a   5.44142466
_cell_length_b   5.29160649
_cell_length_c   8.82169900
_cell_angle_alpha   90.00000000
_cell_angle_beta   90.00000000
_cell_angle_gamma   121.10076468
_symmetry_Int_Tables_number   1
_chemical_formula_structural   Tm4Ga2Os5W
_chemical_formula_sum   'Tm4 Ga2 Os5 W1'
_cell_volume   217.49944325
_cell_formula_units_Z   1
loop_
 _symmetry_equiv_pos_site_id
 _symmetry_equiv_pos_as_xyz
  1  'x, y, z'
loop_
 _atom_site_type_symbol
 _atom_site_label
 _atom_site_symmetry_multiplicity
 _atom_site_fract_x
 _atom_site_fract_y
 _atom_site_fract_z
 _atom_site_occupancy
  Tm  Tm0  1  0.673155  0.341623  0.565743  1
  Tm  Tm1  1  0.340347  0.669790  0.441355  1
  Tm  Tm2  1  0.340347  0.669790  0.058645  1
  Tm  Tm3  1  0.673155  0.341623  0.934257  1
  Ga  Ga4  1  0.814134  0.653516  0.250000  1
  Ga  Ga5  1  0.817887  0.162505  0.250000  1
  Os  Os6  1  0.013265  0.015889  0.496092  1
  Os  Os7  1  0.013265  0.015889  0.003908  1
  Os  Os8  1  0.174062  0.825583  0.750000  1
  Os  Os9  1  0.648260  0.820243  0.750000  1
  Os  Os10  1  0.329354  0.160293  0.250000  1
  W  W11  1  0.162767  0.323257  0.750000  1
