# generated using pymatgen
data_Tb2Zr3P7Rh9
_symmetry_space_group_name_H-M   'P 1'
_cell_length_a   3.88972900
_cell_length_b   9.85870607
_cell_length_c   9.85412922
_cell_angle_alpha   120.00713311
_cell_angle_beta   90.00135203
_cell_angle_gamma   89.99661443
_symmetry_Int_Tables_number   1
_chemical_formula_structural   Tb2Zr3P7Rh9
_chemical_formula_sum   'Tb2 Zr3 P7 Rh9'
_cell_volume   327.23287426
_cell_formula_units_Z   1
loop_
 _symmetry_equiv_pos_site_id
 _symmetry_equiv_pos_as_xyz
  1  'x, y, z'
loop_
 _atom_site_type_symbol
 _atom_site_label
 _atom_site_symmetry_multiplicity
 _atom_site_fract_x
 _atom_site_fract_y
 _atom_site_fract_z
 _atom_site_occupancy
  Tb  Tb0  1  0.261711  0.666607  0.333150  1
  Tb  Tb1  1  0.762059  0.333323  0.666745  1
  Zr  Zr2  1  0.762013  0.104760  0.875351  1
  Zr  Zr3  1  0.762022  0.124455  0.229140  1
  Zr  Zr4  1  0.761982  0.770716  0.895243  1
  P  P5  1  0.262468  0.000089  0.999934  1
  P  P6  1  0.761536  0.863065  0.579344  1
  P  P7  1  0.761636  0.420490  0.283703  1
  P  P8  1  0.761645  0.716377  0.136829  1
  P  P9  1  0.261945  0.112328  0.423288  1
  P  P10  1  0.261895  0.576561  0.689191  1
  P  P11  1  0.261923  0.311008  0.887662  1
  Rh  Rh12  1  0.261593  0.878341  0.163797  1
  Rh  Rh13  1  0.261447  0.836129  0.714526  1
  Rh  Rh14  1  0.261551  0.285735  0.121881  1
  Rh  Rh15  1  0.761827  0.605164  0.551620  1
  Rh  Rh16  1  0.761835  0.448356  0.053589  1
  Rh  Rh17  1  0.761889  0.946496  0.394747  1
  Rh  Rh18  1  0.262337  0.359470  0.437316  1
  Rh  Rh19  1  0.262249  0.562933  0.922528  1
  Rh  Rh20  1  0.262435  0.077597  0.640417  1
