# generated using pymatgen
data_Zr10InGa2SnSb4
_symmetry_space_group_name_H-M   'P 1'
_cell_length_a   8.72060201
_cell_length_b   8.69555139
_cell_length_c   5.89535000
_cell_angle_alpha   90.00000000
_cell_angle_beta   90.00000000
_cell_angle_gamma   119.99141896
_symmetry_Int_Tables_number   1
_chemical_formula_structural   Zr10InGa2SnSb4
_chemical_formula_sum   'Zr10 In1 Ga2 Sn1 Sb4'
_cell_volume   387.18753232
_cell_formula_units_Z   1
loop_
 _symmetry_equiv_pos_site_id
 _symmetry_equiv_pos_as_xyz
  1  'x, y, z'
loop_
 _atom_site_type_symbol
 _atom_site_label
 _atom_site_symmetry_multiplicity
 _atom_site_fract_x
 _atom_site_fract_y
 _atom_site_fract_z
 _atom_site_occupancy
  Zr  Zr0  1  0.000450  0.264362  0.250000  1
  Zr  Zr1  1  0.728041  0.998479  0.750000  1
  Zr  Zr2  1  0.735405  0.735518  0.250000  1
  Zr  Zr3  1  0.663794  0.331555  0.501157  1
  Zr  Zr4  1  0.001219  0.732111  0.750000  1
  Zr  Zr5  1  0.270613  0.267864  0.750000  1
  Zr  Zr6  1  0.335092  0.669108  0.998714  1
  Zr  Zr7  1  0.663794  0.331555  0.998843  1
  Zr  Zr8  1  0.335092  0.669108  0.501286  1
  Zr  Zr9  1  0.265537  0.000581  0.250000  1
  In  In10  1  0.999744  0.384366  0.750000  1
  Ga  Ga11  1  0.999041  0.000804  0.994160  1
  Ga  Ga12  1  0.999041  0.000804  0.505840  1
  Sn  Sn13  1  0.613271  0.613596  0.750000  1
  Sb  Sb14  1  0.611628  0.000659  0.250000  1
  Sb  Sb15  1  0.388352  0.000205  0.750000  1
  Sb  Sb16  1  0.391095  0.393007  0.250000  1
  Sb  Sb17  1  0.998788  0.606319  0.250000  1
