# generated using pymatgen
data_La6Nd14Si15Ge
_symmetry_space_group_name_H-M   'P 1'
_cell_length_a   7.92670629
_cell_length_b   7.92488268
_cell_length_c   15.33139423
_cell_angle_alpha   90.03386442
_cell_angle_beta   89.96889011
_cell_angle_gamma   90.17198184
_symmetry_Int_Tables_number   1
_chemical_formula_structural   La6Nd14Si15Ge
_chemical_formula_sum   'La6 Nd14 Si15 Ge1'
_cell_volume   963.08620883
_cell_formula_units_Z   1
loop_
 _symmetry_equiv_pos_site_id
 _symmetry_equiv_pos_as_xyz
  1  'x, y, z'
loop_
 _atom_site_type_symbol
 _atom_site_label
 _atom_site_symmetry_multiplicity
 _atom_site_fract_x
 _atom_site_fract_y
 _atom_site_fract_z
 _atom_site_occupancy
  La  La0  1  0.623980  0.986812  0.948232  1
  La  La1  1  0.122928  0.514074  0.802220  1
  La  La2  1  0.874742  0.484331  0.300460  1
  La  La3  1  0.513244  0.122929  0.197615  1
  La  La4  1  0.487315  0.877403  0.698111  1
  La  La5  1  0.377576  0.013512  0.448205  1
  Nd  Nd6  1  0.373131  0.479784  0.373701  1
  Nd  Nd7  1  0.872456  0.019991  0.376153  1
  Nd  Nd8  1  0.981436  0.126094  0.122644  1
  Nd  Nd9  1  0.018256  0.874210  0.623063  1
  Nd  Nd10  1  0.627996  0.519797  0.873717  1
  Nd  Nd11  1  0.481478  0.370842  0.626640  1
  Nd  Nd12  1  0.519327  0.627958  0.126031  1
  Nd  Nd13  1  0.125942  0.981885  0.877113  1
  Nd  Nd14  1  0.989873  0.619227  0.053502  1
  Nd  Nd15  1  0.010159  0.379648  0.554519  1
  Nd  Nd16  1  0.687236  0.691615  0.500838  1
  Nd  Nd17  1  0.809514  0.192298  0.750460  1
  Nd  Nd18  1  0.191819  0.808475  0.248565  1
  Nd  Nd19  1  0.309889  0.308656  0.000411  1
  Si  Si20  1  0.921719  0.288900  0.939753  1
  Si  Si21  1  0.716230  0.080667  0.560393  1
  Si  Si22  1  0.214061  0.422047  0.189199  1
  Si  Si23  1  0.786615  0.578212  0.689011  1
  Si  Si24  1  0.420293  0.214125  0.810610  1
  Si  Si25  1  0.579757  0.785909  0.310353  1
  Si  Si26  1  0.284459  0.919384  0.060063  1
  Si  Si27  1  0.831088  0.806329  0.795412  1
  Si  Si28  1  0.169124  0.194013  0.295348  1
  Si  Si29  1  0.806454  0.830466  0.202516  1
  Si  Si30  1  0.305828  0.665650  0.549111  1
  Si  Si31  1  0.696949  0.333998  0.047268  1
  Si  Si32  1  0.671496  0.306998  0.454135  1
  Si  Si33  1  0.328985  0.693249  0.953845  1
  Si  Si34  1  0.193645  0.169150  0.702845  1
  Ge  Ge35  1  0.075001  0.711363  0.437940  1
