# generated using pymatgen
data_YEr(Zn4Rh)2
_symmetry_space_group_name_H-M   'P 1'
_cell_length_a   5.06020100
_cell_length_b   5.06020022
_cell_length_c   8.31308500
_cell_angle_alpha   90.00000000
_cell_angle_beta   90.00000000
_cell_angle_gamma   119.99999857
_symmetry_Int_Tables_number   1
_chemical_formula_structural   YEr(Zn4Rh)2
_chemical_formula_sum   'Y1 Er1 Zn8 Rh2'
_cell_volume   184.34371193
_cell_formula_units_Z   1
loop_
 _symmetry_equiv_pos_site_id
 _symmetry_equiv_pos_as_xyz
  1  'x, y, z'
loop_
 _atom_site_type_symbol
 _atom_site_label
 _atom_site_symmetry_multiplicity
 _atom_site_fract_x
 _atom_site_fract_y
 _atom_site_fract_z
 _atom_site_occupancy
  Y  Y0  1  0.333333  0.666667  0.935341  1
  Er  Er1  1  0.666667  0.333333  0.434957  1
  Zn  Zn2  1  0.000000  0.000000  0.001091  1
  Zn  Zn3  1  0.000000  0.000000  0.500518  1
  Zn  Zn4  1  0.169897  0.339792  0.247864  1
  Zn  Zn5  1  0.830125  0.169875  0.746279  1
  Zn  Zn6  1  0.339748  0.169875  0.746279  1
  Zn  Zn7  1  0.660208  0.830103  0.247864  1
  Zn  Zn8  1  0.169897  0.830103  0.247864  1
  Zn  Zn9  1  0.830125  0.660252  0.746279  1
  Rh  Rh10  1  0.333333  0.666667  0.571286  1
  Rh  Rh11  1  0.666667  0.333333  0.074378  1
