# generated using pymatgen
data_Gd2Be2Cd(SiO5)2
_symmetry_space_group_name_H-M   'P 1'
_cell_length_a   7.64051900
_cell_length_b   4.90416096
_cell_length_c   10.24309151
_cell_angle_alpha   89.12939130
_cell_angle_beta   90.00000000
_cell_angle_gamma   90.00000000
_symmetry_Int_Tables_number   1
_chemical_formula_structural   Gd2Be2Cd(SiO5)2
_chemical_formula_sum   'Gd4 Be4 Cd2 Si4 O20'
_cell_volume   383.76776256
_cell_formula_units_Z   2
loop_
 _symmetry_equiv_pos_site_id
 _symmetry_equiv_pos_as_xyz
  1  'x, y, z'
loop_
 _atom_site_type_symbol
 _atom_site_label
 _atom_site_symmetry_multiplicity
 _atom_site_fract_x
 _atom_site_fract_y
 _atom_site_fract_z
 _atom_site_occupancy
  Gd  Gd0  1  0.601833  0.005523  0.829683  1
  Gd  Gd1  1  0.101833  0.994477  0.670317  1
  Gd  Gd2  1  0.398167  0.994477  0.170317  1
  Gd  Gd3  1  0.898167  0.005523  0.329683  1
  Be  Be4  1  0.908430  0.527836  0.829085  1
  Be  Be5  1  0.408430  0.472164  0.670915  1
  Be  Be6  1  0.091570  0.472164  0.170915  1
  Be  Be7  1  0.591570  0.527836  0.329085  1
  Cd  Cd8  1  0.000000  0.000000  0.000000  1
  Cd  Cd9  1  0.500000  0.000000  0.500000  1
  Si  Si10  1  0.777996  0.478309  0.576665  1
  Si  Si11  1  0.277996  0.521691  0.923335  1
  Si  Si12  1  0.222004  0.521691  0.423335  1
  Si  Si13  1  0.722004  0.478309  0.076665  1
  O  O14  1  0.603025  0.332776  0.644689  1
  O  O15  1  0.103025  0.667224  0.855311  1
  O  O16  1  0.396975  0.667224  0.355311  1
  O  O17  1  0.896975  0.332776  0.144689  1
  O  O18  1  0.404177  0.796686  0.680601  1
  O  O19  1  0.904177  0.203314  0.819399  1
  O  O20  1  0.595823  0.203314  0.319399  1
  O  O21  1  0.220080  0.341120  0.054787  1
  O  O22  1  0.593508  0.231660  0.030433  1
  O  O23  1  0.093508  0.768340  0.469567  1
  O  O24  1  0.850574  0.685156  0.690181  1
  O  O25  1  0.906492  0.231660  0.530433  1
  O  O26  1  0.720080  0.658880  0.445213  1
  O  O27  1  0.406492  0.768340  0.969567  1
  O  O28  1  0.279920  0.341120  0.554787  1
  O  O29  1  0.779920  0.658880  0.945213  1
  O  O30  1  0.649426  0.685156  0.190181  1
  O  O31  1  0.149426  0.314844  0.309819  1
  O  O32  1  0.350574  0.314844  0.809819  1
  O  O33  1  0.095823  0.796686  0.180601  1
