# generated using pymatgen
data_La6ScOsO14
_symmetry_space_group_name_H-M   'P 1'
_cell_length_a   6.80413977
_cell_length_b   6.80413763
_cell_length_c   7.77695582
_cell_angle_alpha   90.47893460
_cell_angle_beta   90.47893350
_cell_angle_gamma   112.01003005
_symmetry_Int_Tables_number   1
_chemical_formula_structural   La6ScOsO14
_chemical_formula_sum   'La6 Sc1 Os1 O14'
_cell_volume   333.76634716
_cell_formula_units_Z   1
loop_
 _symmetry_equiv_pos_site_id
 _symmetry_equiv_pos_as_xyz
  1  'x, y, z'
loop_
 _atom_site_type_symbol
 _atom_site_label
 _atom_site_symmetry_multiplicity
 _atom_site_fract_x
 _atom_site_fract_y
 _atom_site_fract_z
 _atom_site_occupancy
  La  La0  1  0.500000  0.500000  0.000000  1
  La  La1  1  0.500000  0.500000  0.500000  1
  La  La2  1  0.423522  0.970674  0.763198  1
  La  La3  1  0.576478  0.029326  0.236802  1
  La  La4  1  0.970674  0.423522  0.763198  1
  La  La5  1  0.029326  0.576478  0.236802  1
  Sc  Sc6  1  0.000000  0.000000  0.000000  1
  Os  Os7  1  0.000000  0.000000  0.500000  1
  O  O8  1  0.601250  0.340579  0.742730  1
  O  O9  1  0.398750  0.659421  0.257270  1
  O  O10  1  0.340579  0.601250  0.742730  1
  O  O11  1  0.659421  0.398750  0.257270  1
  O  O12  1  0.328115  0.069161  0.034668  1
  O  O13  1  0.704625  0.945023  0.538617  1
  O  O14  1  0.054977  0.295375  0.461383  1
  O  O15  1  0.930839  0.671885  0.965332  1
  O  O16  1  0.934687  0.934687  0.264312  1
  O  O17  1  0.065313  0.065313  0.735688  1
  O  O18  1  0.069161  0.328115  0.034668  1
  O  O19  1  0.945023  0.704625  0.538617  1
  O  O20  1  0.295375  0.054977  0.461383  1
  O  O21  1  0.671885  0.930839  0.965332  1
