# generated using pymatgen
data_Er9ThCo4
_symmetry_space_group_name_H-M   'P 1'
_cell_length_a   6.26702570
_cell_length_b   6.85950472
_cell_length_c   8.54948387
_cell_angle_alpha   96.23392889
_cell_angle_beta   111.09789379
_cell_angle_gamma   89.21114338
_symmetry_Int_Tables_number   1
_chemical_formula_structural   Er9ThCo4
_chemical_formula_sum   'Er9 Th1 Co4'
_cell_volume   340.73969026
_cell_formula_units_Z   1
loop_
 _symmetry_equiv_pos_site_id
 _symmetry_equiv_pos_as_xyz
  1  'x, y, z'
loop_
 _atom_site_type_symbol
 _atom_site_label
 _atom_site_symmetry_multiplicity
 _atom_site_fract_x
 _atom_site_fract_y
 _atom_site_fract_z
 _atom_site_occupancy
  Er  Er0  1  0.988217  0.915421  0.192871  1
  Er  Er1  1  0.203318  0.412544  0.189316  1
  Er  Er2  1  0.015434  0.085621  0.810739  1
  Er  Er3  1  0.212778  0.685464  0.567613  1
  Er  Er4  1  0.647092  0.818236  0.428692  1
  Er  Er5  1  0.782539  0.313800  0.427299  1
  Er  Er6  1  0.354476  0.183684  0.569438  1
  Er  Er7  1  0.430951  0.752531  0.002514  1
  Er  Er8  1  0.569406  0.248576  0.999731  1
  Th  Th9  1  0.802324  0.592795  0.808014  1
  Co  Co10  1  0.606642  0.913943  0.778062  1
  Co  Co11  1  0.821109  0.570287  0.215922  1
  Co  Co12  1  0.401701  0.074169  0.228358  1
  Co  Co13  1  0.164013  0.432929  0.781429  1
