# generated using pymatgen
data_La5Nd3SiPd24
_symmetry_space_group_name_H-M   'P 1'
_cell_length_a   8.51763862
_cell_length_b   8.51763862
_cell_length_c   8.51714215
_cell_angle_alpha   90.01502525
_cell_angle_beta   89.98497475
_cell_angle_gamma   89.95911597
_symmetry_Int_Tables_number   1
_chemical_formula_structural   La5Nd3SiPd24
_chemical_formula_sum   'La5 Nd3 Si1 Pd24'
_cell_volume   617.91989021
_cell_formula_units_Z   1
loop_
 _symmetry_equiv_pos_site_id
 _symmetry_equiv_pos_as_xyz
  1  'x, y, z'
loop_
 _atom_site_type_symbol
 _atom_site_label
 _atom_site_symmetry_multiplicity
 _atom_site_fract_x
 _atom_site_fract_y
 _atom_site_fract_z
 _atom_site_occupancy
  La  La0  1  0.253944  0.253948  0.253815  1
  La  La1  1  0.746093  0.746235  0.746225  1
  La  La2  1  0.746052  0.746056  0.253815  1
  La  La3  1  0.746177  0.253823  0.746144  1
  La  La4  1  0.253765  0.253907  0.746225  1
  Nd  Nd5  1  0.253441  0.746559  0.253536  1
  Nd  Nd6  1  0.253482  0.746518  0.746442  1
  Nd  Nd7  1  0.746585  0.253415  0.253379  1
  Si  Si8  1  0.000086  0.999914  0.000093  1
  Pd  Pd9  1  0.256676  0.500420  0.000027  1
  Pd  Pd10  1  0.743341  0.499820  0.000211  1
  Pd  Pd11  1  0.999858  0.256640  0.499790  1
  Pd  Pd12  1  0.500180  0.256659  0.000211  1
  Pd  Pd13  1  0.000379  0.743345  0.499996  1
  Pd  Pd14  1  0.499580  0.743324  0.000027  1
  Pd  Pd15  1  0.499987  0.999968  0.256640  1
  Pd  Pd16  1  0.256655  0.999621  0.499996  1
  Pd  Pd17  1  0.499781  0.999789  0.743363  1
  Pd  Pd18  1  0.743360  0.000142  0.499790  1
  Pd  Pd19  1  0.000032  0.500013  0.256640  1
  Pd  Pd20  1  0.000211  0.500219  0.743363  1
  Pd  Pd21  1  0.251668  0.500389  0.499982  1
  Pd  Pd22  1  0.748337  0.499840  0.499794  1
  Pd  Pd23  1  0.500160  0.251663  0.499794  1
  Pd  Pd24  1  0.499611  0.748332  0.499982  1
  Pd  Pd25  1  0.499979  0.500021  0.251641  1
  Pd  Pd26  1  0.499794  0.500206  0.748361  1
  Pd  Pd27  1  0.280167  0.999248  0.000016  1
  Pd  Pd28  1  0.719716  0.000298  0.000398  1
  Pd  Pd29  1  0.999702  0.280284  0.000398  1
  Pd  Pd30  1  0.000752  0.719833  0.000016  1
  Pd  Pd31  1  0.000037  0.999963  0.280164  1
  Pd  Pd32  1  0.000411  0.999589  0.719728  1
