# generated using pymatgen
data_Y6Ga7PPd16
_symmetry_space_group_name_H-M   'P 1'
_cell_length_a   9.04706118
_cell_length_b   9.04706878
_cell_length_c   9.04707000
_cell_angle_alpha   60.00003365
_cell_angle_beta   60.00000236
_cell_angle_gamma   59.99991827
_symmetry_Int_Tables_number   1
_chemical_formula_structural   Y6Ga7PPd16
_chemical_formula_sum   'Y6 Ga7 P1 Pd16'
_cell_volume   523.61034962
_cell_formula_units_Z   1
loop_
 _symmetry_equiv_pos_site_id
 _symmetry_equiv_pos_as_xyz
  1  'x, y, z'
loop_
 _atom_site_type_symbol
 _atom_site_label
 _atom_site_symmetry_multiplicity
 _atom_site_fract_x
 _atom_site_fract_y
 _atom_site_fract_z
 _atom_site_occupancy
  Y  Y0  1  0.714685  0.285315  0.285314  1
  Y  Y1  1  0.285315  0.714685  0.714686  1
  Y  Y2  1  0.285315  0.714685  0.285315  1
  Y  Y3  1  0.714685  0.285315  0.714685  1
  Y  Y4  1  0.285314  0.285314  0.714685  1
  Y  Y5  1  0.714686  0.714686  0.285315  1
  Ga  Ga6  1  0.000000  0.000000  0.000000  1
  Ga  Ga7  1  0.500000  0.000000  0.000000  1
  Ga  Ga8  1  0.000000  0.500000  0.500000  1
  Ga  Ga9  1  0.000000  0.500000  0.000000  1
  Ga  Ga10  1  0.500000  0.000000  0.500000  1
  Ga  Ga11  1  0.000000  0.000000  0.500000  1
  Ga  Ga12  1  0.500000  0.500000  0.000000  1
  P  P13  1  0.500000  0.500000  0.500000  1
  Pd  Pd14  1  0.118973  0.118973  0.118973  1
  Pd  Pd15  1  0.881027  0.881027  0.881027  1
  Pd  Pd16  1  0.118973  0.118973  0.643081  1
  Pd  Pd17  1  0.118973  0.643081  0.118973  1
  Pd  Pd18  1  0.881027  0.881027  0.356919  1
  Pd  Pd19  1  0.881027  0.356919  0.881027  1
  Pd  Pd20  1  0.643081  0.118973  0.118974  1
  Pd  Pd21  1  0.356919  0.881027  0.881026  1
  Pd  Pd22  1  0.332569  0.332569  0.332569  1
  Pd  Pd23  1  0.667431  0.667431  0.667431  1
  Pd  Pd24  1  0.332569  0.332569  0.002293  1
  Pd  Pd25  1  0.332569  0.002293  0.332569  1
  Pd  Pd26  1  0.667431  0.667431  0.997707  1
  Pd  Pd27  1  0.667431  0.997707  0.667431  1
  Pd  Pd28  1  0.002294  0.332569  0.332569  1
  Pd  Pd29  1  0.997706  0.667431  0.667431  1
