# generated using pymatgen
data_Pr12Os3Au
_symmetry_space_group_name_H-M   'P 1'
_cell_length_a   6.59554375
_cell_length_b   7.55722815
_cell_length_c   9.91134100
_cell_angle_alpha   90.00000000
_cell_angle_beta   90.00000000
_cell_angle_gamma   90.41770507
_symmetry_Int_Tables_number   1
_chemical_formula_structural   Pr12Os3Au
_chemical_formula_sum   'Pr12 Os3 Au1'
_cell_volume   494.00803893
_cell_formula_units_Z   1
loop_
 _symmetry_equiv_pos_site_id
 _symmetry_equiv_pos_as_xyz
  1  'x, y, z'
loop_
 _atom_site_type_symbol
 _atom_site_label
 _atom_site_symmetry_multiplicity
 _atom_site_fract_x
 _atom_site_fract_y
 _atom_site_fract_z
 _atom_site_occupancy
  Pr  Pr0  1  0.343586  0.666278  0.060833  1
  Pr  Pr1  1  0.169305  0.188229  0.443141  1
  Pr  Pr2  1  0.674551  0.321646  0.569001  1
  Pr  Pr3  1  0.825455  0.827772  0.930000  1
  Pr  Pr4  1  0.674551  0.321646  0.930999  1
  Pr  Pr5  1  0.825455  0.827772  0.570000  1
  Pr  Pr6  1  0.343586  0.666278  0.439167  1
  Pr  Pr7  1  0.169305  0.188229  0.056859  1
  Pr  Pr8  1  0.853840  0.519984  0.250000  1
  Pr  Pr9  1  0.622124  0.046357  0.250000  1
  Pr  Pr10  1  0.141639  0.466313  0.750000  1
  Pr  Pr11  1  0.353523  0.957576  0.750000  1
  Os  Os12  1  0.431621  0.383007  0.250000  1
  Os  Os13  1  0.948865  0.115755  0.750000  1
  Os  Os14  1  0.557491  0.615362  0.750000  1
  Au  Au15  1  0.065105  0.887795  0.250000  1
