# generated using pymatgen
data_Ce10Sn6AsH
_symmetry_space_group_name_H-M   'P 1'
_cell_length_a   9.40913900
_cell_length_b   9.40913890
_cell_length_c   6.54413800
_cell_angle_alpha   90.00000000
_cell_angle_beta   90.00000000
_cell_angle_gamma   120.00000386
_symmetry_Int_Tables_number   1
_chemical_formula_structural   Ce10Sn6AsH
_chemical_formula_sum   'Ce10 Sn6 As1 H1'
_cell_volume   501.74473963
_cell_formula_units_Z   1
loop_
 _symmetry_equiv_pos_site_id
 _symmetry_equiv_pos_as_xyz
  1  'x, y, z'
loop_
 _atom_site_type_symbol
 _atom_site_label
 _atom_site_symmetry_multiplicity
 _atom_site_fract_x
 _atom_site_fract_y
 _atom_site_fract_z
 _atom_site_occupancy
  Ce  Ce0  1  0.666667  0.333333  0.000000  1
  Ce  Ce1  1  0.333333  0.666667  0.000000  1
  Ce  Ce2  1  0.333333  0.666667  0.500000  1
  Ce  Ce3  1  0.666667  0.333333  0.500000  1
  Ce  Ce4  1  0.745984  0.745984  0.756875  1
  Ce  Ce5  1  0.254016  0.000000  0.756875  1
  Ce  Ce6  1  0.000000  0.254016  0.756875  1
  Ce  Ce7  1  0.254016  0.254016  0.243125  1
  Ce  Ce8  1  0.745984  0.000000  0.243125  1
  Ce  Ce9  1  0.000000  0.745984  0.243125  1
  Sn  Sn10  1  0.387913  0.387913  0.749350  1
  Sn  Sn11  1  0.612087  0.000000  0.749350  1
  Sn  Sn12  1  0.000000  0.612087  0.749350  1
  Sn  Sn13  1  0.612087  0.612087  0.250650  1
  Sn  Sn14  1  0.387913  0.000000  0.250650  1
  Sn  Sn15  1  0.000000  0.387913  0.250650  1
  As  As16  1  0.000000  0.000000  0.500000  1
  H  H17  1  0.000000  0.000000  0.000000  1
