# generated using pymatgen
data_LaNd(Er2Rh9)2
_symmetry_space_group_name_H-M   'P 1'
_cell_length_a   5.29667912
_cell_length_b   5.30238863
_cell_length_c   17.47256400
_cell_angle_alpha   90.00000000
_cell_angle_beta   90.00000000
_cell_angle_gamma   119.98903192
_symmetry_Int_Tables_number   1
_chemical_formula_structural   LaNd(Er2Rh9)2
_chemical_formula_sum   'La1 Nd1 Er4 Rh18'
_cell_volume   425.02108809
_cell_formula_units_Z   1
loop_
 _symmetry_equiv_pos_site_id
 _symmetry_equiv_pos_as_xyz
  1  'x, y, z'
loop_
 _atom_site_type_symbol
 _atom_site_label
 _atom_site_symmetry_multiplicity
 _atom_site_fract_x
 _atom_site_fract_y
 _atom_site_fract_z
 _atom_site_occupancy
  La  La0  1  0.333138  0.666532  0.750000  1
  Nd  Nd1  1  0.666679  0.333307  0.250000  1
  Er  Er2  1  0.333368  0.666734  0.541197  1
  Er  Er3  1  0.666650  0.333329  0.041163  1
  Er  Er4  1  0.666650  0.333329  0.458837  1
  Er  Er5  1  0.333368  0.666734  0.958803  1
  Rh  Rh6  1  0.166990  0.334265  0.124758  1
  Rh  Rh7  1  0.832582  0.665075  0.623634  1
  Rh  Rh8  1  0.665538  0.832565  0.124720  1
  Rh  Rh9  1  0.167270  0.832816  0.124688  1
  Rh  Rh10  1  0.832429  0.167461  0.623639  1
  Rh  Rh11  1  0.335124  0.167868  0.623593  1
  Rh  Rh12  1  0.832582  0.665075  0.876366  1
  Rh  Rh13  1  0.832429  0.167461  0.876361  1
  Rh  Rh14  1  0.335124  0.167868  0.876407  1
  Rh  Rh15  1  0.665538  0.832565  0.375280  1
  Rh  Rh16  1  0.167270  0.832816  0.375312  1
  Rh  Rh17  1  0.166990  0.334265  0.375242  1
  Rh  Rh18  1  0.999891  0.999728  0.250000  1
  Rh  Rh19  1  0.000253  0.999968  0.750000  1
  Rh  Rh20  1  0.332428  0.666067  0.250000  1
  Rh  Rh21  1  0.667762  0.334139  0.750000  1
  Rh  Rh22  1  0.999973  0.000016  0.000186  1
  Rh  Rh23  1  0.999973  0.000016  0.499814  1
