# generated using pymatgen
data_SmDy3SbRh3O14
_symmetry_space_group_name_H-M   'P 1'
_cell_length_a   7.35056982
_cell_length_b   7.35056996
_cell_length_c   7.35057029
_cell_angle_alpha   59.09094492
_cell_angle_beta   59.09094591
_cell_angle_gamma   59.09095078
_symmetry_Int_Tables_number   1
_chemical_formula_structural   SmDy3SbRh3O14
_chemical_formula_sum   'Sm1 Dy3 Sb1 Rh3 O14'
_cell_volume   275.01272043
_cell_formula_units_Z   1
loop_
 _symmetry_equiv_pos_site_id
 _symmetry_equiv_pos_as_xyz
  1  'x, y, z'
loop_
 _atom_site_type_symbol
 _atom_site_label
 _atom_site_symmetry_multiplicity
 _atom_site_fract_x
 _atom_site_fract_y
 _atom_site_fract_z
 _atom_site_occupancy
  Sm  Sm0  1  0.125000  0.125000  0.125000  1
  Dy  Dy1  1  0.125000  0.625000  0.125000  1
  Dy  Dy2  1  0.125000  0.125000  0.625000  1
  Dy  Dy3  1  0.625000  0.125000  0.125000  1
  Sb  Sb4  1  0.625000  0.625000  0.625000  1
  Rh  Rh5  1  0.125000  0.625000  0.625000  1
  Rh  Rh6  1  0.625000  0.125000  0.625000  1
  Rh  Rh7  1  0.625000  0.625000  0.125000  1
  O  O8  1  0.290523  0.711212  0.711212  1
  O  O9  1  0.545766  0.962202  0.962202  1
  O  O10  1  0.711212  0.290523  0.711212  1
  O  O11  1  0.287798  0.287798  0.704234  1
  O  O12  1  0.711212  0.711212  0.290523  1
  O  O13  1  0.998247  0.998247  0.998247  1
  O  O14  1  0.287798  0.704234  0.287798  1
  O  O15  1  0.962202  0.545766  0.962202  1
  O  O16  1  0.962202  0.962202  0.545766  1
  O  O17  1  0.538788  0.538788  0.959477  1
  O  O18  1  0.251753  0.251753  0.251753  1
  O  O19  1  0.538788  0.959477  0.538788  1
  O  O20  1  0.704234  0.287798  0.287798  1
  O  O21  1  0.959477  0.538788  0.538788  1
