# generated using pymatgen
data_Nd4Th3Au10
_symmetry_space_group_name_H-M   'P 1'
_cell_length_a   9.01272100
_cell_length_b   9.01272133
_cell_length_c   10.70112700
_cell_angle_alpha   90.00000000
_cell_angle_beta   90.00000000
_cell_angle_gamma   107.26022631
_symmetry_Int_Tables_number   1
_chemical_formula_structural   Nd4Th3Au10
_chemical_formula_sum   'Nd8 Th6 Au20'
_cell_volume   830.09873742
_cell_formula_units_Z   2
loop_
 _symmetry_equiv_pos_site_id
 _symmetry_equiv_pos_as_xyz
  1  'x, y, z'
loop_
 _atom_site_type_symbol
 _atom_site_label
 _atom_site_symmetry_multiplicity
 _atom_site_fract_x
 _atom_site_fract_y
 _atom_site_fract_z
 _atom_site_occupancy
  Nd  Nd0  1  0.003456  0.503456  0.250000  1
  Nd  Nd1  1  0.996544  0.496544  0.750000  1
  Nd  Nd2  1  0.496544  0.996544  0.750000  1
  Nd  Nd3  1  0.503456  0.003456  0.250000  1
  Nd  Nd4  1  0.308009  0.308009  0.192514  1
  Nd  Nd5  1  0.691991  0.691991  0.807486  1
  Nd  Nd6  1  0.191991  0.191991  0.692514  1
  Nd  Nd7  1  0.808009  0.808009  0.307486  1
  Th  Th8  1  0.692107  0.307893  0.000000  1
  Th  Th9  1  0.307893  0.692107  0.000000  1
  Th  Th10  1  0.807893  0.192107  0.500000  1
  Th  Th11  1  0.192107  0.807893  0.500000  1
  Th  Th12  1  0.000000  0.000000  0.000000  1
  Th  Th13  1  0.500000  0.500000  0.500000  1
  Au  Au14  1  0.860913  0.150814  0.207111  1
  Au  Au15  1  0.139087  0.849186  0.792889  1
  Au  Au16  1  0.639087  0.349186  0.707111  1
  Au  Au17  1  0.650814  0.360913  0.292889  1
  Au  Au18  1  0.360913  0.650814  0.292889  1
  Au  Au19  1  0.349186  0.639087  0.707111  1
  Au  Au20  1  0.849186  0.139087  0.792889  1
  Au  Au21  1  0.150814  0.860913  0.207111  1
  Au  Au22  1  0.938899  0.646571  0.001929  1
  Au  Au23  1  0.061101  0.353429  0.998071  1
  Au  Au24  1  0.561101  0.853429  0.501929  1
  Au  Au25  1  0.146571  0.438899  0.498071  1
  Au  Au26  1  0.438899  0.146571  0.498071  1
  Au  Au27  1  0.853429  0.561101  0.501929  1
  Au  Au28  1  0.353429  0.061101  0.998071  1
  Au  Au29  1  0.646571  0.938899  0.001929  1
  Au  Au30  1  0.102746  0.102746  0.401452  1
  Au  Au31  1  0.897254  0.897254  0.598548  1
  Au  Au32  1  0.397254  0.397254  0.901452  1
  Au  Au33  1  0.602746  0.602746  0.098548  1
