# generated using pymatgen
data_YbS27
_symmetry_space_group_name_H-M   'P 1'
_cell_length_a   14.42624413
_cell_length_b   14.42624428
_cell_length_c   14.42624507
_cell_angle_alpha   118.73421072
_cell_angle_beta   118.73421199
_cell_angle_gamma   118.73420761
_symmetry_Int_Tables_number   1
_chemical_formula_structural   YbS27
_chemical_formula_sum   'Yb1 S27'
_cell_volume   872.37542042
_cell_formula_units_Z   1
loop_
 _symmetry_equiv_pos_site_id
 _symmetry_equiv_pos_as_xyz
  1  'x, y, z'
loop_
 _atom_site_type_symbol
 _atom_site_label
 _atom_site_symmetry_multiplicity
 _atom_site_fract_x
 _atom_site_fract_y
 _atom_site_fract_z
 _atom_site_occupancy
  Yb  Yb0  1  0.445493  0.445493  0.445493  1
  S  S1  1  0.021693  0.625413  0.625413  1
  S  S2  1  0.625413  0.625413  0.021693  1
  S  S3  1  0.625413  0.021693  0.625413  1
  S  S4  1  0.246003  0.861729  0.727530  1
  S  S5  1  0.861729  0.727530  0.246003  1
  S  S6  1  0.727530  0.246003  0.861729  1
  S  S7  1  0.861729  0.246003  0.727530  1
  S  S8  1  0.246003  0.727530  0.861729  1
  S  S9  1  0.727530  0.861729  0.246003  1
  S  S10  1  0.097355  0.627947  0.438902  1
  S  S11  1  0.627947  0.438902  0.097355  1
  S  S12  1  0.438902  0.097355  0.627947  1
  S  S13  1  0.627947  0.097355  0.438902  1
  S  S14  1  0.097355  0.438902  0.627947  1
  S  S15  1  0.438902  0.627947  0.097355  1
  S  S16  1  0.358460  0.740387  0.604831  1
  S  S17  1  0.740387  0.604831  0.358460  1
  S  S18  1  0.604831  0.358460  0.740387  1
  S  S19  1  0.740387  0.358460  0.604831  1
  S  S20  1  0.358460  0.604831  0.740387  1
  S  S21  1  0.604831  0.740387  0.358460  1
  S  S22  1  0.183346  0.451193  0.451193  1
  S  S23  1  0.451193  0.451193  0.183346  1
  S  S24  1  0.451193  0.183346  0.451193  1
  S  S25  1  0.011607  0.912733  0.912733  1
  S  S26  1  0.912733  0.912733  0.011607  1
  S  S27  1  0.912733  0.011607  0.912733  1
