# generated using pymatgen
data_Ho2Er8Sn5Sb
_symmetry_space_group_name_H-M   'P 1'
_cell_length_a   8.89242084
_cell_length_b   8.89200159
_cell_length_c   6.46286000
_cell_angle_alpha   90.00000000
_cell_angle_beta   90.00000000
_cell_angle_gamma   119.84955741
_symmetry_Int_Tables_number   1
_chemical_formula_structural   Ho2Er8Sn5Sb
_chemical_formula_sum   'Ho2 Er8 Sn5 Sb1'
_cell_volume   443.23219417
_cell_formula_units_Z   1
loop_
 _symmetry_equiv_pos_site_id
 _symmetry_equiv_pos_as_xyz
  1  'x, y, z'
loop_
 _atom_site_type_symbol
 _atom_site_label
 _atom_site_symmetry_multiplicity
 _atom_site_fract_x
 _atom_site_fract_y
 _atom_site_fract_z
 _atom_site_occupancy
  Ho  Ho0  1  0.997435  0.760495  0.750000  1
  Ho  Ho1  1  0.762047  0.999875  0.750000  1
  Er  Er2  1  0.001125  0.238644  0.250000  1
  Er  Er3  1  0.762268  0.761316  0.250000  1
  Er  Er4  1  0.237345  0.240052  0.750000  1
  Er  Er5  1  0.238753  0.000166  0.250000  1
  Er  Er6  1  0.333023  0.665810  0.499770  1
  Er  Er7  1  0.667847  0.334131  0.000246  1
  Er  Er8  1  0.667847  0.334131  0.499754  1
  Er  Er9  1  0.333023  0.665810  0.000230  1
  Sn  Sn10  1  0.395175  0.394101  0.250000  1
  Sn  Sn11  1  0.001198  0.605372  0.250000  1
  Sn  Sn12  1  0.999709  0.395670  0.750000  1
  Sn  Sn13  1  0.604238  0.604495  0.750000  1
  Sn  Sn14  1  0.605918  0.000116  0.250000  1
  Sb  Sb15  1  0.393050  0.999816  0.750000  1
