# generated using pymatgen
data_Na3Pr2P12Ir11Ru8
_symmetry_space_group_name_H-M   'P 1'
_cell_length_a   12.58417668
_cell_length_b   12.58608622
_cell_length_c   4.02669400
_cell_angle_alpha   90.00000000
_cell_angle_beta   90.00000000
_cell_angle_gamma   120.02854979
_symmetry_Int_Tables_number   1
_chemical_formula_structural   Na3Pr2P12Ir11Ru8
_chemical_formula_sum   'Na3 Pr2 P12 Ir11 Ru8'
_cell_volume   552.16612100
_cell_formula_units_Z   1
loop_
 _symmetry_equiv_pos_site_id
 _symmetry_equiv_pos_as_xyz
  1  'x, y, z'
loop_
 _atom_site_type_symbol
 _atom_site_label
 _atom_site_symmetry_multiplicity
 _atom_site_fract_x
 _atom_site_fract_y
 _atom_site_fract_z
 _atom_site_occupancy
  Na  Na0  1  0.818797  0.000591  0.500000  1
  Na  Na1  1  0.178186  0.179780  0.500000  1
  Na  Na2  1  0.999368  0.820598  0.500000  1
  Pr  Pr3  1  0.666725  0.331189  0.000000  1
  Pr  Pr4  1  0.335619  0.669841  0.000000  1
  P  P5  1  0.632712  0.998008  0.000000  1
  P  P6  1  0.362742  0.362665  0.000000  1
  P  P7  1  0.000301  0.637252  0.000000  1
  P  P8  1  0.690251  0.522761  0.500000  1
  P  P9  1  0.832938  0.304743  0.500000  1
  P  P10  1  0.315063  0.838608  0.500000  1
  P  P11  1  0.526643  0.693070  0.500000  1
  P  P12  1  0.176484  0.998577  0.000000  1
  P  P13  1  0.820666  0.817921  0.000000  1
  P  P14  1  0.998626  0.183841  0.000000  1
  P  P15  1  0.473510  0.163216  0.500000  1
  P  P16  1  0.167190  0.477799  0.500000  1
  Ir  Ir17  1  0.626614  0.806321  0.000000  1
  Ir  Ir18  1  0.185000  0.378474  0.000000  1
  Ir  Ir19  1  0.373361  0.181828  0.000000  1
  Ir  Ir20  1  0.191220  0.817458  0.000000  1
  Ir  Ir21  1  0.806829  0.622142  0.000000  1
  Ir  Ir22  1  0.872480  0.507305  0.500000  1
  Ir  Ir23  1  0.490283  0.360992  0.500000  1
  Ir  Ir24  1  0.635333  0.125988  0.500000  1
  Ir  Ir25  1  0.130126  0.640054  0.500000  1
  Ir  Ir26  1  0.364225  0.492069  0.500000  1
  Ir  Ir27  1  0.997653  0.001718  0.000000  1
  Ru  Ru28  1  0.513551  0.873903  0.500000  1
  Ru  Ru29  1  0.717898  0.715041  0.500000  1
  Ru  Ru30  1  0.003228  0.285741  0.500000  1
  Ru  Ru31  1  0.450374  0.998265  0.000000  1
  Ru  Ru32  1  0.545773  0.543185  0.000000  1
  Ru  Ru33  1  0.002554  0.456521  0.000000  1
  Ru  Ru34  1  0.817217  0.193011  0.000000  1
  Ru  Ru35  1  0.280457  0.999522  0.500000  1
