# generated using pymatgen
data_BaNa8Sr3Mn4V8O32
_symmetry_space_group_name_H-M   'P 1'
_cell_length_a   5.64822100
_cell_length_b   9.79197709
_cell_length_c   14.00242400
_cell_angle_alpha   89.94156307
_cell_angle_beta   90.00000000
_cell_angle_gamma   90.00000000
_symmetry_Int_Tables_number   1
_chemical_formula_structural   BaNa8Sr3Mn4V8O32
_chemical_formula_sum   'Ba1 Na8 Sr3 Mn4 V8 O32'
_cell_volume   774.43517105
_cell_formula_units_Z   1
loop_
 _symmetry_equiv_pos_site_id
 _symmetry_equiv_pos_as_xyz
  1  'x, y, z'
loop_
 _atom_site_type_symbol
 _atom_site_label
 _atom_site_symmetry_multiplicity
 _atom_site_fract_x
 _atom_site_fract_y
 _atom_site_fract_z
 _atom_site_occupancy
  Ba  Ba0  1  0.555300  0.462723  0.750391  1
  Na  Na1  1  0.473434  0.818850  0.916687  1
  Na  Na2  1  0.973030  0.681563  0.085019  1
  Na  Na3  1  0.526767  0.181276  0.085053  1
  Na  Na4  1  0.027877  0.318534  0.915447  1
  Na  Na5  1  0.519992  0.148213  0.584644  1
  Na  Na6  1  0.019227  0.350706  0.413860  1
  Na  Na7  1  0.482141  0.850411  0.413797  1
  Na  Na8  1  0.982789  0.650619  0.585254  1
  Sr  Sr9  1  0.065463  0.039876  0.249715  1
  Sr  Sr10  1  0.435069  0.541123  0.249169  1
  Sr  Sr11  1  0.930911  0.960824  0.750667  1
  Mn  Mn12  1  0.500917  0.499628  0.496483  1
  Mn  Mn13  1  0.999575  0.000747  0.498871  1
  Mn  Mn14  1  0.500298  0.499520  0.003025  1
  Mn  Mn15  1  0.999034  0.000944  0.001653  1
  V  V16  1  0.464836  0.820183  0.634892  1
  V  V17  1  0.967035  0.683169  0.362168  1
  V  V18  1  0.533227  0.182879  0.362442  1
  V  V19  1  0.036786  0.315382  0.634131  1
  V  V20  1  0.477206  0.144660  0.864786  1
  V  V21  1  0.978239  0.351496  0.137249  1
  V  V22  1  0.521825  0.852437  0.137402  1
  V  V23  1  0.018958  0.651504  0.867133  1
  O  O24  1  0.498534  0.645616  0.610306  1
  O  O25  1  0.000350  0.860149  0.380069  1
  O  O26  1  0.500513  0.360174  0.378284  1
  O  O27  1  0.998420  0.139015  0.618947  1
  O  O28  1  0.680355  0.913394  0.572607  1
  O  O29  1  0.182755  0.592017  0.425985  1
  O  O30  1  0.316628  0.092202  0.426424  1
  O  O31  1  0.817881  0.407398  0.572285  1
  O  O32  1  0.188077  0.079608  0.876409  1
  O  O33  1  0.689724  0.417880  0.125347  1
  O  O34  1  0.810061  0.918862  0.125343  1
  O  O35  1  0.305763  0.588175  0.885472  1
  O  O36  1  0.685517  0.034868  0.916098  1
  O  O37  1  0.189784  0.462164  0.088156  1
  O  O38  1  0.310803  0.962797  0.087164  1
  O  O39  1  0.812522  0.539537  0.918055  1
  O  O40  1  0.483462  0.300528  0.926965  1
  O  O41  1  0.983145  0.198094  0.072753  1
  O  O42  1  0.517355  0.697825  0.074618  1
  O  O43  1  0.007324  0.806910  0.927954  1
  O  O44  1  0.185803  0.870084  0.593662  1
  O  O45  1  0.689732  0.633587  0.405419  1
  O  O46  1  0.810150  0.133986  0.406875  1
  O  O47  1  0.309303  0.361780  0.584904  1
  O  O48  1  0.492811  0.857300  0.753973  1
  O  O49  1  0.991116  0.635800  0.244983  1
  O  O50  1  0.510076  0.134574  0.245405  1
  O  O51  1  0.032800  0.362667  0.752166  1
  O  O52  1  0.558773  0.175929  0.748684  1
  O  O53  1  0.054231  0.311995  0.252527  1
  O  O54  1  0.444752  0.813731  0.252767  1
  O  O55  1  0.951542  0.684086  0.749456  1
