# generated using pymatgen
data_TmLuZn4Ru
_symmetry_space_group_name_H-M   'P 1'
_cell_length_a   6.91109700
_cell_length_b   6.91109700
_cell_length_c   5.20981600
_cell_angle_alpha   90.00000000
_cell_angle_beta   90.00000000
_cell_angle_gamma   90.00000000
_symmetry_Int_Tables_number   1
_chemical_formula_structural   TmLuZn4Ru
_chemical_formula_sum   'Tm2 Lu2 Zn8 Ru2'
_cell_volume   248.83780524
_cell_formula_units_Z   2
loop_
 _symmetry_equiv_pos_site_id
 _symmetry_equiv_pos_as_xyz
  1  'x, y, z'
loop_
 _atom_site_type_symbol
 _atom_site_label
 _atom_site_symmetry_multiplicity
 _atom_site_fract_x
 _atom_site_fract_y
 _atom_site_fract_z
 _atom_site_occupancy
  Tm  Tm0  1  0.000000  0.500000  0.765659  1
  Tm  Tm1  1  0.500000  0.000000  0.234341  1
  Lu  Lu2  1  0.000000  0.000000  0.000000  1
  Lu  Lu3  1  0.500000  0.500000  0.000000  1
  Zn  Zn4  1  0.188557  0.688557  0.284667  1
  Zn  Zn5  1  0.811443  0.688557  0.284667  1
  Zn  Zn6  1  0.811443  0.311443  0.284667  1
  Zn  Zn7  1  0.311443  0.188557  0.715333  1
  Zn  Zn8  1  0.188557  0.311443  0.284667  1
  Zn  Zn9  1  0.688557  0.188557  0.715333  1
  Zn  Zn10  1  0.688557  0.811443  0.715333  1
  Zn  Zn11  1  0.311443  0.811443  0.715333  1
  Ru  Ru12  1  0.500000  0.500000  0.500000  1
  Ru  Ru13  1  0.000000  0.000000  0.500000  1
