# generated using pymatgen
data_Hf16Mn3Ni4Ir
_symmetry_space_group_name_H-M   'P 1'
_cell_length_a   8.58488703
_cell_length_b   8.60934421
_cell_length_c   8.59848700
_cell_angle_alpha   60.04171948
_cell_angle_beta   59.94759359
_cell_angle_gamma   60.16215298
_symmetry_Int_Tables_number   1
_chemical_formula_structural   Hf16Mn3Ni4Ir
_chemical_formula_sum   'Hf16 Mn3 Ni4 Ir1'
_cell_volume   449.88896109
_cell_formula_units_Z   1
loop_
 _symmetry_equiv_pos_site_id
 _symmetry_equiv_pos_as_xyz
  1  'x, y, z'
loop_
 _atom_site_type_symbol
 _atom_site_label
 _atom_site_symmetry_multiplicity
 _atom_site_fract_x
 _atom_site_fract_y
 _atom_site_fract_z
 _atom_site_occupancy
  Hf  Hf0  1  0.662333  0.112820  0.112423  1
  Hf  Hf1  1  0.113670  0.662528  0.111900  1
  Hf  Hf2  1  0.111393  0.110278  0.668813  1
  Hf  Hf3  1  0.111393  0.110278  0.109514  1
  Hf  Hf4  1  0.314650  0.316826  0.684262  1
  Hf  Hf5  1  0.675509  0.692531  0.315980  1
  Hf  Hf6  1  0.314686  0.686094  0.315361  1
  Hf  Hf7  1  0.676146  0.317325  0.690521  1
  Hf  Hf8  1  0.676146  0.317325  0.316008  1
  Hf  Hf9  1  0.314686  0.686094  0.683858  1
  Hf  Hf10  1  0.951811  0.950489  0.548850  1
  Hf  Hf11  1  0.548420  0.548570  0.951505  1
  Hf  Hf12  1  0.950984  0.550093  0.948803  1
  Hf  Hf13  1  0.548021  0.952745  0.548092  1
  Hf  Hf14  1  0.548021  0.952745  0.951142  1
  Hf  Hf15  1  0.950984  0.550093  0.550121  1
  Mn  Mn16  1  0.340090  0.991627  0.334141  1
  Mn  Mn17  1  0.340593  0.332927  0.992091  1
  Mn  Mn18  1  0.340593  0.332927  0.334387  1
  Ni  Ni19  1  0.314433  0.893759  0.895905  1
  Ni  Ni20  1  0.894680  0.316164  0.894578  1
  Ni  Ni21  1  0.896206  0.893429  0.313970  1
  Ni  Ni22  1  0.896206  0.893429  0.896395  1
  Ir  Ir23  1  0.008338  0.328899  0.331381  1
