# generated using pymatgen
data_GdCd3P6N13
_symmetry_space_group_name_H-M   'P 1'
_cell_length_a   7.32671065
_cell_length_b   7.32360734
_cell_length_c   7.32360708
_cell_angle_alpha   109.46263065
_cell_angle_beta   109.47981175
_cell_angle_gamma   109.47981313
_symmetry_Int_Tables_number   1
_chemical_formula_structural   GdCd3P6N13
_chemical_formula_sum   'Gd1 Cd3 P6 N13'
_cell_volume   302.47616539
_cell_formula_units_Z   1
loop_
 _symmetry_equiv_pos_site_id
 _symmetry_equiv_pos_as_xyz
  1  'x, y, z'
loop_
 _atom_site_type_symbol
 _atom_site_label
 _atom_site_symmetry_multiplicity
 _atom_site_fract_x
 _atom_site_fract_y
 _atom_site_fract_z
 _atom_site_occupancy
  Gd  Gd0  1  0.693252  0.000000  0.000000  1
  Cd  Cd1  1  0.002971  0.000000  0.704837  1
  Cd  Cd2  1  0.002971  0.704837  0.000000  1
  Cd  Cd3  1  0.298135  0.295163  0.295163  1
  P  P4  1  0.247422  0.748901  0.496993  1
  P  P5  1  0.750429  0.251908  0.503007  1
  P  P6  1  0.750429  0.503007  0.251908  1
  P  P7  1  0.247422  0.496993  0.748901  1
  P  P8  1  0.498521  0.748092  0.251099  1
  P  P9  1  0.498521  0.251099  0.748092  1
  N  N10  1  0.994953  0.000000  0.000000  1
  N  N11  1  0.717119  0.286265  0.286265  1
  N  N12  1  0.279206  0.711986  0.279232  1
  N  N13  1  0.299350  0.577352  0.577352  1
  N  N14  1  0.567219  0.567246  0.288014  1
  N  N15  1  0.430855  0.713735  0.000000  1
  N  N16  1  0.999974  0.720768  0.432754  1
  N  N17  1  0.567219  0.288014  0.567246  1
  N  N18  1  0.721998  0.000000  0.422648  1
  N  N19  1  0.430855  0.000000  0.713735  1
  N  N20  1  0.721998  0.422648  0.000000  1
  N  N21  1  0.279206  0.279232  0.711986  1
  N  N22  1  0.999974  0.432754  0.720768  1
