# generated using pymatgen
data_Lu3Al3GePt2
_symmetry_space_group_name_H-M   'P 1'
_cell_length_a   6.96604500
_cell_length_b   6.96604394
_cell_length_c   4.10869700
_cell_angle_alpha   90.00000000
_cell_angle_beta   90.00000000
_cell_angle_gamma   119.99999205
_symmetry_Int_Tables_number   1
_chemical_formula_structural   Lu3Al3GePt2
_chemical_formula_sum   'Lu3 Al3 Ge1 Pt2'
_cell_volume   172.66617433
_cell_formula_units_Z   1
loop_
 _symmetry_equiv_pos_site_id
 _symmetry_equiv_pos_as_xyz
  1  'x, y, z'
loop_
 _atom_site_type_symbol
 _atom_site_label
 _atom_site_symmetry_multiplicity
 _atom_site_fract_x
 _atom_site_fract_y
 _atom_site_fract_z
 _atom_site_occupancy
  Lu  Lu0  1  0.587512  0.006231  0.000000  1
  Lu  Lu1  1  0.993769  0.581281  0.000000  1
  Lu  Lu2  1  0.418719  0.412488  0.000000  1
  Al  Al3  1  0.247491  0.015906  0.500000  1
  Al  Al4  1  0.984094  0.231585  0.500000  1
  Al  Al5  1  0.768415  0.752509  0.500000  1
  Ge  Ge6  1  0.333333  0.666667  0.500000  1
  Pt  Pt7  1  0.000000  0.000000  0.000000  1
  Pt  Pt8  1  0.666667  0.333333  0.500000  1
