# generated using pymatgen
data_K2SmTa5O15
_symmetry_space_group_name_H-M   'P 1'
_cell_length_a   9.31878852
_cell_length_b   9.31878948
_cell_length_c   3.95984600
_cell_angle_alpha   90.00000000
_cell_angle_beta   90.00000000
_cell_angle_gamma   111.64659136
_symmetry_Int_Tables_number   1
_chemical_formula_structural   K2SmTa5O15
_chemical_formula_sum   'K2 Sm1 Ta5 O15'
_cell_volume   319.62137904
_cell_formula_units_Z   1
loop_
 _symmetry_equiv_pos_site_id
 _symmetry_equiv_pos_as_xyz
  1  'x, y, z'
loop_
 _atom_site_type_symbol
 _atom_site_label
 _atom_site_symmetry_multiplicity
 _atom_site_fract_x
 _atom_site_fract_y
 _atom_site_fract_z
 _atom_site_occupancy
  K  K0  1  0.299824  0.700176  0.000000  1
  K  K1  1  0.700176  0.299824  0.000000  1
  Sm  Sm2  1  0.000000  0.000000  0.000000  1
  Ta  Ta3  1  0.320614  0.061716  0.500000  1
  Ta  Ta4  1  0.061716  0.320614  0.500000  1
  Ta  Ta5  1  0.679386  0.938284  0.500000  1
  Ta  Ta6  1  0.938284  0.679386  0.500000  1
  Ta  Ta7  1  0.500000  0.500000  0.500000  1
  O  O8  1  0.133605  0.133605  0.500000  1
  O  O9  1  0.155375  0.844625  0.500000  1
  O  O10  1  0.274009  0.459244  0.500000  1
  O  O11  1  0.844625  0.155375  0.500000  1
  O  O12  1  0.866395  0.866395  0.500000  1
  O  O13  1  0.287640  0.049540  0.000000  1
  O  O14  1  0.712360  0.950460  0.000000  1
  O  O15  1  0.540756  0.725991  0.500000  1
  O  O16  1  0.049540  0.287640  0.000000  1
  O  O17  1  0.500000  0.000000  0.500000  1
  O  O18  1  0.459244  0.274009  0.500000  1
  O  O19  1  0.950460  0.712360  0.000000  1
  O  O20  1  0.500000  0.500000  0.000000  1
  O  O21  1  0.725991  0.540756  0.500000  1
  O  O22  1  0.000000  0.500000  0.500000  1
