# generated using pymatgen
data_La2YLu(NiAs)4
_symmetry_space_group_name_H-M   'P 1'
_cell_length_a   4.09607800
_cell_length_b   4.09607748
_cell_length_c   15.96675300
_cell_angle_alpha   90.00000000
_cell_angle_beta   90.00000000
_cell_angle_gamma   120.00000422
_symmetry_Int_Tables_number   1
_chemical_formula_structural   La2YLu(NiAs)4
_chemical_formula_sum   'La2 Y1 Lu1 Ni4 As4'
_cell_volume   231.99765815
_cell_formula_units_Z   1
loop_
 _symmetry_equiv_pos_site_id
 _symmetry_equiv_pos_as_xyz
  1  'x, y, z'
loop_
 _atom_site_type_symbol
 _atom_site_label
 _atom_site_symmetry_multiplicity
 _atom_site_fract_x
 _atom_site_fract_y
 _atom_site_fract_z
 _atom_site_occupancy
  La  La0  1  0.000000  0.000000  0.003524  1
  La  La1  1  0.000000  0.000000  0.496476  1
  Y  Y2  1  0.000000  0.000000  0.750000  1
  Lu  Lu3  1  0.000000  0.000000  0.250000  1
  Ni  Ni4  1  0.333333  0.666667  0.148194  1
  Ni  Ni5  1  0.666667  0.333333  0.863629  1
  Ni  Ni6  1  0.666667  0.333333  0.636371  1
  Ni  Ni7  1  0.333333  0.666667  0.351806  1
  As  As8  1  0.333333  0.666667  0.626126  1
  As  As9  1  0.666667  0.333333  0.370311  1
  As  As10  1  0.666667  0.333333  0.129689  1
  As  As11  1  0.333333  0.666667  0.873874  1
