# generated using pymatgen
data_Ca20Zn8Cd3Hg
_symmetry_space_group_name_H-M   'P 1'
_cell_length_a   8.00686500
_cell_length_b   8.00686500
_cell_length_c   15.23593300
_cell_angle_alpha   90.00000000
_cell_angle_beta   90.00000000
_cell_angle_gamma   90.00000000
_symmetry_Int_Tables_number   1
_chemical_formula_structural   Ca20Zn8Cd3Hg
_chemical_formula_sum   'Ca20 Zn8 Cd3 Hg1'
_cell_volume   976.77394492
_cell_formula_units_Z   1
loop_
 _symmetry_equiv_pos_site_id
 _symmetry_equiv_pos_as_xyz
  1  'x, y, z'
loop_
 _atom_site_type_symbol
 _atom_site_label
 _atom_site_symmetry_multiplicity
 _atom_site_fract_x
 _atom_site_fract_y
 _atom_site_fract_z
 _atom_site_occupancy
  Ca  Ca0  1  0.673270  0.165031  0.103750  1
  Ca  Ca1  1  0.169153  0.669811  0.606080  1
  Ca  Ca2  1  0.326730  0.834969  0.103750  1
  Ca  Ca3  1  0.830847  0.330189  0.606080  1
  Ca  Ca4  1  0.834969  0.673270  0.103750  1
  Ca  Ca5  1  0.330189  0.169153  0.606080  1
  Ca  Ca6  1  0.165031  0.326730  0.103750  1
  Ca  Ca7  1  0.669811  0.830847  0.606080  1
  Ca  Ca8  1  0.834969  0.326730  0.896250  1
  Ca  Ca9  1  0.330189  0.830847  0.393920  1
  Ca  Ca10  1  0.165031  0.673270  0.896250  1
  Ca  Ca11  1  0.669811  0.169153  0.393920  1
  Ca  Ca12  1  0.673270  0.834969  0.896250  1
  Ca  Ca13  1  0.169153  0.330189  0.393920  1
  Ca  Ca14  1  0.326730  0.165031  0.896250  1
  Ca  Ca15  1  0.830847  0.669811  0.393920  1
  Ca  Ca16  1  0.500000  0.500000  0.755053  1
  Ca  Ca17  1  0.000000  0.000000  0.249681  1
  Ca  Ca18  1  0.000000  0.000000  0.750319  1
  Ca  Ca19  1  0.500000  0.500000  0.244947  1
  Zn  Zn20  1  0.618081  0.119003  0.751427  1
  Zn  Zn21  1  0.119003  0.618081  0.248573  1
  Zn  Zn22  1  0.880997  0.381919  0.248573  1
  Zn  Zn23  1  0.381919  0.880997  0.751427  1
  Zn  Zn24  1  0.880997  0.618081  0.751427  1
  Zn  Zn25  1  0.381919  0.119003  0.248573  1
  Zn  Zn26  1  0.119003  0.381919  0.751427  1
  Zn  Zn27  1  0.618081  0.880997  0.248573  1
  Cd  Cd28  1  0.500000  0.500000  0.500000  1
  Cd  Cd29  1  0.500000  0.500000  0.000000  1
  Cd  Cd30  1  0.000000  0.000000  0.500000  1
  Hg  Hg31  1  0.000000  0.000000  0.000000  1
