# generated using pymatgen
data_BaCrOsO6
_symmetry_space_group_name_H-M   'P 1'
_cell_length_a   5.27592800
_cell_length_b   5.27592915
_cell_length_c   5.73972600
_cell_angle_alpha   90.00000000
_cell_angle_beta   90.00000000
_cell_angle_gamma   119.99999281
_symmetry_Int_Tables_number   1
_chemical_formula_structural   BaCrOsO6
_chemical_formula_sum   'Ba1 Cr1 Os1 O6'
_cell_volume   138.36289445
_cell_formula_units_Z   1
loop_
 _symmetry_equiv_pos_site_id
 _symmetry_equiv_pos_as_xyz
  1  'x, y, z'
loop_
 _atom_site_type_symbol
 _atom_site_label
 _atom_site_symmetry_multiplicity
 _atom_site_fract_x
 _atom_site_fract_y
 _atom_site_fract_z
 _atom_site_occupancy
  Ba  Ba0  1  0.000000  0.000000  0.000000  1
  Cr  Cr1  1  0.333333  0.666667  0.500000  1
  Os  Os2  1  0.666667  0.333333  0.500000  1
  O  O3  1  0.399548  0.011893  0.689672  1
  O  O4  1  0.988107  0.387656  0.689672  1
  O  O5  1  0.612344  0.600452  0.689672  1
  O  O6  1  0.988107  0.600452  0.310328  1
  O  O7  1  0.612344  0.011893  0.310328  1
  O  O8  1  0.399548  0.387656  0.310328  1
