# generated using pymatgen
data_Tm8Ta7Nb5Ge16
_symmetry_space_group_name_H-M   'P 1'
_cell_length_a   6.96216150
_cell_length_b   7.13302952
_cell_length_c   13.50265002
_cell_angle_alpha   89.99405717
_cell_angle_beta   89.99728313
_cell_angle_gamma   89.95658615
_symmetry_Int_Tables_number   1
_chemical_formula_structural   Tm8Ta7Nb5Ge16
_chemical_formula_sum   'Tm8 Ta7 Nb5 Ge16'
_cell_volume   670.55900427
_cell_formula_units_Z   1
loop_
 _symmetry_equiv_pos_site_id
 _symmetry_equiv_pos_as_xyz
  1  'x, y, z'
loop_
 _atom_site_type_symbol
 _atom_site_label
 _atom_site_symmetry_multiplicity
 _atom_site_fract_x
 _atom_site_fract_y
 _atom_site_fract_z
 _atom_site_occupancy
  Tm  Tm0  1  0.494859  0.675011  0.593886  1
  Tm  Tm1  1  0.994747  0.825071  0.906094  1
  Tm  Tm2  1  0.505232  0.325153  0.093757  1
  Tm  Tm3  1  0.005192  0.174499  0.406008  1
  Tm  Tm4  1  0.505643  0.324891  0.406115  1
  Tm  Tm5  1  0.005938  0.174618  0.093757  1
  Tm  Tm6  1  0.494186  0.674421  0.905999  1
  Tm  Tm7  1  0.994287  0.825651  0.594009  1
  Ta  Ta8  1  0.840991  0.669851  0.126362  1
  Ta  Ta9  1  0.658723  0.169998  0.873590  1
  Ta  Ta10  1  0.159154  0.329941  0.626640  1
  Ta  Ta11  1  0.836011  0.486692  0.750053  1
  Ta  Ta12  1  0.335978  0.013569  0.750224  1
  Ta  Ta13  1  0.163521  0.513194  0.249922  1
  Ta  Ta14  1  0.664562  0.986446  0.249721  1
  Nb  Nb15  1  0.660147  0.169375  0.626070  1
  Nb  Nb16  1  0.159769  0.331104  0.873962  1
  Nb  Nb17  1  0.340496  0.830803  0.125953  1
  Nb  Nb18  1  0.840677  0.669256  0.373745  1
  Nb  Nb19  1  0.340271  0.830307  0.373920  1
  Ge  Ge20  1  0.677052  0.962991  0.457931  1
  Ge  Ge21  1  0.176780  0.536989  0.042059  1
  Ge  Ge22  1  0.323126  0.037120  0.957921  1
  Ge  Ge23  1  0.823426  0.463267  0.541966  1
  Ge  Ge24  1  0.321974  0.037379  0.541937  1
  Ge  Ge25  1  0.821608  0.462497  0.958800  1
  Ge  Ge26  1  0.678350  0.962274  0.041056  1
  Ge  Ge27  1  0.177347  0.536785  0.458934  1
  Ge  Ge28  1  0.460059  0.380923  0.749371  1
  Ge  Ge29  1  0.959847  0.119246  0.750797  1
  Ge  Ge30  1  0.539808  0.619537  0.249645  1
  Ge  Ge31  1  0.040286  0.880868  0.250228  1
  Ge  Ge32  1  0.694635  0.856389  0.750083  1
  Ge  Ge33  1  0.194803  0.643854  0.749898  1
  Ge  Ge34  1  0.305586  0.143670  0.249734  1
  Ge  Ge35  1  0.804928  0.356357  0.249850  1
