# generated using pymatgen
data_Mn7ReS8
_symmetry_space_group_name_H-M   'P 1'
_cell_length_a   7.93785500
_cell_length_b   7.93785500
_cell_length_c   5.62500100
_cell_angle_alpha   90.00000000
_cell_angle_beta   90.00000000
_cell_angle_gamma   90.00000000
_symmetry_Int_Tables_number   1
_chemical_formula_structural   Mn7ReS8
_chemical_formula_sum   'Mn7 Re1 S8'
_cell_volume   354.42873677
_cell_formula_units_Z   1
loop_
 _symmetry_equiv_pos_site_id
 _symmetry_equiv_pos_as_xyz
  1  'x, y, z'
loop_
 _atom_site_type_symbol
 _atom_site_label
 _atom_site_symmetry_multiplicity
 _atom_site_fract_x
 _atom_site_fract_y
 _atom_site_fract_z
 _atom_site_occupancy
  Mn  Mn0  1  0.000000  0.000000  0.000000  1
  Mn  Mn1  1  0.252008  0.747992  0.000000  1
  Mn  Mn2  1  0.747992  0.252008  0.000000  1
  Mn  Mn3  1  0.252008  0.252008  0.000000  1
  Mn  Mn4  1  0.747992  0.747992  0.000000  1
  Mn  Mn5  1  0.000000  0.000000  0.500000  1
  Mn  Mn6  1  0.500000  0.500000  0.500000  1
  Re  Re7  1  0.500000  0.500000  0.000000  1
  S  S8  1  0.500000  0.260905  0.758611  1
  S  S9  1  0.000000  0.764377  0.765466  1
  S  S10  1  0.500000  0.739095  0.758611  1
  S  S11  1  0.000000  0.235623  0.765466  1
  S  S12  1  0.764377  0.000000  0.234534  1
  S  S13  1  0.260905  0.500000  0.241389  1
  S  S14  1  0.235623  0.000000  0.234534  1
  S  S15  1  0.739095  0.500000  0.241389  1
