# generated using pymatgen
data_Hf7Ta(V3Ge4)4
_symmetry_space_group_name_H-M   'P 1'
_cell_length_a   6.59448570
_cell_length_b   6.71766682
_cell_length_c   12.75410872
_cell_angle_alpha   90.04807691
_cell_angle_beta   89.98945801
_cell_angle_gamma   89.95482779
_symmetry_Int_Tables_number   1
_chemical_formula_structural   Hf7Ta(V3Ge4)4
_chemical_formula_sum   'Hf7 Ta1 V12 Ge16'
_cell_volume   565.00099207
_cell_formula_units_Z   1
loop_
 _symmetry_equiv_pos_site_id
 _symmetry_equiv_pos_as_xyz
  1  'x, y, z'
loop_
 _atom_site_type_symbol
 _atom_site_label
 _atom_site_symmetry_multiplicity
 _atom_site_fract_x
 _atom_site_fract_y
 _atom_site_fract_z
 _atom_site_occupancy
  Hf  Hf0  1  0.487384  0.672935  0.091585  1
  Hf  Hf1  1  0.988357  0.827479  0.409399  1
  Hf  Hf2  1  0.511990  0.327820  0.591539  1
  Hf  Hf3  1  0.011600  0.170652  0.910158  1
  Hf  Hf4  1  0.512003  0.327753  0.909381  1
  Hf  Hf5  1  0.011787  0.172662  0.591536  1
  Hf  Hf6  1  0.487905  0.672297  0.407582  1
  Ta  Ta7  1  0.984720  0.827481  0.090499  1
  V  V8  1  0.338469  0.006990  0.249146  1
  V  V9  1  0.837747  0.492416  0.249112  1
  V  V10  1  0.662290  0.992127  0.750802  1
  V  V11  1  0.161960  0.508991  0.750236  1
  V  V12  1  0.664698  0.156021  0.124923  1
  V  V13  1  0.162984  0.342825  0.373610  1
  V  V14  1  0.336722  0.841723  0.625361  1
  V  V15  1  0.838513  0.659246  0.874988  1
  V  V16  1  0.337452  0.841678  0.874713  1
  V  V17  1  0.837657  0.658142  0.625710  1
  V  V18  1  0.663845  0.156831  0.374079  1
  V  V19  1  0.163053  0.343250  0.125152  1
  Ge  Ge20  1  0.693266  0.852324  0.249523  1
  Ge  Ge21  1  0.188288  0.649927  0.248561  1
  Ge  Ge22  1  0.309138  0.147748  0.750315  1
  Ge  Ge23  1  0.809698  0.352404  0.750636  1
  Ge  Ge24  1  0.679496  0.952497  0.957890  1
  Ge  Ge25  1  0.178363  0.546062  0.542967  1
  Ge  Ge26  1  0.321958  0.046987  0.456432  1
  Ge  Ge27  1  0.822525  0.455616  0.043706  1
  Ge  Ge28  1  0.317542  0.043898  0.044089  1
  Ge  Ge29  1  0.821567  0.453098  0.456456  1
  Ge  Ge30  1  0.677825  0.953396  0.543443  1
  Ge  Ge31  1  0.177657  0.548498  0.957797  1
  Ge  Ge32  1  0.469214  0.373551  0.249629  1
  Ge  Ge33  1  0.969885  0.124201  0.249141  1
  Ge  Ge34  1  0.531158  0.625650  0.750105  1
  Ge  Ge35  1  0.031284  0.874826  0.749801  1
