# generated using pymatgen
data_Dy3Y7Si5Sn
_symmetry_space_group_name_H-M   'P 1'
_cell_length_a   8.53448500
_cell_length_b   8.56221695
_cell_length_c   6.41531100
_cell_angle_alpha   90.00088243
_cell_angle_beta   90.00037552
_cell_angle_gamma   119.89392565
_symmetry_Int_Tables_number   1
_chemical_formula_structural   Dy3Y7Si5Sn
_chemical_formula_sum   'Dy3 Y7 Si5 Sn1'
_cell_volume   406.42003514
_cell_formula_units_Z   1
loop_
 _symmetry_equiv_pos_site_id
 _symmetry_equiv_pos_as_xyz
  1  'x, y, z'
loop_
 _atom_site_type_symbol
 _atom_site_label
 _atom_site_symmetry_multiplicity
 _atom_site_fract_x
 _atom_site_fract_y
 _atom_site_fract_z
 _atom_site_occupancy
  Dy  Dy0  1  0.331604  0.658263  0.496842  1
  Dy  Dy1  1  0.331606  0.658260  0.003160  1
  Dy  Dy2  1  0.673342  0.341737  0.496853  1
  Y  Y3  1  0.989446  0.748683  0.749990  1
  Y  Y4  1  0.998942  0.242960  0.250003  1
  Y  Y5  1  0.755985  0.757041  0.250006  1
  Y  Y6  1  0.764656  0.000008  0.750000  1
  Y  Y7  1  0.240776  0.251325  0.749999  1
  Y  Y8  1  0.241556  0.000004  0.250000  1
  Y  Y9  1  0.673319  0.341700  0.003142  1
  Si  Si10  1  0.393551  0.392354  0.250023  1
  Si  Si11  1  0.001227  0.607667  0.250025  1
  Si  Si12  1  0.998781  0.394269  0.749979  1
  Si  Si13  1  0.604502  0.605748  0.749976  1
  Si  Si14  1  0.605807  0.999987  0.250017  1
  Sn  Sn15  1  0.394898  0.999995  0.749985  1
