# generated using pymatgen
data_Ho3TmGe2B4(RuRh)5
_symmetry_space_group_name_H-M   'P 1'
_cell_length_a   9.55561163
_cell_length_b   9.57074100
_cell_length_c   3.09615400
_cell_angle_alpha   90.00000000
_cell_angle_beta   90.00000000
_cell_angle_gamma   90.04107512
_symmetry_Int_Tables_number   1
_chemical_formula_structural   Ho3TmGe2B4(RuRh)5
_chemical_formula_sum   'Ho3 Tm1 Ge2 B4 Ru5 Rh5'
_cell_volume   283.15647458
_cell_formula_units_Z   1
loop_
 _symmetry_equiv_pos_site_id
 _symmetry_equiv_pos_as_xyz
  1  'x, y, z'
loop_
 _atom_site_type_symbol
 _atom_site_label
 _atom_site_symmetry_multiplicity
 _atom_site_fract_x
 _atom_site_fract_y
 _atom_site_fract_z
 _atom_site_occupancy
  Ho  Ho0  1  0.827355  0.320976  0.000000  1
  Ho  Ho1  1  0.322132  0.172683  0.000000  1
  Ho  Ho2  1  0.675528  0.827382  0.000000  1
  Tm  Tm3  1  0.175877  0.676449  0.000000  1
  Ge  Ge4  1  0.001135  0.005095  0.000000  1
  Ge  Ge5  1  0.499709  0.499634  0.000000  1
  B  B6  1  0.625425  0.115947  0.000000  1
  B  B7  1  0.117675  0.375822  0.000000  1
  B  B8  1  0.881382  0.621083  0.000000  1
  B  B9  1  0.373679  0.883049  0.000000  1
  Ru  Ru10  1  0.070341  0.217935  0.500000  1
  Ru  Ru11  1  0.213761  0.928641  0.500000  1
  Ru  Ru12  1  0.784943  0.067929  0.500000  1
  Ru  Ru13  1  0.499357  0.999829  0.500000  1
  Ru  Ru14  1  0.000563  0.502249  0.500000  1
  Rh  Rh15  1  0.929672  0.783365  0.500000  1
  Rh  Rh16  1  0.431037  0.715476  0.500000  1
  Rh  Rh17  1  0.569482  0.284097  0.500000  1
  Rh  Rh18  1  0.716260  0.570515  0.500000  1
  Rh  Rh19  1  0.284685  0.431843  0.500000  1
