# generated using pymatgen
data_Y5Er15Cd3Ni2Au3
_symmetry_space_group_name_H-M   'P 1'
_cell_length_a   9.53930809
_cell_length_b   9.53932935
_cell_length_c   9.45498039
_cell_angle_alpha   89.91592843
_cell_angle_beta   90.08386793
_cell_angle_gamma   119.96396177
_symmetry_Int_Tables_number   1
_chemical_formula_structural   Y5Er15Cd3Ni2Au3
_chemical_formula_sum   'Y5 Er15 Cd3 Ni2 Au3'
_cell_volume   745.38896335
_cell_formula_units_Z   1
loop_
 _symmetry_equiv_pos_site_id
 _symmetry_equiv_pos_as_xyz
  1  'x, y, z'
loop_
 _atom_site_type_symbol
 _atom_site_label
 _atom_site_symmetry_multiplicity
 _atom_site_fract_x
 _atom_site_fract_y
 _atom_site_fract_z
 _atom_site_occupancy
  Y  Y0  1  0.457595  0.542381  0.748957  1
  Y  Y1  1  0.457090  0.914867  0.749458  1
  Y  Y2  1  0.085138  0.542940  0.749461  1
  Y  Y3  1  0.208752  0.418150  0.062664  1
  Y  Y4  1  0.581854  0.791223  0.062671  1
  Er  Er5  1  0.999992  0.000013  0.458986  1
  Er  Er6  1  0.000332  0.999678  0.040721  1
  Er  Er7  1  0.542338  0.457603  0.250672  1
  Er  Er8  1  0.541876  0.084162  0.250495  1
  Er  Er9  1  0.915828  0.458182  0.250493  1
  Er  Er10  1  0.209881  0.790143  0.436781  1
  Er  Er11  1  0.209984  0.419959  0.437431  1
  Er  Er12  1  0.580034  0.789972  0.437434  1
  Er  Er13  1  0.790426  0.209576  0.559193  1
  Er  Er14  1  0.790533  0.581005  0.559243  1
  Er  Er15  1  0.419004  0.209466  0.559242  1
  Er  Er16  1  0.790226  0.209771  0.940434  1
  Er  Er17  1  0.790687  0.580466  0.940630  1
  Er  Er18  1  0.419540  0.209305  0.940629  1
  Er  Er19  1  0.209398  0.790631  0.063237  1
  Cd  Cd20  1  0.109385  0.890621  0.749938  1
  Cd  Cd21  1  0.109325  0.218647  0.749786  1
  Cd  Cd22  1  0.781352  0.890660  0.749787  1
  Ni  Ni23  1  0.332660  0.667342  0.251603  1
  Ni  Ni24  1  0.666627  0.333369  0.749802  1
  Au  Au25  1  0.869434  0.130610  0.250109  1
  Au  Au26  1  0.869473  0.738765  0.250074  1
  Au  Au27  1  0.261236  0.130493  0.250070  1
