# generated using pymatgen
data_Ho6MgP12Rh17
_symmetry_space_group_name_H-M   'P 1'
_cell_length_a   3.92265100
_cell_length_b   11.22500900
_cell_length_c   12.79078300
_cell_angle_alpha   90.00000000
_cell_angle_beta   90.00000000
_cell_angle_gamma   90.00000000
_symmetry_Int_Tables_number   1
_chemical_formula_structural   Ho6MgP12Rh17
_chemical_formula_sum   'Ho6 Mg1 P12 Rh17'
_cell_volume   563.20110654
_cell_formula_units_Z   1
loop_
 _symmetry_equiv_pos_site_id
 _symmetry_equiv_pos_as_xyz
  1  'x, y, z'
loop_
 _atom_site_type_symbol
 _atom_site_label
 _atom_site_symmetry_multiplicity
 _atom_site_fract_x
 _atom_site_fract_y
 _atom_site_fract_z
 _atom_site_occupancy
  Ho  Ho0  1  0.000000  0.500000  0.519768  1
  Ho  Ho1  1  0.500000  0.000000  0.478551  1
  Ho  Ho2  1  0.500000  0.817341  0.205774  1
  Ho  Ho3  1  0.500000  0.182659  0.205774  1
  Ho  Ho4  1  0.000000  0.683520  0.795871  1
  Ho  Ho5  1  0.000000  0.316480  0.795871  1
  Mg  Mg6  1  0.500000  0.500000  0.158251  1
  P  P7  1  0.500000  0.315631  0.618723  1
  P  P8  1  0.500000  0.684369  0.618723  1
  P  P9  1  0.000000  0.186212  0.382837  1
  P  P10  1  0.000000  0.813788  0.382837  1
  P  P11  1  0.500000  0.500000  0.879028  1
  P  P12  1  0.000000  0.000000  0.122017  1
  P  P13  1  0.500000  0.848733  0.890468  1
  P  P14  1  0.500000  0.151267  0.890468  1
  P  P15  1  0.000000  0.662045  0.106861  1
  P  P16  1  0.000000  0.337955  0.106861  1
  P  P17  1  0.500000  0.500000  0.356465  1
  P  P18  1  0.000000  0.000000  0.646316  1
  Rh  Rh19  1  0.000000  0.500000  0.982612  1
  Rh  Rh20  1  0.500000  0.000000  0.022326  1
  Rh  Rh21  1  0.500000  0.290175  0.433403  1
  Rh  Rh22  1  0.500000  0.709825  0.433403  1
  Rh  Rh23  1  0.000000  0.205378  0.571674  1
  Rh  Rh24  1  0.000000  0.794622  0.571674  1
  Rh  Rh25  1  0.500000  0.873361  0.710297  1
  Rh  Rh26  1  0.500000  0.126639  0.710297  1
  Rh  Rh27  1  0.000000  0.627105  0.289509  1
  Rh  Rh28  1  0.000000  0.372895  0.289509  1
  Rh  Rh29  1  0.500000  0.331305  0.993930  1
  Rh  Rh30  1  0.500000  0.668695  0.993930  1
  Rh  Rh31  1  0.000000  0.163997  0.003479  1
  Rh  Rh32  1  0.000000  0.836003  0.003479  1
  Rh  Rh33  1  0.000000  0.000000  0.827643  1
  Rh  Rh34  1  0.500000  0.500000  0.701698  1
  Rh  Rh35  1  0.000000  0.000000  0.299677  1
