# generated using pymatgen
data_Dy18TmLuSn16
_symmetry_space_group_name_H-M   'P 1'
_cell_length_a   8.01752205
_cell_length_b   8.15542426
_cell_length_c   15.44935300
_cell_angle_alpha   90.00000000
_cell_angle_beta   90.00000000
_cell_angle_gamma   89.92869160
_symmetry_Int_Tables_number   1
_chemical_formula_structural   Dy18TmLuSn16
_chemical_formula_sum   'Dy18 Tm1 Lu1 Sn16'
_cell_volume   1010.17515240
_cell_formula_units_Z   1
loop_
 _symmetry_equiv_pos_site_id
 _symmetry_equiv_pos_as_xyz
  1  'x, y, z'
loop_
 _atom_site_type_symbol
 _atom_site_label
 _atom_site_symmetry_multiplicity
 _atom_site_fract_x
 _atom_site_fract_y
 _atom_site_fract_z
 _atom_site_occupancy
  Dy  Dy0  1  0.367562  0.836876  0.877582  1
  Dy  Dy1  1  0.868156  0.662650  0.622300  1
  Dy  Dy2  1  0.632202  0.163137  0.377879  1
  Dy  Dy3  1  0.131976  0.337148  0.121606  1
  Dy  Dy4  1  0.632202  0.163137  0.122121  1
  Dy  Dy5  1  0.131976  0.337148  0.378394  1
  Dy  Dy6  1  0.367562  0.836876  0.622418  1
  Dy  Dy7  1  0.868156  0.662650  0.877700  1
  Dy  Dy8  1  0.520679  0.321064  0.902443  1
  Dy  Dy9  1  0.021207  0.179583  0.597629  1
  Dy  Dy10  1  0.479422  0.679283  0.402880  1
  Dy  Dy11  1  0.979184  0.820583  0.097431  1
  Dy  Dy12  1  0.479422  0.679283  0.097120  1
  Dy  Dy13  1  0.979184  0.820583  0.402569  1
  Dy  Dy14  1  0.520679  0.321064  0.597557  1
  Dy  Dy15  1  0.021207  0.179583  0.902371  1
  Dy  Dy16  1  0.698657  0.997335  0.750000  1
  Dy  Dy17  1  0.301015  0.002916  0.250000  1
  Tm  Tm18  1  0.800780  0.496847  0.250000  1
  Lu  Lu19  1  0.199072  0.503372  0.750000  1
  Sn  Sn20  1  0.292490  0.035993  0.041441  1
  Sn  Sn21  1  0.792364  0.463679  0.458279  1
  Sn  Sn22  1  0.707716  0.963971  0.541858  1
  Sn  Sn23  1  0.207694  0.535859  0.957183  1
  Sn  Sn24  1  0.707716  0.963971  0.958142  1
  Sn  Sn25  1  0.207694  0.535859  0.542817  1
  Sn  Sn26  1  0.292490  0.035993  0.458559  1
  Sn  Sn27  1  0.792364  0.463679  0.041721  1
  Sn  Sn28  1  0.563771  0.617505  0.750000  1
  Sn  Sn29  1  0.065800  0.880531  0.750000  1
  Sn  Sn30  1  0.434201  0.381374  0.250000  1
  Sn  Sn31  1  0.934292  0.119053  0.250000  1
  Sn  Sn32  1  0.329652  0.150084  0.750000  1
  Sn  Sn33  1  0.830923  0.352717  0.750000  1
  Sn  Sn34  1  0.670195  0.851478  0.250000  1
  Sn  Sn35  1  0.170335  0.647139  0.250000  1
