# generated using pymatgen
data_Pr3Ge2S8I
_symmetry_space_group_name_H-M   'P 1'
_cell_length_a   9.01830330
_cell_length_b   9.01830341
_cell_length_c   11.07809872
_cell_angle_alpha   82.91886486
_cell_angle_beta   97.08113557
_cell_angle_gamma   127.49845801
_symmetry_Int_Tables_number   1
_chemical_formula_structural   Pr3Ge2S8I
_chemical_formula_sum   'Pr6 Ge4 S16 I2'
_cell_volume   708.02534447
_cell_formula_units_Z   2
loop_
 _symmetry_equiv_pos_site_id
 _symmetry_equiv_pos_as_xyz
  1  'x, y, z'
loop_
 _atom_site_type_symbol
 _atom_site_label
 _atom_site_symmetry_multiplicity
 _atom_site_fract_x
 _atom_site_fract_y
 _atom_site_fract_z
 _atom_site_occupancy
  Pr  Pr0  1  0.600363  0.600363  0.750000  1
  Pr  Pr1  1  0.399636  0.399636  0.250000  1
  Pr  Pr2  1  0.321714  0.924007  0.681213  1
  Pr  Pr3  1  0.924007  0.321713  0.818787  1
  Pr  Pr4  1  0.678286  0.075992  0.318787  1
  Pr  Pr5  1  0.075992  0.678286  0.181212  1
  Ge  Ge6  1  0.620239  0.301430  0.028705  1
  Ge  Ge7  1  0.301430  0.620239  0.471294  1
  Ge  Ge8  1  0.379762  0.698570  0.971294  1
  Ge  Ge9  1  0.698570  0.379762  0.528705  1
  S  S10  1  0.857684  0.286678  0.086644  1
  S  S11  1  0.286677  0.857685  0.413355  1
  S  S12  1  0.142315  0.713322  0.913355  1
  S  S13  1  0.713322  0.142315  0.586645  1
  S  S14  1  0.393966  0.103591  0.153557  1
  S  S15  1  0.103591  0.393965  0.346443  1
  S  S16  1  0.606034  0.896408  0.846443  1
  S  S17  1  0.896408  0.606034  0.653557  1
  S  S18  1  0.550173  0.252608  0.831060  1
  S  S19  1  0.252607  0.550173  0.668940  1
  S  S20  1  0.449827  0.747393  0.168940  1
  S  S21  1  0.747393  0.449827  0.331060  1
  S  S22  1  0.724531  0.593910  0.043863  1
  S  S23  1  0.593910  0.724531  0.456136  1
  S  S24  1  0.275468  0.406090  0.956136  1
  S  S25  1  0.406090  0.275468  0.543864  1
  I  I26  1  0.985990  0.985989  0.250000  1
  I  I27  1  0.014011  0.014011  0.750000  1
