# generated using pymatgen
data_Ca2Sm6Be3Si12Pt
_symmetry_space_group_name_H-M   'P 1'
_cell_length_a   8.00795200
_cell_length_b   8.00795248
_cell_length_c   8.47544300
_cell_angle_alpha   90.00000000
_cell_angle_beta   90.00000000
_cell_angle_gamma   119.99998974
_symmetry_Int_Tables_number   1
_chemical_formula_structural   Ca2Sm6Be3Si12Pt
_chemical_formula_sum   'Ca2 Sm6 Be3 Si12 Pt1'
_cell_volume   470.69115017
_cell_formula_units_Z   1
loop_
 _symmetry_equiv_pos_site_id
 _symmetry_equiv_pos_as_xyz
  1  'x, y, z'
loop_
 _atom_site_type_symbol
 _atom_site_label
 _atom_site_symmetry_multiplicity
 _atom_site_fract_x
 _atom_site_fract_y
 _atom_site_fract_z
 _atom_site_occupancy
  Ca  Ca0  1  0.000000  0.000000  0.751014  1
  Ca  Ca1  1  0.000000  0.000000  0.248990  1
  Sm  Sm2  1  0.498641  0.501359  0.751943  1
  Sm  Sm3  1  0.498711  0.501289  0.248077  1
  Sm  Sm4  1  0.002719  0.501359  0.751943  1
  Sm  Sm5  1  0.002579  0.501289  0.248077  1
  Sm  Sm6  1  0.498641  0.997281  0.751943  1
  Sm  Sm7  1  0.498711  0.997421  0.248077  1
  Be  Be8  1  0.666667  0.333333  0.999165  1
  Be  Be9  1  0.333333  0.666667  0.000799  1
  Be  Be10  1  0.333333  0.666667  0.499530  1
  Si  Si11  1  0.826663  0.173337  0.000157  1
  Si  Si12  1  0.172702  0.827298  0.999944  1
  Si  Si13  1  0.346674  0.173337  0.000157  1
  Si  Si14  1  0.170655  0.829345  0.499885  1
  Si  Si15  1  0.654596  0.827298  0.999944  1
  Si  Si16  1  0.833766  0.166234  0.500222  1
  Si  Si17  1  0.826663  0.653326  0.000157  1
  Si  Si18  1  0.658691  0.829345  0.499885  1
  Si  Si19  1  0.172702  0.345404  0.999944  1
  Si  Si20  1  0.332468  0.166234  0.500222  1
  Si  Si21  1  0.170655  0.341309  0.499885  1
  Si  Si22  1  0.833766  0.667532  0.500222  1
  Pt  Pt23  1  0.666667  0.333333  0.499822  1
