# generated using pymatgen
data_CaLa8DyIr6
_symmetry_space_group_name_H-M   'P 1'
_cell_length_a   11.40928100
_cell_length_b   11.40928100
_cell_length_c   6.54277100
_cell_angle_alpha   90.00000000
_cell_angle_beta   90.00000000
_cell_angle_gamma   90.00000000
_symmetry_Int_Tables_number   1
_chemical_formula_structural   CaLa8DyIr6
_chemical_formula_sum   'Ca2 La16 Dy2 Ir12'
_cell_volume   851.68357757
_cell_formula_units_Z   2
loop_
 _symmetry_equiv_pos_site_id
 _symmetry_equiv_pos_as_xyz
  1  'x, y, z'
loop_
 _atom_site_type_symbol
 _atom_site_label
 _atom_site_symmetry_multiplicity
 _atom_site_fract_x
 _atom_site_fract_y
 _atom_site_fract_z
 _atom_site_occupancy
  Ca  Ca0  1  0.500000  0.500000  0.000000  1
  Ca  Ca1  1  0.500000  0.500000  0.500000  1
  La  La2  1  0.288693  0.089448  0.389422  1
  La  La3  1  0.288693  0.910552  0.889422  1
  La  La4  1  0.711307  0.089448  0.889422  1
  La  La5  1  0.711307  0.910552  0.389422  1
  La  La6  1  0.588857  0.788072  0.891596  1
  La  La7  1  0.588857  0.211928  0.391596  1
  La  La8  1  0.411143  0.788072  0.391596  1
  La  La9  1  0.411143  0.211928  0.891596  1
  La  La10  1  0.211928  0.411143  0.608404  1
  La  La11  1  0.211928  0.588857  0.108404  1
  La  La12  1  0.788072  0.411143  0.108404  1
  La  La13  1  0.788072  0.588857  0.608404  1
  La  La14  1  0.910552  0.711307  0.110578  1
  La  La15  1  0.910552  0.288693  0.610578  1
  La  La16  1  0.089448  0.711307  0.610578  1
  La  La17  1  0.089448  0.288693  0.110578  1
  Dy  Dy18  1  0.000000  0.000000  0.500000  1
  Dy  Dy19  1  0.000000  0.000000  0.000000  1
  Ir  Ir20  1  0.850542  0.149458  0.250000  1
  Ir  Ir21  1  0.850542  0.850542  0.750000  1
  Ir  Ir22  1  0.149458  0.149458  0.750000  1
  Ir  Ir23  1  0.149458  0.850542  0.250000  1
  Ir  Ir24  1  0.658663  0.341337  0.750000  1
  Ir  Ir25  1  0.658663  0.658663  0.250000  1
  Ir  Ir26  1  0.341337  0.341337  0.250000  1
  Ir  Ir27  1  0.341337  0.658663  0.750000  1
  Ir  Ir28  1  0.500000  0.000000  0.116487  1
  Ir  Ir29  1  0.500000  0.000000  0.616487  1
  Ir  Ir30  1  0.000000  0.500000  0.883513  1
  Ir  Ir31  1  0.000000  0.500000  0.383513  1
