# generated using pymatgen
data_CeYCdPd2
_symmetry_space_group_name_H-M   'P 1'
_cell_length_a   7.82845001
_cell_length_b   7.76359001
_cell_length_c   3.79657900
_cell_angle_alpha   90.00000000
_cell_angle_beta   90.00000000
_cell_angle_gamma   89.99382655
_symmetry_Int_Tables_number   1
_chemical_formula_structural   CeYCdPd2
_chemical_formula_sum   'Ce2 Y2 Cd2 Pd4'
_cell_volume   230.74421095
_cell_formula_units_Z   2
loop_
 _symmetry_equiv_pos_site_id
 _symmetry_equiv_pos_as_xyz
  1  'x, y, z'
loop_
 _atom_site_type_symbol
 _atom_site_label
 _atom_site_symmetry_multiplicity
 _atom_site_fract_x
 _atom_site_fract_y
 _atom_site_fract_z
 _atom_site_occupancy
  Ce  Ce0  1  0.172743  0.329157  0.500000  1
  Ce  Ce1  1  0.672716  0.170914  0.500000  1
  Y  Y2  1  0.328159  0.826667  0.500000  1
  Y  Y3  1  0.828200  0.673274  0.500000  1
  Cd  Cd4  1  0.001524  0.995624  0.000000  1
  Cd  Cd5  1  0.501501  0.504372  0.000000  1
  Pd  Pd6  1  0.369730  0.133564  0.000000  1
  Pd  Pd7  1  0.869747  0.366422  0.000000  1
  Pd  Pd8  1  0.127861  0.624462  0.000000  1
  Pd  Pd9  1  0.627820  0.875544  0.000000  1
