# generated using pymatgen
data_Ho6Co14Mo(P4Ru)3
_symmetry_space_group_name_H-M   'P 1'
_cell_length_a   3.73928800
_cell_length_b   10.55808400
_cell_length_c   12.30222100
_cell_angle_alpha   90.00000000
_cell_angle_beta   90.00000000
_cell_angle_gamma   90.00000000
_symmetry_Int_Tables_number   1
_chemical_formula_structural   Ho6Co14Mo(P4Ru)3
_chemical_formula_sum   'Ho6 Co14 Mo1 P12 Ru3'
_cell_volume   485.68820114
_cell_formula_units_Z   1
loop_
 _symmetry_equiv_pos_site_id
 _symmetry_equiv_pos_as_xyz
  1  'x, y, z'
loop_
 _atom_site_type_symbol
 _atom_site_label
 _atom_site_symmetry_multiplicity
 _atom_site_fract_x
 _atom_site_fract_y
 _atom_site_fract_z
 _atom_site_occupancy
  Ho  Ho0  1  0.000000  0.500000  0.527816  1
  Ho  Ho1  1  0.500000  0.000000  0.477832  1
  Ho  Ho2  1  0.500000  0.818383  0.201381  1
  Ho  Ho3  1  0.500000  0.181617  0.201381  1
  Ho  Ho4  1  0.000000  0.681662  0.795774  1
  Ho  Ho5  1  0.000000  0.318338  0.795774  1
  Co  Co6  1  0.000000  0.500000  0.984603  1
  Co  Co7  1  0.500000  0.000000  0.013977  1
  Co  Co8  1  0.000000  0.201565  0.572323  1
  Co  Co9  1  0.000000  0.798435  0.572323  1
  Co  Co10  1  0.500000  0.878538  0.710019  1
  Co  Co11  1  0.500000  0.121462  0.710019  1
  Co  Co12  1  0.000000  0.620521  0.287162  1
  Co  Co13  1  0.000000  0.379479  0.287162  1
  Co  Co14  1  0.500000  0.333263  0.989303  1
  Co  Co15  1  0.500000  0.666737  0.989303  1
  Co  Co16  1  0.000000  0.168125  0.010039  1
  Co  Co17  1  0.000000  0.831875  0.010039  1
  Co  Co18  1  0.500000  0.500000  0.703233  1
  Co  Co19  1  0.000000  0.000000  0.297279  1
  Mo  Mo20  1  0.000000  0.000000  0.845341  1
  P  P21  1  0.500000  0.309172  0.620703  1
  P  P22  1  0.500000  0.690828  0.620703  1
  P  P23  1  0.000000  0.184149  0.381740  1
  P  P24  1  0.000000  0.815851  0.381740  1
  P  P25  1  0.500000  0.500000  0.881039  1
  P  P26  1  0.000000  0.000000  0.118363  1
  P  P27  1  0.500000  0.844450  0.894244  1
  P  P28  1  0.500000  0.155550  0.894244  1
  P  P29  1  0.000000  0.652437  0.105398  1
  P  P30  1  0.000000  0.347563  0.105398  1
  P  P31  1  0.500000  0.500000  0.344947  1
  P  P32  1  0.000000  0.000000  0.652610  1
  Ru  Ru33  1  0.500000  0.296225  0.429922  1
  Ru  Ru34  1  0.500000  0.703775  0.429922  1
  Ru  Ru35  1  0.500000  0.500000  0.156951  1
