# generated using pymatgen
data_NdPa(InNi5)2
_symmetry_space_group_name_H-M   'P 1'
_cell_length_a   4.90991000
_cell_length_b   4.91259291
_cell_length_c   19.65713400
_cell_angle_alpha   90.00000000
_cell_angle_beta   90.00000000
_cell_angle_gamma   120.03343883
_symmetry_Int_Tables_number   1
_chemical_formula_structural   NdPa(InNi5)2
_chemical_formula_sum   'Nd2 Pa2 In4 Ni20'
_cell_volume   410.47688311
_cell_formula_units_Z   2
loop_
 _symmetry_equiv_pos_site_id
 _symmetry_equiv_pos_as_xyz
  1  'x, y, z'
loop_
 _atom_site_type_symbol
 _atom_site_label
 _atom_site_symmetry_multiplicity
 _atom_site_fract_x
 _atom_site_fract_y
 _atom_site_fract_z
 _atom_site_occupancy
  Nd  Nd0  1  0.000000  0.000000  0.000000  1
  Nd  Nd1  1  0.000000  0.000000  0.500000  1
  Pa  Pa2  1  0.333202  0.666859  0.750000  1
  Pa  Pa3  1  0.666798  0.333141  0.250000  1
  In  In4  1  0.333233  0.666576  0.584760  1
  In  In5  1  0.666767  0.333424  0.415240  1
  In  In6  1  0.666767  0.333424  0.084760  1
  In  In7  1  0.333233  0.666576  0.915240  1
  Ni  Ni8  1  0.333115  0.666625  0.047603  1
  Ni  Ni9  1  0.666885  0.333375  0.952397  1
  Ni  Ni10  1  0.666885  0.333375  0.547603  1
  Ni  Ni11  1  0.333115  0.666625  0.452397  1
  Ni  Ni12  1  0.999813  0.999857  0.250000  1
  Ni  Ni13  1  0.000187  0.000143  0.750000  1
  Ni  Ni14  1  0.333700  0.666912  0.250000  1
  Ni  Ni15  1  0.666300  0.333088  0.750000  1
  Ni  Ni16  1  0.166151  0.332380  0.148558  1
  Ni  Ni17  1  0.833849  0.667620  0.851442  1
  Ni  Ni18  1  0.667671  0.833904  0.148551  1
  Ni  Ni19  1  0.833849  0.667620  0.648558  1
  Ni  Ni20  1  0.332329  0.166096  0.851449  1
  Ni  Ni21  1  0.166151  0.332380  0.351442  1
  Ni  Ni22  1  0.166274  0.833862  0.148561  1
  Ni  Ni23  1  0.332329  0.166096  0.648551  1
  Ni  Ni24  1  0.833726  0.166138  0.851439  1
  Ni  Ni25  1  0.667671  0.833904  0.351449  1
  Ni  Ni26  1  0.833726  0.166138  0.648561  1
  Ni  Ni27  1  0.166274  0.833862  0.351439  1
