# generated using pymatgen
data_DyTmPa2(Al8Pt3)3
_symmetry_space_group_name_H-M   'P 1'
_cell_length_a   7.56046892
_cell_length_b   7.56912470
_cell_length_c   13.10155811
_cell_angle_alpha   84.49781683
_cell_angle_beta   78.91024327
_cell_angle_gamma   59.92502153
_symmetry_Int_Tables_number   1
_chemical_formula_structural   DyTmPa2(Al8Pt3)3
_chemical_formula_sum   'Dy1 Tm1 Pa2 Al24 Pt9'
_cell_volume   636.69736493
_cell_formula_units_Z   1
loop_
 _symmetry_equiv_pos_site_id
 _symmetry_equiv_pos_as_xyz
  1  'x, y, z'
loop_
 _atom_site_type_symbol
 _atom_site_label
 _atom_site_symmetry_multiplicity
 _atom_site_fract_x
 _atom_site_fract_y
 _atom_site_fract_z
 _atom_site_occupancy
  Dy  Dy0  1  0.266203  0.501522  0.191922  1
  Tm  Tm1  1  0.733996  0.498492  0.807668  1
  Pa  Pa2  1  0.395094  0.168086  0.805094  1
  Pa  Pa3  1  0.604968  0.831800  0.194975  1
  Al  Al4  1  0.684352  0.833229  0.944409  1
  Al  Al5  1  0.315730  0.166442  0.055404  1
  Al  Al6  1  0.145698  0.832715  0.561336  1
  Al  Al7  1  0.854286  0.167313  0.438694  1
  Al  Al8  1  0.480471  0.167540  0.558097  1
  Al  Al9  1  0.519541  0.832453  0.441940  1
  Al  Al10  1  0.214610  0.167887  0.330957  1
  Al  Al11  1  0.785284  0.831843  0.669226  1
  Al  Al12  1  0.437951  0.508953  0.669936  1
  Al  Al13  1  0.562301  0.491041  0.330221  1
  Al  Al14  1  0.107404  0.160126  0.668332  1
  Al  Al15  1  0.892211  0.840185  0.331847  1
  Al  Al16  1  0.353746  0.499439  0.943315  1
  Al  Al17  1  0.646691  0.500614  0.056305  1
  Al  Al18  1  0.015291  0.168119  0.952170  1
  Al  Al19  1  0.984476  0.832150  0.047614  1
  Al  Al20  1  0.185755  0.500087  0.441237  1
  Al  Al21  1  0.814190  0.499915  0.558906  1
  Al  Al22  1  0.736303  0.162542  0.182902  1
  Al  Al23  1  0.264050  0.837237  0.817094  1
  Al  Al24  1  0.062368  0.631035  0.815892  1
  Al  Al25  1  0.937377  0.368849  0.184109  1
  Al  Al26  1  0.854957  0.040781  0.816755  1
  Al  Al27  1  0.144917  0.959634  0.183240  1
  Pt  Pt28  1  0.119840  0.491070  0.639940  1
  Pt  Pt29  1  0.879722  0.508907  0.360232  1
  Pt  Pt30  1  0.656834  0.172691  0.999939  1
  Pt  Pt31  1  0.343324  0.827301  0.999944  1
  Pt  Pt32  1  0.537419  0.166159  0.360528  1
  Pt  Pt33  1  0.462837  0.833486  0.639663  1
  Pt  Pt34  1  0.777896  0.175649  0.638615  1
  Pt  Pt35  1  0.221990  0.824762  0.361603  1
  Pt  Pt36  1  0.999918  0.499944  0.999940  1
