# generated using pymatgen
data_Dy3YTcB12Ru
_symmetry_space_group_name_H-M   'P 1'
_cell_length_a   3.67795400
_cell_length_b   9.15593089
_cell_length_c   11.54573610
_cell_angle_alpha   89.84727225
_cell_angle_beta   90.00000000
_cell_angle_gamma   90.00000000
_symmetry_Int_Tables_number   1
_chemical_formula_structural   Dy3YTcB12Ru
_chemical_formula_sum   'Dy6 Y2 Tc2 B24 Ru2'
_cell_volume   388.80235159
_cell_formula_units_Z   2
loop_
 _symmetry_equiv_pos_site_id
 _symmetry_equiv_pos_as_xyz
  1  'x, y, z'
loop_
 _atom_site_type_symbol
 _atom_site_label
 _atom_site_symmetry_multiplicity
 _atom_site_fract_x
 _atom_site_fract_y
 _atom_site_fract_z
 _atom_site_occupancy
  Dy  Dy0  1  0.000000  0.821554  0.087367  1
  Dy  Dy1  1  0.000000  0.178446  0.912633  1
  Dy  Dy2  1  0.000000  0.942110  0.370384  1
  Dy  Dy3  1  0.000000  0.057890  0.629616  1
  Dy  Dy4  1  0.000000  0.442993  0.130158  1
  Dy  Dy5  1  0.000000  0.557007  0.869842  1
  Y  Y6  1  0.000000  0.325168  0.415653  1
  Y  Y7  1  0.000000  0.674832  0.584347  1
  Tc  Tc8  1  0.000000  0.638569  0.320168  1
  Tc  Tc9  1  0.000000  0.361431  0.679832  1
  B  B10  1  0.500000  0.553272  0.432879  1
  B  B11  1  0.500000  0.446728  0.567121  1
  B  B12  1  0.500000  0.053927  0.067066  1
  B  B13  1  0.500000  0.946073  0.932934  1
  B  B14  1  0.500000  0.748374  0.418696  1
  B  B15  1  0.500000  0.251626  0.581304  1
  B  B16  1  0.500000  0.248280  0.081191  1
  B  B17  1  0.500000  0.751720  0.918809  1
  B  B18  1  0.500000  0.791283  0.265258  1
  B  B19  1  0.500000  0.208717  0.734742  1
  B  B20  1  0.500000  0.290303  0.234089  1
  B  B21  1  0.500000  0.709697  0.765911  1
  B  B22  1  0.500000  0.631468  0.185269  1
  B  B23  1  0.500000  0.368532  0.814731  1
  B  B24  1  0.500000  0.131010  0.313777  1
  B  B25  1  0.500000  0.868990  0.686223  1
  B  B26  1  0.500000  0.983412  0.211731  1
  B  B27  1  0.500000  0.016588  0.788269  1
  B  B28  1  0.500000  0.483047  0.287659  1
  B  B29  1  0.500000  0.516953  0.712341  1
  B  B30  1  0.500000  0.603828  0.028618  1
  B  B31  1  0.500000  0.396172  0.971382  1
  B  B32  1  0.500000  0.103824  0.471079  1
  B  B33  1  0.500000  0.896176  0.528921  1
  Ru  Ru34  1  0.000000  0.137628  0.178264  1
  Ru  Ru35  1  0.000000  0.862372  0.821736  1
