# generated using pymatgen
data_Rb2YbOsO6
_symmetry_space_group_name_H-M   'P 1'
_cell_length_a   5.97221620
_cell_length_b   5.97221568
_cell_length_c   5.97221700
_cell_angle_alpha   120.00000176
_cell_angle_beta   119.99999891
_cell_angle_gamma   60.00001067
_symmetry_Int_Tables_number   1
_chemical_formula_structural   Rb2YbOsO6
_chemical_formula_sum   'Rb2 Yb1 Os1 O6'
_cell_volume   150.62311293
_cell_formula_units_Z   1
loop_
 _symmetry_equiv_pos_site_id
 _symmetry_equiv_pos_as_xyz
  1  'x, y, z'
loop_
 _atom_site_type_symbol
 _atom_site_label
 _atom_site_symmetry_multiplicity
 _atom_site_fract_x
 _atom_site_fract_y
 _atom_site_fract_z
 _atom_site_occupancy
  Rb  Rb0  1  0.749998  0.749998  0.249998  1
  Rb  Rb1  1  0.250000  0.250000  0.749999  1
  Yb  Yb2  1  0.500000  0.500000  0.499999  1
  Os  Os3  1  0.000000  0.000000  0.000000  1
  O  O4  1  0.222719  0.222719  0.222718  1
  O  O5  1  0.777281  0.222718  0.222718  1
  O  O6  1  0.222718  0.777281  0.222718  1
  O  O7  1  0.777282  0.777282  0.777281  1
  O  O8  1  0.777281  0.222719  0.777281  1
  O  O9  1  0.222719  0.777281  0.777281  1
