# generated using pymatgen
data_LiTiZnB2Rh5
_symmetry_space_group_name_H-M   'P 1'
_cell_length_a   2.91737700
_cell_length_b   9.38065600
_cell_length_c   9.34230200
_cell_angle_alpha   90.00000000
_cell_angle_beta   90.00000000
_cell_angle_gamma   90.00000000
_symmetry_Int_Tables_number   1
_chemical_formula_structural   LiTiZnB2Rh5
_chemical_formula_sum   'Li2 Ti2 Zn2 B4 Rh10'
_cell_volume   255.66993858
_cell_formula_units_Z   2
loop_
 _symmetry_equiv_pos_site_id
 _symmetry_equiv_pos_as_xyz
  1  'x, y, z'
loop_
 _atom_site_type_symbol
 _atom_site_label
 _atom_site_symmetry_multiplicity
 _atom_site_fract_x
 _atom_site_fract_y
 _atom_site_fract_z
 _atom_site_occupancy
  Li  Li0  1  0.000000  0.824150  0.179752  1
  Li  Li1  1  0.000000  0.324149  0.320247  1
  Ti  Ti2  1  0.000000  0.673897  0.671569  1
  Ti  Ti3  1  0.000000  0.173897  0.828431  1
  Zn  Zn4  1  0.000000  0.501555  0.003154  1
  Zn  Zn5  1  0.000000  0.001555  0.496846  1
  B  B6  1  0.000000  0.129900  0.131087  1
  B  B7  1  0.000000  0.629900  0.368914  1
  B  B8  1  0.000000  0.374450  0.624299  1
  B  B9  1  0.000000  0.874450  0.875702  1
  Rh  Rh10  1  0.500001  0.999186  0.998379  1
  Rh  Rh11  1  0.500001  0.280688  0.057802  1
  Rh  Rh12  1  0.500001  0.574158  0.217011  1
  Rh  Rh13  1  0.500001  0.074158  0.282991  1
  Rh  Rh14  1  0.500001  0.780688  0.442199  1
  Rh  Rh15  1  0.500001  0.499186  0.501621  1
  Rh  Rh16  1  0.500001  0.212185  0.585782  1
  Rh  Rh17  1  0.500001  0.929836  0.715507  1
  Rh  Rh18  1  0.500001  0.429836  0.784494  1
  Rh  Rh19  1  0.500001  0.712184  0.914219  1
