# generated using pymatgen
data_Th10Tl3Bi5
_symmetry_space_group_name_H-M   'P 1'
_cell_length_a   9.80126189
_cell_length_b   9.77775760
_cell_length_c   6.65774900
_cell_angle_alpha   89.99999487
_cell_angle_beta   90.00000119
_cell_angle_gamma   119.92070614
_symmetry_Int_Tables_number   1
_chemical_formula_structural   Th10Tl3Bi5
_chemical_formula_sum   'Th10 Tl3 Bi5'
_cell_volume   553.00080620
_cell_formula_units_Z   1
loop_
 _symmetry_equiv_pos_site_id
 _symmetry_equiv_pos_as_xyz
  1  'x, y, z'
loop_
 _atom_site_type_symbol
 _atom_site_label
 _atom_site_symmetry_multiplicity
 _atom_site_fract_x
 _atom_site_fract_y
 _atom_site_fract_z
 _atom_site_occupancy
  Th  Th0  1  0.000000  0.717510  0.750001  1
  Th  Th1  1  0.281816  0.282582  0.750000  1
  Th  Th2  1  0.332041  0.666656  0.500260  1
  Th  Th3  1  0.667959  0.334613  0.500260  1
  Th  Th4  1  0.717854  0.715631  0.250000  1
  Th  Th5  1  0.718184  0.000766  0.750000  1
  Th  Th6  1  0.000000  0.282972  0.250000  1
  Th  Th7  1  0.282146  0.997777  0.250000  1
  Th  Th8  1  0.332041  0.666655  0.999740  1
  Th  Th9  1  0.667959  0.334613  0.999740  1
  Tl  Tl10  1  0.000000  0.999025  0.001113  1
  Tl  Tl11  1  0.000000  0.624598  0.250002  1
  Tl  Tl12  1  0.000000  0.999023  0.498886  1
  Bi  Bi13  1  0.623134  0.621823  0.750000  1
  Bi  Bi14  1  0.000000  0.379102  0.750000  1
  Bi  Bi15  1  0.376866  0.998688  0.750000  1
  Bi  Bi16  1  0.621663  0.999814  0.249998  1
  Bi  Bi17  1  0.378337  0.378151  0.249998  1
