# generated using pymatgen
data_PrTh(BOs)4
_symmetry_space_group_name_H-M   'P 1'
_cell_length_a   6.83341603
_cell_length_b   6.05643574
_cell_length_c   5.63739160
_cell_angle_alpha   71.41338541
_cell_angle_beta   57.14753441
_cell_angle_gamma   51.43908447
_symmetry_Int_Tables_number   1
_chemical_formula_structural   PrTh(BOs)4
_chemical_formula_sum   'Pr1 Th1 B4 Os4'
_cell_volume   153.19186724
_cell_formula_units_Z   1
loop_
 _symmetry_equiv_pos_site_id
 _symmetry_equiv_pos_as_xyz
  1  'x, y, z'
loop_
 _atom_site_type_symbol
 _atom_site_label
 _atom_site_symmetry_multiplicity
 _atom_site_fract_x
 _atom_site_fract_y
 _atom_site_fract_z
 _atom_site_occupancy
  Pr  Pr0  1  0.000000  0.000000  0.000000  1
  Th  Th1  1  0.250000  0.250000  0.250000  1
  B  B2  1  0.315394  0.684606  0.315394  1
  B  B3  1  0.684606  0.315394  0.684606  1
  B  B4  1  0.567150  0.932850  0.567150  1
  B  B5  1  0.932850  0.567150  0.932850  1
  Os  Os6  1  0.637031  0.637031  0.362969  1
  Os  Os7  1  0.362969  0.362969  0.637031  1
  Os  Os8  1  0.613353  0.613353  0.886647  1
  Os  Os9  1  0.886647  0.886647  0.613353  1
