# generated using pymatgen
data_RbTmBi2Se5
_symmetry_space_group_name_H-M   'P 1'
_cell_length_a   4.14911600
_cell_length_b   12.36179500
_cell_length_c   22.34630800
_cell_angle_alpha   90.00000000
_cell_angle_beta   90.00000000
_cell_angle_gamma   90.00000000
_symmetry_Int_Tables_number   1
_chemical_formula_structural   RbTmBi2Se5
_chemical_formula_sum   'Rb4 Tm4 Bi8 Se20'
_cell_volume   1146.15378920
_cell_formula_units_Z   4
loop_
 _symmetry_equiv_pos_site_id
 _symmetry_equiv_pos_as_xyz
  1  'x, y, z'
loop_
 _atom_site_type_symbol
 _atom_site_label
 _atom_site_symmetry_multiplicity
 _atom_site_fract_x
 _atom_site_fract_y
 _atom_site_fract_z
 _atom_site_occupancy
  Rb  Rb0  1  0.250000  0.489623  0.210310  1
  Rb  Rb1  1  0.750000  0.510377  0.789690  1
  Rb  Rb2  1  0.750000  0.989623  0.289690  1
  Rb  Rb3  1  0.250000  0.010377  0.710310  1
  Tm  Tm4  1  0.250000  0.364675  0.023928  1
  Tm  Tm5  1  0.750000  0.635325  0.976072  1
  Tm  Tm6  1  0.750000  0.864675  0.476072  1
  Tm  Tm7  1  0.250000  0.135325  0.523928  1
  Bi  Bi8  1  0.250000  0.801694  0.126644  1
  Bi  Bi9  1  0.750000  0.198306  0.873356  1
  Bi  Bi10  1  0.750000  0.301694  0.373356  1
  Bi  Bi11  1  0.250000  0.698306  0.626644  1
  Bi  Bi12  1  0.250000  0.596341  0.423678  1
  Bi  Bi13  1  0.750000  0.403659  0.576322  1
  Bi  Bi14  1  0.750000  0.096341  0.076322  1
  Bi  Bi15  1  0.250000  0.903659  0.923678  1
  Se  Se16  1  0.250000  0.813661  0.391502  1
  Se  Se17  1  0.750000  0.186339  0.608498  1
  Se  Se18  1  0.750000  0.313661  0.108498  1
  Se  Se19  1  0.250000  0.686339  0.891502  1
  Se  Se20  1  0.250000  0.246778  0.294553  1
  Se  Se21  1  0.750000  0.753222  0.705447  1
  Se  Se22  1  0.750000  0.746778  0.205447  1
  Se  Se23  1  0.250000  0.253222  0.794553  1
  Se  Se24  1  0.250000  0.352880  0.481307  1
  Se  Se25  1  0.750000  0.647120  0.518693  1
  Se  Se26  1  0.750000  0.852880  0.018693  1
  Se  Se27  1  0.250000  0.147120  0.981307  1
  Se  Se28  1  0.250000  0.026796  0.159615  1
  Se  Se29  1  0.750000  0.973204  0.840385  1
  Se  Se30  1  0.750000  0.526796  0.340385  1
  Se  Se31  1  0.250000  0.473204  0.659615  1
  Se  Se32  1  0.250000  0.583085  0.058581  1
  Se  Se33  1  0.750000  0.416915  0.941419  1
  Se  Se34  1  0.750000  0.083085  0.441419  1
  Se  Se35  1  0.250000  0.916915  0.558581  1
