# generated using pymatgen
data_K2RhOF5
_symmetry_space_group_name_H-M   'P 1'
_cell_length_a   6.20465101
_cell_length_b   6.20465091
_cell_length_c   8.59955819
_cell_angle_alpha   86.67688328
_cell_angle_beta   86.67688361
_cell_angle_gamma   79.95243522
_symmetry_Int_Tables_number   1
_chemical_formula_structural   K2RhOF5
_chemical_formula_sum   'K4 Rh2 O2 F10'
_cell_volume   325.05174073
_cell_formula_units_Z   2
loop_
 _symmetry_equiv_pos_site_id
 _symmetry_equiv_pos_as_xyz
  1  'x, y, z'
loop_
 _atom_site_type_symbol
 _atom_site_label
 _atom_site_symmetry_multiplicity
 _atom_site_fract_x
 _atom_site_fract_y
 _atom_site_fract_z
 _atom_site_occupancy
  K  K0  1  0.296097  0.294644  0.026332  1
  K  K1  1  0.705356  0.703903  0.473668  1
  K  K2  1  0.703903  0.705356  0.973668  1
  K  K3  1  0.294644  0.296097  0.526332  1
  Rh  Rh4  1  0.807368  0.192632  0.250000  1
  Rh  Rh5  1  0.192632  0.807368  0.750000  1
  O  O6  1  0.029342  0.970658  0.250000  1
  O  O7  1  0.970658  0.029342  0.750000  1
  F  F8  1  0.859382  0.276503  0.027915  1
  F  F9  1  0.723497  0.140618  0.472085  1
  F  F10  1  0.140618  0.723497  0.972085  1
  F  F11  1  0.276503  0.859382  0.527915  1
  F  F12  1  0.553312  0.446688  0.250000  1
  F  F13  1  0.446688  0.553312  0.750000  1
  F  F14  1  0.597139  0.005181  0.195730  1
  F  F15  1  0.994819  0.402861  0.304270  1
  F  F16  1  0.402861  0.994819  0.804270  1
  F  F17  1  0.005181  0.597139  0.695730  1
