# generated using pymatgen
data_TbY3Ho4(B6Ru)4
_symmetry_space_group_name_H-M   'P 1'
_cell_length_a   3.66021100
_cell_length_b   9.14449301
_cell_length_c   11.52738801
_cell_angle_alpha   90.00468440
_cell_angle_beta   90.00000000
_cell_angle_gamma   90.00000000
_symmetry_Int_Tables_number   1
_chemical_formula_structural   TbY3Ho4(B6Ru)4
_chemical_formula_sum   'Tb1 Y3 Ho4 B24 Ru4'
_cell_volume   385.83059639
_cell_formula_units_Z   1
loop_
 _symmetry_equiv_pos_site_id
 _symmetry_equiv_pos_as_xyz
  1  'x, y, z'
loop_
 _atom_site_type_symbol
 _atom_site_label
 _atom_site_symmetry_multiplicity
 _atom_site_fract_x
 _atom_site_fract_y
 _atom_site_fract_z
 _atom_site_occupancy
  Tb  Tb0  1  0.000000  0.322749  0.414021  1
  Y  Y1  1  0.000000  0.677567  0.585926  1
  Y  Y2  1  0.000000  0.822448  0.085881  1
  Y  Y3  1  0.000000  0.177542  0.914104  1
  Ho  Ho4  1  0.000000  0.943732  0.372267  1
  Ho  Ho5  1  0.000000  0.056202  0.627753  1
  Ho  Ho6  1  0.000000  0.443761  0.127675  1
  Ho  Ho7  1  0.000000  0.556275  0.872324  1
  B  B8  1  0.500000  0.554316  0.432737  1
  B  B9  1  0.500000  0.445698  0.567277  1
  B  B10  1  0.500000  0.054232  0.067176  1
  B  B11  1  0.500000  0.945739  0.932815  1
  B  B12  1  0.500000  0.748298  0.419523  1
  B  B13  1  0.500000  0.251696  0.580567  1
  B  B14  1  0.500000  0.248257  0.080470  1
  B  B15  1  0.500000  0.751725  0.919519  1
  B  B16  1  0.500000  0.791053  0.266300  1
  B  B17  1  0.500000  0.208956  0.733736  1
  B  B18  1  0.500000  0.290935  0.233629  1
  B  B19  1  0.500000  0.708952  0.766312  1
  B  B20  1  0.500000  0.631761  0.185137  1
  B  B21  1  0.500000  0.368260  0.814863  1
  B  B22  1  0.500000  0.131711  0.314812  1
  B  B23  1  0.500000  0.868230  0.685164  1
  B  B24  1  0.500000  0.983749  0.213034  1
  B  B25  1  0.500000  0.016212  0.786951  1
  B  B26  1  0.500000  0.483914  0.286911  1
  B  B27  1  0.500000  0.516229  0.713086  1
  B  B28  1  0.500000  0.607664  0.029670  1
  B  B29  1  0.500000  0.392342  0.970314  1
  B  B30  1  0.500000  0.107363  0.470402  1
  B  B31  1  0.500000  0.892384  0.529662  1
  Ru  Ru32  1  0.000000  0.638111  0.320819  1
  Ru  Ru33  1  0.000000  0.361960  0.679156  1
  Ru  Ru34  1  0.000000  0.138009  0.179129  1
  Ru  Ru35  1  0.000000  0.861968  0.820874  1
