# generated using pymatgen
data_AcTb(CrN3)2
_symmetry_space_group_name_H-M   'P 1'
_cell_length_a   7.17218512
_cell_length_b   7.17218443
_cell_length_c   5.94781057
_cell_angle_alpha   78.75218646
_cell_angle_beta   78.75218356
_cell_angle_gamma   89.27871509
_symmetry_Int_Tables_number   1
_chemical_formula_structural   AcTb(CrN3)2
_chemical_formula_sum   'Ac2 Tb2 Cr4 N12'
_cell_volume   294.21336901
_cell_formula_units_Z   2
loop_
 _symmetry_equiv_pos_site_id
 _symmetry_equiv_pos_as_xyz
  1  'x, y, z'
loop_
 _atom_site_type_symbol
 _atom_site_label
 _atom_site_symmetry_multiplicity
 _atom_site_fract_x
 _atom_site_fract_y
 _atom_site_fract_z
 _atom_site_occupancy
  Ac  Ac0  1  0.326884  0.673116  0.750000  1
  Ac  Ac1  1  0.673116  0.326884  0.250000  1
  Tb  Tb2  1  0.091530  0.908470  0.250000  1
  Tb  Tb3  1  0.908470  0.091530  0.750000  1
  Cr  Cr4  1  0.370396  0.196884  0.771520  1
  Cr  Cr5  1  0.629604  0.803116  0.228480  1
  Cr  Cr6  1  0.803116  0.629604  0.728480  1
  Cr  Cr7  1  0.196884  0.370396  0.271520  1
  N  N8  1  0.991002  0.788666  0.645473  1
  N  N9  1  0.873945  0.410795  0.813834  1
  N  N10  1  0.788666  0.991002  0.145473  1
  N  N11  1  0.126055  0.589205  0.186166  1
  N  N12  1  0.008998  0.211334  0.354527  1
  N  N13  1  0.211334  0.008998  0.854527  1
  N  N14  1  0.589205  0.126055  0.686166  1
  N  N15  1  0.639743  0.676166  0.984051  1
  N  N16  1  0.360257  0.323834  0.015949  1
  N  N17  1  0.410795  0.873945  0.313834  1
  N  N18  1  0.676166  0.639743  0.484051  1
  N  N19  1  0.323834  0.360257  0.515949  1
