# generated using pymatgen
data_TbDy2GeSe2
_symmetry_space_group_name_H-M   'P 1'
_cell_length_a   7.16052720
_cell_length_b   7.16052699
_cell_length_c   7.16052616
_cell_angle_alpha   146.49121558
_cell_angle_beta   132.25840392
_cell_angle_gamma   59.58386905
_symmetry_Int_Tables_number   1
_chemical_formula_structural   TbDy2GeSe2
_chemical_formula_sum   'Tb1 Dy2 Ge1 Se2'
_cell_volume   148.67509148
_cell_formula_units_Z   1
loop_
 _symmetry_equiv_pos_site_id
 _symmetry_equiv_pos_as_xyz
  1  'x, y, z'
loop_
 _atom_site_type_symbol
 _atom_site_label
 _atom_site_symmetry_multiplicity
 _atom_site_fract_x
 _atom_site_fract_y
 _atom_site_fract_z
 _atom_site_occupancy
  Tb  Tb0  1  0.000000  0.000000  0.000000  1
  Dy  Dy1  1  0.342111  0.342111  0.000000  1
  Dy  Dy2  1  0.657889  0.657889  0.000000  1
  Ge  Ge3  1  0.500000  0.000000  0.500000  1
  Se  Se4  1  0.169158  0.669158  0.500000  1
  Se  Se5  1  0.830842  0.330842  0.500000  1
