# generated using pymatgen
data_Ca2LaPr3Co4
_symmetry_space_group_name_H-M   'P 1'
_cell_length_a   3.96784200
_cell_length_b   3.96784203
_cell_length_c   21.05762100
_cell_angle_alpha   90.00000000
_cell_angle_beta   90.00000000
_cell_angle_gamma   119.99999978
_symmetry_Int_Tables_number   1
_chemical_formula_structural   Ca2LaPr3Co4
_chemical_formula_sum   'Ca2 La1 Pr3 Co4'
_cell_volume   287.11023898
_cell_formula_units_Z   1
loop_
 _symmetry_equiv_pos_site_id
 _symmetry_equiv_pos_as_xyz
  1  'x, y, z'
loop_
 _atom_site_type_symbol
 _atom_site_label
 _atom_site_symmetry_multiplicity
 _atom_site_fract_x
 _atom_site_fract_y
 _atom_site_fract_z
 _atom_site_occupancy
  Ca  Ca0  1  0.333333  0.666667  0.750228  1
  Ca  Ca1  1  0.666667  0.333333  0.250946  1
  La  La2  1  0.000000  0.000000  0.089201  1
  Pr  Pr3  1  0.000000  0.000000  0.409580  1
  Pr  Pr4  1  0.000000  0.000000  0.909842  1
  Pr  Pr5  1  0.000000  0.000000  0.590583  1
  Co  Co6  1  0.333333  0.666667  0.999495  1
  Co  Co7  1  0.666667  0.333333  0.999953  1
  Co  Co8  1  0.333333  0.666667  0.500294  1
  Co  Co9  1  0.666667  0.333333  0.499877  1
