# generated using pymatgen
data_Re3Tc2Ir2Ru
_symmetry_space_group_name_H-M   'P 1'
_cell_length_a   5.55193902
_cell_length_b   5.55193821
_cell_length_c   4.37599800
_cell_angle_alpha   90.00000000
_cell_angle_beta   90.00000000
_cell_angle_gamma   120.10427905
_symmetry_Int_Tables_number   1
_chemical_formula_structural   Re3Tc2Ir2Ru
_chemical_formula_sum   'Re3 Tc2 Ir2 Ru1'
_cell_volume   116.69164133
_cell_formula_units_Z   1
loop_
 _symmetry_equiv_pos_site_id
 _symmetry_equiv_pos_as_xyz
  1  'x, y, z'
loop_
 _atom_site_type_symbol
 _atom_site_label
 _atom_site_symmetry_multiplicity
 _atom_site_fract_x
 _atom_site_fract_y
 _atom_site_fract_z
 _atom_site_occupancy
  Re  Re0  1  0.159938  0.324394  0.250000  1
  Re  Re1  1  0.675606  0.840062  0.250000  1
  Re  Re2  1  0.162176  0.837824  0.250000  1
  Tc  Tc3  1  0.837073  0.674594  0.750000  1
  Tc  Tc4  1  0.325406  0.162927  0.750000  1
  Ir  Ir5  1  0.334963  0.665037  0.750000  1
  Ir  Ir6  1  0.667594  0.332406  0.250000  1
  Ru  Ru7  1  0.837246  0.162754  0.750000  1
