# generated using pymatgen
data_Er8GaPd5Pt19
_symmetry_space_group_name_H-M   'P 1'
_cell_length_a   8.32859507
_cell_length_b   8.32016907
_cell_length_c   8.32436400
_cell_angle_alpha   89.99706726
_cell_angle_beta   89.99823861
_cell_angle_gamma   90.01478442
_symmetry_Int_Tables_number   1
_chemical_formula_structural   Er8GaPd5Pt19
_chemical_formula_sum   'Er8 Ga1 Pd5 Pt19'
_cell_volume   576.83943985
_cell_formula_units_Z   1
loop_
 _symmetry_equiv_pos_site_id
 _symmetry_equiv_pos_as_xyz
  1  'x, y, z'
loop_
 _atom_site_type_symbol
 _atom_site_label
 _atom_site_symmetry_multiplicity
 _atom_site_fract_x
 _atom_site_fract_y
 _atom_site_fract_z
 _atom_site_occupancy
  Er  Er0  1  0.251586  0.251464  0.748535  1
  Er  Er1  1  0.252286  0.748084  0.251920  1
  Er  Er2  1  0.748145  0.251796  0.251771  1
  Er  Er3  1  0.748109  0.748560  0.747783  1
  Er  Er4  1  0.747696  0.748162  0.252327  1
  Er  Er5  1  0.748459  0.251416  0.748295  1
  Er  Er6  1  0.251886  0.748465  0.748154  1
  Er  Er7  1  0.251877  0.251826  0.251516  1
  Ga  Ga8  1  0.000099  0.000067  0.999931  1
  Pd  Pd9  1  0.292304  0.999773  0.000205  1
  Pd  Pd10  1  0.000015  0.999799  0.291354  1
  Pd  Pd11  1  0.999795  0.708414  0.000196  1
  Pd  Pd12  1  0.707642  0.999805  0.000191  1
  Pd  Pd13  1  0.739655  0.500081  0.000022  1
  Pt  Pt14  1  0.499909  0.500054  0.747177  1
  Pt  Pt15  1  0.499995  0.253050  0.499956  1
  Pt  Pt16  1  0.253051  0.500035  0.499945  1
  Pt  Pt17  1  0.499919  0.500051  0.252719  1
  Pt  Pt18  1  0.500017  0.747038  0.499953  1
  Pt  Pt19  1  0.746887  0.500043  0.499964  1
  Pt  Pt20  1  0.000015  0.999686  0.707294  1
  Pt  Pt21  1  0.999843  0.292932  0.000320  1
  Pt  Pt22  1  0.000148  0.499937  0.740061  1
  Pt  Pt23  1  0.500036  0.260030  0.000012  1
  Pt  Pt24  1  0.260294  0.999987  0.499975  1
  Pt  Pt25  1  0.000001  0.260034  0.500001  1
  Pt  Pt26  1  0.500028  0.999983  0.740326  1
  Pt  Pt27  1  0.260319  0.500065  0.000023  1
  Pt  Pt28  1  0.000160  0.499968  0.260191  1
  Pt  Pt29  1  0.500011  0.739775  0.000021  1
  Pt  Pt30  1  0.000013  0.739663  0.499972  1
  Pt  Pt31  1  0.500026  0.999972  0.259927  1
  Pt  Pt32  1  0.739773  0.999986  0.499963  1
