# generated using pymatgen
data_Tb9Tm2In9Ru4
_symmetry_space_group_name_H-M   'P 1'
_cell_length_a   3.78197900
_cell_length_b   12.95609347
_cell_length_c   12.95052012
_cell_angle_alpha   112.74785839
_cell_angle_beta   90.00000000
_cell_angle_gamma   90.00000000
_symmetry_Int_Tables_number   1
_chemical_formula_structural   Tb9Tm2In9Ru4
_chemical_formula_sum   'Tb9 Tm2 In9 Ru4'
_cell_volume   585.21140143
_cell_formula_units_Z   1
loop_
 _symmetry_equiv_pos_site_id
 _symmetry_equiv_pos_as_xyz
  1  'x, y, z'
loop_
 _atom_site_type_symbol
 _atom_site_label
 _atom_site_symmetry_multiplicity
 _atom_site_fract_x
 _atom_site_fract_y
 _atom_site_fract_z
 _atom_site_occupancy
  Tb  Tb0  1  0.000000  0.581738  0.917364  1
  Tb  Tb1  1  0.000000  0.418262  0.082636  1
  Tb  Tb2  1  0.000000  0.161449  0.837553  1
  Tb  Tb3  1  0.000000  0.838551  0.162447  1
  Tb  Tb4  1  0.000000  0.373730  0.625548  1
  Tb  Tb5  1  0.000000  0.626270  0.374452  1
  Tb  Tb6  1  0.000000  0.690708  0.690064  1
  Tb  Tb7  1  0.000000  0.309292  0.309936  1
  Tb  Tb8  1  0.000000  0.000000  0.000000  1
  Tm  Tm9  1  0.000000  0.915693  0.581404  1
  Tm  Tm10  1  0.000000  0.084307  0.418596  1
  In  In11  1  0.500000  0.155489  0.630605  1
  In  In12  1  0.500000  0.844511  0.369395  1
  In  In13  1  0.500000  0.631974  0.157165  1
  In  In14  1  0.500000  0.368026  0.842835  1
  In  In15  1  0.500000  0.925837  0.779368  1
  In  In16  1  0.500000  0.074163  0.220632  1
  In  In17  1  0.500000  0.780592  0.925691  1
  In  In18  1  0.500000  0.219408  0.074309  1
  In  In19  1  0.500000  0.500000  0.500000  1
  Ru  Ru20  1  0.500000  0.748314  0.550787  1
  Ru  Ru21  1  0.500000  0.251686  0.449213  1
  Ru  Ru22  1  0.500000  0.550893  0.747119  1
  Ru  Ru23  1  0.500000  0.449107  0.252881  1
