# generated using pymatgen
data_Y2Er4Al24IrOs6Rh
_symmetry_space_group_name_H-M   'P 1'
_cell_length_a   8.78411063
_cell_length_b   8.77802847
_cell_length_c   9.57566052
_cell_angle_alpha   89.96380239
_cell_angle_beta   90.02915041
_cell_angle_gamma   119.49452364
_symmetry_Int_Tables_number   1
_chemical_formula_structural   Y2Er4Al24IrOs6Rh
_chemical_formula_sum   'Y2 Er4 Al24 Ir1 Os6 Rh1'
_cell_volume   642.66357216
_cell_formula_units_Z   1
loop_
 _symmetry_equiv_pos_site_id
 _symmetry_equiv_pos_as_xyz
  1  'x, y, z'
loop_
 _atom_site_type_symbol
 _atom_site_label
 _atom_site_symmetry_multiplicity
 _atom_site_fract_x
 _atom_site_fract_y
 _atom_site_fract_z
 _atom_site_occupancy
  Y  Y0  1  0.186682  0.384496  0.251198  1
  Y  Y1  1  0.813318  0.615504  0.748802  1
  Er  Er2  1  0.612220  0.812107  0.250504  1
  Er  Er3  1  0.387780  0.187893  0.749496  1
  Er  Er4  1  0.195862  0.804069  0.250439  1
  Er  Er5  1  0.804138  0.195931  0.749561  1
  Al  Al6  1  0.332846  0.666757  0.023789  1
  Al  Al7  1  0.667154  0.333243  0.976211  1
  Al  Al8  1  0.667362  0.332812  0.523265  1
  Al  Al9  1  0.332638  0.667188  0.476735  1
  Al  Al10  1  0.163589  0.326651  0.576842  1
  Al  Al11  1  0.836411  0.673349  0.423158  1
  Al  Al12  1  0.673140  0.836708  0.575734  1
  Al  Al13  1  0.837378  0.673724  0.077362  1
  Al  Al14  1  0.326860  0.163292  0.424266  1
  Al  Al15  1  0.162622  0.326276  0.922638  1
  Al  Al16  1  0.165169  0.835543  0.573959  1
  Al  Al17  1  0.326419  0.162395  0.076461  1
  Al  Al18  1  0.834831  0.164457  0.426041  1
  Al  Al19  1  0.673581  0.837605  0.923539  1
  Al  Al20  1  0.834976  0.164475  0.073923  1
  Al  Al21  1  0.165024  0.835525  0.926077  1
  Al  Al22  1  0.561000  0.124816  0.250013  1
  Al  Al23  1  0.439000  0.875184  0.749987  1
  Al  Al24  1  0.875006  0.438919  0.249992  1
  Al  Al25  1  0.124994  0.561081  0.750008  1
  Al  Al26  1  0.560729  0.439611  0.249372  1
  Al  Al27  1  0.439271  0.560389  0.750628  1
  Al  Al28  1  0.997965  0.996906  0.250041  1
  Al  Al29  1  0.002035  0.003094  0.749959  1
  Ir  Ir30  1  0.500000  0.500000  0.500000  1
  Os  Os31  1  0.500000  0.000000  0.000000  1
  Os  Os32  1  0.000000  0.500000  0.000000  1
  Os  Os33  1  0.500000  0.000000  0.500000  1
  Os  Os34  1  0.000000  0.500000  0.500000  1
  Os  Os35  1  0.000000  0.000000  0.000000  1
  Os  Os36  1  0.000000  0.000000  0.500000  1
  Rh  Rh37  1  0.500000  0.500000  0.000000  1
