# generated using pymatgen
data_SmHoB6Os
_symmetry_space_group_name_H-M   'P 1'
_cell_length_a   3.67956800
_cell_length_b   9.18666700
_cell_length_c   11.59445000
_cell_angle_alpha   90.00000000
_cell_angle_beta   90.00000000
_cell_angle_gamma   90.00000000
_symmetry_Int_Tables_number   1
_chemical_formula_structural   SmHoB6Os
_chemical_formula_sum   'Sm4 Ho4 B24 Os4'
_cell_volume   391.92679821
_cell_formula_units_Z   4
loop_
 _symmetry_equiv_pos_site_id
 _symmetry_equiv_pos_as_xyz
  1  'x, y, z'
loop_
 _atom_site_type_symbol
 _atom_site_label
 _atom_site_symmetry_multiplicity
 _atom_site_fract_x
 _atom_site_fract_y
 _atom_site_fract_z
 _atom_site_occupancy
  Sm  Sm0  1  0.000000  0.322655  0.414168  1
  Sm  Sm1  1  0.000000  0.677345  0.585832  1
  Sm  Sm2  1  0.000000  0.822655  0.085832  1
  Sm  Sm3  1  0.000000  0.177345  0.914168  1
  Ho  Ho4  1  0.000000  0.944105  0.372572  1
  Ho  Ho5  1  0.000000  0.055895  0.627428  1
  Ho  Ho6  1  0.000000  0.444105  0.127428  1
  Ho  Ho7  1  0.000000  0.555895  0.872572  1
  B  B8  1  0.500000  0.555247  0.431476  1
  B  B9  1  0.500000  0.444753  0.568524  1
  B  B10  1  0.500000  0.055247  0.068524  1
  B  B11  1  0.500000  0.944753  0.931476  1
  B  B12  1  0.500000  0.748930  0.418323  1
  B  B13  1  0.500000  0.251070  0.581677  1
  B  B14  1  0.500000  0.248930  0.081677  1
  B  B15  1  0.500000  0.751070  0.918323  1
  B  B16  1  0.500000  0.790718  0.266837  1
  B  B17  1  0.500000  0.209282  0.733163  1
  B  B18  1  0.500000  0.290718  0.233163  1
  B  B19  1  0.500000  0.709282  0.766837  1
  B  B20  1  0.500000  0.631231  0.185345  1
  B  B21  1  0.500000  0.368769  0.814655  1
  B  B22  1  0.500000  0.131231  0.314655  1
  B  B23  1  0.500000  0.868769  0.685345  1
  B  B24  1  0.500000  0.984840  0.213791  1
  B  B25  1  0.500000  0.015160  0.786209  1
  B  B26  1  0.500000  0.484840  0.286209  1
  B  B27  1  0.500000  0.515160  0.713791  1
  B  B28  1  0.500000  0.604455  0.028738  1
  B  B29  1  0.500000  0.395545  0.971262  1
  B  B30  1  0.500000  0.104455  0.471262  1
  B  B31  1  0.500000  0.895545  0.528738  1
  Os  Os32  1  0.000000  0.638480  0.320272  1
  Os  Os33  1  0.000000  0.361520  0.679728  1
  Os  Os34  1  0.000000  0.138480  0.179728  1
  Os  Os35  1  0.000000  0.861520  0.820272  1
