# generated using pymatgen
data_Ho5AlIrO12
_symmetry_space_group_name_H-M   'P 1'
_cell_length_a   6.77612112
_cell_length_b   6.77612204
_cell_length_c   7.23205200
_cell_angle_alpha   74.47855226
_cell_angle_beta   74.47854133
_cell_angle_gamma   50.65077363
_symmetry_Int_Tables_number   1
_chemical_formula_structural   Ho5AlIrO12
_chemical_formula_sum   'Ho5 Al1 Ir1 O12'
_cell_volume   245.27375157
_cell_formula_units_Z   1
loop_
 _symmetry_equiv_pos_site_id
 _symmetry_equiv_pos_as_xyz
  1  'x, y, z'
loop_
 _atom_site_type_symbol
 _atom_site_label
 _atom_site_symmetry_multiplicity
 _atom_site_fract_x
 _atom_site_fract_y
 _atom_site_fract_z
 _atom_site_occupancy
  Ho  Ho0  1  0.694174  0.691299  0.668088  1
  Ho  Ho1  1  0.685774  0.709141  0.140618  1
  Ho  Ho2  1  0.996576  0.003424  0.000000  1
  Ho  Ho3  1  0.290859  0.314226  0.859382  1
  Ho  Ho4  1  0.308701  0.305826  0.331912  1
  Al  Al5  1  0.251815  0.748185  0.500000  1
  Ir  Ir6  1  0.761594  0.238406  0.500000  1
  O  O7  1  0.399120  0.908530  0.923478  1
  O  O8  1  0.575755  0.095209  0.583740  1
  O  O9  1  0.904791  0.424245  0.416260  1
  O  O10  1  0.091470  0.600880  0.076522  1
  O  O11  1  0.008131  0.991733  0.319471  1
  O  O12  1  0.503762  0.496632  0.682475  1
  O  O13  1  0.897559  0.404853  0.927491  1
  O  O14  1  0.101197  0.578061  0.581040  1
  O  O15  1  0.421939  0.898803  0.418960  1
  O  O16  1  0.595147  0.102441  0.072509  1
  O  O17  1  0.503368  0.496238  0.317525  1
  O  O18  1  0.008267  0.991869  0.680529  1
