# generated using pymatgen
data_La3TmPtSe7
_symmetry_space_group_name_H-M   'P 1'
_cell_length_a   4.09024305
_cell_length_b   8.39622877
_cell_length_c   8.64368866
_cell_angle_alpha   90.02500248
_cell_angle_beta   89.99851480
_cell_angle_gamma   89.99761269
_symmetry_Int_Tables_number   1
_chemical_formula_structural   La3TmPtSe7
_chemical_formula_sum   'La3 Tm1 Pt1 Se7'
_cell_volume   296.84685482
_cell_formula_units_Z   1
loop_
 _symmetry_equiv_pos_site_id
 _symmetry_equiv_pos_as_xyz
  1  'x, y, z'
loop_
 _atom_site_type_symbol
 _atom_site_label
 _atom_site_symmetry_multiplicity
 _atom_site_fract_x
 _atom_site_fract_y
 _atom_site_fract_z
 _atom_site_occupancy
  La  La0  1  0.250682  0.625490  0.748071  1
  La  La1  1  0.749963  0.871092  0.273567  1
  La  La2  1  0.749737  0.378226  0.274379  1
  Tm  Tm3  1  0.250346  0.125332  0.698781  1
  Pt  Pt4  1  0.749200  0.125123  0.992442  1
  Se  Se5  1  0.249467  0.315187  0.991197  1
  Se  Se6  1  0.750318  0.624210  0.006754  1
  Se  Se7  1  0.750450  0.886744  0.638294  1
  Se  Se8  1  0.249997  0.624963  0.376929  1
  Se  Se9  1  0.249532  0.935194  0.990542  1
  Se  Se10  1  0.750311  0.363797  0.638578  1
  Se  Se11  1  0.249998  0.124642  0.370467  1
