# generated using pymatgen
data_Dy10Si3Pb3O2
_symmetry_space_group_name_H-M   'P 1'
_cell_length_a   8.85337651
_cell_length_b   8.85337718
_cell_length_c   8.81063500
_cell_angle_alpha   126.35962194
_cell_angle_beta   126.35961709
_cell_angle_gamma   79.63148210
_symmetry_Int_Tables_number   1
_chemical_formula_structural   Dy10Si3Pb3O2
_chemical_formula_sum   'Dy10 Si3 Pb3 O2'
_cell_volume   431.92850776
_cell_formula_units_Z   1
loop_
 _symmetry_equiv_pos_site_id
 _symmetry_equiv_pos_as_xyz
  1  'x, y, z'
loop_
 _atom_site_type_symbol
 _atom_site_label
 _atom_site_symmetry_multiplicity
 _atom_site_fract_x
 _atom_site_fract_y
 _atom_site_fract_z
 _atom_site_occupancy
  Dy  Dy0  1  0.008850  0.209111  0.500000  1
  Dy  Dy1  1  0.792836  0.303110  0.807169  1
  Dy  Dy2  1  0.504059  0.014334  0.807169  1
  Dy  Dy3  1  0.485666  0.995941  0.192831  1
  Dy  Dy4  1  0.000879  0.786091  0.500000  1
  Dy  Dy5  1  0.495163  0.491836  0.987000  1
  Dy  Dy6  1  0.196890  0.707164  0.192831  1
  Dy  Dy7  1  0.713909  0.499121  0.500000  1
  Dy  Dy8  1  0.290889  0.491150  0.500000  1
  Dy  Dy9  1  0.008164  0.004837  0.013000  1
  Si  Si10  1  0.854034  0.353722  0.207756  1
  Si  Si11  1  0.146278  0.645966  0.792244  1
  Si  Si12  1  0.354358  0.145642  0.500000  1
  Pb  Pb13  1  0.748958  0.751042  0.000000  1
  Pb  Pb14  1  0.645717  0.854283  0.500000  1
  Pb  Pb15  1  0.248958  0.251042  0.000000  1
  O  O16  1  0.751189  0.246795  0.500000  1
  O  O17  1  0.253205  0.748811  0.500000  1
