# generated using pymatgen
data_Ho3Lu9(CoTc)2
_symmetry_space_group_name_H-M   'P 1'
_cell_length_a   6.17359800
_cell_length_b   7.13114600
_cell_length_c   8.94213200
_cell_angle_alpha   90.00000000
_cell_angle_beta   90.00000000
_cell_angle_gamma   90.00347402
_symmetry_Int_Tables_number   1
_chemical_formula_structural   Ho3Lu9(CoTc)2
_chemical_formula_sum   'Ho3 Lu9 Co2 Tc2'
_cell_volume   393.67582900
_cell_formula_units_Z   1
loop_
 _symmetry_equiv_pos_site_id
 _symmetry_equiv_pos_as_xyz
  1  'x, y, z'
loop_
 _atom_site_type_symbol
 _atom_site_label
 _atom_site_symmetry_multiplicity
 _atom_site_fract_x
 _atom_site_fract_y
 _atom_site_fract_z
 _atom_site_occupancy
  Ho  Ho0  1  0.139540  0.039006  0.250000  1
  Ho  Ho1  1  0.877387  0.954996  0.750000  1
  Ho  Ho2  1  0.639292  0.460634  0.750000  1
  Lu  Lu3  1  0.664139  0.172883  0.063630  1
  Lu  Lu4  1  0.375975  0.544694  0.250000  1
  Lu  Lu5  1  0.825326  0.681067  0.434250  1
  Lu  Lu6  1  0.326950  0.817718  0.935405  1
  Lu  Lu7  1  0.165221  0.328926  0.562521  1
  Lu  Lu8  1  0.664139  0.172883  0.436370  1
  Lu  Lu9  1  0.165221  0.328926  0.937479  1
  Lu  Lu10  1  0.326950  0.817718  0.564595  1
  Lu  Lu11  1  0.825326  0.681067  0.065750  1
  Co  Co12  1  0.539689  0.882816  0.250000  1
  Co  Co13  1  0.040670  0.615806  0.750000  1
  Tc  Tc14  1  0.962640  0.390329  0.250000  1
  Tc  Tc15  1  0.461534  0.110529  0.750000  1
