# generated using pymatgen
data_Ho2B6IrRh8
_symmetry_space_group_name_H-M   'P 1'
_cell_length_a   5.59878700
_cell_length_b   5.60898625
_cell_length_c   8.60230000
_cell_angle_alpha   90.00000000
_cell_angle_beta   90.00000000
_cell_angle_gamma   119.93987267
_symmetry_Int_Tables_number   1
_chemical_formula_structural   Ho2B6IrRh8
_chemical_formula_sum   'Ho2 B6 Ir1 Rh8'
_cell_volume   234.09188023
_cell_formula_units_Z   1
loop_
 _symmetry_equiv_pos_site_id
 _symmetry_equiv_pos_as_xyz
  1  'x, y, z'
loop_
 _atom_site_type_symbol
 _atom_site_label
 _atom_site_symmetry_multiplicity
 _atom_site_fract_x
 _atom_site_fract_y
 _atom_site_fract_z
 _atom_site_occupancy
  Ho  Ho0  1  0.000000  0.000000  0.703456  1
  Ho  Ho1  1  0.000000  0.000000  0.296544  1
  B  B2  1  0.666410  0.332818  0.000000  1
  B  B3  1  0.333590  0.667182  0.000000  1
  B  B4  1  0.666417  0.332833  0.668016  1
  B  B5  1  0.333583  0.667167  0.668016  1
  B  B6  1  0.333583  0.667167  0.331984  1
  B  B7  1  0.666417  0.332833  0.331984  1
  Ir  Ir8  1  0.500000  0.000000  0.500000  1
  Rh  Rh9  1  0.500000  0.500000  0.835981  1
  Rh  Rh10  1  0.500000  0.000000  0.836410  1
  Rh  Rh11  1  0.000000  0.500000  0.835981  1
  Rh  Rh12  1  0.500000  0.500000  0.164019  1
  Rh  Rh13  1  0.500000  0.000000  0.163590  1
  Rh  Rh14  1  0.000000  0.500000  0.164019  1
  Rh  Rh15  1  0.500000  0.500000  0.500000  1
  Rh  Rh16  1  0.000000  0.500000  0.500000  1
