# generated using pymatgen
data_GdAl2Pd5
_symmetry_space_group_name_H-M   'P 1'
_cell_length_a   4.16828767
_cell_length_b   4.16828684
_cell_length_c   8.06574685
_cell_angle_alpha   104.97480500
_cell_angle_beta   104.97480032
_cell_angle_gamma   90.00000950
_symmetry_Int_Tables_number   1
_chemical_formula_structural   GdAl2Pd5
_chemical_formula_sum   'Gd1 Al2 Pd5'
_cell_volume   130.44737240
_cell_formula_units_Z   1
loop_
 _symmetry_equiv_pos_site_id
 _symmetry_equiv_pos_as_xyz
  1  'x, y, z'
loop_
 _atom_site_type_symbol
 _atom_site_label
 _atom_site_symmetry_multiplicity
 _atom_site_fract_x
 _atom_site_fract_y
 _atom_site_fract_z
 _atom_site_occupancy
  Gd  Gd0  1  0.000000  0.000000  0.000000  1
  Al  Al1  1  0.746621  0.746621  0.493241  1
  Al  Al2  1  0.253380  0.253380  0.506759  1
  Pd  Pd3  1  0.500001  0.500001  0.000000  1
  Pd  Pd4  1  0.645212  0.145211  0.290422  1
  Pd  Pd5  1  0.145211  0.645212  0.290422  1
  Pd  Pd6  1  0.854789  0.354789  0.709577  1
  Pd  Pd7  1  0.354789  0.854789  0.709577  1
