# generated using pymatgen
data_Ho4Hf5Sc(Si5Ir2)4
_symmetry_space_group_name_H-M   'P 1'
_cell_length_a   12.44390800
_cell_length_b   12.44390800
_cell_length_c   4.14303900
_cell_angle_alpha   90.00000000
_cell_angle_beta   90.00000000
_cell_angle_gamma   90.00000000
_symmetry_Int_Tables_number   1
_chemical_formula_structural   Ho4Hf5Sc(Si5Ir2)4
_chemical_formula_sum   'Ho4 Hf5 Sc1 Si20 Ir8'
_cell_volume   641.55309546
_cell_formula_units_Z   1
loop_
 _symmetry_equiv_pos_site_id
 _symmetry_equiv_pos_as_xyz
  1  'x, y, z'
loop_
 _atom_site_type_symbol
 _atom_site_label
 _atom_site_symmetry_multiplicity
 _atom_site_fract_x
 _atom_site_fract_y
 _atom_site_fract_z
 _atom_site_occupancy
  Ho  Ho0  1  0.884409  0.384322  0.500000  1
  Ho  Ho1  1  0.115591  0.615678  0.500000  1
  Ho  Ho2  1  0.384322  0.115591  0.500000  1
  Ho  Ho3  1  0.615678  0.884409  0.500000  1
  Hf  Hf4  1  0.500000  0.500000  0.000000  1
  Hf  Hf5  1  0.674608  0.175064  0.500000  1
  Hf  Hf6  1  0.325392  0.824936  0.500000  1
  Hf  Hf7  1  0.175064  0.325392  0.500000  1
  Hf  Hf8  1  0.824936  0.674608  0.500000  1
  Sc  Sc9  1  0.000000  0.000000  0.000000  1
  Si  Si10  1  0.566505  0.067046  0.000000  1
  Si  Si11  1  0.433495  0.932954  0.000000  1
  Si  Si12  1  0.067046  0.433495  0.000000  1
  Si  Si13  1  0.932954  0.566505  0.000000  1
  Si  Si14  1  0.665262  0.701730  0.000000  1
  Si  Si15  1  0.334738  0.298270  0.000000  1
  Si  Si16  1  0.163305  0.800892  0.000000  1
  Si  Si17  1  0.836695  0.199108  0.000000  1
  Si  Si18  1  0.298270  0.665262  0.000000  1
  Si  Si19  1  0.701730  0.334738  0.000000  1
  Si  Si20  1  0.199108  0.163305  0.000000  1
  Si  Si21  1  0.800892  0.836695  0.000000  1
  Si  Si22  1  0.650963  0.508149  0.500000  1
  Si  Si23  1  0.349037  0.491851  0.500000  1
  Si  Si24  1  0.151481  0.992401  0.500000  1
  Si  Si25  1  0.848519  0.007599  0.500000  1
  Si  Si26  1  0.491851  0.650963  0.500000  1
  Si  Si27  1  0.508149  0.349037  0.500000  1
  Si  Si28  1  0.007599  0.151481  0.500000  1
  Si  Si29  1  0.992401  0.848519  0.500000  1
  Ir  Ir30  1  0.742396  0.521936  0.000000  1
  Ir  Ir31  1  0.257604  0.478064  0.000000  1
  Ir  Ir32  1  0.244351  0.977964  0.000000  1
  Ir  Ir33  1  0.755649  0.022036  0.000000  1
  Ir  Ir34  1  0.478064  0.742396  0.000000  1
  Ir  Ir35  1  0.521936  0.257604  0.000000  1
  Ir  Ir36  1  0.022036  0.244351  0.000000  1
  Ir  Ir37  1  0.977964  0.755649  0.000000  1
