# generated using pymatgen
data_SrY3(ZnSn)4
_symmetry_space_group_name_H-M   'P 1'
_cell_length_a   4.55396900
_cell_length_b   4.55396939
_cell_length_c   16.42231700
_cell_angle_alpha   90.00000000
_cell_angle_beta   90.00000000
_cell_angle_gamma   120.00000445
_symmetry_Int_Tables_number   1
_chemical_formula_structural   SrY3(ZnSn)4
_chemical_formula_sum   'Sr1 Y3 Zn4 Sn4'
_cell_volume   294.94784000
_cell_formula_units_Z   1
loop_
 _symmetry_equiv_pos_site_id
 _symmetry_equiv_pos_as_xyz
  1  'x, y, z'
loop_
 _atom_site_type_symbol
 _atom_site_label
 _atom_site_symmetry_multiplicity
 _atom_site_fract_x
 _atom_site_fract_y
 _atom_site_fract_z
 _atom_site_occupancy
  Sr  Sr0  1  0.000000  0.000000  0.000000  1
  Y  Y1  1  0.000000  0.000000  0.259106  1
  Y  Y2  1  0.000000  0.000000  0.500000  1
  Y  Y3  1  0.000000  0.000000  0.740894  1
  Zn  Zn4  1  0.666667  0.333333  0.825993  1
  Zn  Zn5  1  0.333333  0.666667  0.344914  1
  Zn  Zn6  1  0.666667  0.333333  0.655086  1
  Zn  Zn7  1  0.333333  0.666667  0.174007  1
  Sn  Sn8  1  0.333333  0.666667  0.607634  1
  Sn  Sn9  1  0.666667  0.333333  0.130698  1
  Sn  Sn10  1  0.666667  0.333333  0.392366  1
  Sn  Sn11  1  0.333333  0.666667  0.869302  1
