# generated using pymatgen
data_Yb15Er3(TmPt8)2
_symmetry_space_group_name_H-M   'P 1'
_cell_length_a   7.45602445
_cell_length_b   7.53743523
_cell_length_c   14.51701807
_cell_angle_alpha   90.06118658
_cell_angle_beta   90.01649638
_cell_angle_gamma   90.01673787
_symmetry_Int_Tables_number   1
_chemical_formula_structural   Yb15Er3(TmPt8)2
_chemical_formula_sum   'Yb15 Er3 Tm2 Pt16'
_cell_volume   815.84573999
_cell_formula_units_Z   1
loop_
 _symmetry_equiv_pos_site_id
 _symmetry_equiv_pos_as_xyz
  1  'x, y, z'
loop_
 _atom_site_type_symbol
 _atom_site_label
 _atom_site_symmetry_multiplicity
 _atom_site_fract_x
 _atom_site_fract_y
 _atom_site_fract_z
 _atom_site_occupancy
  Yb  Yb0  1  0.851868  0.666500  0.122092  1
  Yb  Yb1  1  0.647355  0.166901  0.878124  1
  Yb  Yb2  1  0.146871  0.332986  0.621501  1
  Yb  Yb3  1  0.490618  0.675055  0.595477  1
  Yb  Yb4  1  0.990434  0.823581  0.905719  1
  Yb  Yb5  1  0.510179  0.322402  0.093535  1
  Yb  Yb6  1  0.007455  0.178246  0.405587  1
  Yb  Yb7  1  0.508963  0.322071  0.404610  1
  Yb  Yb8  1  0.007380  0.180607  0.094060  1
  Yb  Yb9  1  0.491314  0.679496  0.904520  1
  Yb  Yb10  1  0.991195  0.819561  0.596098  1
  Yb  Yb11  1  0.808719  0.506201  0.750432  1
  Yb  Yb12  1  0.308108  0.992284  0.750150  1
  Yb  Yb13  1  0.189610  0.489782  0.248994  1
  Yb  Yb14  1  0.694932  0.008548  0.249073  1
  Er  Er15  1  0.648439  0.162041  0.623137  1
  Er  Er16  1  0.148977  0.336215  0.876282  1
  Er  Er17  1  0.352460  0.835985  0.123626  1
  Tm  Tm18  1  0.852606  0.664556  0.376780  1
  Tm  Tm19  1  0.352233  0.833629  0.377201  1
  Pt  Pt20  1  0.684154  0.958589  0.458703  1
  Pt  Pt21  1  0.189592  0.539738  0.039448  1
  Pt  Pt22  1  0.310317  0.040411  0.960871  1
  Pt  Pt23  1  0.812364  0.458501  0.538729  1
  Pt  Pt24  1  0.322900  0.030185  0.541034  1
  Pt  Pt25  1  0.827147  0.467048  0.957046  1
  Pt  Pt26  1  0.674075  0.966786  0.043440  1
  Pt  Pt27  1  0.177641  0.542103  0.456889  1
  Pt  Pt28  1  0.442899  0.378888  0.747021  1
  Pt  Pt29  1  0.942658  0.119322  0.751752  1
  Pt  Pt30  1  0.553831  0.623132  0.252051  1
  Pt  Pt31  1  0.060284  0.879174  0.253799  1
  Pt  Pt32  1  0.679125  0.862912  0.747067  1
  Pt  Pt33  1  0.179214  0.636189  0.753280  1
  Pt  Pt34  1  0.325923  0.134302  0.249412  1
  Pt  Pt35  1  0.818162  0.366076  0.252460  1
