# generated using pymatgen
data_Rb3YBi2
_symmetry_space_group_name_H-M   'P 1'
_cell_length_a   10.41155157
_cell_length_b   10.41155237
_cell_length_c   10.41155233
_cell_angle_alpha   128.07119615
_cell_angle_beta   70.67972568
_cell_angle_gamma   135.57834883
_symmetry_Int_Tables_number   1
_chemical_formula_structural   Rb3YBi2
_chemical_formula_sum   'Rb6 Y2 Bi4'
_cell_volume   609.47213695
_cell_formula_units_Z   2
loop_
 _symmetry_equiv_pos_site_id
 _symmetry_equiv_pos_as_xyz
  1  'x, y, z'
loop_
 _atom_site_type_symbol
 _atom_site_label
 _atom_site_symmetry_multiplicity
 _atom_site_fract_x
 _atom_site_fract_y
 _atom_site_fract_z
 _atom_site_occupancy
  Rb  Rb0  1  0.250000  0.250000  0.000000  1
  Rb  Rb1  1  0.750000  0.750000  0.000000  1
  Rb  Rb2  1  0.314008  0.806280  0.120287  1
  Rb  Rb3  1  0.185992  0.306279  0.492272  1
  Rb  Rb4  1  0.814008  0.693721  0.507729  1
  Rb  Rb5  1  0.685992  0.193720  0.879712  1
  Y  Y6  1  0.750000  0.250000  0.500000  1
  Y  Y7  1  0.250000  0.749999  0.499999  1
  Bi  Bi8  1  0.901476  0.304064  0.205538  1
  Bi  Bi9  1  0.598524  0.804064  0.402588  1
  Bi  Bi10  1  0.401476  0.195936  0.597412  1
  Bi  Bi11  1  0.098524  0.695936  0.794461  1
