# generated using pymatgen
data_K4Ba2ZrP4
_symmetry_space_group_name_H-M   'P 1'
_cell_length_a   10.41387158
_cell_length_b   10.41387164
_cell_length_c   7.99014784
_cell_angle_alpha   89.11228801
_cell_angle_beta   89.11229005
_cell_angle_gamma   120.01081703
_symmetry_Int_Tables_number   1
_chemical_formula_structural   K4Ba2ZrP4
_chemical_formula_sum   'K8 Ba4 Zr2 P8'
_cell_volume   749.98725265
_cell_formula_units_Z   2
loop_
 _symmetry_equiv_pos_site_id
 _symmetry_equiv_pos_as_xyz
  1  'x, y, z'
loop_
 _atom_site_type_symbol
 _atom_site_label
 _atom_site_symmetry_multiplicity
 _atom_site_fract_x
 _atom_site_fract_y
 _atom_site_fract_z
 _atom_site_occupancy
  K  K0  1  0.060455  0.529044  0.615469  1
  K  K1  1  0.529044  0.060455  0.115469  1
  K  K2  1  0.274770  0.133381  0.810753  1
  K  K3  1  0.869295  0.725697  0.774427  1
  K  K4  1  0.862656  0.143671  0.792916  1
  K  K5  1  0.725697  0.869295  0.274427  1
  K  K6  1  0.133381  0.274770  0.310753  1
  K  K7  1  0.143671  0.862656  0.292916  1
  Ba  Ba8  1  0.464769  0.935563  0.608281  1
  Ba  Ba9  1  0.463068  0.525658  0.615381  1
  Ba  Ba10  1  0.935563  0.464769  0.108281  1
  Ba  Ba11  1  0.525658  0.463068  0.115381  1
  Zr  Zr12  1  0.669070  0.336052  0.511930  1
  Zr  Zr13  1  0.336052  0.669070  0.011930  1
  P  P14  1  0.669785  0.347120  0.833213  1
  P  P15  1  0.347120  0.669785  0.333213  1
  P  P16  1  0.597824  0.793168  0.883694  1
  P  P17  1  0.204106  0.398670  0.918086  1
  P  P18  1  0.199404  0.796772  0.904598  1
  P  P19  1  0.398670  0.204106  0.418086  1
  P  P20  1  0.793168  0.597824  0.383694  1
  P  P21  1  0.796772  0.199404  0.404598  1
