# generated using pymatgen
data_Zr4V4SiP3
_symmetry_space_group_name_H-M   'P 1'
_cell_length_a   3.51166600
_cell_length_b   6.69835029
_cell_length_c   7.99246214
_cell_angle_alpha   89.87015704
_cell_angle_beta   90.00000000
_cell_angle_gamma   90.00000000
_symmetry_Int_Tables_number   1
_chemical_formula_structural   Zr4V4SiP3
_chemical_formula_sum   'Zr4 V4 Si1 P3'
_cell_volume   188.00116074
_cell_formula_units_Z   1
loop_
 _symmetry_equiv_pos_site_id
 _symmetry_equiv_pos_as_xyz
  1  'x, y, z'
loop_
 _atom_site_type_symbol
 _atom_site_label
 _atom_site_symmetry_multiplicity
 _atom_site_fract_x
 _atom_site_fract_y
 _atom_site_fract_z
 _atom_site_occupancy
  Zr  Zr0  1  0.250000  0.038148  0.829996  1
  Zr  Zr1  1  0.750000  0.963383  0.166048  1
  Zr  Zr2  1  0.250000  0.538400  0.670785  1
  Zr  Zr3  1  0.750000  0.455826  0.330768  1
  V  V4  1  0.750000  0.371135  0.941906  1
  V  V5  1  0.250000  0.626680  0.054704  1
  V  V6  1  0.750000  0.874306  0.561492  1
  V  V7  1  0.250000  0.131268  0.443273  1
  Si  Si8  1  0.250000  0.762130  0.364686  1
  P  P9  1  0.750000  0.238788  0.636466  1
  P  P10  1  0.250000  0.262983  0.135643  1
  P  P11  1  0.750000  0.736953  0.864232  1
