# generated using pymatgen
data_La2Tb3Nb3(Co4P3)4
_symmetry_space_group_name_H-M   'P 1'
_cell_length_a   12.31444100
_cell_length_b   12.31444098
_cell_length_c   3.73351000
_cell_angle_alpha   90.00000000
_cell_angle_beta   90.00000000
_cell_angle_gamma   119.99999738
_symmetry_Int_Tables_number   1
_chemical_formula_structural   La2Tb3Nb3(Co4P3)4
_chemical_formula_sum   'La2 Tb3 Nb3 Co16 P12'
_cell_volume   490.31746822
_cell_formula_units_Z   1
loop_
 _symmetry_equiv_pos_site_id
 _symmetry_equiv_pos_as_xyz
  1  'x, y, z'
loop_
 _atom_site_type_symbol
 _atom_site_label
 _atom_site_symmetry_multiplicity
 _atom_site_fract_x
 _atom_site_fract_y
 _atom_site_fract_z
 _atom_site_occupancy
  La  La0  1  0.333333  0.666667  0.000000  1
  La  La1  1  0.666667  0.333333  0.000000  1
  Tb  Tb2  1  0.815719  0.000000  0.500000  1
  Tb  Tb3  1  0.000000  0.815719  0.500000  1
  Tb  Tb4  1  0.184281  0.184281  0.500000  1
  Nb  Nb5  1  0.442850  0.000000  0.000000  1
  Nb  Nb6  1  0.000000  0.442850  0.000000  1
  Nb  Nb7  1  0.557150  0.557150  0.000000  1
  Co  Co8  1  0.276365  0.000000  0.500000  1
  Co  Co9  1  0.000000  0.276365  0.500000  1
  Co  Co10  1  0.723635  0.723635  0.500000  1
  Co  Co11  1  0.629547  0.804979  0.000000  1
  Co  Co12  1  0.195021  0.824568  0.000000  1
  Co  Co13  1  0.175432  0.370453  0.000000  1
  Co  Co14  1  0.370453  0.175432  0.000000  1
  Co  Co15  1  0.804979  0.629547  0.000000  1
  Co  Co16  1  0.824568  0.195021  0.000000  1
  Co  Co17  1  0.522793  0.876074  0.500000  1
  Co  Co18  1  0.123926  0.646719  0.500000  1
  Co  Co19  1  0.353281  0.477207  0.500000  1
  Co  Co20  1  0.477207  0.353281  0.500000  1
  Co  Co21  1  0.876074  0.522793  0.500000  1
  Co  Co22  1  0.646719  0.123926  0.500000  1
  Co  Co23  1  0.000000  0.000000  0.000000  1
  P  P24  1  0.177112  0.000000  0.000000  1
  P  P25  1  0.000000  0.177112  0.000000  1
  P  P26  1  0.822888  0.822888  0.000000  1
  P  P27  1  0.527608  0.691651  0.500000  1
  P  P28  1  0.308349  0.835957  0.500000  1
  P  P29  1  0.164043  0.472392  0.500000  1
  P  P30  1  0.472392  0.164043  0.500000  1
  P  P31  1  0.691651  0.527608  0.500000  1
  P  P32  1  0.835957  0.308349  0.500000  1
  P  P33  1  0.642323  0.000000  0.000000  1
  P  P34  1  0.000000  0.642323  0.000000  1
  P  P35  1  0.357677  0.357677  0.000000  1
