# generated using pymatgen
data_KMn4(SbO4)3
_symmetry_space_group_name_H-M   'P 1'
_cell_length_a   7.00330760
_cell_length_b   7.00320990
_cell_length_c   7.00323703
_cell_angle_alpha   107.86909160
_cell_angle_beta   107.86925657
_cell_angle_gamma   107.87086618
_symmetry_Int_Tables_number   1
_chemical_formula_structural   KMn4(SbO4)3
_chemical_formula_sum   'K1 Mn4 Sb3 O12'
_cell_volume   278.98709889
_cell_formula_units_Z   1
loop_
 _symmetry_equiv_pos_site_id
 _symmetry_equiv_pos_as_xyz
  1  'x, y, z'
loop_
 _atom_site_type_symbol
 _atom_site_label
 _atom_site_symmetry_multiplicity
 _atom_site_fract_x
 _atom_site_fract_y
 _atom_site_fract_z
 _atom_site_occupancy
  K  K0  1  0.495167  0.495180  0.495167  1
  Mn  Mn1  1  0.638887  0.025120  0.510308  1
  Mn  Mn2  1  0.025150  0.510314  0.638884  1
  Mn  Mn3  1  0.510259  0.638797  0.025132  1
  Mn  Mn4  1  0.994209  0.994206  0.994209  1
  Sb  Sb5  1  0.198252  0.065599  0.652979  1
  Sb  Sb6  1  0.652983  0.198245  0.065597  1
  Sb  Sb7  1  0.065594  0.652990  0.198247  1
  O  O8  1  0.653023  0.902967  0.962707  1
  O  O9  1  0.962711  0.653040  0.902976  1
  O  O10  1  0.721178  0.249890  0.379374  1
  O  O11  1  0.379369  0.721177  0.249884  1
  O  O12  1  0.902982  0.962713  0.653033  1
  O  O13  1  0.249881  0.379374  0.721165  1
  O  O14  1  0.119354  0.982310  0.324405  1
  O  O15  1  0.982307  0.324414  0.119353  1
  O  O16  1  0.324403  0.119365  0.982302  1
  O  O17  1  0.165989  0.740292  0.534128  1
  O  O18  1  0.740289  0.534134  0.165985  1
  O  O19  1  0.534129  0.165991  0.740283  1
