# generated using pymatgen
data_Ho4HgAs5Rh7
_symmetry_space_group_name_H-M   'P 1'
_cell_length_a   7.32261264
_cell_length_b   7.32261239
_cell_length_c   7.32261192
_cell_angle_alpha   110.16291293
_cell_angle_beta   108.09651589
_cell_angle_gamma   110.16291688
_symmetry_Int_Tables_number   1
_chemical_formula_structural   Ho4HgAs5Rh7
_chemical_formula_sum   'Ho4 Hg1 As5 Rh7'
_cell_volume   302.12679188
_cell_formula_units_Z   1
loop_
 _symmetry_equiv_pos_site_id
 _symmetry_equiv_pos_as_xyz
  1  'x, y, z'
loop_
 _atom_site_type_symbol
 _atom_site_label
 _atom_site_symmetry_multiplicity
 _atom_site_fract_x
 _atom_site_fract_y
 _atom_site_fract_z
 _atom_site_occupancy
  Ho  Ho0  1  0.479161  0.480946  0.479161  1
  Ho  Ho1  1  0.998215  0.519054  0.998215  1
  Ho  Ho2  1  0.479161  0.000000  0.998215  1
  Ho  Ho3  1  0.998215  0.000000  0.479161  1
  Hg  Hg4  1  0.716924  0.000000  0.716924  1
  As  As5  1  0.675527  0.683366  0.992162  1
  As  As6  1  0.308796  0.316634  0.992162  1
  As  As7  1  0.992162  0.683366  0.675527  1
  As  As8  1  0.992162  0.316634  0.308796  1
  As  As9  1  0.342195  0.000000  0.342195  1
  Rh  Rh10  1  0.496518  0.744733  0.241250  1
  Rh  Rh11  1  0.751785  0.255267  0.496518  1
  Rh  Rh12  1  0.241250  0.744733  0.496518  1
  Rh  Rh13  1  0.244189  0.500000  0.744189  1
  Rh  Rh14  1  0.043034  0.000000  0.043034  1
  Rh  Rh15  1  0.496518  0.255267  0.751785  1
  Rh  Rh16  1  0.744189  0.500000  0.244189  1
