# generated using pymatgen
data_PrY7(Si4Tc3)4
_symmetry_space_group_name_H-M   'P 1'
_cell_length_a   6.79927713
_cell_length_b   6.79887508
_cell_length_c   12.74947000
_cell_angle_alpha   90.00299167
_cell_angle_beta   89.98895254
_cell_angle_gamma   90.00828456
_symmetry_Int_Tables_number   1
_chemical_formula_structural   PrY7(Si4Tc3)4
_chemical_formula_sum   'Pr1 Y7 Si16 Tc12'
_cell_volume   589.37528823
_cell_formula_units_Z   1
loop_
 _symmetry_equiv_pos_site_id
 _symmetry_equiv_pos_as_xyz
  1  'x, y, z'
loop_
 _atom_site_type_symbol
 _atom_site_label
 _atom_site_symmetry_multiplicity
 _atom_site_fract_x
 _atom_site_fract_y
 _atom_site_fract_z
 _atom_site_occupancy
  Pr  Pr0  1  0.333010  0.998386  0.469658  1
  Y  Y1  1  0.004487  0.662343  0.030458  1
  Y  Y2  1  0.995131  0.336721  0.531040  1
  Y  Y3  1  0.662726  0.004200  0.969588  1
  Y  Y4  1  0.165428  0.495393  0.781391  1
  Y  Y5  1  0.837622  0.507621  0.280063  1
  Y  Y6  1  0.495607  0.165997  0.218584  1
  Y  Y7  1  0.507415  0.837704  0.718977  1
  Si  Si8  1  0.013461  0.726489  0.439130  1
  Si  Si9  1  0.976178  0.278396  0.935503  1
  Si  Si10  1  0.735835  0.015463  0.561810  1
  Si  Si11  1  0.224961  0.481163  0.185720  1
  Si  Si12  1  0.778827  0.520208  0.688327  1
  Si  Si13  1  0.478077  0.221870  0.815211  1
  Si  Si14  1  0.519312  0.774772  0.309255  1
  Si  Si15  1  0.277979  0.976869  0.064290  1
  Si  Si16  1  0.805932  0.886191  0.185605  1
  Si  Si17  1  0.308148  0.607343  0.564193  1
  Si  Si18  1  0.693520  0.385129  0.061798  1
  Si  Si19  1  0.613425  0.311640  0.436794  1
  Si  Si20  1  0.384544  0.693596  0.937597  1
  Si  Si21  1  0.110597  0.197235  0.309833  1
  Si  Si22  1  0.192698  0.112832  0.690760  1
  Si  Si23  1  0.884691  0.804702  0.814473  1
  Tc  Tc24  1  0.312421  0.487937  0.376447  1
  Tc  Tc25  1  0.812682  0.020515  0.368720  1
  Tc  Tc26  1  0.982343  0.181143  0.124944  1
  Tc  Tc27  1  0.020345  0.808680  0.632701  1
  Tc  Tc28  1  0.488297  0.316598  0.626224  1
  Tc  Tc29  1  0.178959  0.981480  0.875347  1
  Tc  Tc30  1  0.666472  0.663057  0.500475  1
  Tc  Tc31  1  0.837555  0.164597  0.751776  1
  Tc  Tc32  1  0.164444  0.836685  0.245717  1
  Tc  Tc33  1  0.335371  0.335527  0.000061  1
  Tc  Tc34  1  0.520560  0.683611  0.119963  1
  Tc  Tc35  1  0.680939  0.517905  0.877569  1
