# generated using pymatgen
data_La8Er2Os3Ru
_symmetry_space_group_name_H-M   'P 1'
_cell_length_a   6.70025199
_cell_length_b   7.31633196
_cell_length_c   8.95513578
_cell_angle_alpha   94.84344468
_cell_angle_beta   111.49973403
_cell_angle_gamma   90.01505919
_symmetry_Int_Tables_number   1
_chemical_formula_structural   La8Er2Os3Ru
_chemical_formula_sum   'La8 Er2 Os3 Ru1'
_cell_volume   406.75756118
_cell_formula_units_Z   1
loop_
 _symmetry_equiv_pos_site_id
 _symmetry_equiv_pos_as_xyz
  1  'x, y, z'
loop_
 _atom_site_type_symbol
 _atom_site_label
 _atom_site_symmetry_multiplicity
 _atom_site_fract_x
 _atom_site_fract_y
 _atom_site_fract_z
 _atom_site_occupancy
  La  La0  1  0.795867  0.591174  0.819135  1
  La  La1  1  0.977077  0.910878  0.180829  1
  La  La2  1  0.204243  0.409865  0.181981  1
  La  La3  1  0.024078  0.091424  0.819085  1
  La  La4  1  0.208560  0.681960  0.574809  1
  La  La5  1  0.635618  0.816308  0.427588  1
  La  La6  1  0.790200  0.317463  0.425144  1
  La  La7  1  0.365420  0.183017  0.572482  1
  Er  Er8  1  0.435447  0.751922  0.001125  1
  Er  Er9  1  0.567483  0.249822  0.000869  1
  Os  Os10  1  0.601838  0.926349  0.784353  1
  Os  Os11  1  0.815508  0.573508  0.213675  1
  Os  Os12  1  0.398178  0.073903  0.214983  1
  Ru  Ru13  1  0.180481  0.422408  0.783942  1
