# generated using pymatgen
data_Sr7PrCd8
_symmetry_space_group_name_H-M   'P 1'
_cell_length_a   8.15005741
_cell_length_b   8.14537523
_cell_length_c   8.02917000
_cell_angle_alpha   89.98633265
_cell_angle_beta   89.98177796
_cell_angle_gamma   90.08517922
_symmetry_Int_Tables_number   1
_chemical_formula_structural   Sr7PrCd8
_chemical_formula_sum   'Sr7 Pr1 Cd8'
_cell_volume   533.01803369
_cell_formula_units_Z   1
loop_
 _symmetry_equiv_pos_site_id
 _symmetry_equiv_pos_as_xyz
  1  'x, y, z'
loop_
 _atom_site_type_symbol
 _atom_site_label
 _atom_site_symmetry_multiplicity
 _atom_site_fract_x
 _atom_site_fract_y
 _atom_site_fract_z
 _atom_site_occupancy
  Sr  Sr0  1  0.499934  0.000048  0.247150  1
  Sr  Sr1  1  0.000053  0.499974  0.252424  1
  Sr  Sr2  1  0.000053  0.000029  0.252348  1
  Sr  Sr3  1  0.999960  0.999947  0.748185  1
  Sr  Sr4  1  0.999935  0.500020  0.747743  1
  Sr  Sr5  1  0.500058  0.500038  0.753296  1
  Sr  Sr6  1  0.500048  0.999959  0.751763  1
  Pr  Pr7  1  0.499950  0.499949  0.247880  1
  Cd  Cd8  1  0.749422  0.255203  0.004799  1
  Cd  Cd9  1  0.250716  0.744647  0.004697  1
  Cd  Cd10  1  0.739558  0.255892  0.494888  1
  Cd  Cd11  1  0.260307  0.744208  0.494972  1
  Cd  Cd12  1  0.748450  0.744604  0.007511  1
  Cd  Cd13  1  0.740518  0.744396  0.492390  1
  Cd  Cd14  1  0.259588  0.255674  0.492643  1
  Cd  Cd15  1  0.251451  0.255415  0.007308  1
