# generated using pymatgen
data_TbGd3Be4(SiO7)2
_symmetry_space_group_name_H-M   'P 1'
_cell_length_a   7.39744212
_cell_length_b   7.39744212
_cell_length_c   4.83371636
_cell_angle_alpha   90.06076788
_cell_angle_beta   89.93923212
_cell_angle_gamma   89.93808433
_symmetry_Int_Tables_number   1
_chemical_formula_structural   TbGd3Be4(SiO7)2
_chemical_formula_sum   'Tb1 Gd3 Be4 Si2 O14'
_cell_volume   264.51089909
_cell_formula_units_Z   1
loop_
 _symmetry_equiv_pos_site_id
 _symmetry_equiv_pos_as_xyz
  1  'x, y, z'
loop_
 _atom_site_type_symbol
 _atom_site_label
 _atom_site_symmetry_multiplicity
 _atom_site_fract_x
 _atom_site_fract_y
 _atom_site_fract_z
 _atom_site_occupancy
  Tb  Tb0  1  0.840515  0.659485  0.507670  1
  Gd  Gd1  1  0.159083  0.340917  0.506140  1
  Gd  Gd2  1  0.659817  0.159582  0.493742  1
  Gd  Gd3  1  0.340418  0.840183  0.493742  1
  Be  Be4  1  0.135205  0.636557  0.039161  1
  Be  Be5  1  0.637309  0.862691  0.961169  1
  Be  Be6  1  0.363654  0.136346  0.961021  1
  Be  Be7  1  0.863443  0.364795  0.039161  1
  Si  Si8  1  0.500698  0.500213  0.999577  1
  Si  Si9  1  0.999787  0.999302  0.999577  1
  O  O10  1  0.919311  0.163850  0.194094  1
  O  O11  1  0.837312  0.917957  0.802377  1
  O  O12  1  0.163566  0.080006  0.804406  1
  O  O13  1  0.079242  0.836345  0.197120  1
  O  O14  1  0.419994  0.336434  0.804406  1
  O  O15  1  0.582043  0.662688  0.802377  1
  O  O16  1  0.663655  0.420758  0.197120  1
  O  O17  1  0.336150  0.580689  0.194094  1
  O  O18  1  0.643247  0.856753  0.290200  1
  O  O19  1  0.139110  0.641627  0.709729  1
  O  O20  1  0.858373  0.360890  0.709729  1
  O  O21  1  0.358923  0.141077  0.290303  1
  O  O22  1  0.500518  0.999482  0.823284  1
  O  O23  1  0.998625  0.501375  0.179802  1
