# generated using pymatgen
data_Ba3NpScSe6
_symmetry_space_group_name_H-M   'P 1'
_cell_length_a   8.77055221
_cell_length_b   8.77055150
_cell_length_c   8.77055260
_cell_angle_alpha   92.46048106
_cell_angle_beta   92.46047955
_cell_angle_gamma   92.46047362
_symmetry_Int_Tables_number   1
_chemical_formula_structural   Ba3NpScSe6
_chemical_formula_sum   'Ba6 Np2 Sc2 Se12'
_cell_volume   672.73233216
_cell_formula_units_Z   2
loop_
 _symmetry_equiv_pos_site_id
 _symmetry_equiv_pos_as_xyz
  1  'x, y, z'
loop_
 _atom_site_type_symbol
 _atom_site_label
 _atom_site_symmetry_multiplicity
 _atom_site_fract_x
 _atom_site_fract_y
 _atom_site_fract_z
 _atom_site_occupancy
  Ba  Ba0  1  0.369064  0.750000  0.130936  1
  Ba  Ba1  1  0.130936  0.369064  0.750000  1
  Ba  Ba2  1  0.750000  0.130936  0.369064  1
  Ba  Ba3  1  0.630936  0.250000  0.869064  1
  Ba  Ba4  1  0.869064  0.630936  0.250000  1
  Ba  Ba5  1  0.250000  0.869064  0.630936  1
  Np  Np6  1  0.250000  0.250000  0.250000  1
  Np  Np7  1  0.750000  0.750000  0.750000  1
  Sc  Sc8  1  0.500000  0.500000  0.500000  1
  Sc  Sc9  1  0.000000  0.000000  0.000000  1
  Se  Se10  1  0.541691  0.413168  0.201616  1
  Se  Se11  1  0.201616  0.541691  0.413168  1
  Se  Se12  1  0.413168  0.201616  0.541691  1
  Se  Se13  1  0.958309  0.298384  0.086832  1
  Se  Se14  1  0.086832  0.958309  0.298384  1
  Se  Se15  1  0.298384  0.086832  0.958309  1
  Se  Se16  1  0.458309  0.586832  0.798384  1
  Se  Se17  1  0.798384  0.458309  0.586832  1
  Se  Se18  1  0.586832  0.798384  0.458309  1
  Se  Se19  1  0.041691  0.701616  0.913168  1
  Se  Se20  1  0.701616  0.913168  0.041691  1
  Se  Se21  1  0.913168  0.041691  0.701616  1
