# generated using pymatgen
data_TaMo(PO4)3
_symmetry_space_group_name_H-M   'P 1'
_cell_length_a   8.77038173
_cell_length_b   8.77048437
_cell_length_c   9.06091041
_cell_angle_alpha   89.66470208
_cell_angle_beta   61.04006918
_cell_angle_gamma   119.60243704
_symmetry_Int_Tables_number   1
_chemical_formula_structural   TaMo(PO4)3
_chemical_formula_sum   'Ta2 Mo2 P6 O24'
_cell_volume   501.96516347
_cell_formula_units_Z   2
loop_
 _symmetry_equiv_pos_site_id
 _symmetry_equiv_pos_as_xyz
  1  'x, y, z'
loop_
 _atom_site_type_symbol
 _atom_site_label
 _atom_site_symmetry_multiplicity
 _atom_site_fract_x
 _atom_site_fract_y
 _atom_site_fract_z
 _atom_site_occupancy
  Ta  Ta0  1  0.783745  0.141135  0.074821  1
  Ta  Ta1  1  0.785706  0.642943  0.572869  1
  Mo  Mo2  1  0.208198  0.354797  0.433879  1
  Mo  Mo3  1  0.212525  0.857649  0.931651  1
  P  P4  1  0.283449  0.032733  0.251562  1
  P  P5  1  0.717586  0.749712  0.248165  1
  P  P6  1  0.285100  0.251594  0.751805  1
  P  P7  1  0.715002  0.966216  0.750447  1
  P  P8  1  0.002875  0.535672  0.747964  1
  P  P9  1  0.995166  0.462660  0.252075  1
  O  O10  1  0.488202  0.063082  0.223179  1
  O  O11  1  0.864879  0.361676  0.913026  1
  O  O12  1  0.892758  0.136783  0.586484  1
  O  O13  1  0.846603  0.549286  0.720323  1
  O  O14  1  0.125391  0.624838  0.084753  1
  O  O15  1  0.091252  0.854695  0.414560  1
  O  O16  1  0.146245  0.440866  0.273908  1
  O  O17  1  0.137534  0.711695  0.771640  1
  O  O18  1  0.149049  0.514113  0.579253  1
  O  O19  1  0.283442  0.203042  0.285427  1
  O  O20  1  0.286804  0.014634  0.084053  1
  O  O21  1  0.712861  0.923498  0.223936  1
  O  O22  1  0.524068  0.578261  0.275370  1
  O  O23  1  0.274788  0.272079  0.590262  1
  O  O24  1  0.851010  0.492058  0.417625  1
  O  O25  1  0.086697  0.221911  0.920852  1
  O  O26  1  0.913665  0.785987  0.075388  1
  O  O27  1  0.505473  0.915030  0.782211  1
  O  O28  1  0.736119  0.734754  0.409477  1
  O  O29  1  0.484357  0.433987  0.720095  1
  O  O30  1  0.305204  0.091057  0.772164  1
  O  O31  1  0.723825  0.998338  0.915707  1
  O  O32  1  0.731013  0.797983  0.718380  1
  O  O33  1  0.849409  0.285238  0.226691  1
