# generated using pymatgen
data_YbPr8Sc11Si15Pt
_symmetry_space_group_name_H-M   'P 1'
_cell_length_a   7.24925402
_cell_length_b   7.61270556
_cell_length_c   14.35664200
_cell_angle_alpha   90.00000000
_cell_angle_beta   90.00000000
_cell_angle_gamma   90.47788478
_symmetry_Int_Tables_number   1
_chemical_formula_structural   YbPr8Sc11Si15Pt
_chemical_formula_sum   'Yb1 Pr8 Sc11 Si15 Pt1'
_cell_volume   792.26435216
_cell_formula_units_Z   1
loop_
 _symmetry_equiv_pos_site_id
 _symmetry_equiv_pos_as_xyz
  1  'x, y, z'
loop_
 _atom_site_type_symbol
 _atom_site_label
 _atom_site_symmetry_multiplicity
 _atom_site_fract_x
 _atom_site_fract_y
 _atom_site_fract_z
 _atom_site_occupancy
  Yb  Yb0  1  0.649193  0.987391  0.750000  1
  Pr  Pr1  1  0.013016  0.174113  0.400922  1
  Pr  Pr2  1  0.512676  0.328124  0.401210  1
  Pr  Pr3  1  0.485777  0.670985  0.904173  1
  Pr  Pr4  1  0.485777  0.670985  0.595827  1
  Pr  Pr5  1  0.988681  0.826619  0.596588  1
  Pr  Pr6  1  0.988681  0.826619  0.903412  1
  Pr  Pr7  1  0.512676  0.328124  0.098790  1
  Pr  Pr8  1  0.013016  0.174113  0.099078  1
  Sc  Sc9  1  0.327827  0.180421  0.623705  1
  Sc  Sc10  1  0.672944  0.824404  0.373647  1
  Sc  Sc11  1  0.172244  0.675847  0.374659  1
  Sc  Sc12  1  0.829269  0.320817  0.877049  1
  Sc  Sc13  1  0.829269  0.320817  0.622951  1
  Sc  Sc14  1  0.841104  0.503238  0.250000  1
  Sc  Sc15  1  0.340569  0.998240  0.250000  1
  Sc  Sc16  1  0.327827  0.180421  0.876295  1
  Sc  Sc17  1  0.172244  0.675847  0.125341  1
  Sc  Sc18  1  0.672944  0.824404  0.126353  1
  Sc  Sc19  1  0.164132  0.500235  0.750000  1
  Si  Si20  1  0.466635  0.626233  0.250000  1
  Si  Si21  1  0.041133  0.135818  0.750000  1
  Si  Si22  1  0.536600  0.383151  0.750000  1
  Si  Si23  1  0.150366  0.463663  0.538983  1
  Si  Si24  1  0.969059  0.874988  0.250000  1
  Si  Si25  1  0.712288  0.116975  0.250000  1
  Si  Si26  1  0.848777  0.536398  0.040777  1
  Si  Si27  1  0.349737  0.963162  0.039415  1
  Si  Si28  1  0.150366  0.463663  0.961017  1
  Si  Si29  1  0.651867  0.039476  0.533205  1
  Si  Si30  1  0.349737  0.963162  0.460585  1
  Si  Si31  1  0.848777  0.536398  0.459223  1
  Si  Si32  1  0.791121  0.600282  0.750000  1
  Si  Si33  1  0.212956  0.384796  0.250000  1
  Si  Si34  1  0.651867  0.039476  0.966795  1
  Pt  Pt35  1  0.268848  0.880592  0.750000  1
