# generated using pymatgen
data_Zn24CoCuAu6
_symmetry_space_group_name_H-M   'P 1'
_cell_length_a   7.88239000
_cell_length_b   7.88239000
_cell_length_c   7.88239000
_cell_angle_alpha   90.00000000
_cell_angle_beta   90.00000000
_cell_angle_gamma   90.00000000
_symmetry_Int_Tables_number   1
_chemical_formula_structural   Zn24CoCuAu6
_chemical_formula_sum   'Zn24 Co1 Cu1 Au6'
_cell_volume   489.74922390
_cell_formula_units_Z   1
loop_
 _symmetry_equiv_pos_site_id
 _symmetry_equiv_pos_as_xyz
  1  'x, y, z'
loop_
 _atom_site_type_symbol
 _atom_site_label
 _atom_site_symmetry_multiplicity
 _atom_site_fract_x
 _atom_site_fract_y
 _atom_site_fract_z
 _atom_site_occupancy
  Zn  Zn0  1  0.500000  0.212578  0.339085  1
  Zn  Zn1  1  0.500000  0.787422  0.660915  1
  Zn  Zn2  1  0.212578  0.339085  0.500000  1
  Zn  Zn3  1  0.787422  0.339085  0.500000  1
  Zn  Zn4  1  0.339085  0.500000  0.212578  1
  Zn  Zn5  1  0.660915  0.500000  0.212578  1
  Zn  Zn6  1  0.000000  0.836831  0.293588  1
  Zn  Zn7  1  0.000000  0.163169  0.706412  1
  Zn  Zn8  1  0.000000  0.163169  0.293588  1
  Zn  Zn9  1  0.500000  0.212578  0.660915  1
  Zn  Zn10  1  0.500000  0.787422  0.339085  1
  Zn  Zn11  1  0.787422  0.660915  0.500000  1
  Zn  Zn12  1  0.212578  0.660915  0.500000  1
  Zn  Zn13  1  0.339085  0.500000  0.787422  1
  Zn  Zn14  1  0.660915  0.500000  0.787422  1
  Zn  Zn15  1  0.293588  0.000000  0.163169  1
  Zn  Zn16  1  0.163169  0.293588  0.000000  1
  Zn  Zn17  1  0.836831  0.706412  0.000000  1
  Zn  Zn18  1  0.293588  0.000000  0.836831  1
  Zn  Zn19  1  0.836831  0.293588  0.000000  1
  Zn  Zn20  1  0.706412  0.000000  0.163169  1
  Zn  Zn21  1  0.706412  0.000000  0.836831  1
  Zn  Zn22  1  0.163169  0.706412  0.000000  1
  Zn  Zn23  1  0.000000  0.836831  0.706412  1
  Co  Co24  1  0.500000  0.500000  0.500000  1
  Cu  Cu25  1  0.000000  0.000000  0.000000  1
  Au  Au26  1  0.500000  0.248364  0.000000  1
  Au  Au27  1  0.500000  0.751636  0.000000  1
  Au  Au28  1  0.000000  0.500000  0.751636  1
  Au  Au29  1  0.000000  0.500000  0.248364  1
  Au  Au30  1  0.751636  0.000000  0.500000  1
  Au  Au31  1  0.248364  0.000000  0.500000  1
