# generated using pymatgen
data_Tm2RuPtF14
_symmetry_space_group_name_H-M   'P 1'
_cell_length_a   5.49577600
_cell_length_b   8.78710890
_cell_length_c   11.86855640
_cell_angle_alpha   63.13116278
_cell_angle_beta   90.00000000
_cell_angle_gamma   90.00000000
_symmetry_Int_Tables_number   1
_chemical_formula_structural   Tm2RuPtF14
_chemical_formula_sum   'Tm4 Ru2 Pt2 F28'
_cell_volume   511.28017140
_cell_formula_units_Z   2
loop_
 _symmetry_equiv_pos_site_id
 _symmetry_equiv_pos_as_xyz
  1  'x, y, z'
loop_
 _atom_site_type_symbol
 _atom_site_label
 _atom_site_symmetry_multiplicity
 _atom_site_fract_x
 _atom_site_fract_y
 _atom_site_fract_z
 _atom_site_occupancy
  Tm  Tm0  1  0.759907  0.815479  0.763948  1
  Tm  Tm1  1  0.259907  0.184521  0.736052  1
  Tm  Tm2  1  0.240906  0.189250  0.230230  1
  Tm  Tm3  1  0.740906  0.810750  0.269770  1
  Ru  Ru4  1  0.756570  0.273385  0.955136  1
  Ru  Ru5  1  0.256570  0.726615  0.544864  1
  Pt  Pt6  1  0.241809  0.728871  0.043037  1
  Pt  Pt7  1  0.741809  0.271129  0.456963  1
  F  F8  1  0.441791  0.701022  0.916299  1
  F  F9  1  0.941791  0.298978  0.583701  1
  F  F10  1  0.553647  0.293598  0.084035  1
  F  F11  1  0.053647  0.706402  0.415965  1
  F  F12  1  0.440578  0.279763  0.544792  1
  F  F13  1  0.940578  0.720237  0.955208  1
  F  F14  1  0.555940  0.722535  0.453776  1
  F  F15  1  0.055940  0.277465  0.046224  1
  F  F16  1  0.770751  0.516769  0.860357  1
  F  F17  1  0.270751  0.483231  0.639643  1
  F  F18  1  0.226318  0.478972  0.144049  1
  F  F19  1  0.726318  0.521028  0.355951  1
  F  F20  1  0.755128  0.032003  0.048333  1
  F  F21  1  0.255128  0.967997  0.451667  1
  F  F22  1  0.245393  0.978686  0.948557  1
  F  F23  1  0.745393  0.021314  0.551443  1
  F  F24  1  0.966811  0.726104  0.642392  1
  F  F25  1  0.466811  0.273896  0.857608  1
  F  F26  1  0.036197  0.269603  0.362961  1
  F  F27  1  0.536197  0.730397  0.137039  1
  F  F28  1  0.047224  0.751448  0.174377  1
  F  F29  1  0.547224  0.248552  0.325623  1
  F  F30  1  0.956039  0.253692  0.823594  1
  F  F31  1  0.456039  0.746308  0.676406  1
  F  F32  1  0.423948  0.972639  0.233317  1
  F  F33  1  0.923948  0.027361  0.266683  1
  F  F34  1  0.581042  0.028586  0.767009  1
  F  F35  1  0.081042  0.971414  0.732991  1
