# generated using pymatgen
data_SmLu(Si2Rh3)2
_symmetry_space_group_name_H-M   'P 1'
_cell_length_a   6.63226400
_cell_length_b   6.63226400
_cell_length_c   6.63226474
_cell_angle_alpha   130.40906027
_cell_angle_beta   114.15088115
_cell_angle_gamma   86.71048995
_symmetry_Int_Tables_number   1
_chemical_formula_structural   SmLu(Si2Rh3)2
_chemical_formula_sum   'Sm1 Lu1 Si4 Rh6'
_cell_volume   193.41103344
_cell_formula_units_Z   1
loop_
 _symmetry_equiv_pos_site_id
 _symmetry_equiv_pos_as_xyz
  1  'x, y, z'
loop_
 _atom_site_type_symbol
 _atom_site_label
 _atom_site_symmetry_multiplicity
 _atom_site_fract_x
 _atom_site_fract_y
 _atom_site_fract_z
 _atom_site_occupancy
  Sm  Sm0  1  0.750000  0.039025  0.289025  1
  Lu  Lu1  1  0.250000  0.945619  0.695619  1
  Si  Si2  1  0.079384  0.273139  0.193755  1
  Si  Si3  1  0.922088  0.727599  0.805511  1
  Si  Si4  1  0.420616  0.614371  0.193755  1
  Si  Si5  1  0.577912  0.383423  0.805511  1
  Rh  Rh6  1  0.498267  0.497629  0.495896  1
  Rh  Rh7  1  0.001733  0.497629  0.999362  1
  Rh  Rh8  1  0.282328  0.001535  0.291575  1
  Rh  Rh9  1  0.709959  0.001535  0.719207  1
  Rh  Rh10  1  0.217672  0.509248  0.719207  1
  Rh  Rh11  1  0.790041  0.509248  0.291575  1
