# generated using pymatgen
data_K4MnCuSe4
_symmetry_space_group_name_H-M   'P 1'
_cell_length_a   8.17769906
_cell_length_b   8.17769876
_cell_length_c   8.17769957
_cell_angle_alpha   134.49431712
_cell_angle_beta   129.01421924
_cell_angle_gamma   70.70986991
_symmetry_Int_Tables_number   1
_chemical_formula_structural   K4MnCuSe4
_chemical_formula_sum   'K4 Mn1 Cu1 Se4'
_cell_volume   296.98247330
_cell_formula_units_Z   1
loop_
 _symmetry_equiv_pos_site_id
 _symmetry_equiv_pos_as_xyz
  1  'x, y, z'
loop_
 _atom_site_type_symbol
 _atom_site_label
 _atom_site_symmetry_multiplicity
 _atom_site_fract_x
 _atom_site_fract_y
 _atom_site_fract_z
 _atom_site_occupancy
  K  K0  1  0.474156  0.148278  0.333950  1
  K  K1  1  0.525844  0.859794  0.674122  1
  K  K2  1  0.185672  0.351722  0.825878  1
  K  K3  1  0.814328  0.640206  0.166050  1
  Mn  Mn4  1  0.000000  0.750000  0.750000  1
  Cu  Cu5  1  0.000000  0.250000  0.250000  1
  Se  Se6  1  0.085925  0.893347  0.185713  1
  Se  Se7  1  0.914075  0.099788  0.807422  1
  Se  Se8  1  0.292365  0.606653  0.692578  1
  Se  Se9  1  0.707635  0.400212  0.314287  1
