# generated using pymatgen
data_Gd6TiMn2CrC12
_symmetry_space_group_name_H-M   'P 1'
_cell_length_a   8.22805100
_cell_length_b   8.22805009
_cell_length_c   5.05935000
_cell_angle_alpha   90.00000000
_cell_angle_beta   90.00000000
_cell_angle_gamma   119.99999161
_symmetry_Int_Tables_number   1
_chemical_formula_structural   Gd6TiMn2CrC12
_chemical_formula_sum   'Gd6 Ti1 Mn2 Cr1 C12'
_cell_volume   296.63288416
_cell_formula_units_Z   1
loop_
 _symmetry_equiv_pos_site_id
 _symmetry_equiv_pos_as_xyz
  1  'x, y, z'
loop_
 _atom_site_type_symbol
 _atom_site_label
 _atom_site_symmetry_multiplicity
 _atom_site_fract_x
 _atom_site_fract_y
 _atom_site_fract_z
 _atom_site_occupancy
  Gd  Gd0  1  0.619119  0.682750  0.750363  1
  Gd  Gd1  1  0.936371  0.619119  0.249637  1
  Gd  Gd2  1  0.682750  0.063629  0.249637  1
  Gd  Gd3  1  0.317250  0.936371  0.750363  1
  Gd  Gd4  1  0.063629  0.380881  0.750363  1
  Gd  Gd5  1  0.380881  0.317250  0.249637  1
  Ti  Ti6  1  0.000000  0.000000  0.000000  1
  Mn  Mn7  1  0.666667  0.333333  0.751207  1
  Mn  Mn8  1  0.333333  0.666667  0.248793  1
  Cr  Cr9  1  0.000000  0.000000  0.500000  1
  C  C10  1  0.960785  0.764734  0.746330  1
  C  C11  1  0.196051  0.960785  0.253670  1
  C  C12  1  0.764734  0.803949  0.253670  1
  C  C13  1  0.235266  0.196051  0.746330  1
  C  C14  1  0.803949  0.039215  0.746330  1
  C  C15  1  0.039215  0.235266  0.253670  1
  C  C16  1  0.860373  0.572630  0.746152  1
  C  C17  1  0.287742  0.860373  0.253848  1
  C  C18  1  0.572630  0.712258  0.253848  1
  C  C19  1  0.427370  0.287742  0.746152  1
  C  C20  1  0.139627  0.427370  0.253848  1
  C  C21  1  0.712258  0.139627  0.746152  1
