# generated using pymatgen
data_ErLu3(MgIr)4
_symmetry_space_group_name_H-M   'P 1'
_cell_length_a   6.99797240
_cell_length_b   4.04229700
_cell_length_c   8.57369000
_cell_angle_alpha   90.00000000
_cell_angle_beta   90.42043102
_cell_angle_gamma   90.00000000
_symmetry_Int_Tables_number   1
_chemical_formula_structural   ErLu3(MgIr)4
_chemical_formula_sum   'Er1 Lu3 Mg4 Ir4'
_cell_volume   242.52500876
_cell_formula_units_Z   1
loop_
 _symmetry_equiv_pos_site_id
 _symmetry_equiv_pos_as_xyz
  1  'x, y, z'
loop_
 _atom_site_type_symbol
 _atom_site_label
 _atom_site_symmetry_multiplicity
 _atom_site_fract_x
 _atom_site_fract_y
 _atom_site_fract_z
 _atom_site_occupancy
  Er  Er0  1  0.541507  0.750000  0.672855  1
  Lu  Lu1  1  0.957923  0.250000  0.171879  1
  Lu  Lu2  1  0.459541  0.250000  0.327546  1
  Lu  Lu3  1  0.040687  0.750000  0.828540  1
  Mg  Mg4  1  0.867364  0.250000  0.557668  1
  Mg  Mg5  1  0.363073  0.250000  0.943372  1
  Mg  Mg6  1  0.135899  0.750000  0.439566  1
  Mg  Mg7  1  0.634124  0.750000  0.059561  1
  Ir  Ir8  1  0.752717  0.250000  0.867540  1
  Ir  Ir9  1  0.250391  0.250000  0.632942  1
  Ir  Ir10  1  0.247280  0.750000  0.132819  1
  Ir  Ir11  1  0.749496  0.750000  0.365712  1
