# generated using pymatgen
data_Tb4Al17CuNi6
_symmetry_space_group_name_H-M   'P 1'
_cell_length_a   7.38355732
_cell_length_b   7.38355763
_cell_length_c   9.27141600
_cell_angle_alpha   90.00000000
_cell_angle_beta   90.00000000
_cell_angle_gamma   118.84495020
_symmetry_Int_Tables_number   1
_chemical_formula_structural   Tb4Al17CuNi6
_chemical_formula_sum   'Tb4 Al17 Cu1 Ni6'
_cell_volume   442.73721130
_cell_formula_units_Z   1
loop_
 _symmetry_equiv_pos_site_id
 _symmetry_equiv_pos_as_xyz
  1  'x, y, z'
loop_
 _atom_site_type_symbol
 _atom_site_label
 _atom_site_symmetry_multiplicity
 _atom_site_fract_x
 _atom_site_fract_y
 _atom_site_fract_z
 _atom_site_occupancy
  Tb  Tb0  1  0.989730  0.674475  0.250000  1
  Tb  Tb1  1  0.007627  0.327584  0.750000  1
  Tb  Tb2  1  0.674475  0.989730  0.250000  1
  Tb  Tb3  1  0.327584  0.007627  0.750000  1
  Al  Al4  1  0.869799  0.869799  0.750000  1
  Al  Al5  1  0.000547  0.329092  0.078386  1
  Al  Al6  1  0.002859  0.663794  0.928518  1
  Al  Al7  1  0.002859  0.663794  0.571482  1
  Al  Al8  1  0.329092  0.000547  0.421614  1
  Al  Al9  1  0.000547  0.329092  0.421614  1
  Al  Al10  1  0.663792  0.002858  0.571483  1
  Al  Al11  1  0.663792  0.002858  0.928517  1
  Al  Al12  1  0.329092  0.000547  0.078386  1
  Al  Al13  1  0.331453  0.331453  0.541544  1
  Al  Al14  1  0.667048  0.667048  0.454258  1
  Al  Al15  1  0.667048  0.667048  0.045742  1
  Al  Al16  1  0.331453  0.331453  0.958456  1
  Al  Al17  1  0.337897  0.549354  0.250000  1
  Al  Al18  1  0.659767  0.445759  0.750000  1
  Al  Al19  1  0.549354  0.337897  0.250000  1
  Al  Al20  1  0.445759  0.659767  0.750000  1
  Cu  Cu21  1  0.149044  0.149044  0.250000  1
  Ni  Ni22  1  0.673000  0.329645  0.000379  1
  Ni  Ni23  1  0.329645  0.673000  0.000379  1
  Ni  Ni24  1  0.329645  0.673000  0.499621  1
  Ni  Ni25  1  0.673000  0.329645  0.499621  1
  Ni  Ni26  1  0.997046  0.997046  0.992866  1
  Ni  Ni27  1  0.997046  0.997046  0.507134  1
