# generated using pymatgen
data_Nd2CoSi2Rh3
_symmetry_space_group_name_H-M   'P 1'
_cell_length_a   8.82752525
_cell_length_b   8.82752599
_cell_length_c   4.09708300
_cell_angle_alpha   90.00000000
_cell_angle_beta   90.00000000
_cell_angle_gamma   152.89854734
_symmetry_Int_Tables_number   1
_chemical_formula_structural   Nd2CoSi2Rh3
_chemical_formula_sum   'Nd2 Co1 Si2 Rh3'
_cell_volume   145.44722767
_cell_formula_units_Z   1
loop_
 _symmetry_equiv_pos_site_id
 _symmetry_equiv_pos_as_xyz
  1  'x, y, z'
loop_
 _atom_site_type_symbol
 _atom_site_label
 _atom_site_symmetry_multiplicity
 _atom_site_fract_x
 _atom_site_fract_y
 _atom_site_fract_z
 _atom_site_occupancy
  Nd  Nd0  1  0.098402  0.901598  0.750000  1
  Nd  Nd1  1  0.901213  0.098787  0.250000  1
  Co  Co2  1  0.541471  0.458529  0.250000  1
  Si  Si3  1  0.322931  0.677069  0.750000  1
  Si  Si4  1  0.674224  0.325776  0.250000  1
  Rh  Rh5  1  0.462915  0.537085  0.750000  1
  Rh  Rh6  1  0.248706  0.751294  0.250000  1
  Rh  Rh7  1  0.750138  0.249862  0.750000  1
