# generated using pymatgen
data_Mn7Re6
_symmetry_space_group_name_H-M   'P 1'
_cell_length_a   9.08908876
_cell_length_b   9.08908878
_cell_length_c   9.08908946
_cell_angle_alpha   29.82809085
_cell_angle_beta   29.82809477
_cell_angle_gamma   29.82808711
_symmetry_Int_Tables_number   1
_chemical_formula_structural   Mn7Re6
_chemical_formula_sum   'Mn7 Re6'
_cell_volume   164.50834995
_cell_formula_units_Z   1
loop_
 _symmetry_equiv_pos_site_id
 _symmetry_equiv_pos_as_xyz
  1  'x, y, z'
loop_
 _atom_site_type_symbol
 _atom_site_label
 _atom_site_symmetry_multiplicity
 _atom_site_fract_x
 _atom_site_fract_y
 _atom_site_fract_z
 _atom_site_occupancy
  Mn  Mn0  1  0.000000  0.000000  0.000000  1
  Mn  Mn1  1  0.585307  0.094556  0.094556  1
  Mn  Mn2  1  0.094556  0.094556  0.585307  1
  Mn  Mn3  1  0.094556  0.585307  0.094556  1
  Mn  Mn4  1  0.905444  0.414693  0.905444  1
  Mn  Mn5  1  0.414693  0.905444  0.905444  1
  Mn  Mn6  1  0.905444  0.905444  0.414693  1
  Re  Re7  1  0.165380  0.165380  0.165380  1
  Re  Re8  1  0.834620  0.834620  0.834620  1
  Re  Re9  1  0.348098  0.348098  0.348098  1
  Re  Re10  1  0.651902  0.651902  0.651902  1
  Re  Re11  1  0.451670  0.451670  0.451670  1
  Re  Re12  1  0.548330  0.548330  0.548330  1
