# generated using pymatgen
data_SrLi2PrPd2
_symmetry_space_group_name_H-M   'P 1'
_cell_length_a   7.40948700
_cell_length_b   4.30252500
_cell_length_c   8.71186500
_cell_angle_alpha   90.00000000
_cell_angle_beta   90.00000000
_cell_angle_gamma   90.00000000
_symmetry_Int_Tables_number   1
_chemical_formula_structural   SrLi2PrPd2
_chemical_formula_sum   'Sr2 Li4 Pr2 Pd4'
_cell_volume   277.72992688
_cell_formula_units_Z   2
loop_
 _symmetry_equiv_pos_site_id
 _symmetry_equiv_pos_as_xyz
  1  'x, y, z'
loop_
 _atom_site_type_symbol
 _atom_site_label
 _atom_site_symmetry_multiplicity
 _atom_site_fract_x
 _atom_site_fract_y
 _atom_site_fract_z
 _atom_site_occupancy
  Sr  Sr0  1  0.967549  0.750000  0.684891  1
  Sr  Sr1  1  0.467549  0.750000  0.815109  1
  Li  Li2  1  0.633003  0.250000  0.552331  1
  Li  Li3  1  0.133003  0.250000  0.947669  1
  Li  Li4  1  0.366080  0.750000  0.440324  1
  Li  Li5  1  0.866080  0.750000  0.059676  1
  Pr  Pr6  1  0.031464  0.250000  0.312262  1
  Pr  Pr7  1  0.531464  0.250000  0.187738  1
  Pd  Pd8  1  0.263901  0.250000  0.593057  1
  Pd  Pd9  1  0.763901  0.250000  0.906943  1
  Pd  Pd10  1  0.738003  0.750000  0.370678  1
  Pd  Pd11  1  0.238003  0.750000  0.129322  1
