# generated using pymatgen
data_Tm5Sc3Re2(B12Rh)2
_symmetry_space_group_name_H-M   'P 1'
_cell_length_a   3.58278200
_cell_length_b   8.98434865
_cell_length_c   11.36732656
_cell_angle_alpha   90.22258248
_cell_angle_beta   90.00000000
_cell_angle_gamma   90.00000000
_symmetry_Int_Tables_number   1
_chemical_formula_structural   Tm5Sc3Re2(B12Rh)2
_chemical_formula_sum   'Tm5 Sc3 Re2 B24 Rh2'
_cell_volume   365.89968887
_cell_formula_units_Z   1
loop_
 _symmetry_equiv_pos_site_id
 _symmetry_equiv_pos_as_xyz
  1  'x, y, z'
loop_
 _atom_site_type_symbol
 _atom_site_label
 _atom_site_symmetry_multiplicity
 _atom_site_fract_x
 _atom_site_fract_y
 _atom_site_fract_z
 _atom_site_occupancy
  Tm  Tm0  1  0.000000  0.317773  0.411999  1
  Tm  Tm1  1  0.000000  0.682129  0.589458  1
  Tm  Tm2  1  0.000000  0.823254  0.082063  1
  Tm  Tm3  1  0.000000  0.177371  0.916500  1
  Tm  Tm4  1  0.000000  0.946239  0.373193  1
  Sc  Sc5  1  0.000000  0.052632  0.629424  1
  Sc  Sc6  1  0.000000  0.442487  0.124334  1
  Sc  Sc7  1  0.000000  0.557911  0.874490  1
  Re  Re8  1  0.000000  0.142981  0.179852  1
  Re  Re9  1  0.000000  0.859242  0.818736  1
  B  B10  1  0.500000  0.553253  0.434184  1
  B  B11  1  0.500000  0.444617  0.566383  1
  B  B12  1  0.500000  0.054666  0.065890  1
  B  B13  1  0.500000  0.946134  0.933041  1
  B  B14  1  0.500000  0.749891  0.420731  1
  B  B15  1  0.500000  0.246687  0.580965  1
  B  B16  1  0.500000  0.253555  0.079773  1
  B  B17  1  0.500000  0.747278  0.919270  1
  B  B18  1  0.500000  0.791100  0.263567  1
  B  B19  1  0.500000  0.206840  0.735951  1
  B  B20  1  0.500000  0.296257  0.234421  1
  B  B21  1  0.500000  0.704814  0.764864  1
  B  B22  1  0.500000  0.628413  0.180446  1
  B  B23  1  0.500000  0.371403  0.818862  1
  B  B24  1  0.500000  0.132431  0.315980  1
  B  B25  1  0.500000  0.870171  0.683553  1
  B  B26  1  0.500000  0.982399  0.212039  1
  B  B27  1  0.500000  0.019115  0.786453  1
  B  B28  1  0.500000  0.481236  0.285533  1
  B  B29  1  0.500000  0.518394  0.714003  1
  B  B30  1  0.500000  0.599935  0.027026  1
  B  B31  1  0.500000  0.400531  0.972022  1
  B  B32  1  0.500000  0.103914  0.475001  1
  B  B33  1  0.500000  0.897359  0.529772  1
  Rh  Rh34  1  0.000000  0.636980  0.318917  1
  Rh  Rh35  1  0.000000  0.360608  0.681301  1
