# generated using pymatgen
data_Ce4FeCo4Si10Ru
_symmetry_space_group_name_H-M   'P 1'
_cell_length_a   7.99754907
_cell_length_b   7.99754938
_cell_length_c   7.99754817
_cell_angle_alpha   138.45484920
_cell_angle_beta   105.56603326
_cell_angle_gamma   89.03840753
_symmetry_Int_Tables_number   1
_chemical_formula_structural   Ce4FeCo4Si10Ru
_chemical_formula_sum   'Ce4 Fe1 Co4 Si10 Ru1'
_cell_volume   312.95239007
_cell_formula_units_Z   1
loop_
 _symmetry_equiv_pos_site_id
 _symmetry_equiv_pos_as_xyz
  1  'x, y, z'
loop_
 _atom_site_type_symbol
 _atom_site_label
 _atom_site_symmetry_multiplicity
 _atom_site_fract_x
 _atom_site_fract_y
 _atom_site_fract_z
 _atom_site_occupancy
  Ce  Ce0  1  0.866420  0.634887  0.239820  1
  Ce  Ce1  1  0.133580  0.373400  0.768468  1
  Ce  Ce2  1  0.395068  0.126600  0.260180  1
  Ce  Ce3  1  0.604932  0.865113  0.731532  1
  Fe  Fe4  1  0.000000  0.250000  0.250000  1
  Co  Co5  1  0.249938  0.865082  0.389877  1
  Co  Co6  1  0.750062  0.139939  0.615145  1
  Co  Co7  1  0.475206  0.360061  0.110123  1
  Co  Co8  1  0.524794  0.634918  0.884855  1
  Si  Si9  1  0.500000  0.750000  0.250000  1
  Si  Si10  1  0.500000  0.250000  0.750000  1
  Si  Si11  1  0.231813  0.981813  0.750000  1
  Si  Si12  1  0.768187  0.518187  0.750000  1
  Si  Si13  1  0.767284  0.017284  0.250000  1
  Si  Si14  1  0.232716  0.482716  0.250000  1
  Si  Si15  1  0.048924  0.906126  0.164556  1
  Si  Si16  1  0.951076  0.115633  0.857202  1
  Si  Si17  1  0.741569  0.384367  0.335444  1
  Si  Si18  1  0.258431  0.593874  0.642798  1
  Ru  Ru19  1  0.000000  0.750000  0.750000  1
