# generated using pymatgen
data_Mg4Cu2B6Ir11
_symmetry_space_group_name_H-M   'P 1'
_cell_length_a   2.91894900
_cell_length_b   8.62516800
_cell_length_c   11.47745100
_cell_angle_alpha   90.00000000
_cell_angle_beta   90.00000000
_cell_angle_gamma   90.00000000
_symmetry_Int_Tables_number   1
_chemical_formula_structural   Mg4Cu2B6Ir11
_chemical_formula_sum   'Mg4 Cu2 B6 Ir11'
_cell_volume   288.96119013
_cell_formula_units_Z   1
loop_
 _symmetry_equiv_pos_site_id
 _symmetry_equiv_pos_as_xyz
  1  'x, y, z'
loop_
 _atom_site_type_symbol
 _atom_site_label
 _atom_site_symmetry_multiplicity
 _atom_site_fract_x
 _atom_site_fract_y
 _atom_site_fract_z
 _atom_site_occupancy
  Mg  Mg0  1  0.500000  0.500844  0.000000  1
  Mg  Mg1  1  0.500000  0.356179  0.500000  1
  Mg  Mg2  1  0.500000  0.997593  0.204567  1
  Mg  Mg3  1  0.500000  0.997593  0.795433  1
  Cu  Cu4  1  0.500000  0.001244  0.500000  1
  Cu  Cu5  1  0.500000  0.646594  0.500000  1
  B  B6  1  0.500000  0.806852  0.000000  1
  B  B7  1  0.500000  0.192896  0.000000  1
  B  B8  1  0.500000  0.688238  0.276217  1
  B  B9  1  0.500000  0.312102  0.273252  1
  B  B10  1  0.500000  0.312102  0.726748  1
  B  B11  1  0.500000  0.688238  0.723783  1
  Ir  Ir12  1  0.000000  0.000700  0.000000  1
  Ir  Ir13  1  0.000000  0.498913  0.311097  1
  Ir  Ir14  1  0.000000  0.498913  0.688903  1
  Ir  Ir15  1  0.000000  0.722124  0.126155  1
  Ir  Ir16  1  0.000000  0.280062  0.125356  1
  Ir  Ir17  1  0.000000  0.280062  0.874644  1
  Ir  Ir18  1  0.000000  0.722124  0.873845  1
  Ir  Ir19  1  0.000000  0.827183  0.361567  1
  Ir  Ir20  1  0.000000  0.171131  0.357909  1
  Ir  Ir21  1  0.000000  0.171131  0.642091  1
  Ir  Ir22  1  0.000000  0.827183  0.638433  1
