# generated using pymatgen
data_Pu3Al3ZnSi2
_symmetry_space_group_name_H-M   'P 1'
_cell_length_a   6.85286300
_cell_length_b   6.85286323
_cell_length_c   4.30668400
_cell_angle_alpha   90.00000000
_cell_angle_beta   90.00000000
_cell_angle_gamma   119.99999407
_symmetry_Int_Tables_number   1
_chemical_formula_structural   Pu3Al3ZnSi2
_chemical_formula_sum   'Pu3 Al3 Zn1 Si2'
_cell_volume   175.15307989
_cell_formula_units_Z   1
loop_
 _symmetry_equiv_pos_site_id
 _symmetry_equiv_pos_as_xyz
  1  'x, y, z'
loop_
 _atom_site_type_symbol
 _atom_site_label
 _atom_site_symmetry_multiplicity
 _atom_site_fract_x
 _atom_site_fract_y
 _atom_site_fract_z
 _atom_site_occupancy
  Pu  Pu0  1  0.420726  0.000000  0.000000  1
  Pu  Pu1  1  0.000000  0.420726  0.000000  1
  Pu  Pu2  1  0.579274  0.579274  0.000000  1
  Al  Al3  1  0.757041  0.000000  0.500001  1
  Al  Al4  1  0.242958  0.242959  0.500001  1
  Al  Al5  1  0.000000  0.757041  0.500001  1
  Zn  Zn6  1  0.000000  0.000000  0.000000  1
  Si  Si7  1  0.666667  0.333333  0.500001  1
  Si  Si8  1  0.333333  0.666667  0.500001  1
