# generated using pymatgen
data_Dy2(YSb)3
_symmetry_space_group_name_H-M   'P 1'
_cell_length_a   6.27374700
_cell_length_b   9.02729562
_cell_length_c   9.02670413
_cell_angle_alpha   120.00217846
_cell_angle_beta   90.00000000
_cell_angle_gamma   90.00000000
_symmetry_Int_Tables_number   1
_chemical_formula_structural   Dy2(YSb)3
_chemical_formula_sum   'Dy4 Y6 Sb6'
_cell_volume   442.72594237
_cell_formula_units_Z   2
loop_
 _symmetry_equiv_pos_site_id
 _symmetry_equiv_pos_as_xyz
  1  'x, y, z'
loop_
 _atom_site_type_symbol
 _atom_site_label
 _atom_site_symmetry_multiplicity
 _atom_site_fract_x
 _atom_site_fract_y
 _atom_site_fract_z
 _atom_site_occupancy
  Dy  Dy0  1  0.500001  0.333326  0.666661  1
  Dy  Dy1  1  0.500001  0.666665  0.333339  1
  Dy  Dy2  1  0.000001  0.666674  0.333339  1
  Dy  Dy3  1  0.000001  0.333335  0.666661  1
  Y  Y4  1  0.750000  0.247349  0.000000  1
  Y  Y5  1  0.750002  0.752725  0.752706  1
  Y  Y6  1  0.750002  0.000019  0.247294  1
  Y  Y7  1  0.250000  0.752651  0.000000  1
  Y  Y8  1  0.250002  0.247275  0.247294  1
  Y  Y9  1  0.250002  0.999981  0.752706  1
  Sb  Sb10  1  0.749991  0.612139  0.000000  1
  Sb  Sb11  1  0.750003  0.387874  0.387881  1
  Sb  Sb12  1  0.750003  0.999992  0.612119  1
  Sb  Sb13  1  0.249991  0.387861  0.000000  1
  Sb  Sb14  1  0.250003  0.612126  0.612119  1
  Sb  Sb15  1  0.250003  0.000008  0.387881  1
