# generated using pymatgen
data_U4Ga2CuTe10
_symmetry_space_group_name_H-M   'P 1'
_cell_length_a   7.51325185
_cell_length_b   7.51610836
_cell_length_c   11.13117584
_cell_angle_alpha   65.99924635
_cell_angle_beta   66.03440779
_cell_angle_gamma   68.70018405
_symmetry_Int_Tables_number   1
_chemical_formula_structural   U4Ga2CuTe10
_chemical_formula_sum   'U4 Ga2 Cu1 Te10'
_cell_volume   509.75131430
_cell_formula_units_Z   1
loop_
 _symmetry_equiv_pos_site_id
 _symmetry_equiv_pos_as_xyz
  1  'x, y, z'
loop_
 _atom_site_type_symbol
 _atom_site_label
 _atom_site_symmetry_multiplicity
 _atom_site_fract_x
 _atom_site_fract_y
 _atom_site_fract_z
 _atom_site_occupancy
  U  U0  1  0.799863  0.799789  0.838696  1
  U  U1  1  0.303390  0.303410  0.837551  1
  U  U2  1  0.677350  0.171238  0.177922  1
  U  U3  1  0.170789  0.676771  0.178310  1
  Ga  Ga4  1  0.056090  0.056456  0.295753  1
  Ga  Ga5  1  0.548637  0.548684  0.277529  1
  Cu  Cu6  1  0.840406  0.840813  0.502914  1
  Te  Te7  1  0.504747  0.008125  0.654556  1
  Te  Te8  1  0.008306  0.504945  0.654422  1
  Te  Te9  1  0.237476  0.237290  0.363696  1
  Te  Te10  1  0.727372  0.727102  0.355832  1
  Te  Te11  1  0.250194  0.749621  0.667474  1
  Te  Te12  1  0.749578  0.250161  0.667393  1
  Te  Te13  1  0.009848  0.009664  0.944749  1
  Te  Te14  1  0.507248  0.507243  0.948547  1
  Te  Te15  1  0.456758  0.963167  0.084500  1
  Te  Te16  1  0.963246  0.456818  0.084555  1
