# generated using pymatgen
data_Tb4YbSi12Ir19
_symmetry_space_group_name_H-M   'P 1'
_cell_length_a   12.83233161
_cell_length_b   12.82545315
_cell_length_c   3.99628000
_cell_angle_alpha   90.00000000
_cell_angle_beta   90.00000000
_cell_angle_gamma   119.98226739
_symmetry_Int_Tables_number   1
_chemical_formula_structural   Tb4YbSi12Ir19
_chemical_formula_sum   'Tb4 Yb1 Si12 Ir19'
_cell_volume   569.69500086
_cell_formula_units_Z   1
loop_
 _symmetry_equiv_pos_site_id
 _symmetry_equiv_pos_as_xyz
  1  'x, y, z'
loop_
 _atom_site_type_symbol
 _atom_site_label
 _atom_site_symmetry_multiplicity
 _atom_site_fract_x
 _atom_site_fract_y
 _atom_site_fract_z
 _atom_site_occupancy
  Tb  Tb0  1  0.333702  0.666785  0.000000  1
  Tb  Tb1  1  0.666298  0.333082  0.000000  1
  Tb  Tb2  1  0.183956  0.183492  0.500000  1
  Tb  Tb3  1  0.816044  0.999536  0.500000  1
  Yb  Yb4  1  0.000000  0.815091  0.500000  1
  Si  Si5  1  0.818431  0.817429  0.000000  1
  Si  Si6  1  0.181569  0.998998  0.000000  1
  Si  Si7  1  0.000000  0.182020  0.000000  1
  Si  Si8  1  0.311167  0.831357  0.500000  1
  Si  Si9  1  0.168559  0.480594  0.500000  1
  Si  Si10  1  0.519655  0.687864  0.500000  1
  Si  Si11  1  0.831441  0.312036  0.500000  1
  Si  Si12  1  0.480345  0.168209  0.500000  1
  Si  Si13  1  0.688833  0.520190  0.500000  1
  Si  Si14  1  0.367795  0.367735  0.000000  1
  Si  Si15  1  0.632205  0.999940  0.000000  1
  Si  Si16  1  0.000000  0.632604  0.000000  1
  Ir  Ir17  1  0.194931  0.816662  0.000000  1
  Ir  Ir18  1  0.182440  0.376660  0.000000  1
  Ir  Ir19  1  0.623152  0.806039  0.000000  1
  Ir  Ir20  1  0.817560  0.194221  0.000000  1
  Ir  Ir21  1  0.376848  0.182887  0.000000  1
  Ir  Ir22  1  0.805069  0.621733  0.000000  1
  Ir  Ir23  1  0.716776  0.717404  0.500000  1
  Ir  Ir24  1  0.283224  0.000628  0.500000  1
  Ir  Ir25  1  0.000000  0.283360  0.500000  1
  Ir  Ir26  1  0.126099  0.638282  0.500000  1
  Ir  Ir27  1  0.360964  0.487704  0.500000  1
  Ir  Ir28  1  0.511439  0.873336  0.500000  1
  Ir  Ir29  1  0.639036  0.126741  0.500000  1
  Ir  Ir30  1  0.488561  0.361898  0.500000  1
  Ir  Ir31  1  0.873901  0.512184  0.500000  1
  Ir  Ir32  1  0.551301  0.553149  0.000000  1
  Ir  Ir33  1  0.448699  0.001847  0.000000  1
  Ir  Ir34  1  0.000000  0.447435  0.000000  1
  Ir  Ir35  1  0.000000  0.000865  0.000000  1
