# generated using pymatgen
data_Pr4Al3Zn5
_symmetry_space_group_name_H-M   'P 1'
_cell_length_a   4.64501300
_cell_length_b   7.65183103
_cell_length_c   7.62759800
_cell_angle_alpha   89.35633321
_cell_angle_beta   90.00000000
_cell_angle_gamma   90.00000000
_symmetry_Int_Tables_number   1
_chemical_formula_structural   Pr4Al3Zn5
_chemical_formula_sum   'Pr4 Al3 Zn5'
_cell_volume   271.08949929
_cell_formula_units_Z   1
loop_
 _symmetry_equiv_pos_site_id
 _symmetry_equiv_pos_as_xyz
  1  'x, y, z'
loop_
 _atom_site_type_symbol
 _atom_site_label
 _atom_site_symmetry_multiplicity
 _atom_site_fract_x
 _atom_site_fract_y
 _atom_site_fract_z
 _atom_site_occupancy
  Pr  Pr0  1  0.250000  0.503557  0.797176  1
  Pr  Pr1  1  0.250000  0.008825  0.707097  1
  Pr  Pr2  1  0.750000  0.998355  0.287890  1
  Pr  Pr3  1  0.750000  0.491382  0.210661  1
  Al  Al4  1  0.750000  0.306149  0.591339  1
  Al  Al5  1  0.250000  0.696214  0.409317  1
  Al  Al6  1  0.750000  0.805693  0.910295  1
  Zn  Zn7  1  0.250000  0.193689  0.087553  1
  Zn  Zn8  1  0.250000  0.807409  0.081853  1
  Zn  Zn9  1  0.250000  0.310551  0.416813  1
  Zn  Zn10  1  0.750000  0.689330  0.583696  1
  Zn  Zn11  1  0.750000  0.188846  0.916312  1
