# generated using pymatgen
data_LaTh2Sn3Hg2
_symmetry_space_group_name_H-M   'P 1'
_cell_length_a   6.60587894
_cell_length_b   6.60587896
_cell_length_c   10.55050300
_cell_angle_alpha   90.00000000
_cell_angle_beta   90.00000000
_cell_angle_gamma   102.93674930
_symmetry_Int_Tables_number   1
_chemical_formula_structural   LaTh2Sn3Hg2
_chemical_formula_sum   'La2 Th4 Sn6 Hg4'
_cell_volume   448.71307842
_cell_formula_units_Z   2
loop_
 _symmetry_equiv_pos_site_id
 _symmetry_equiv_pos_as_xyz
  1  'x, y, z'
loop_
 _atom_site_type_symbol
 _atom_site_label
 _atom_site_symmetry_multiplicity
 _atom_site_fract_x
 _atom_site_fract_y
 _atom_site_fract_z
 _atom_site_occupancy
  La  La0  1  0.798791  0.201209  0.500000  1
  La  La1  1  0.798791  0.201209  0.000000  1
  Th  Th2  1  0.627947  0.631067  0.250000  1
  Th  Th3  1  0.368933  0.372053  0.750000  1
  Th  Th4  1  0.201531  0.798469  0.500000  1
  Th  Th5  1  0.201531  0.798469  0.000000  1
  Sn  Sn6  1  0.020940  0.017809  0.250000  1
  Sn  Sn7  1  0.982191  0.979060  0.750000  1
  Sn  Sn8  1  0.492714  0.074896  0.250000  1
  Sn  Sn9  1  0.925104  0.507286  0.750000  1
  Sn  Sn10  1  0.502512  0.922357  0.750000  1
  Sn  Sn11  1  0.077643  0.497488  0.250000  1
  Hg  Hg12  1  0.311100  0.310415  0.039418  1
  Hg  Hg13  1  0.689585  0.688900  0.960582  1
  Hg  Hg14  1  0.311100  0.310415  0.460582  1
  Hg  Hg15  1  0.689585  0.688900  0.539418  1
