# generated using pymatgen
data_Er3ThOsWC4
_symmetry_space_group_name_H-M   'P 1'
_cell_length_a   5.14786400
_cell_length_b   6.62832250
_cell_length_c   9.82640266
_cell_angle_alpha   88.94120397
_cell_angle_beta   90.00000000
_cell_angle_gamma   90.00000000
_symmetry_Int_Tables_number   1
_chemical_formula_structural   Er3ThOsWC4
_chemical_formula_sum   'Er6 Th2 Os2 W2 C8'
_cell_volume   335.23634261
_cell_formula_units_Z   2
loop_
 _symmetry_equiv_pos_site_id
 _symmetry_equiv_pos_as_xyz
  1  'x, y, z'
loop_
 _atom_site_type_symbol
 _atom_site_label
 _atom_site_symmetry_multiplicity
 _atom_site_fract_x
 _atom_site_fract_y
 _atom_site_fract_z
 _atom_site_occupancy
  Er  Er0  1  0.250000  0.670707  0.556590  1
  Er  Er1  1  0.750000  0.329293  0.443410  1
  Er  Er2  1  0.750000  0.824429  0.056682  1
  Er  Er3  1  0.250000  0.175571  0.943318  1
  Er  Er4  1  0.250000  0.537275  0.215154  1
  Er  Er5  1  0.750000  0.462725  0.784846  1
  Th  Th6  1  0.750000  0.971031  0.711539  1
  Th  Th7  1  0.250000  0.028969  0.288461  1
  Os  Os8  1  0.750000  0.776044  0.365825  1
  Os  Os9  1  0.250000  0.223956  0.634175  1
  W  W10  1  0.250000  0.716221  0.869674  1
  W  W11  1  0.750000  0.283779  0.130326  1
  C  C12  1  0.250000  0.451256  0.760447  1
  C  C13  1  0.750000  0.548744  0.239553  1
  C  C14  1  0.750000  0.048099  0.257786  1
  C  C15  1  0.250000  0.951901  0.742214  1
  C  C16  1  0.250000  0.827268  0.058089  1
  C  C17  1  0.750000  0.172732  0.941911  1
  C  C18  1  0.750000  0.667590  0.551162  1
  C  C19  1  0.250000  0.332410  0.448838  1
