# generated using pymatgen
data_Tb15YCd4Ni3Ru
_symmetry_space_group_name_H-M   'P 1'
_cell_length_a   9.62212486
_cell_length_b   9.58182513
_cell_length_c   9.56881232
_cell_angle_alpha   59.95499871
_cell_angle_beta   60.06256100
_cell_angle_gamma   60.13844806
_symmetry_Int_Tables_number   1
_chemical_formula_structural   Tb15YCd4Ni3Ru
_chemical_formula_sum   'Tb15 Y1 Cd4 Ni3 Ru1'
_cell_volume   624.55630830
_cell_formula_units_Z   1
loop_
 _symmetry_equiv_pos_site_id
 _symmetry_equiv_pos_as_xyz
  1  'x, y, z'
loop_
 _atom_site_type_symbol
 _atom_site_label
 _atom_site_symmetry_multiplicity
 _atom_site_fract_x
 _atom_site_fract_y
 _atom_site_fract_z
 _atom_site_occupancy
  Tb  Tb0  1  0.436301  0.435542  0.063492  1
  Tb  Tb1  1  0.064994  0.059289  0.437867  1
  Tb  Tb2  1  0.436301  0.064667  0.063492  1
  Tb  Tb3  1  0.845906  0.848687  0.848833  1
  Tb  Tb4  1  0.690061  0.309918  0.311181  1
  Tb  Tb5  1  0.064994  0.437852  0.437867  1
  Tb  Tb6  1  0.312516  0.689245  0.688197  1
  Tb  Tb7  1  0.312516  0.310043  0.688197  1
  Tb  Tb8  1  0.847891  0.848953  0.454204  1
  Tb  Tb9  1  0.690061  0.688838  0.311181  1
  Tb  Tb10  1  0.450767  0.848870  0.851495  1
  Tb  Tb11  1  0.065229  0.437747  0.059278  1
  Tb  Tb12  1  0.845906  0.456575  0.848833  1
  Tb  Tb13  1  0.436284  0.063296  0.437124  1
  Tb  Tb14  1  0.312132  0.688290  0.311288  1
  Y  Y15  1  0.692427  0.309641  0.688290  1
  Cd  Cd16  1  0.081400  0.757641  0.080220  1
  Cd  Cd17  1  0.080835  0.081622  0.755922  1
  Cd  Cd18  1  0.757256  0.081516  0.079713  1
  Cd  Cd19  1  0.081400  0.080740  0.080220  1
  Ni  Ni20  1  0.639931  0.071474  0.643348  1
  Ni  Ni21  1  0.639931  0.645246  0.643348  1
  Ni  Ni22  1  0.640821  0.642734  0.073709  1
  Ru  Ru23  1  0.074140  0.641575  0.642708  1
