# generated using pymatgen
data_Ta3TlSe6
_symmetry_space_group_name_H-M   'P 1'
_cell_length_a   6.09785200
_cell_length_b   6.09785222
_cell_length_c   17.44604600
_cell_angle_alpha   90.00000000
_cell_angle_beta   90.00000000
_cell_angle_gamma   119.99999878
_symmetry_Int_Tables_number   1
_chemical_formula_structural   Ta3TlSe6
_chemical_formula_sum   'Ta6 Tl2 Se12'
_cell_volume   561.79959943
_cell_formula_units_Z   2
loop_
 _symmetry_equiv_pos_site_id
 _symmetry_equiv_pos_as_xyz
  1  'x, y, z'
loop_
 _atom_site_type_symbol
 _atom_site_label
 _atom_site_symmetry_multiplicity
 _atom_site_fract_x
 _atom_site_fract_y
 _atom_site_fract_z
 _atom_site_occupancy
  Ta  Ta0  1  0.000000  0.000000  0.250000  1
  Ta  Ta1  1  0.000000  0.000000  0.750000  1
  Ta  Ta2  1  0.333333  0.666667  0.250000  1
  Ta  Ta3  1  0.666667  0.333333  0.750000  1
  Ta  Ta4  1  0.666667  0.333333  0.250000  1
  Ta  Ta5  1  0.333333  0.666667  0.750000  1
  Tl  Tl6  1  0.000000  0.000000  0.500000  1
  Tl  Tl7  1  0.000000  0.000000  0.000000  1
  Se  Se8  1  0.334295  0.000000  0.155142  1
  Se  Se9  1  0.000000  0.334295  0.155142  1
  Se  Se10  1  0.665705  0.665705  0.155142  1
  Se  Se11  1  0.334295  0.334295  0.655142  1
  Se  Se12  1  0.665705  0.665705  0.344858  1
  Se  Se13  1  0.665705  0.000000  0.655142  1
  Se  Se14  1  0.000000  0.665705  0.655142  1
  Se  Se15  1  0.000000  0.665705  0.844858  1
  Se  Se16  1  0.334295  0.334295  0.844858  1
  Se  Se17  1  0.000000  0.334295  0.344858  1
  Se  Se18  1  0.334295  0.000000  0.344858  1
  Se  Se19  1  0.665705  0.000000  0.844858  1
