# generated using pymatgen
data_Ac2B2PdPt5Au2
_symmetry_space_group_name_H-M   'P 1'
_cell_length_a   5.55994200
_cell_length_b   5.55994121
_cell_length_c   7.72355900
_cell_angle_alpha   90.00000000
_cell_angle_beta   90.00000000
_cell_angle_gamma   120.03986352
_symmetry_Int_Tables_number   1
_chemical_formula_structural   Ac2B2PdPt5Au2
_chemical_formula_sum   'Ac2 B2 Pd1 Pt5 Au2'
_cell_volume   206.68738377
_cell_formula_units_Z   1
loop_
 _symmetry_equiv_pos_site_id
 _symmetry_equiv_pos_as_xyz
  1  'x, y, z'
loop_
 _atom_site_type_symbol
 _atom_site_label
 _atom_site_symmetry_multiplicity
 _atom_site_fract_x
 _atom_site_fract_y
 _atom_site_fract_z
 _atom_site_occupancy
  Ac  Ac0  1  0.000000  0.000000  0.505428  1
  Ac  Ac1  1  0.000000  0.000000  0.002891  1
  B  B2  1  0.331587  0.668413  0.998076  1
  B  B3  1  0.668413  0.331587  0.998076  1
  Pd  Pd4  1  0.500000  0.500000  0.199243  1
  Pt  Pt5  1  0.500000  0.000000  0.195870  1
  Pt  Pt6  1  0.500000  0.000000  0.801026  1
  Pt  Pt7  1  0.000000  0.500000  0.195870  1
  Pt  Pt8  1  0.000000  0.500000  0.801026  1
  Pt  Pt9  1  0.500000  0.500000  0.805972  1
  Au  Au10  1  0.334014  0.665986  0.498261  1
  Au  Au11  1  0.665986  0.334014  0.498261  1
