# generated using pymatgen
data_Pr2Dy4PtBr10
_symmetry_space_group_name_H-M   'P 1'
_cell_length_a   7.42590672
_cell_length_b   9.33790695
_cell_length_c   9.56516296
_cell_angle_alpha   107.50924148
_cell_angle_beta   96.00437298
_cell_angle_gamma   105.82873206
_symmetry_Int_Tables_number   1
_chemical_formula_structural   Pr2Dy4PtBr10
_chemical_formula_sum   'Pr2 Dy4 Pt1 Br10'
_cell_volume   595.82819882
_cell_formula_units_Z   1
loop_
 _symmetry_equiv_pos_site_id
 _symmetry_equiv_pos_as_xyz
  1  'x, y, z'
loop_
 _atom_site_type_symbol
 _atom_site_label
 _atom_site_symmetry_multiplicity
 _atom_site_fract_x
 _atom_site_fract_y
 _atom_site_fract_z
 _atom_site_occupancy
  Pr  Pr0  1  0.869665  0.951289  0.253067  1
  Pr  Pr1  1  0.130335  0.048711  0.746933  1
  Dy  Dy2  1  0.360696  0.134836  0.171252  1
  Dy  Dy3  1  0.639304  0.865164  0.828748  1
  Dy  Dy4  1  0.971734  0.298335  0.091873  1
  Dy  Dy5  1  0.028266  0.701665  0.908127  1
  Pt  Pt6  1  0.000000  0.000000  0.000000  1
  Br  Br7  1  0.346991  0.446859  0.265588  1
  Br  Br8  1  0.653009  0.553141  0.734412  1
  Br  Br9  1  0.919462  0.622740  0.167028  1
  Br  Br10  1  0.080538  0.377260  0.832972  1
  Br  Br11  1  0.445234  0.822726  0.081472  1
  Br  Br12  1  0.554766  0.177274  0.918528  1
  Br  Br13  1  0.266720  0.086398  0.446086  1
  Br  Br14  1  0.733280  0.913602  0.553914  1
  Br  Br15  1  0.776794  0.261798  0.335949  1
  Br  Br16  1  0.223206  0.738202  0.664051  1
