# generated using pymatgen
data_Pm4Tm(MoO4)3
_symmetry_space_group_name_H-M   'P 1'
_cell_length_a   5.64325698
_cell_length_b   5.94167790
_cell_length_c   8.18105908
_cell_angle_alpha   90.51800043
_cell_angle_beta   89.72322568
_cell_angle_gamma   90.00389723
_symmetry_Int_Tables_number   1
_chemical_formula_structural   Pm4Tm(MoO4)3
_chemical_formula_sum   'Pm4 Tm1 Mo3 O12'
_cell_volume   274.29989736
_cell_formula_units_Z   1
loop_
 _symmetry_equiv_pos_site_id
 _symmetry_equiv_pos_as_xyz
  1  'x, y, z'
loop_
 _atom_site_type_symbol
 _atom_site_label
 _atom_site_symmetry_multiplicity
 _atom_site_fract_x
 _atom_site_fract_y
 _atom_site_fract_z
 _atom_site_occupancy
  Pm  Pm0  1  0.982279  0.062438  0.254088  1
  Pm  Pm1  1  0.522039  0.560084  0.254980  1
  Pm  Pm2  1  0.477961  0.439916  0.745020  1
  Pm  Pm3  1  0.017720  0.937562  0.745912  1
  Tm  Tm4  1  0.500000  0.000000  0.000000  1
  Mo  Mo5  1  0.000000  0.500001  0.000000  1
  Mo  Mo6  1  0.500000  0.000000  0.500000  1
  Mo  Mo7  1  0.000000  0.500001  0.500000  1
  O  O8  1  0.694470  0.307149  0.071037  1
  O  O9  1  0.813047  0.804566  0.068440  1
  O  O10  1  0.129632  0.443003  0.250250  1
  O  O11  1  0.372016  0.942583  0.253988  1
  O  O12  1  0.690422  0.305326  0.436115  1
  O  O13  1  0.810297  0.804377  0.436225  1
  O  O14  1  0.189704  0.195623  0.563776  1
  O  O15  1  0.309579  0.694674  0.563886  1
  O  O16  1  0.627984  0.057417  0.746012  1
  O  O17  1  0.870369  0.556997  0.749750  1
  O  O18  1  0.186954  0.195434  0.931559  1
  O  O19  1  0.305531  0.692851  0.928962  1
