# generated using pymatgen
data_Rb8Tb3NdBr20
_symmetry_space_group_name_H-M   'P 1'
_cell_length_a   8.80100079
_cell_length_b   9.27694500
_cell_length_c   14.14125607
_cell_angle_alpha   90.00000000
_cell_angle_beta   90.29279698
_cell_angle_gamma   90.00000000
_symmetry_Int_Tables_number   1
_chemical_formula_structural   Rb8Tb3NdBr20
_chemical_formula_sum   'Rb8 Tb3 Nd1 Br20'
_cell_volume   1154.56757721
_cell_formula_units_Z   1
loop_
 _symmetry_equiv_pos_site_id
 _symmetry_equiv_pos_as_xyz
  1  'x, y, z'
loop_
 _atom_site_type_symbol
 _atom_site_label
 _atom_site_symmetry_multiplicity
 _atom_site_fract_x
 _atom_site_fract_y
 _atom_site_fract_z
 _atom_site_occupancy
  Rb  Rb0  1  0.945506  0.004881  0.826495  1
  Rb  Rb1  1  0.055146  0.997002  0.173517  1
  Rb  Rb2  1  0.444601  0.996525  0.671593  1
  Rb  Rb3  1  0.055146  0.502998  0.173517  1
  Rb  Rb4  1  0.554939  0.004534  0.328360  1
  Rb  Rb5  1  0.945506  0.495119  0.826495  1
  Rb  Rb6  1  0.554939  0.495466  0.328360  1
  Rb  Rb7  1  0.444601  0.503475  0.671593  1
  Tb  Tb8  1  0.927721  0.750000  0.503186  1
  Tb  Tb9  1  0.071920  0.250000  0.496776  1
  Tb  Tb10  1  0.426193  0.250000  0.996583  1
  Nd  Nd11  1  0.573577  0.750000  0.004364  1
  Br  Br12  1  0.114202  0.750000  0.669531  1
  Br  Br13  1  0.886092  0.250000  0.330580  1
  Br  Br14  1  0.613563  0.250000  0.831270  1
  Br  Br15  1  0.379690  0.750000  0.174410  1
  Br  Br16  1  0.842005  0.042619  0.569665  1
  Br  Br17  1  0.157597  0.957503  0.430488  1
  Br  Br18  1  0.339223  0.961309  0.927648  1
  Br  Br19  1  0.157597  0.542497  0.430488  1
  Br  Br20  1  0.660239  0.047439  0.072121  1
  Br  Br21  1  0.842005  0.457381  0.569665  1
  Br  Br22  1  0.660239  0.452561  0.072121  1
  Br  Br23  1  0.339223  0.538691  0.927648  1
  Br  Br24  1  0.598214  0.750000  0.512311  1
  Br  Br25  1  0.401708  0.250000  0.487115  1
  Br  Br26  1  0.095258  0.250000  0.987952  1
  Br  Br27  1  0.911327  0.750000  0.011412  1
  Br  Br28  1  0.655729  0.750000  0.802584  1
  Br  Br29  1  0.346773  0.250000  0.192644  1
  Br  Br30  1  0.152965  0.250000  0.692872  1
  Br  Br31  1  0.846558  0.750000  0.306636  1
