# generated using pymatgen
data_Ho2PaCo3(NiP)6
_symmetry_space_group_name_H-M   'P 1'
_cell_length_a   3.75463400
_cell_length_b   10.41667700
_cell_length_c   12.21626500
_cell_angle_alpha   90.00000000
_cell_angle_beta   90.00000000
_cell_angle_gamma   90.00000000
_symmetry_Int_Tables_number   1
_chemical_formula_structural   Ho2PaCo3(NiP)6
_chemical_formula_sum   'Ho4 Pa2 Co6 Ni12 P12'
_cell_volume   477.78801482
_cell_formula_units_Z   2
loop_
 _symmetry_equiv_pos_site_id
 _symmetry_equiv_pos_as_xyz
  1  'x, y, z'
loop_
 _atom_site_type_symbol
 _atom_site_label
 _atom_site_symmetry_multiplicity
 _atom_site_fract_x
 _atom_site_fract_y
 _atom_site_fract_z
 _atom_site_occupancy
  Ho  Ho0  1  0.500000  0.813728  0.205578  1
  Ho  Ho1  1  0.500000  0.186272  0.205578  1
  Ho  Ho2  1  0.000000  0.686272  0.794422  1
  Ho  Ho3  1  0.000000  0.313728  0.794422  1
  Pa  Pa4  1  0.000000  0.500000  0.522912  1
  Pa  Pa5  1  0.500000  0.000000  0.477088  1
  Co  Co6  1  0.000000  0.500000  0.982222  1
  Co  Co7  1  0.500000  0.000000  0.017778  1
  Co  Co8  1  0.500000  0.334881  0.993040  1
  Co  Co9  1  0.500000  0.665119  0.993040  1
  Co  Co10  1  0.000000  0.165119  0.006960  1
  Co  Co11  1  0.000000  0.834881  0.006960  1
  Ni  Ni12  1  0.500000  0.300960  0.431335  1
  Ni  Ni13  1  0.500000  0.699040  0.431335  1
  Ni  Ni14  1  0.000000  0.199040  0.568665  1
  Ni  Ni15  1  0.000000  0.800960  0.568665  1
  Ni  Ni16  1  0.500000  0.879850  0.715144  1
  Ni  Ni17  1  0.500000  0.120150  0.715144  1
  Ni  Ni18  1  0.000000  0.620150  0.284856  1
  Ni  Ni19  1  0.000000  0.379850  0.284856  1
  Ni  Ni20  1  0.500000  0.500000  0.154425  1
  Ni  Ni21  1  0.000000  0.000000  0.845575  1
  Ni  Ni22  1  0.500000  0.500000  0.699135  1
  Ni  Ni23  1  0.000000  0.000000  0.300865  1
  P  P24  1  0.500000  0.309758  0.617089  1
  P  P25  1  0.500000  0.690242  0.617089  1
  P  P26  1  0.000000  0.190242  0.382911  1
  P  P27  1  0.000000  0.809758  0.382911  1
  P  P28  1  0.500000  0.500000  0.878427  1
  P  P29  1  0.000000  0.000000  0.121573  1
  P  P30  1  0.500000  0.846580  0.898544  1
  P  P31  1  0.500000  0.153420  0.898544  1
  P  P32  1  0.000000  0.653420  0.101456  1
  P  P33  1  0.000000  0.346580  0.101456  1
  P  P34  1  0.500000  0.500000  0.340417  1
  P  P35  1  0.000000  0.000000  0.659583  1
