# generated using pymatgen
data_K6Li4TiCrP6
_symmetry_space_group_name_H-M   'P 1'
_cell_length_a   9.77527968
_cell_length_b   9.77527845
_cell_length_c   14.67007700
_cell_angle_alpha   90.00000000
_cell_angle_beta   90.00000000
_cell_angle_gamma   142.77183019
_symmetry_Int_Tables_number   1
_chemical_formula_structural   K6Li4TiCrP6
_chemical_formula_sum   'K12 Li8 Ti2 Cr2 P12'
_cell_volume   848.08502032
_cell_formula_units_Z   2
loop_
 _symmetry_equiv_pos_site_id
 _symmetry_equiv_pos_as_xyz
  1  'x, y, z'
loop_
 _atom_site_type_symbol
 _atom_site_label
 _atom_site_symmetry_multiplicity
 _atom_site_fract_x
 _atom_site_fract_y
 _atom_site_fract_z
 _atom_site_occupancy
  K  K0  1  0.106054  0.446625  0.671873  1
  K  K1  1  0.717027  0.717185  0.680049  1
  K  K2  1  0.217185  0.217027  0.819951  1
  K  K3  1  0.782973  0.782815  0.180049  1
  K  K4  1  0.946625  0.606054  0.828127  1
  K  K5  1  0.553375  0.893946  0.328127  1
  K  K6  1  0.393946  0.053375  0.171873  1
  K  K7  1  0.054581  0.394030  0.171363  1
  K  K8  1  0.894030  0.554581  0.328637  1
  K  K9  1  0.445419  0.105970  0.671363  1
  K  K10  1  0.605970  0.945420  0.828637  1
  K  K11  1  0.282815  0.282973  0.319951  1
  Li  Li12  1  0.918364  0.081636  0.000000  1
  Li  Li13  1  0.581636  0.418364  0.500000  1
  Li  Li14  1  0.081960  0.918040  0.000000  1
  Li  Li15  1  0.418040  0.581960  0.500000  1
  Li  Li16  1  0.750535  0.249465  0.000000  1
  Li  Li17  1  0.749465  0.250535  0.500000  1
  Li  Li18  1  0.249156  0.750844  0.000000  1
  Li  Li19  1  0.250844  0.749156  0.500000  1
  Ti  Ti20  1  0.916007  0.083993  0.500000  1
  Ti  Ti21  1  0.583993  0.416007  0.000000  1
  Cr  Cr22  1  0.085676  0.914324  0.500000  1
  Cr  Cr23  1  0.414324  0.585676  0.000000  1
  P  P24  1  0.886723  0.565934  0.090162  1
  P  P25  1  0.434066  0.113277  0.909838  1
  P  P26  1  0.613277  0.934066  0.590162  1
  P  P27  1  0.939582  0.625396  0.585517  1
  P  P28  1  0.125396  0.439582  0.914483  1
  P  P29  1  0.560418  0.874604  0.085517  1
  P  P30  1  0.374604  0.060418  0.414483  1
  P  P31  1  0.217867  0.211452  0.583474  1
  P  P32  1  0.711452  0.717867  0.916526  1
  P  P33  1  0.282133  0.288548  0.083474  1
  P  P34  1  0.065934  0.386723  0.409838  1
  P  P35  1  0.788548  0.782133  0.416526  1
