# generated using pymatgen
data_NdHoTh2(Al3Ir)6
_symmetry_space_group_name_H-M   'P 1'
_cell_length_a   7.63076502
_cell_length_b   7.64020669
_cell_length_c   9.52232700
_cell_angle_alpha   90.00000000
_cell_angle_beta   90.00000000
_cell_angle_gamma   119.51188565
_symmetry_Int_Tables_number   1
_chemical_formula_structural   NdHoTh2(Al3Ir)6
_chemical_formula_sum   'Nd1 Ho1 Th2 Al18 Ir6'
_cell_volume   483.12784767
_cell_formula_units_Z   1
loop_
 _symmetry_equiv_pos_site_id
 _symmetry_equiv_pos_as_xyz
  1  'x, y, z'
loop_
 _atom_site_type_symbol
 _atom_site_label
 _atom_site_symmetry_multiplicity
 _atom_site_fract_x
 _atom_site_fract_y
 _atom_site_fract_z
 _atom_site_occupancy
  Nd  Nd0  1  0.004461  0.329122  0.750000  1
  Ho  Ho1  1  0.328484  0.005311  0.750000  1
  Th  Th2  1  0.995430  0.671203  0.250000  1
  Th  Th3  1  0.670953  0.994677  0.250000  1
  Al  Al4  1  0.135356  0.133724  0.250000  1
  Al  Al5  1  0.872828  0.872152  0.750000  1
  Al  Al6  1  0.005847  0.335408  0.071738  1
  Al  Al7  1  0.000274  0.666907  0.920128  1
  Al  Al8  1  0.000274  0.666907  0.579872  1
  Al  Al9  1  0.335356  0.005039  0.431255  1
  Al  Al10  1  0.005847  0.335408  0.428262  1
  Al  Al11  1  0.662412  0.998385  0.579783  1
  Al  Al12  1  0.662412  0.998385  0.920217  1
  Al  Al13  1  0.335356  0.005039  0.068745  1
  Al  Al14  1  0.333660  0.332308  0.555247  1
  Al  Al15  1  0.663032  0.662871  0.456284  1
  Al  Al16  1  0.663032  0.662871  0.043716  1
  Al  Al17  1  0.333660  0.332308  0.944753  1
  Al  Al18  1  0.341120  0.543233  0.250000  1
  Al  Al19  1  0.657170  0.448783  0.750000  1
  Al  Al20  1  0.543471  0.338803  0.250000  1
  Al  Al21  1  0.450113  0.661187  0.750000  1
  Ir  Ir22  1  0.672667  0.328611  0.001967  1
  Ir  Ir23  1  0.328770  0.673292  0.002119  1
  Ir  Ir24  1  0.328770  0.673292  0.497881  1
  Ir  Ir25  1  0.672667  0.328611  0.498033  1
  Ir  Ir26  1  0.998289  0.998081  0.002440  1
  Ir  Ir27  1  0.998289  0.998081  0.497560  1
