# generated using pymatgen
data_Zr5CuSnBi2
_symmetry_space_group_name_H-M   'P 1'
_cell_length_a   8.77628497
_cell_length_b   8.77628502
_cell_length_c   5.90819700
_cell_angle_alpha   90.00000000
_cell_angle_beta   90.00000000
_cell_angle_gamma   119.89106373
_symmetry_Int_Tables_number   1
_chemical_formula_structural   Zr5CuSnBi2
_chemical_formula_sum   'Zr10 Cu2 Sn2 Bi4'
_cell_volume   394.53244141
_cell_formula_units_Z   2
loop_
 _symmetry_equiv_pos_site_id
 _symmetry_equiv_pos_as_xyz
  1  'x, y, z'
loop_
 _atom_site_type_symbol
 _atom_site_label
 _atom_site_symmetry_multiplicity
 _atom_site_fract_x
 _atom_site_fract_y
 _atom_site_fract_z
 _atom_site_occupancy
  Zr  Zr0  1  0.667269  0.330667  0.503305  1
  Zr  Zr1  1  0.330667  0.667269  0.503305  1
  Zr  Zr2  1  0.330667  0.667269  0.996695  1
  Zr  Zr3  1  0.667269  0.330667  0.996695  1
  Zr  Zr4  1  0.740776  0.740776  0.250000  1
  Zr  Zr5  1  0.258846  0.998675  0.250000  1
  Zr  Zr6  1  0.998675  0.258846  0.250000  1
  Zr  Zr7  1  0.259448  0.259448  0.750000  1
  Zr  Zr8  1  0.740258  0.006444  0.750000  1
  Zr  Zr9  1  0.006444  0.740258  0.750000  1
  Cu  Cu10  1  0.000038  0.000038  0.503956  1
  Cu  Cu11  1  0.000038  0.000038  0.996044  1
  Sn  Sn12  1  0.385957  0.000904  0.750000  1
  Sn  Sn13  1  0.000904  0.385957  0.750000  1
  Bi  Bi14  1  0.385677  0.385677  0.250000  1
  Bi  Bi15  1  0.611744  0.998867  0.250000  1
  Bi  Bi16  1  0.998867  0.611744  0.250000  1
  Bi  Bi17  1  0.616458  0.616458  0.750000  1
