# generated using pymatgen
data_YLu5(Fe8Co)2
_symmetry_space_group_name_H-M   'P 1'
_cell_length_a   5.05464100
_cell_length_b   5.05464117
_cell_length_c   16.04307500
_cell_angle_alpha   90.00000000
_cell_angle_beta   90.00000000
_cell_angle_gamma   119.99999233
_symmetry_Int_Tables_number   1
_chemical_formula_structural   YLu5(Fe8Co)2
_chemical_formula_sum   'Y1 Lu5 Fe16 Co2'
_cell_volume   354.97594607
_cell_formula_units_Z   1
loop_
 _symmetry_equiv_pos_site_id
 _symmetry_equiv_pos_as_xyz
  1  'x, y, z'
loop_
 _atom_site_type_symbol
 _atom_site_label
 _atom_site_symmetry_multiplicity
 _atom_site_fract_x
 _atom_site_fract_y
 _atom_site_fract_z
 _atom_site_occupancy
  Y  Y0  1  0.666667  0.333333  0.250000  1
  Lu  Lu1  1  0.333333  0.666667  0.963157  1
  Lu  Lu2  1  0.666667  0.333333  0.036535  1
  Lu  Lu3  1  0.666667  0.333333  0.463465  1
  Lu  Lu4  1  0.333333  0.666667  0.536843  1
  Lu  Lu5  1  0.333333  0.666667  0.750000  1
  Fe  Fe6  1  0.167250  0.832750  0.373472  1
  Fe  Fe7  1  0.167250  0.334500  0.373472  1
  Fe  Fe8  1  0.665500  0.832750  0.373472  1
  Fe  Fe9  1  0.832757  0.167243  0.626964  1
  Fe  Fe10  1  0.832757  0.665513  0.626964  1
  Fe  Fe11  1  0.334487  0.167243  0.626964  1
  Fe  Fe12  1  0.832757  0.167243  0.873036  1
  Fe  Fe13  1  0.832757  0.665513  0.873036  1
  Fe  Fe14  1  0.334487  0.167243  0.873036  1
  Fe  Fe15  1  0.167250  0.832750  0.126528  1
  Fe  Fe16  1  0.167250  0.334500  0.126528  1
  Fe  Fe17  1  0.665500  0.832750  0.126528  1
  Fe  Fe18  1  0.333333  0.666667  0.250000  1
  Fe  Fe19  1  0.666667  0.333333  0.750000  1
  Fe  Fe20  1  0.000000  0.000000  0.250000  1
  Fe  Fe21  1  0.000000  0.000000  0.750000  1
  Co  Co22  1  0.000000  0.000000  0.500000  1
  Co  Co23  1  0.000000  0.000000  0.000000  1
