# generated using pymatgen
data_DyHoSi3Rh
_symmetry_space_group_name_H-M   'P 1'
_cell_length_a   8.16309402
_cell_length_b   8.16412332
_cell_length_c   7.89156400
_cell_angle_alpha   90.00000000
_cell_angle_beta   90.00000000
_cell_angle_gamma   120.00417196
_symmetry_Int_Tables_number   1
_chemical_formula_structural   DyHoSi3Rh
_chemical_formula_sum   'Dy4 Ho4 Si12 Rh4'
_cell_volume   455.44906047
_cell_formula_units_Z   4
loop_
 _symmetry_equiv_pos_site_id
 _symmetry_equiv_pos_as_xyz
  1  'x, y, z'
loop_
 _atom_site_type_symbol
 _atom_site_label
 _atom_site_symmetry_multiplicity
 _atom_site_fract_x
 _atom_site_fract_y
 _atom_site_fract_z
 _atom_site_occupancy
  Dy  Dy0  1  0.999930  0.999965  0.250000  1
  Dy  Dy1  1  0.000089  0.000044  0.750000  1
  Dy  Dy2  1  0.509059  0.491092  0.250000  1
  Dy  Dy3  1  0.509059  0.017967  0.250000  1
  Ho  Ho4  1  0.982277  0.491139  0.250000  1
  Ho  Ho5  1  0.491134  0.508841  0.750000  1
  Ho  Ho6  1  0.491134  0.982293  0.750000  1
  Ho  Ho7  1  0.017681  0.508841  0.750000  1
  Si  Si8  1  0.166888  0.832947  0.500001  1
  Si  Si9  1  0.166888  0.333941  0.500001  1
  Si  Si10  1  0.666098  0.833048  0.500073  1
  Si  Si11  1  0.833133  0.167131  0.500475  1
  Si  Si12  1  0.833133  0.666003  0.500475  1
  Si  Si13  1  0.333880  0.166940  0.500714  1
  Si  Si14  1  0.833133  0.167131  0.999525  1
  Si  Si15  1  0.833133  0.666003  0.999525  1
  Si  Si16  1  0.333880  0.166940  0.999286  1
  Si  Si17  1  0.166888  0.832947  0.999999  1
  Si  Si18  1  0.166888  0.333941  0.999999  1
  Si  Si19  1  0.666098  0.833048  0.999927  1
  Rh  Rh20  1  0.332899  0.666450  0.466785  1
  Rh  Rh21  1  0.666898  0.333449  0.534512  1
  Rh  Rh22  1  0.666898  0.333449  0.965488  1
  Rh  Rh23  1  0.332899  0.666450  0.033215  1
