# generated using pymatgen
data_Ca11(CoC6)3
_symmetry_space_group_name_H-M   'P 1'
_cell_length_a   10.02509582
_cell_length_b   10.02509614
_cell_length_c   10.02509600
_cell_angle_alpha   95.54260538
_cell_angle_beta   95.54260556
_cell_angle_gamma   95.54259895
_symmetry_Int_Tables_number   1
_chemical_formula_structural   Ca11(CoC6)3
_chemical_formula_sum   'Ca22 Co6 C36'
_cell_volume   992.42755607
_cell_formula_units_Z   2
loop_
 _symmetry_equiv_pos_site_id
 _symmetry_equiv_pos_as_xyz
  1  'x, y, z'
loop_
 _atom_site_type_symbol
 _atom_site_label
 _atom_site_symmetry_multiplicity
 _atom_site_fract_x
 _atom_site_fract_y
 _atom_site_fract_z
 _atom_site_occupancy
  Ca  Ca0  1  0.163959  0.823785  0.770535  1
  Ca  Ca1  1  0.770535  0.163959  0.823785  1
  Ca  Ca2  1  0.823785  0.770535  0.163959  1
  Ca  Ca3  1  0.836041  0.176215  0.229465  1
  Ca  Ca4  1  0.229465  0.836041  0.176215  1
  Ca  Ca5  1  0.176215  0.229465  0.836041  1
  Ca  Ca6  1  0.824767  0.490378  0.427777  1
  Ca  Ca7  1  0.427777  0.824767  0.490378  1
  Ca  Ca8  1  0.490378  0.427777  0.824767  1
  Ca  Ca9  1  0.175233  0.509622  0.572223  1
  Ca  Ca10  1  0.572223  0.175233  0.509622  1
  Ca  Ca11  1  0.509622  0.572223  0.175233  1
  Ca  Ca12  1  0.844510  0.897950  0.510090  1
  Ca  Ca13  1  0.510090  0.844510  0.897950  1
  Ca  Ca14  1  0.897950  0.510090  0.844510  1
  Ca  Ca15  1  0.155490  0.102050  0.489910  1
  Ca  Ca16  1  0.489910  0.155490  0.102050  1
  Ca  Ca17  1  0.102050  0.489910  0.155490  1
  Ca  Ca18  1  0.857639  0.857639  0.857639  1
  Ca  Ca19  1  0.142361  0.142361  0.142362  1
  Ca  Ca20  1  0.645655  0.645655  0.645655  1
  Ca  Ca21  1  0.354345  0.354345  0.354345  1
  Co  Co22  1  0.920329  0.254628  0.576063  1
  Co  Co23  1  0.576063  0.920329  0.254628  1
  Co  Co24  1  0.254628  0.576063  0.920329  1
  Co  Co25  1  0.079671  0.745372  0.423937  1
  Co  Co26  1  0.423937  0.079671  0.745372  1
  Co  Co27  1  0.745372  0.423937  0.079671  1
  C  C28  1  0.338945  0.633836  0.780598  1
  C  C29  1  0.780598  0.338945  0.633836  1
  C  C30  1  0.633836  0.780598  0.338945  1
  C  C31  1  0.661055  0.366164  0.219402  1
  C  C32  1  0.219402  0.661055  0.366164  1
  C  C33  1  0.366164  0.219402  0.661055  1
  C  C34  1  0.988343  0.697781  0.563739  1
  C  C35  1  0.563739  0.988343  0.697781  1
  C  C36  1  0.697781  0.563739  0.988343  1
  C  C37  1  0.011657  0.302219  0.436261  1
  C  C38  1  0.436261  0.011657  0.302219  1
  C  C39  1  0.302219  0.436261  0.011657  1
  C  C40  1  0.970781  0.113510  0.663637  1
  C  C41  1  0.663637  0.970781  0.113510  1
  C  C42  1  0.113510  0.663637  0.970781  1
  C  C43  1  0.029219  0.886490  0.336363  1
  C  C44  1  0.336363  0.029219  0.886490  1
  C  C45  1  0.886490  0.336363  0.029219  1
  C  C46  1  0.915019  0.678234  0.661616  1
  C  C47  1  0.661616  0.915019  0.678234  1
  C  C48  1  0.678234  0.661616  0.915019  1
  C  C49  1  0.084981  0.321766  0.338384  1
  C  C50  1  0.338384  0.084981  0.321766  1
  C  C51  1  0.321766  0.338384  0.084981  1
  C  C52  1  0.676339  0.681003  0.397723  1
  C  C53  1  0.397723  0.676339  0.681003  1
  C  C54  1  0.681003  0.397723  0.676339  1
  C  C55  1  0.323661  0.318997  0.602277  1
  C  C56  1  0.602277  0.323661  0.318997  1
  C  C57  1  0.318997  0.602277  0.323661  1
  C  C58  1  0.007113  0.014123  0.727182  1
  C  C59  1  0.727182  0.007113  0.014123  1
  C  C60  1  0.014123  0.727182  0.007113  1
  C  C61  1  0.992887  0.985877  0.272818  1
  C  C62  1  0.272818  0.992887  0.985877  1
  C  C63  1  0.985877  0.272818  0.992887  1
