# generated using pymatgen
data_Ta3Co6Si2Os
_symmetry_space_group_name_H-M   'P 1'
_cell_length_a   4.80682600
_cell_length_b   4.80682563
_cell_length_c   7.48155600
_cell_angle_alpha   90.00000000
_cell_angle_beta   90.00000000
_cell_angle_gamma   120.00000255
_symmetry_Int_Tables_number   1
_chemical_formula_structural   Ta3Co6Si2Os
_chemical_formula_sum   'Ta3 Co6 Si2 Os1'
_cell_volume   149.70603954
_cell_formula_units_Z   1
loop_
 _symmetry_equiv_pos_site_id
 _symmetry_equiv_pos_as_xyz
  1  'x, y, z'
loop_
 _atom_site_type_symbol
 _atom_site_label
 _atom_site_symmetry_multiplicity
 _atom_site_fract_x
 _atom_site_fract_y
 _atom_site_fract_z
 _atom_site_occupancy
  Ta  Ta0  1  0.666667  0.333333  0.545877  1
  Ta  Ta1  1  0.666667  0.333333  0.929315  1
  Ta  Ta2  1  0.333333  0.666667  0.084391  1
  Co  Co3  1  0.831810  0.168190  0.247540  1
  Co  Co4  1  0.831810  0.663621  0.247540  1
  Co  Co5  1  0.336379  0.168190  0.247540  1
  Co  Co6  1  0.171452  0.828548  0.751541  1
  Co  Co7  1  0.171452  0.342903  0.751541  1
  Co  Co8  1  0.657097  0.828548  0.751541  1
  Si  Si9  1  0.000000  0.000000  0.501514  1
  Si  Si10  1  0.000000  0.000000  0.995588  1
  Os  Os11  1  0.333333  0.666667  0.446070  1
