# generated using pymatgen
data_Tb8Sc12Ga6Si9As
_symmetry_space_group_name_H-M   'P 1'
_cell_length_a   7.18997531
_cell_length_b   7.43051065
_cell_length_c   14.24587292
_cell_angle_alpha   90.04659810
_cell_angle_beta   89.83040913
_cell_angle_gamma   90.41893712
_symmetry_Int_Tables_number   1
_chemical_formula_structural   Tb8Sc12Ga6Si9As
_chemical_formula_sum   'Tb8 Sc12 Ga6 Si9 As1'
_cell_volume   761.06452364
_cell_formula_units_Z   1
loop_
 _symmetry_equiv_pos_site_id
 _symmetry_equiv_pos_as_xyz
  1  'x, y, z'
loop_
 _atom_site_type_symbol
 _atom_site_label
 _atom_site_symmetry_multiplicity
 _atom_site_fract_x
 _atom_site_fract_y
 _atom_site_fract_z
 _atom_site_occupancy
  Tb  Tb0  1  0.012650  0.172539  0.097684  1
  Tb  Tb1  1  0.989698  0.826650  0.900718  1
  Tb  Tb2  1  0.489348  0.676079  0.902331  1
  Tb  Tb3  1  0.991405  0.825660  0.601828  1
  Tb  Tb4  1  0.512137  0.322164  0.098719  1
  Tb  Tb5  1  0.010511  0.173793  0.399564  1
  Tb  Tb6  1  0.510599  0.325457  0.399071  1
  Tb  Tb7  1  0.490962  0.673019  0.599897  1
  Sc  Sc8  1  0.162434  0.502769  0.750282  1
  Sc  Sc9  1  0.836083  0.500277  0.249709  1
  Sc  Sc10  1  0.335482  0.000394  0.249199  1
  Sc  Sc11  1  0.659253  0.998706  0.750747  1
  Sc  Sc12  1  0.332264  0.172141  0.628011  1
  Sc  Sc13  1  0.668615  0.826595  0.372920  1
  Sc  Sc14  1  0.169101  0.673483  0.372703  1
  Sc  Sc15  1  0.667676  0.825408  0.125716  1
  Sc  Sc16  1  0.827314  0.329817  0.626103  1
  Sc  Sc17  1  0.332836  0.173001  0.873423  1
  Sc  Sc18  1  0.823498  0.327766  0.876163  1
  Sc  Sc19  1  0.173113  0.675332  0.124867  1
  Ga  Ga20  1  0.159811  0.460112  0.539551  1
  Ga  Ga21  1  0.839881  0.539896  0.460241  1
  Ga  Ga22  1  0.339271  0.960917  0.461189  1
  Ga  Ga23  1  0.840930  0.540659  0.039855  1
  Ga  Ga24  1  0.661092  0.039790  0.539361  1
  Ga  Ga25  1  0.158623  0.459154  0.960502  1
  Si  Si26  1  0.966520  0.882963  0.248335  1
  Si  Si27  1  0.465812  0.615122  0.248714  1
  Si  Si28  1  0.531278  0.383319  0.751366  1
  Si  Si29  1  0.298406  0.861332  0.751585  1
  Si  Si30  1  0.714912  0.125975  0.248354  1
  Si  Si31  1  0.213525  0.373960  0.248309  1
  Si  Si32  1  0.788344  0.628606  0.751745  1
  Si  Si33  1  0.654772  0.036788  0.962063  1
  Si  Si34  1  0.346010  0.963900  0.037816  1
  As  As35  1  0.025830  0.126458  0.751362  1
