# generated using pymatgen
data_Tb2ScCI5
_symmetry_space_group_name_H-M   'P 1'
_cell_length_a   7.57780547
_cell_length_b   9.60362552
_cell_length_c   9.49859603
_cell_angle_alpha   106.61076596
_cell_angle_beta   95.61907442
_cell_angle_gamma   104.71649031
_symmetry_Int_Tables_number   1
_chemical_formula_structural   Tb2ScCI5
_chemical_formula_sum   'Tb4 Sc2 C2 I10'
_cell_volume   629.73883719
_cell_formula_units_Z   2
loop_
 _symmetry_equiv_pos_site_id
 _symmetry_equiv_pos_as_xyz
  1  'x, y, z'
loop_
 _atom_site_type_symbol
 _atom_site_label
 _atom_site_symmetry_multiplicity
 _atom_site_fract_x
 _atom_site_fract_y
 _atom_site_fract_z
 _atom_site_occupancy
  Tb  Tb0  1  0.100543  0.033541  0.775245  1
  Tb  Tb1  1  0.968734  0.254815  0.071874  1
  Tb  Tb2  1  0.887071  0.958859  0.218776  1
  Tb  Tb3  1  0.374190  0.129457  0.174654  1
  Sc  Sc4  1  0.638709  0.873931  0.833229  1
  Sc  Sc5  1  0.019683  0.763670  0.928409  1
  C  C6  1  0.086947  0.028924  0.039176  1
  C  C7  1  0.902412  0.970886  0.957966  1
  I  I8  1  0.203560  0.737489  0.668871  1
  I  I9  1  0.922149  0.639620  0.163575  1
  I  I10  1  0.092690  0.355749  0.815792  1
  I  I11  1  0.733731  0.907593  0.547169  1
  I  I12  1  0.250175  0.076503  0.456306  1
  I  I13  1  0.667329  0.569888  0.738743  1
  I  I14  1  0.454154  0.810371  0.087189  1
  I  I15  1  0.804697  0.262760  0.354839  1
  I  I16  1  0.346231  0.447718  0.270005  1
  I  I17  1  0.546993  0.178225  0.898182  1
