# generated using pymatgen
data_Tb2Y(Ni3P2)3
_symmetry_space_group_name_H-M   'P 1'
_cell_length_a   3.79111100
_cell_length_b   10.48224500
_cell_length_c   12.33397800
_cell_angle_alpha   90.00000000
_cell_angle_beta   90.00000000
_cell_angle_gamma   90.00000000
_symmetry_Int_Tables_number   1
_chemical_formula_structural   Tb2Y(Ni3P2)3
_chemical_formula_sum   'Tb4 Y2 Ni18 P12'
_cell_volume   490.14432197
_cell_formula_units_Z   2
loop_
 _symmetry_equiv_pos_site_id
 _symmetry_equiv_pos_as_xyz
  1  'x, y, z'
loop_
 _atom_site_type_symbol
 _atom_site_label
 _atom_site_symmetry_multiplicity
 _atom_site_fract_x
 _atom_site_fract_y
 _atom_site_fract_z
 _atom_site_occupancy
  Tb  Tb0  1  0.000000  0.500000  0.520163  1
  Tb  Tb1  1  0.500000  0.000000  0.479675  1
  Tb  Tb2  1  0.000000  0.684370  0.794312  1
  Tb  Tb3  1  0.000000  0.315630  0.794312  1
  Y  Y4  1  0.500000  0.815989  0.205814  1
  Y  Y5  1  0.500000  0.184011  0.205814  1
  Ni  Ni6  1  0.500000  0.500000  0.157751  1
  Ni  Ni7  1  0.000000  0.000000  0.842328  1
  Ni  Ni8  1  0.500000  0.500000  0.699611  1
  Ni  Ni9  1  0.000000  0.000000  0.300575  1
  Ni  Ni10  1  0.000000  0.500000  0.983319  1
  Ni  Ni11  1  0.500000  0.000000  0.016998  1
  Ni  Ni12  1  0.500000  0.332906  0.995657  1
  Ni  Ni13  1  0.500000  0.667094  0.995657  1
  Ni  Ni14  1  0.000000  0.166729  0.004566  1
  Ni  Ni15  1  0.000000  0.833271  0.004566  1
  Ni  Ni16  1  0.500000  0.300901  0.428324  1
  Ni  Ni17  1  0.500000  0.699099  0.428324  1
  Ni  Ni18  1  0.000000  0.199214  0.571457  1
  Ni  Ni19  1  0.000000  0.800786  0.571457  1
  Ni  Ni20  1  0.500000  0.879865  0.711631  1
  Ni  Ni21  1  0.500000  0.120135  0.711631  1
  Ni  Ni22  1  0.000000  0.620177  0.288057  1
  Ni  Ni23  1  0.000000  0.379823  0.288057  1
  P  P24  1  0.500000  0.500000  0.876422  1
  P  P25  1  0.000000  0.000000  0.124058  1
  P  P26  1  0.500000  0.500000  0.342421  1
  P  P27  1  0.000000  0.000000  0.657505  1
  P  P28  1  0.500000  0.312492  0.613916  1
  P  P29  1  0.500000  0.687508  0.613916  1
  P  P30  1  0.000000  0.187569  0.385884  1
  P  P31  1  0.000000  0.812431  0.385884  1
  P  P32  1  0.500000  0.848719  0.893437  1
  P  P33  1  0.500000  0.151281  0.893437  1
  P  P34  1  0.000000  0.651668  0.106535  1
  P  P35  1  0.000000  0.348332  0.106535  1
