# generated using pymatgen
data_Er5Tm15(Cd3Ru)2
_symmetry_space_group_name_H-M   'P 1'
_cell_length_a   9.45201900
_cell_length_b   9.45181620
_cell_length_c   9.73099300
_cell_angle_alpha   90.00000000
_cell_angle_beta   90.00000000
_cell_angle_gamma   119.99929007
_symmetry_Int_Tables_number   1
_chemical_formula_structural   Er5Tm15(Cd3Ru)2
_chemical_formula_sum   'Er5 Tm15 Cd6 Ru2'
_cell_volume   752.88865403
_cell_formula_units_Z   1
loop_
 _symmetry_equiv_pos_site_id
 _symmetry_equiv_pos_as_xyz
  1  'x, y, z'
loop_
 _atom_site_type_symbol
 _atom_site_label
 _atom_site_symmetry_multiplicity
 _atom_site_fract_x
 _atom_site_fract_y
 _atom_site_fract_z
 _atom_site_occupancy
  Er  Er0  1  0.540868  0.459147  0.250000  1
  Er  Er1  1  0.540868  0.081721  0.250000  1
  Er  Er2  1  0.918249  0.459124  0.250000  1
  Er  Er3  1  0.458973  0.540833  0.750000  1
  Er  Er4  1  0.458973  0.918141  0.750000  1
  Tm  Tm5  1  0.999996  0.999998  0.499996  1
  Tm  Tm6  1  0.999996  0.999998  0.000004  1
  Tm  Tm7  1  0.209916  0.789936  0.440875  1
  Tm  Tm8  1  0.209916  0.419981  0.440875  1
  Tm  Tm9  1  0.580017  0.790009  0.440821  1
  Tm  Tm10  1  0.790147  0.210107  0.559243  1
  Tm  Tm11  1  0.790147  0.580039  0.559243  1
  Tm  Tm12  1  0.419965  0.209982  0.559208  1
  Tm  Tm13  1  0.790147  0.210107  0.940757  1
  Tm  Tm14  1  0.790147  0.580039  0.940757  1
  Tm  Tm15  1  0.419965  0.209982  0.940792  1
  Tm  Tm16  1  0.209916  0.789936  0.059125  1
  Tm  Tm17  1  0.209916  0.419981  0.059125  1
  Tm  Tm18  1  0.580017  0.790009  0.059179  1
  Tm  Tm19  1  0.081688  0.540845  0.750000  1
  Cd  Cd20  1  0.885703  0.114363  0.250000  1
  Cd  Cd21  1  0.885703  0.771340  0.250000  1
  Cd  Cd22  1  0.228629  0.114315  0.250000  1
  Cd  Cd23  1  0.114323  0.885493  0.750000  1
  Cd  Cd24  1  0.114323  0.228829  0.750000  1
  Cd  Cd25  1  0.771328  0.885664  0.750000  1
  Ru  Ru26  1  0.333405  0.666703  0.250000  1
  Ru  Ru27  1  0.666753  0.333376  0.750000  1
