# generated using pymatgen
data_Sc8Nb11Si16Tc
_symmetry_space_group_name_H-M   'P 1'
_cell_length_a   6.67540301
_cell_length_b   6.89491901
_cell_length_c   13.12514400
_cell_angle_alpha   90.00000000
_cell_angle_beta   90.00000000
_cell_angle_gamma   89.99478947
_symmetry_Int_Tables_number   1
_chemical_formula_structural   Sc8Nb11Si16Tc
_chemical_formula_sum   'Sc8 Nb11 Si16 Tc1'
_cell_volume   604.10264063
_cell_formula_units_Z   1
loop_
 _symmetry_equiv_pos_site_id
 _symmetry_equiv_pos_as_xyz
  1  'x, y, z'
loop_
 _atom_site_type_symbol
 _atom_site_label
 _atom_site_symmetry_multiplicity
 _atom_site_fract_x
 _atom_site_fract_y
 _atom_site_fract_z
 _atom_site_occupancy
  Sc  Sc0  1  0.497123  0.674926  0.593883  1
  Sc  Sc1  1  0.000425  0.826333  0.905805  1
  Sc  Sc2  1  0.499277  0.325887  0.094958  1
  Sc  Sc3  1  0.999542  0.174342  0.404840  1
  Sc  Sc4  1  0.499277  0.325887  0.405042  1
  Sc  Sc5  1  0.999542  0.174342  0.095160  1
  Sc  Sc6  1  0.497123  0.674926  0.906117  1
  Sc  Sc7  1  0.000425  0.826333  0.594195  1
  Nb  Nb8  1  0.664110  0.171061  0.626005  1
  Nb  Nb9  1  0.164509  0.328483  0.873602  1
  Nb  Nb10  1  0.337289  0.826352  0.124668  1
  Nb  Nb11  1  0.837223  0.673105  0.376226  1
  Nb  Nb12  1  0.337289  0.826352  0.375332  1
  Nb  Nb13  1  0.837223  0.673105  0.123774  1
  Nb  Nb14  1  0.664110  0.171061  0.873995  1
  Nb  Nb15  1  0.164509  0.328483  0.626398  1
  Nb  Nb16  1  0.337138  0.004361  0.750000  1
  Nb  Nb17  1  0.162982  0.505389  0.250000  1
  Nb  Nb18  1  0.663024  0.994914  0.250000  1
  Si  Si19  1  0.669483  0.967204  0.460288  1
  Si  Si20  1  0.169664  0.533247  0.038962  1
  Si  Si21  1  0.330662  0.033714  0.960208  1
  Si  Si22  1  0.830771  0.466160  0.542450  1
  Si  Si23  1  0.330662  0.033714  0.539792  1
  Si  Si24  1  0.830771  0.466160  0.957550  1
  Si  Si25  1  0.669483  0.967204  0.039712  1
  Si  Si26  1  0.169664  0.533247  0.461038  1
  Si  Si27  1  0.468063  0.390323  0.750000  1
  Si  Si28  1  0.959534  0.113732  0.750000  1
  Si  Si29  1  0.540686  0.613913  0.250000  1
  Si  Si30  1  0.039297  0.886902  0.250000  1
  Si  Si31  1  0.705036  0.854029  0.750000  1
  Si  Si32  1  0.196966  0.636880  0.750000  1
  Si  Si33  1  0.294849  0.137643  0.250000  1
  Si  Si34  1  0.795141  0.362481  0.250000  1
  Tc  Tc35  1  0.837131  0.497804  0.750000  1
