# generated using pymatgen
data_TlAu2I9
_symmetry_space_group_name_H-M   'P 1'
_cell_length_a   6.93585600
_cell_length_b   12.88331551
_cell_length_c   14.66133500
_cell_angle_alpha   73.24282645
_cell_angle_beta   90.00000000
_cell_angle_gamma   90.00000000
_symmetry_Int_Tables_number   1
_chemical_formula_structural   TlAu2I9
_chemical_formula_sum   'Tl2 Au4 I18'
_cell_volume   1254.45765989
_cell_formula_units_Z   2
loop_
 _symmetry_equiv_pos_site_id
 _symmetry_equiv_pos_as_xyz
  1  'x, y, z'
loop_
 _atom_site_type_symbol
 _atom_site_label
 _atom_site_symmetry_multiplicity
 _atom_site_fract_x
 _atom_site_fract_y
 _atom_site_fract_z
 _atom_site_occupancy
  Tl  Tl0  1  0.506169  0.784669  0.209258  1
  Tl  Tl1  1  0.993831  0.784669  0.709258  1
  Au  Au2  1  0.401328  0.532488  0.525462  1
  Au  Au3  1  0.098672  0.532488  0.025462  1
  Au  Au4  1  0.506503  0.963179  0.467645  1
  Au  Au5  1  0.993497  0.963179  0.967645  1
  I  I6  1  0.434206  0.239042  0.808056  1
  I  I7  1  0.065794  0.239042  0.308056  1
  I  I8  1  0.188508  0.693976  0.418048  1
  I  I9  1  0.311492  0.693976  0.918048  1
  I  I10  1  0.622494  0.368604  0.629965  1
  I  I11  1  0.877506  0.368604  0.129965  1
  I  I12  1  0.697124  0.829470  0.965769  1
  I  I13  1  0.224492  0.105595  0.487213  1
  I  I14  1  0.275508  0.105595  0.987213  1
  I  I15  1  0.802876  0.829470  0.465769  1
  I  I16  1  0.997021  0.028623  0.779061  1
  I  I17  1  0.489905  0.895185  0.657412  1
  I  I18  1  0.010095  0.895185  0.157412  1
  I  I19  1  0.502979  0.028623  0.279061  1
  I  I20  1  0.882003  0.523648  0.873948  1
  I  I21  1  0.190639  0.535520  0.678162  1
  I  I22  1  0.309361  0.535520  0.178162  1
  I  I23  1  0.617997  0.523648  0.373948  1
