# generated using pymatgen
data_Sc4Fe4Co15NiP12
_symmetry_space_group_name_H-M   'P 1'
_cell_length_a   3.59638900
_cell_length_b   10.12134800
_cell_length_c   11.67343700
_cell_angle_alpha   90.00076929
_cell_angle_beta   90.00000000
_cell_angle_gamma   90.00000000
_symmetry_Int_Tables_number   1
_chemical_formula_structural   Sc4Fe4Co15NiP12
_chemical_formula_sum   'Sc4 Fe4 Co15 Ni1 P12'
_cell_volume   424.91666265
_cell_formula_units_Z   1
loop_
 _symmetry_equiv_pos_site_id
 _symmetry_equiv_pos_as_xyz
  1  'x, y, z'
loop_
 _atom_site_type_symbol
 _atom_site_label
 _atom_site_symmetry_multiplicity
 _atom_site_fract_x
 _atom_site_fract_y
 _atom_site_fract_z
 _atom_site_occupancy
  Sc  Sc0  1  0.250000  0.581241  0.705267  1
  Sc  Sc1  1  0.250000  0.919709  0.203505  1
  Sc  Sc2  1  0.750000  0.419489  0.294366  1
  Sc  Sc3  1  0.750000  0.079842  0.796662  1
  Fe  Fe4  1  0.250000  0.712203  0.988288  1
  Fe  Fe5  1  0.250000  0.788672  0.488504  1
  Fe  Fe6  1  0.750000  0.287570  0.011707  1
  Fe  Fe7  1  0.750000  0.212875  0.512315  1
  Co  Co8  1  0.250000  0.092500  0.984774  1
  Co  Co9  1  0.750000  0.591377  0.514610  1
  Co  Co10  1  0.750000  0.907075  0.015028  1
  Co  Co11  1  0.250000  0.221821  0.175881  1
  Co  Co12  1  0.250000  0.278454  0.677188  1
  Co  Co13  1  0.750000  0.777771  0.822834  1
  Co  Co14  1  0.750000  0.722453  0.323209  1
  Co  Co15  1  0.250000  0.882230  0.699781  1
  Co  Co16  1  0.250000  0.617415  0.199905  1
  Co  Co17  1  0.750000  0.117401  0.299883  1
  Co  Co18  1  0.750000  0.381797  0.801344  1
  Co  Co19  1  0.250000  0.465215  0.932301  1
  Co  Co20  1  0.250000  0.034809  0.432498  1
  Co  Co21  1  0.750000  0.534872  0.068047  1
  Co  Co22  1  0.750000  0.965485  0.568006  1
  Ni  Ni23  1  0.250000  0.407602  0.483917  1
  P  P24  1  0.250000  0.419843  0.115348  1
  P  P25  1  0.250000  0.080093  0.616412  1
  P  P26  1  0.750000  0.580317  0.884647  1
  P  P27  1  0.750000  0.920044  0.384371  1
  P  P28  1  0.250000  0.264233  0.867363  1
  P  P29  1  0.250000  0.233437  0.364194  1
  P  P30  1  0.750000  0.735662  0.133079  1
  P  P31  1  0.750000  0.764328  0.633102  1
  P  P32  1  0.250000  0.601668  0.389058  1
  P  P33  1  0.250000  0.900653  0.890236  1
  P  P34  1  0.750000  0.401168  0.613139  1
  P  P35  1  0.750000  0.098674  0.109230  1
