# generated using pymatgen
data_Ho8Co3Si12Ir
_symmetry_space_group_name_H-M   'P 1'
_cell_length_a   8.02114900
_cell_length_b   8.02114856
_cell_length_c   7.88067500
_cell_angle_alpha   90.00000000
_cell_angle_beta   90.00000000
_cell_angle_gamma   120.00000596
_symmetry_Int_Tables_number   1
_chemical_formula_structural   Ho8Co3Si12Ir
_chemical_formula_sum   'Ho8 Co3 Si12 Ir1'
_cell_volume   439.10377093
_cell_formula_units_Z   1
loop_
 _symmetry_equiv_pos_site_id
 _symmetry_equiv_pos_as_xyz
  1  'x, y, z'
loop_
 _atom_site_type_symbol
 _atom_site_label
 _atom_site_symmetry_multiplicity
 _atom_site_fract_x
 _atom_site_fract_y
 _atom_site_fract_z
 _atom_site_occupancy
  Ho  Ho0  1  0.000000  0.000000  0.251935  1
  Ho  Ho1  1  0.000000  0.000000  0.748151  1
  Ho  Ho2  1  0.507793  0.492207  0.251412  1
  Ho  Ho3  1  0.507793  0.015586  0.251412  1
  Ho  Ho4  1  0.984414  0.492207  0.251412  1
  Ho  Ho5  1  0.494453  0.505547  0.750064  1
  Ho  Ho6  1  0.494453  0.988905  0.750064  1
  Ho  Ho7  1  0.011095  0.505547  0.750064  1
  Co  Co8  1  0.333333  0.666667  0.465062  1
  Co  Co9  1  0.666667  0.333333  0.532685  1
  Co  Co10  1  0.666667  0.333333  0.967555  1
  Si  Si11  1  0.171797  0.828203  0.499364  1
  Si  Si12  1  0.171797  0.343593  0.499364  1
  Si  Si13  1  0.656407  0.828203  0.499364  1
  Si  Si14  1  0.828823  0.171177  0.501509  1
  Si  Si15  1  0.828823  0.657648  0.501509  1
  Si  Si16  1  0.342352  0.171177  0.501509  1
  Si  Si17  1  0.827752  0.172248  0.998890  1
  Si  Si18  1  0.827752  0.655504  0.998890  1
  Si  Si19  1  0.344496  0.172248  0.998890  1
  Si  Si20  1  0.165664  0.834336  0.999818  1
  Si  Si21  1  0.165664  0.331327  0.999818  1
  Si  Si22  1  0.668673  0.834336  0.999818  1
  Ir  Ir23  1  0.333333  0.666667  0.031440  1
