# generated using pymatgen
data_Li2Y3AlCdSi2
_symmetry_space_group_name_H-M   'P 1'
_cell_length_a   7.06550000
_cell_length_b   7.04725770
_cell_length_c   4.35355800
_cell_angle_alpha   90.00000000
_cell_angle_beta   90.00000000
_cell_angle_gamma   120.08566612
_symmetry_Int_Tables_number   1
_chemical_formula_structural   Li2Y3AlCdSi2
_chemical_formula_sum   'Li2 Y3 Al1 Cd1 Si2'
_cell_volume   187.56961060
_cell_formula_units_Z   1
loop_
 _symmetry_equiv_pos_site_id
 _symmetry_equiv_pos_as_xyz
  1  'x, y, z'
loop_
 _atom_site_type_symbol
 _atom_site_label
 _atom_site_symmetry_multiplicity
 _atom_site_fract_x
 _atom_site_fract_y
 _atom_site_fract_z
 _atom_site_occupancy
  Li  Li0  1  0.753792  0.751284  0.500000  1
  Li  Li1  1  0.002508  0.248716  0.500000  1
  Y  Y2  1  0.999872  0.562838  0.000000  1
  Y  Y3  1  0.566343  0.000000  0.000000  1
  Y  Y4  1  0.437034  0.437162  0.000000  1
  Al  Al5  1  0.250628  0.000000  0.500000  1
  Cd  Cd6  1  0.998359  0.000000  0.000000  1
  Si  Si7  1  0.331969  0.672477  0.500000  1
  Si  Si8  1  0.659494  0.327523  0.500000  1
