# generated using pymatgen
data_TbTh3(B4Rh)4
_symmetry_space_group_name_H-M   'P 1'
_cell_length_a   7.08545960
_cell_length_b   7.08546028
_cell_length_c   7.08545992
_cell_angle_alpha   111.68219470
_cell_angle_beta   111.68219455
_cell_angle_gamma   105.13439297
_symmetry_Int_Tables_number   1
_chemical_formula_structural   TbTh3(B4Rh)4
_chemical_formula_sum   'Tb1 Th3 B16 Rh4'
_cell_volume   272.66581357
_cell_formula_units_Z   1
loop_
 _symmetry_equiv_pos_site_id
 _symmetry_equiv_pos_as_xyz
  1  'x, y, z'
loop_
 _atom_site_type_symbol
 _atom_site_label
 _atom_site_symmetry_multiplicity
 _atom_site_fract_x
 _atom_site_fract_y
 _atom_site_fract_z
 _atom_site_occupancy
  Tb  Tb0  1  0.250000  0.750000  0.500000  1
  Th  Th1  1  0.212992  0.212992  0.000000  1
  Th  Th2  1  0.787008  0.787008  0.000000  1
  Th  Th3  1  0.750000  0.250000  0.500000  1
  B  B4  1  0.107456  0.264950  0.373149  1
  B  B5  1  0.891801  0.734307  0.626851  1
  B  B6  1  0.891801  0.264950  0.157495  1
  B  B7  1  0.107456  0.734307  0.842505  1
  B  B8  1  0.735050  0.892544  0.626851  1
  B  B9  1  0.265693  0.108199  0.373149  1
  B  B10  1  0.735050  0.108199  0.842505  1
  B  B11  1  0.265693  0.892544  0.157495  1
  B  B12  1  0.411860  0.413843  0.522737  1
  B  B13  1  0.891107  0.889124  0.477263  1
  B  B14  1  0.586157  0.108893  0.998017  1
  B  B15  1  0.110876  0.588140  0.001983  1
  B  B16  1  0.586157  0.588140  0.477263  1
  B  B17  1  0.110876  0.108893  0.522737  1
  B  B18  1  0.891107  0.413843  0.001983  1
  B  B19  1  0.411860  0.889124  0.998017  1
  Rh  Rh20  1  0.498733  0.260045  0.761312  1
  Rh  Rh21  1  0.498733  0.737419  0.238688  1
  Rh  Rh22  1  0.739955  0.501267  0.238688  1
  Rh  Rh23  1  0.262581  0.501267  0.761312  1
