# generated using pymatgen
data_Yb2HoAl3Si2Ni
_symmetry_space_group_name_H-M   'P 1'
_cell_length_a   6.84000230
_cell_length_b   6.84000228
_cell_length_c   4.23964200
_cell_angle_alpha   90.00000000
_cell_angle_beta   90.00000000
_cell_angle_gamma   120.25772651
_symmetry_Int_Tables_number   1
_chemical_formula_structural   Yb2HoAl3Si2Ni
_chemical_formula_sum   'Yb2 Ho1 Al3 Si2 Ni1'
_cell_volume   171.33203392
_cell_formula_units_Z   1
loop_
 _symmetry_equiv_pos_site_id
 _symmetry_equiv_pos_as_xyz
  1  'x, y, z'
loop_
 _atom_site_type_symbol
 _atom_site_label
 _atom_site_symmetry_multiplicity
 _atom_site_fract_x
 _atom_site_fract_y
 _atom_site_fract_z
 _atom_site_occupancy
  Yb  Yb0  1  0.411474  0.000017  0.000000  1
  Yb  Yb1  1  0.000017  0.411473  0.000000  1
  Ho  Ho2  1  0.588204  0.588203  0.000000  1
  Al  Al3  1  0.765528  0.998432  0.499999  1
  Al  Al4  1  0.235522  0.235522  0.499999  1
  Al  Al5  1  0.998432  0.765528  0.499999  1
  Si  Si6  1  0.665349  0.338976  0.499999  1
  Si  Si7  1  0.338976  0.665349  0.499999  1
  Ni  Ni8  1  0.996499  0.996499  0.000000  1
