# generated using pymatgen
data_MnRuCl6
_symmetry_space_group_name_H-M   'P 1'
_cell_length_a   6.14333000
_cell_length_b   6.14333100
_cell_length_c   19.76905700
_cell_angle_alpha   90.00000000
_cell_angle_beta   90.00000000
_cell_angle_gamma   119.99999461
_symmetry_Int_Tables_number   1
_chemical_formula_structural   MnRuCl6
_chemical_formula_sum   'Mn3 Ru3 Cl18'
_cell_volume   646.13664064
_cell_formula_units_Z   3
loop_
 _symmetry_equiv_pos_site_id
 _symmetry_equiv_pos_as_xyz
  1  'x, y, z'
loop_
 _atom_site_type_symbol
 _atom_site_label
 _atom_site_symmetry_multiplicity
 _atom_site_fract_x
 _atom_site_fract_y
 _atom_site_fract_z
 _atom_site_occupancy
  Mn  Mn0  1  0.555329  0.110657  0.166667  1
  Mn  Mn1  1  0.889343  0.444671  0.500000  1
  Mn  Mn2  1  0.555329  0.444671  0.833333  1
  Ru  Ru3  1  0.222079  0.444158  0.166667  1
  Ru  Ru4  1  0.555842  0.777921  0.500000  1
  Ru  Ru5  1  0.222079  0.777921  0.833333  1
  Cl  Cl6  1  0.530691  0.760535  0.766177  1
  Cl  Cl7  1  0.896104  0.760346  0.900567  1
  Cl  Cl8  1  0.530557  0.103871  0.900548  1
  Cl  Cl9  1  0.864244  0.760346  0.432766  1
  Cl  Cl10  1  0.229843  0.469309  0.432843  1
  Cl  Cl11  1  0.896104  0.135756  0.099433  1
  Cl  Cl12  1  0.530691  0.770157  0.233823  1
  Cl  Cl13  1  0.896129  0.469443  0.766118  1
  Cl  Cl14  1  0.239465  0.469309  0.900490  1
  Cl  Cl15  1  0.573314  0.469443  0.567215  1
  Cl  Cl16  1  0.864244  0.103896  0.567234  1
  Cl  Cl17  1  0.229843  0.760535  0.567157  1
  Cl  Cl18  1  0.239654  0.135756  0.233900  1
  Cl  Cl19  1  0.573314  0.103871  0.432785  1
  Cl  Cl20  1  0.896129  0.426686  0.233882  1
  Cl  Cl21  1  0.530557  0.426686  0.099452  1
  Cl  Cl22  1  0.239654  0.103896  0.766100  1
  Cl  Cl23  1  0.239465  0.770157  0.099510  1
