# generated using pymatgen
data_Ho2GaNiRu
_symmetry_space_group_name_H-M   'P 1'
_cell_length_a   4.11641744
_cell_length_b   5.42424158
_cell_length_c   5.42424242
_cell_angle_alpha   62.20860227
_cell_angle_beta   67.70062174
_cell_angle_gamma   67.70061901
_symmetry_Int_Tables_number   1
_chemical_formula_structural   Ho2GaNiRu
_chemical_formula_sum   'Ho2 Ga1 Ni1 Ru1'
_cell_volume   96.04879981
_cell_formula_units_Z   1
loop_
 _symmetry_equiv_pos_site_id
 _symmetry_equiv_pos_as_xyz
  1  'x, y, z'
loop_
 _atom_site_type_symbol
 _atom_site_label
 _atom_site_symmetry_multiplicity
 _atom_site_fract_x
 _atom_site_fract_y
 _atom_site_fract_z
 _atom_site_occupancy
  Ho  Ho0  1  0.202809  0.290390  0.303991  1
  Ho  Ho1  1  0.797191  0.696009  0.709610  1
  Ga  Ga2  1  0.000000  0.995190  0.004810  1
  Ni  Ni3  1  0.500000  0.740378  0.259622  1
  Ru  Ru4  1  0.500000  0.278032  0.721968  1
