# generated using pymatgen
data_YSb16
_symmetry_space_group_name_H-M   'P 1'
_cell_length_a   4.29279339
_cell_length_b   4.29279277
_cell_length_c   32.77477700
_cell_angle_alpha   86.24506546
_cell_angle_beta   86.24506601
_cell_angle_gamma   60.00000583
_symmetry_Int_Tables_number   1
_chemical_formula_structural   YSb16
_chemical_formula_sum   'Y1 Sb16'
_cell_volume   521.56087965
_cell_formula_units_Z   1
loop_
 _symmetry_equiv_pos_site_id
 _symmetry_equiv_pos_as_xyz
  1  'x, y, z'
loop_
 _atom_site_type_symbol
 _atom_site_label
 _atom_site_symmetry_multiplicity
 _atom_site_fract_x
 _atom_site_fract_y
 _atom_site_fract_z
 _atom_site_occupancy
  Y  Y0  1  0.000000  0.000000  0.000000  1
  Sb  Sb1  1  0.292072  0.292072  0.123787  1
  Sb  Sb2  1  0.707928  0.707928  0.876213  1
  Sb  Sb3  1  0.236265  0.236265  0.291203  1
  Sb  Sb4  1  0.763735  0.763735  0.708797  1
  Sb  Sb5  1  0.469156  0.469156  0.592532  1
  Sb  Sb6  1  0.530844  0.530844  0.407468  1
  Sb  Sb7  1  0.352791  0.352791  0.941627  1
  Sb  Sb8  1  0.647209  0.647209  0.058373  1
  Sb  Sb9  1  0.058254  0.058254  0.825238  1
  Sb  Sb10  1  0.941746  0.941746  0.174762  1
  Sb  Sb11  1  0.414080  0.414080  0.757762  1
  Sb  Sb12  1  0.585920  0.585920  0.242238  1
  Sb  Sb13  1  0.119826  0.119826  0.640522  1
  Sb  Sb14  1  0.880174  0.880174  0.359478  1
  Sb  Sb15  1  0.174626  0.174626  0.476120  1
  Sb  Sb16  1  0.825374  0.825374  0.523880  1
