# generated using pymatgen
data_YbSi(AsRh2)3
_symmetry_space_group_name_H-M   'P 1'
_cell_length_a   7.23633300
_cell_length_b   7.23633344
_cell_length_c   3.77006000
_cell_angle_alpha   90.00000000
_cell_angle_beta   90.00000000
_cell_angle_gamma   119.99999344
_symmetry_Int_Tables_number   1
_chemical_formula_structural   YbSi(AsRh2)3
_chemical_formula_sum   'Yb1 Si1 As3 Rh6'
_cell_volume   170.96847441
_cell_formula_units_Z   1
loop_
 _symmetry_equiv_pos_site_id
 _symmetry_equiv_pos_as_xyz
  1  'x, y, z'
loop_
 _atom_site_type_symbol
 _atom_site_label
 _atom_site_symmetry_multiplicity
 _atom_site_fract_x
 _atom_site_fract_y
 _atom_site_fract_z
 _atom_site_occupancy
  Yb  Yb0  1  0.000000  0.000000  0.000000  1
  Si  Si1  1  0.333333  0.666667  0.000000  1
  As  As2  1  0.811164  0.622327  0.500000  1
  As  As3  1  0.377673  0.188836  0.500000  1
  As  As4  1  0.811164  0.188836  0.500000  1
  Rh  Rh5  1  0.533246  0.066493  0.000000  1
  Rh  Rh6  1  0.595566  0.797783  0.500000  1
  Rh  Rh7  1  0.202217  0.404434  0.500000  1
  Rh  Rh8  1  0.533246  0.466754  0.000000  1
  Rh  Rh9  1  0.202217  0.797783  0.500000  1
  Rh  Rh10  1  0.933507  0.466754  0.000000  1
