# generated using pymatgen
data_CsV(CuS2)2
_symmetry_space_group_name_H-M   'P 1'
_cell_length_a   10.02651295
_cell_length_b   10.02651326
_cell_length_c   7.58535600
_cell_angle_alpha   90.00000000
_cell_angle_beta   90.00000000
_cell_angle_gamma   148.54016865
_symmetry_Int_Tables_number   1
_chemical_formula_structural   CsV(CuS2)2
_chemical_formula_sum   'Cs2 V2 Cu4 S8'
_cell_volume   397.98222456
_cell_formula_units_Z   2
loop_
 _symmetry_equiv_pos_site_id
 _symmetry_equiv_pos_as_xyz
  1  'x, y, z'
loop_
 _atom_site_type_symbol
 _atom_site_label
 _atom_site_symmetry_multiplicity
 _atom_site_fract_x
 _atom_site_fract_y
 _atom_site_fract_z
 _atom_site_occupancy
  Cs  Cs0  1  0.170929  0.537322  0.750000  1
  Cs  Cs1  1  0.537322  0.170929  0.250000  1
  V  V2  1  0.705288  0.503388  0.750000  1
  V  V3  1  0.503388  0.705288  0.250000  1
  Cu  Cu4  1  0.616428  0.616428  0.500000  1
  Cu  Cu5  1  0.005624  0.203490  0.250000  1
  Cu  Cu6  1  0.203490  0.005624  0.750000  1
  Cu  Cu7  1  0.616428  0.616428  0.000000  1
  S  S8  1  0.737073  0.938986  0.013759  1
  S  S9  1  0.377244  0.365703  0.750000  1
  S  S10  1  0.365703  0.377244  0.250000  1
  S  S11  1  0.938986  0.737073  0.513759  1
  S  S12  1  0.560637  0.177203  0.750000  1
  S  S13  1  0.938986  0.737073  0.986241  1
  S  S14  1  0.177203  0.560637  0.250000  1
  S  S15  1  0.737073  0.938986  0.486241  1
