# generated using pymatgen
data_LiSc3Co16(MoP3)4
_symmetry_space_group_name_H-M   'P 1'
_cell_length_a   3.64168900
_cell_length_b   10.29963317
_cell_length_c   11.78083757
_cell_angle_alpha   89.76921661
_cell_angle_beta   90.00000000
_cell_angle_gamma   90.00000000
_symmetry_Int_Tables_number   1
_chemical_formula_structural   LiSc3Co16(MoP3)4
_chemical_formula_sum   'Li1 Sc3 Co16 Mo4 P12'
_cell_volume   441.87278759
_cell_formula_units_Z   1
loop_
 _symmetry_equiv_pos_site_id
 _symmetry_equiv_pos_as_xyz
  1  'x, y, z'
loop_
 _atom_site_type_symbol
 _atom_site_label
 _atom_site_symmetry_multiplicity
 _atom_site_fract_x
 _atom_site_fract_y
 _atom_site_fract_z
 _atom_site_occupancy
  Li  Li0  1  0.250000  0.577792  0.702268  1
  Sc  Sc1  1  0.250000  0.917033  0.206306  1
  Sc  Sc2  1  0.750000  0.417478  0.293728  1
  Sc  Sc3  1  0.750000  0.083376  0.794938  1
  Co  Co4  1  0.250000  0.405686  0.485096  1
  Co  Co5  1  0.250000  0.093365  0.986439  1
  Co  Co6  1  0.750000  0.591045  0.511607  1
  Co  Co7  1  0.750000  0.909088  0.014973  1
  Co  Co8  1  0.250000  0.221865  0.178900  1
  Co  Co9  1  0.250000  0.277541  0.677152  1
  Co  Co10  1  0.750000  0.782756  0.823298  1
  Co  Co11  1  0.750000  0.722267  0.320957  1
  Co  Co12  1  0.250000  0.887450  0.701225  1
  Co  Co13  1  0.250000  0.612312  0.201508  1
  Co  Co14  1  0.750000  0.112573  0.299498  1
  Co  Co15  1  0.750000  0.385659  0.798380  1
  Co  Co16  1  0.250000  0.466849  0.932715  1
  Co  Co17  1  0.250000  0.034821  0.433173  1
  Co  Co18  1  0.750000  0.535944  0.066438  1
  Co  Co19  1  0.750000  0.963617  0.567816  1
  Mo  Mo20  1  0.250000  0.710345  0.987912  1
  Mo  Mo21  1  0.250000  0.788978  0.489519  1
  Mo  Mo22  1  0.750000  0.290180  0.012710  1
  Mo  Mo23  1  0.750000  0.210559  0.513318  1
  P  P24  1  0.250000  0.421097  0.117117  1
  P  P25  1  0.250000  0.078778  0.618603  1
  P  P26  1  0.750000  0.580715  0.876986  1
  P  P27  1  0.750000  0.919772  0.382880  1
  P  P28  1  0.250000  0.266747  0.862938  1
  P  P29  1  0.250000  0.235728  0.364376  1
  P  P30  1  0.750000  0.736147  0.135596  1
  P  P31  1  0.750000  0.759135  0.638503  1
  P  P32  1  0.250000  0.592189  0.389811  1
  P  P33  1  0.250000  0.908032  0.888988  1
  P  P34  1  0.750000  0.410174  0.612493  1
  P  P35  1  0.750000  0.092911  0.111834  1
