# generated using pymatgen
data_Rb2LaHoB24
_symmetry_space_group_name_H-M   'P 1'
_cell_length_a   4.18006500
_cell_length_b   4.18006500
_cell_length_c   16.78278600
_cell_angle_alpha   90.00000000
_cell_angle_beta   90.00000000
_cell_angle_gamma   90.00000000
_symmetry_Int_Tables_number   1
_chemical_formula_structural   Rb2LaHoB24
_chemical_formula_sum   'Rb2 La1 Ho1 B24'
_cell_volume   293.24466994
_cell_formula_units_Z   1
loop_
 _symmetry_equiv_pos_site_id
 _symmetry_equiv_pos_as_xyz
  1  'x, y, z'
loop_
 _atom_site_type_symbol
 _atom_site_label
 _atom_site_symmetry_multiplicity
 _atom_site_fract_x
 _atom_site_fract_y
 _atom_site_fract_z
 _atom_site_occupancy
  Rb  Rb0  1  0.000000  0.000000  0.249515  1
  Rb  Rb1  1  0.000000  0.000000  0.750485  1
  La  La2  1  0.000000  0.000000  0.500000  1
  Ho  Ho3  1  0.000000  0.000000  0.000000  1
  B  B4  1  0.201942  0.500000  0.120792  1
  B  B5  1  0.202816  0.500000  0.377183  1
  B  B6  1  0.202816  0.500000  0.622817  1
  B  B7  1  0.201942  0.500000  0.879208  1
  B  B8  1  0.500000  0.500000  0.196791  1
  B  B9  1  0.500000  0.500000  0.450448  1
  B  B10  1  0.500000  0.500000  0.698407  1
  B  B11  1  0.500000  0.500000  0.951493  1
  B  B12  1  0.500000  0.201942  0.120792  1
  B  B13  1  0.500000  0.202816  0.377183  1
  B  B14  1  0.500000  0.202816  0.622817  1
  B  B15  1  0.500000  0.201942  0.879208  1
  B  B16  1  0.500000  0.500000  0.048507  1
  B  B17  1  0.500000  0.500000  0.301593  1
  B  B18  1  0.500000  0.500000  0.549552  1
  B  B19  1  0.500000  0.500000  0.803209  1
  B  B20  1  0.500000  0.798058  0.120792  1
  B  B21  1  0.500000  0.797184  0.377183  1
  B  B22  1  0.500000  0.797184  0.622817  1
  B  B23  1  0.500000  0.798058  0.879208  1
  B  B24  1  0.798058  0.500000  0.120792  1
  B  B25  1  0.797184  0.500000  0.377183  1
  B  B26  1  0.797184  0.500000  0.622817  1
  B  B27  1  0.798058  0.500000  0.879208  1
