# generated using pymatgen
data_Pr8Nd2InBi5Br2
_symmetry_space_group_name_H-M   'P 1'
_cell_length_a   9.73951005
_cell_length_b   9.68558987
_cell_length_c   6.78848403
_cell_angle_alpha   89.99415389
_cell_angle_beta   90.01162748
_cell_angle_gamma   120.18433495
_symmetry_Int_Tables_number   1
_chemical_formula_structural   Pr8Nd2InBi5Br2
_chemical_formula_sum   'Pr8 Nd2 In1 Bi5 Br2'
_cell_volume   553.55007559
_cell_formula_units_Z   1
loop_
 _symmetry_equiv_pos_site_id
 _symmetry_equiv_pos_as_xyz
  1  'x, y, z'
loop_
 _atom_site_type_symbol
 _atom_site_label
 _atom_site_symmetry_multiplicity
 _atom_site_fract_x
 _atom_site_fract_y
 _atom_site_fract_z
 _atom_site_occupancy
  Pr  Pr0  1  0.273790  0.000000  0.749843  1
  Pr  Pr1  1  0.727186  0.000000  0.250235  1
  Pr  Pr2  1  0.996314  0.269158  0.749766  1
  Pr  Pr3  1  0.999975  0.729330  0.250143  1
  Pr  Pr4  1  0.727155  0.730842  0.749766  1
  Pr  Pr5  1  0.270646  0.270670  0.250143  1
  Pr  Pr6  1  0.666676  0.331506  0.001787  1
  Pr  Pr7  1  0.335169  0.668494  0.001787  1
  Nd  Nd8  1  0.335150  0.668495  0.498175  1
  Nd  Nd9  1  0.666657  0.331505  0.498175  1
  In  In10  1  0.614118  0.000000  0.749659  1
  Bi  Bi11  1  0.386833  0.000000  0.250579  1
  Bi  Bi12  1  0.998621  0.615452  0.749451  1
  Bi  Bi13  1  0.999648  0.383583  0.250512  1
  Bi  Bi14  1  0.383168  0.384548  0.749451  1
  Bi  Bi15  1  0.616064  0.616417  0.250512  1
  Br  Br16  1  0.001415  0.000000  0.499703  1
  Br  Br17  1  0.001413  0.000000  0.000311  1
