# generated using pymatgen
data_ErZr5Zn23C
_symmetry_space_group_name_H-M   'P 1'
_cell_length_a   8.75831004
_cell_length_b   8.72618150
_cell_length_c   8.72618137
_cell_angle_alpha   60.24373011
_cell_angle_beta   59.87812842
_cell_angle_gamma   59.87812056
_symmetry_Int_Tables_number   1
_chemical_formula_structural   ErZr5Zn23C
_chemical_formula_sum   'Er1 Zr5 Zn23 C1'
_cell_volume   471.56537293
_cell_formula_units_Z   1
loop_
 _symmetry_equiv_pos_site_id
 _symmetry_equiv_pos_as_xyz
  1  'x, y, z'
loop_
 _atom_site_type_symbol
 _atom_site_label
 _atom_site_symmetry_multiplicity
 _atom_site_fract_x
 _atom_site_fract_y
 _atom_site_fract_z
 _atom_site_occupancy
  Er  Er0  1  0.699448  0.300552  0.300552  1
  Zr  Zr1  1  0.301908  0.698092  0.698092  1
  Zr  Zr2  1  0.310320  0.689680  0.316109  1
  Zr  Zr3  1  0.683891  0.316109  0.689680  1
  Zr  Zr4  1  0.310320  0.316109  0.689680  1
  Zr  Zr5  1  0.683891  0.689680  0.316109  1
  Zn  Zn6  1  0.129750  0.116279  0.116279  1
  Zn  Zn7  1  0.878136  0.879752  0.879752  1
  Zn  Zn8  1  0.120248  0.121864  0.637642  1
  Zn  Zn9  1  0.120248  0.637642  0.121864  1
  Zn  Zn10  1  0.883721  0.870250  0.362306  1
  Zn  Zn11  1  0.883721  0.362306  0.870250  1
  Zn  Zn12  1  0.637694  0.116279  0.116279  1
  Zn  Zn13  1  0.362358  0.879752  0.879752  1
  Zn  Zn14  1  0.499317  0.000683  0.000683  1
  Zn  Zn15  1  0.999317  0.500683  0.500683  1
  Zn  Zn16  1  0.000428  0.500105  0.999572  1
  Zn  Zn17  1  0.499895  0.999572  0.500105  1
  Zn  Zn18  1  0.000428  0.999572  0.500105  1
  Zn  Zn19  1  0.499895  0.500105  0.999572  1
  Zn  Zn20  1  0.328822  0.330763  0.330763  1
  Zn  Zn21  1  0.665959  0.669909  0.669909  1
  Zn  Zn22  1  0.330091  0.334041  0.005778  1
  Zn  Zn23  1  0.330091  0.005778  0.334041  1
  Zn  Zn24  1  0.669237  0.671178  0.990348  1
  Zn  Zn25  1  0.669237  0.990348  0.671178  1
  Zn  Zn26  1  0.009652  0.330763  0.330763  1
  Zn  Zn27  1  0.994222  0.669909  0.669909  1
  Zn  Zn28  1  0.000836  0.999164  0.999164  1
  C  C29  1  0.496919  0.503081  0.503081  1
