# generated using pymatgen
data_LiThPt3Au
_symmetry_space_group_name_H-M   'P 1'
_cell_length_a   5.23667585
_cell_length_b   5.23667670
_cell_length_c   5.23667700
_cell_angle_alpha   62.29485312
_cell_angle_beta   62.29483587
_cell_angle_gamma   62.29486032
_symmetry_Int_Tables_number   1
_chemical_formula_structural   LiThPt3Au
_chemical_formula_sum   'Li1 Th1 Pt3 Au1'
_cell_volume   106.74453649
_cell_formula_units_Z   1
loop_
 _symmetry_equiv_pos_site_id
 _symmetry_equiv_pos_as_xyz
  1  'x, y, z'
loop_
 _atom_site_type_symbol
 _atom_site_label
 _atom_site_symmetry_multiplicity
 _atom_site_fract_x
 _atom_site_fract_y
 _atom_site_fract_z
 _atom_site_occupancy
  Li  Li0  1  0.621329  0.621329  0.621329  1
  Th  Th1  1  0.005937  0.005937  0.005937  1
  Pt  Pt2  1  0.623078  0.623078  0.124544  1
  Pt  Pt3  1  0.623078  0.124544  0.623078  1
  Pt  Pt4  1  0.124544  0.623078  0.623078  1
  Au  Au5  1  0.252033  0.252033  0.252033  1
