# generated using pymatgen
data_Ho6Fe3Co14MoP12
_symmetry_space_group_name_H-M   'P 1'
_cell_length_a   3.70573400
_cell_length_b   10.55801100
_cell_length_c   12.12943000
_cell_angle_alpha   90.00000000
_cell_angle_beta   90.00000000
_cell_angle_gamma   90.00000000
_symmetry_Int_Tables_number   1
_chemical_formula_structural   Ho6Fe3Co14MoP12
_chemical_formula_sum   'Ho6 Fe3 Co14 Mo1 P12'
_cell_volume   474.56613611
_cell_formula_units_Z   1
loop_
 _symmetry_equiv_pos_site_id
 _symmetry_equiv_pos_as_xyz
  1  'x, y, z'
loop_
 _atom_site_type_symbol
 _atom_site_label
 _atom_site_symmetry_multiplicity
 _atom_site_fract_x
 _atom_site_fract_y
 _atom_site_fract_z
 _atom_site_occupancy
  Ho  Ho0  1  0.000000  0.500000  0.525232  1
  Ho  Ho1  1  0.500000  0.000000  0.477841  1
  Ho  Ho2  1  0.500000  0.819188  0.204254  1
  Ho  Ho3  1  0.500000  0.180812  0.204254  1
  Ho  Ho4  1  0.000000  0.681462  0.796813  1
  Ho  Ho5  1  0.000000  0.318538  0.796813  1
  Fe  Fe6  1  0.000000  0.500000  0.985209  1
  Fe  Fe7  1  0.500000  0.000000  0.011396  1
  Fe  Fe8  1  0.000000  0.000000  0.843973  1
  Co  Co9  1  0.500000  0.295265  0.432075  1
  Co  Co10  1  0.500000  0.704735  0.432075  1
  Co  Co11  1  0.000000  0.202782  0.570027  1
  Co  Co12  1  0.000000  0.797218  0.570027  1
  Co  Co13  1  0.500000  0.879406  0.709036  1
  Co  Co14  1  0.500000  0.120594  0.709036  1
  Co  Co15  1  0.000000  0.622326  0.292738  1
  Co  Co16  1  0.000000  0.377674  0.292738  1
  Co  Co17  1  0.500000  0.330049  0.990402  1
  Co  Co18  1  0.500000  0.669951  0.990402  1
  Co  Co19  1  0.000000  0.166556  0.005732  1
  Co  Co20  1  0.000000  0.833444  0.005732  1
  Co  Co21  1  0.500000  0.500000  0.698948  1
  Co  Co22  1  0.000000  0.000000  0.299318  1
  Mo  Mo23  1  0.500000  0.500000  0.155301  1
  P  P24  1  0.500000  0.309419  0.617520  1
  P  P25  1  0.500000  0.690581  0.617520  1
  P  P26  1  0.000000  0.188936  0.384252  1
  P  P27  1  0.000000  0.811064  0.384252  1
  P  P28  1  0.500000  0.500000  0.881756  1
  P  P29  1  0.000000  0.000000  0.116357  1
  P  P30  1  0.500000  0.848903  0.891926  1
  P  P31  1  0.500000  0.151097  0.891926  1
  P  P32  1  0.000000  0.655444  0.103678  1
  P  P33  1  0.000000  0.344556  0.103678  1
  P  P34  1  0.500000  0.500000  0.349481  1
  P  P35  1  0.000000  0.000000  0.658281  1
