# generated using pymatgen
data_Dy8Al3Si8Pb
_symmetry_space_group_name_H-M   'P 1'
_cell_length_a   5.60062371
_cell_length_b   5.60062419
_cell_length_c   19.69722500
_cell_angle_alpha   81.62763215
_cell_angle_beta   81.62763142
_cell_angle_gamma   42.96371621
_symmetry_Int_Tables_number   1
_chemical_formula_structural   Dy8Al3Si8Pb
_chemical_formula_sum   'Dy8 Al3 Si8 Pb1'
_cell_volume   415.89446303
_cell_formula_units_Z   1
loop_
 _symmetry_equiv_pos_site_id
 _symmetry_equiv_pos_as_xyz
  1  'x, y, z'
loop_
 _atom_site_type_symbol
 _atom_site_label
 _atom_site_symmetry_multiplicity
 _atom_site_fract_x
 _atom_site_fract_y
 _atom_site_fract_z
 _atom_site_occupancy
  Dy  Dy0  1  0.460223  0.460223  0.673945  1
  Dy  Dy1  1  0.705744  0.705744  0.923947  1
  Dy  Dy2  1  0.977256  0.977256  0.183755  1
  Dy  Dy3  1  0.218115  0.218115  0.428681  1
  Dy  Dy4  1  0.781885  0.781885  0.571319  1
  Dy  Dy5  1  0.022744  0.022744  0.816245  1
  Dy  Dy6  1  0.294256  0.294256  0.076053  1
  Dy  Dy7  1  0.539777  0.539777  0.326055  1
  Al  Al8  1  0.258113  0.258113  0.255793  1
  Al  Al9  1  0.500000  0.500000  0.500000  1
  Al  Al10  1  0.741887  0.741887  0.744207  1
  Si  Si11  1  0.170085  0.170085  0.673678  1
  Si  Si12  1  0.409721  0.409721  0.915451  1
  Si  Si13  1  0.692646  0.692646  0.185086  1
  Si  Si14  1  0.929141  0.929141  0.429014  1
  Si  Si15  1  0.070859  0.070859  0.570986  1
  Si  Si16  1  0.307354  0.307354  0.814914  1
  Si  Si17  1  0.590279  0.590279  0.084549  1
  Si  Si18  1  0.829915  0.829915  0.326322  1
  Pb  Pb19  1  0.000000  0.000000  0.000000  1
