# generated using pymatgen
data_BiMo2(PO4)3
_symmetry_space_group_name_H-M   'P 1'
_cell_length_a   8.89982163
_cell_length_b   8.89982237
_cell_length_c   9.19599664
_cell_angle_alpha   60.98214586
_cell_angle_beta   60.98214471
_cell_angle_gamma   60.06006769
_symmetry_Int_Tables_number   1
_chemical_formula_structural   BiMo2(PO4)3
_chemical_formula_sum   'Bi2 Mo4 P6 O24'
_cell_volume   522.80405953
_cell_formula_units_Z   2
loop_
 _symmetry_equiv_pos_site_id
 _symmetry_equiv_pos_as_xyz
  1  'x, y, z'
loop_
 _atom_site_type_symbol
 _atom_site_label
 _atom_site_symmetry_multiplicity
 _atom_site_fract_x
 _atom_site_fract_y
 _atom_site_fract_z
 _atom_site_occupancy
  Bi  Bi0  1  0.005823  0.495708  0.747799  1
  Bi  Bi1  1  0.504292  0.994177  0.252201  1
  Mo  Mo2  1  0.650552  0.140236  0.812349  1
  Mo  Mo3  1  0.859764  0.349448  0.187651  1
  Mo  Mo4  1  0.151599  0.641508  0.309457  1
  Mo  Mo5  1  0.358492  0.848401  0.690543  1
  P  P6  1  0.255488  0.450438  0.000128  1
  P  P7  1  0.462011  0.245050  0.501050  1
  P  P8  1  0.047557  0.952443  0.500000  1
  P  P9  1  0.960858  0.039142  0.000000  1
  P  P10  1  0.549562  0.744512  0.999872  1
  P  P11  1  0.754950  0.537989  0.498950  1
  O  O12  1  0.018022  0.101596  0.330359  1
  O  O13  1  0.806858  0.510178  0.327914  1
  O  O14  1  0.415272  0.258481  0.009825  1
  O  O15  1  0.311743  0.597173  0.830819  1
  O  O16  1  0.238519  0.928743  0.494333  1
  O  O17  1  0.611861  0.296310  0.332883  1
  O  O18  1  0.489822  0.193142  0.672086  1
  O  O19  1  0.095248  0.429346  0.989430  1
  O  O20  1  0.439428  0.084104  0.493081  1
  O  O21  1  0.271190  0.406449  0.506344  1
  O  O22  1  0.898404  0.981978  0.669641  1
  O  O23  1  0.071257  0.761481  0.505667  1
  O  O24  1  0.938819  0.230905  0.990643  1
  O  O25  1  0.107768  0.006998  0.830312  1
  O  O26  1  0.570654  0.904752  0.010570  1
  O  O27  1  0.741519  0.584728  0.990175  1
  O  O28  1  0.915896  0.560572  0.506919  1
  O  O29  1  0.518043  0.800157  0.829703  1
  O  O30  1  0.402827  0.688257  0.169181  1
  O  O31  1  0.769095  0.061181  0.009357  1
  O  O32  1  0.703690  0.388139  0.667117  1
  O  O33  1  0.593551  0.728810  0.493656  1
  O  O34  1  0.199843  0.481957  0.170297  1
  O  O35  1  0.993002  0.892232  0.169688  1
