# generated using pymatgen
data_Dy3Er13In3HgRh4
_symmetry_space_group_name_H-M   'P 1'
_cell_length_a   9.58244393
_cell_length_b   9.58167670
_cell_length_c   9.59283700
_cell_angle_alpha   59.96064257
_cell_angle_beta   59.96433024
_cell_angle_gamma   60.02863942
_symmetry_Int_Tables_number   1
_chemical_formula_structural   Dy3Er13In3HgRh4
_chemical_formula_sum   'Dy3 Er13 In3 Hg1 Rh4'
_cell_volume   622.58289574
_cell_formula_units_Z   1
loop_
 _symmetry_equiv_pos_site_id
 _symmetry_equiv_pos_as_xyz
  1  'x, y, z'
loop_
 _atom_site_type_symbol
 _atom_site_label
 _atom_site_symmetry_multiplicity
 _atom_site_fract_x
 _atom_site_fract_y
 _atom_site_fract_z
 _atom_site_occupancy
  Dy  Dy0  1  0.189246  0.189595  0.810574  1
  Dy  Dy1  1  0.437509  0.059436  0.065352  1
  Dy  Dy2  1  0.437512  0.059440  0.437698  1
  Er  Er3  1  0.062578  0.436271  0.063728  1
  Er  Er4  1  0.649003  0.051231  0.649882  1
  Er  Er5  1  0.189009  0.810416  0.811905  1
  Er  Er6  1  0.062659  0.058778  0.439279  1
  Er  Er7  1  0.811188  0.189886  0.189252  1
  Er  Er8  1  0.813088  0.809613  0.188650  1
  Er  Er9  1  0.650044  0.648947  0.049518  1
  Er  Er10  1  0.650041  0.648948  0.651491  1
  Er  Er11  1  0.062579  0.436275  0.437411  1
  Er  Er12  1  0.051610  0.648278  0.650052  1
  Er  Er13  1  0.811194  0.189877  0.809677  1
  Er  Er14  1  0.437511  0.435705  0.063399  1
  Er  Er15  1  0.189022  0.810411  0.188672  1
  In  In16  1  0.416982  0.419560  0.747534  1
  In  In17  1  0.747847  0.419710  0.416220  1
  In  In18  1  0.416985  0.419563  0.415923  1
  Hg  Hg19  1  0.413742  0.758394  0.413931  1
  Rh  Rh20  1  0.856936  0.427586  0.857733  1
  Rh  Rh21  1  0.857882  0.857650  0.428122  1
  Rh  Rh22  1  0.427970  0.856760  0.857640  1
  Rh  Rh23  1  0.857864  0.857670  0.856360  1
