# generated using pymatgen
data_Tm2Lu2B12RuW
_symmetry_space_group_name_H-M   'P 1'
_cell_length_a   3.57980200
_cell_length_b   9.12670152
_cell_length_c   11.52234552
_cell_angle_alpha   89.78886819
_cell_angle_beta   90.00000000
_cell_angle_gamma   90.00000000
_symmetry_Int_Tables_number   1
_chemical_formula_structural   Tm2Lu2B12RuW
_chemical_formula_sum   'Tm4 Lu4 B24 Ru2 W2'
_cell_volume   376.45303222
_cell_formula_units_Z   2
loop_
 _symmetry_equiv_pos_site_id
 _symmetry_equiv_pos_as_xyz
  1  'x, y, z'
loop_
 _atom_site_type_symbol
 _atom_site_label
 _atom_site_symmetry_multiplicity
 _atom_site_fract_x
 _atom_site_fract_y
 _atom_site_fract_z
 _atom_site_occupancy
  Tm  Tm0  1  0.000000  0.321587  0.414173  1
  Tm  Tm1  1  0.000000  0.678413  0.585827  1
  Tm  Tm2  1  0.000000  0.821250  0.086334  1
  Tm  Tm3  1  0.000000  0.178750  0.913666  1
  Lu  Lu4  1  0.000000  0.945442  0.371550  1
  Lu  Lu5  1  0.000000  0.054558  0.628450  1
  Lu  Lu6  1  0.000000  0.442125  0.127396  1
  Lu  Lu7  1  0.000000  0.557875  0.872604  1
  B  B8  1  0.500000  0.551289  0.434707  1
  B  B9  1  0.500000  0.448711  0.565293  1
  B  B10  1  0.500000  0.053968  0.066578  1
  B  B11  1  0.500000  0.946032  0.933422  1
  B  B12  1  0.500000  0.752485  0.422003  1
  B  B13  1  0.500000  0.247515  0.577997  1
  B  B14  1  0.500000  0.249320  0.080574  1
  B  B15  1  0.500000  0.750680  0.919426  1
  B  B16  1  0.500000  0.796988  0.263174  1
  B  B17  1  0.500000  0.203012  0.736826  1
  B  B18  1  0.500000  0.290823  0.233918  1
  B  B19  1  0.500000  0.709177  0.766082  1
  B  B20  1  0.500000  0.631446  0.181200  1
  B  B21  1  0.500000  0.368554  0.818800  1
  B  B22  1  0.500000  0.130475  0.314426  1
  B  B23  1  0.500000  0.869525  0.685574  1
  B  B24  1  0.500000  0.983023  0.212215  1
  B  B25  1  0.500000  0.016977  0.787785  1
  B  B26  1  0.500000  0.476565  0.286208  1
  B  B27  1  0.500000  0.523435  0.713792  1
  B  B28  1  0.500000  0.603128  0.027438  1
  B  B29  1  0.500000  0.396872  0.972562  1
  B  B30  1  0.500000  0.102171  0.470909  1
  B  B31  1  0.500000  0.897829  0.529091  1
  Ru  Ru32  1  0.000000  0.138266  0.178915  1
  Ru  Ru33  1  0.000000  0.861734  0.821085  1
  W  W34  1  0.000000  0.638972  0.319229  1
  W  W35  1  0.000000  0.361028  0.680771  1
