# generated using pymatgen
data_Ca3YbSb6Rh7
_symmetry_space_group_name_H-M   'P 1'
_cell_length_a   7.61479850
_cell_length_b   7.64009972
_cell_length_c   7.61479826
_cell_angle_alpha   109.53854075
_cell_angle_beta   109.40381536
_cell_angle_gamma   109.53854031
_symmetry_Int_Tables_number   1
_chemical_formula_structural   Ca3YbSb6Rh7
_chemical_formula_sum   'Ca3 Yb1 Sb6 Rh7'
_cell_volume   340.74733498
_cell_formula_units_Z   1
loop_
 _symmetry_equiv_pos_site_id
 _symmetry_equiv_pos_as_xyz
  1  'x, y, z'
loop_
 _atom_site_type_symbol
 _atom_site_label
 _atom_site_symmetry_multiplicity
 _atom_site_fract_x
 _atom_site_fract_y
 _atom_site_fract_z
 _atom_site_occupancy
  Ca  Ca0  1  0.500000  0.000000  0.000000  1
  Ca  Ca1  1  0.000000  0.000000  0.500000  1
  Ca  Ca2  1  0.500000  0.500000  0.500000  1
  Yb  Yb3  1  0.000000  0.500000  0.000000  1
  Sb  Sb4  1  0.318718  0.999820  0.318718  1
  Sb  Sb5  1  0.000000  0.681102  0.681282  1
  Sb  Sb6  1  0.681282  0.681102  0.000000  1
  Sb  Sb7  1  0.681282  0.000180  0.681282  1
  Sb  Sb8  1  0.000000  0.318898  0.318718  1
  Sb  Sb9  1  0.318718  0.318898  0.000000  1
  Rh  Rh10  1  0.248727  0.500000  0.751273  1
  Rh  Rh11  1  0.502547  0.251273  0.751273  1
  Rh  Rh12  1  0.751273  0.251273  0.502547  1
  Rh  Rh13  1  0.497453  0.748727  0.248727  1
  Rh  Rh14  1  0.000000  0.000000  0.000000  1
  Rh  Rh15  1  0.248727  0.748727  0.497453  1
  Rh  Rh16  1  0.751273  0.500000  0.248727  1
