# generated using pymatgen
data_Ce8Zn3Si12Ge
_symmetry_space_group_name_H-M   'P 1'
_cell_length_a   8.19794100
_cell_length_b   8.19794061
_cell_length_c   8.40817400
_cell_angle_alpha   90.00000000
_cell_angle_beta   90.00000000
_cell_angle_gamma   119.99999755
_symmetry_Int_Tables_number   1
_chemical_formula_structural   Ce8Zn3Si12Ge
_chemical_formula_sum   'Ce8 Zn3 Si12 Ge1'
_cell_volume   489.37512338
_cell_formula_units_Z   1
loop_
 _symmetry_equiv_pos_site_id
 _symmetry_equiv_pos_as_xyz
  1  'x, y, z'
loop_
 _atom_site_type_symbol
 _atom_site_label
 _atom_site_symmetry_multiplicity
 _atom_site_fract_x
 _atom_site_fract_y
 _atom_site_fract_z
 _atom_site_occupancy
  Ce  Ce0  1  0.000000  0.000000  0.248488  1
  Ce  Ce1  1  0.000000  0.000000  0.751575  1
  Ce  Ce2  1  0.499027  0.500973  0.246365  1
  Ce  Ce3  1  0.499027  0.998052  0.246365  1
  Ce  Ce4  1  0.001948  0.500973  0.246365  1
  Ce  Ce5  1  0.497680  0.502320  0.753624  1
  Ce  Ce6  1  0.497680  0.995361  0.753624  1
  Ce  Ce7  1  0.004639  0.502320  0.753624  1
  Zn  Zn8  1  0.333333  0.666667  0.496355  1
  Zn  Zn9  1  0.666667  0.333333  0.506136  1
  Zn  Zn10  1  0.666667  0.333333  0.996011  1
  Si  Si11  1  0.166117  0.833883  0.501058  1
  Si  Si12  1  0.166117  0.332234  0.501058  1
  Si  Si13  1  0.667766  0.833883  0.501058  1
  Si  Si14  1  0.833805  0.166195  0.498939  1
  Si  Si15  1  0.833805  0.667608  0.498939  1
  Si  Si16  1  0.332392  0.166195  0.498939  1
  Si  Si17  1  0.833130  0.166870  0.999797  1
  Si  Si18  1  0.833130  0.666259  0.999797  1
  Si  Si19  1  0.333741  0.166870  0.999797  1
  Si  Si20  1  0.162769  0.837231  0.000380  1
  Si  Si21  1  0.162769  0.325539  0.000380  1
  Si  Si22  1  0.674461  0.837231  0.000380  1
  Ge  Ge23  1  0.333333  0.666667  0.000949  1
