# generated using pymatgen
data_Lu9ScCd3Rh
_symmetry_space_group_name_H-M   'P 1'
_cell_length_a   9.38511100
_cell_length_b   9.38511115
_cell_length_c   9.40655500
_cell_angle_alpha   90.00000000
_cell_angle_beta   90.00000000
_cell_angle_gamma   119.99999596
_symmetry_Int_Tables_number   1
_chemical_formula_structural   Lu9ScCd3Rh
_chemical_formula_sum   'Lu18 Sc2 Cd6 Rh2'
_cell_volume   717.53003066
_cell_formula_units_Z   2
loop_
 _symmetry_equiv_pos_site_id
 _symmetry_equiv_pos_as_xyz
  1  'x, y, z'
loop_
 _atom_site_type_symbol
 _atom_site_label
 _atom_site_symmetry_multiplicity
 _atom_site_fract_x
 _atom_site_fract_y
 _atom_site_fract_z
 _atom_site_occupancy
  Lu  Lu0  1  0.542298  0.457702  0.250000  1
  Lu  Lu1  1  0.542298  0.084596  0.250000  1
  Lu  Lu2  1  0.915404  0.457702  0.250000  1
  Lu  Lu3  1  0.457702  0.542298  0.750000  1
  Lu  Lu4  1  0.457702  0.915404  0.750000  1
  Lu  Lu5  1  0.084596  0.542298  0.750000  1
  Lu  Lu6  1  0.208222  0.791778  0.441569  1
  Lu  Lu7  1  0.208222  0.416445  0.441569  1
  Lu  Lu8  1  0.583555  0.791778  0.441569  1
  Lu  Lu9  1  0.791778  0.208222  0.558431  1
  Lu  Lu10  1  0.791778  0.583555  0.558431  1
  Lu  Lu11  1  0.416445  0.208222  0.558431  1
  Lu  Lu12  1  0.791778  0.208222  0.941569  1
  Lu  Lu13  1  0.791778  0.583555  0.941569  1
  Lu  Lu14  1  0.416445  0.208222  0.941569  1
  Lu  Lu15  1  0.208222  0.791778  0.058431  1
  Lu  Lu16  1  0.208222  0.416445  0.058431  1
  Lu  Lu17  1  0.583555  0.791778  0.058431  1
  Sc  Sc18  1  0.000000  0.000000  0.500000  1
  Sc  Sc19  1  0.000000  0.000000  0.000000  1
  Cd  Cd20  1  0.887477  0.112523  0.250000  1
  Cd  Cd21  1  0.887477  0.774953  0.250000  1
  Cd  Cd22  1  0.225047  0.112523  0.250000  1
  Cd  Cd23  1  0.112523  0.887477  0.750000  1
  Cd  Cd24  1  0.112523  0.225047  0.750000  1
  Cd  Cd25  1  0.774953  0.887477  0.750000  1
  Rh  Rh26  1  0.333333  0.666667  0.250000  1
  Rh  Rh27  1  0.666667  0.333333  0.750000  1
