# generated using pymatgen
data_Tb4Y7Er5(CdPd)4
_symmetry_space_group_name_H-M   'P 1'
_cell_length_a   9.69141866
_cell_length_b   9.69141369
_cell_length_c   9.69187100
_cell_angle_alpha   59.99741306
_cell_angle_beta   59.99841922
_cell_angle_gamma   60.11079579
_symmetry_Int_Tables_number   1
_chemical_formula_structural   Tb4Y7Er5(CdPd)4
_chemical_formula_sum   'Tb4 Y7 Er5 Cd4 Pd4'
_cell_volume   644.19261847
_cell_formula_units_Z   1
loop_
 _symmetry_equiv_pos_site_id
 _symmetry_equiv_pos_as_xyz
  1  'x, y, z'
loop_
 _atom_site_type_symbol
 _atom_site_label
 _atom_site_symmetry_multiplicity
 _atom_site_fract_x
 _atom_site_fract_y
 _atom_site_fract_z
 _atom_site_occupancy
  Tb  Tb0  1  0.354046  0.354038  0.352417  1
  Tb  Tb1  1  0.354047  0.354038  0.939504  1
  Tb  Tb2  1  0.355348  0.936195  0.354227  1
  Tb  Tb3  1  0.936192  0.355339  0.354233  1
  Y  Y4  1  0.812142  0.812140  0.187854  1
  Y  Y5  1  0.935279  0.564215  0.565758  1
  Y  Y6  1  0.564219  0.935279  0.934743  1
  Y  Y7  1  0.564239  0.935264  0.565761  1
  Y  Y8  1  0.935277  0.564233  0.934733  1
  Y  Y9  1  0.565464  0.565458  0.934542  1
  Y  Y10  1  0.935624  0.935611  0.564385  1
  Er  Er11  1  0.811841  0.188767  0.188342  1
  Er  Er12  1  0.188775  0.811871  0.811039  1
  Er  Er13  1  0.188764  0.811863  0.188348  1
  Er  Er14  1  0.811844  0.188773  0.811038  1
  Er  Er15  1  0.188857  0.188848  0.811148  1
  Cd  Cd16  1  0.581669  0.581668  0.582970  1
  Cd  Cd17  1  0.581660  0.581667  0.253699  1
  Cd  Cd18  1  0.581167  0.253730  0.582553  1
  Cd  Cd19  1  0.253717  0.581177  0.582547  1
  Pd  Pd20  1  0.143628  0.143633  0.145596  1
  Pd  Pd21  1  0.143632  0.143635  0.567134  1
  Pd  Pd22  1  0.145366  0.567193  0.143718  1
  Pd  Pd23  1  0.567204  0.145367  0.143712  1
