# generated using pymatgen
data_Sc12Zn(OsBr8)2
_symmetry_space_group_name_H-M   'P 1'
_cell_length_a   8.95383180
_cell_length_b   11.24539091
_cell_length_c   11.88202480
_cell_angle_alpha   117.13129709
_cell_angle_beta   101.59812412
_cell_angle_gamma   101.09816057
_symmetry_Int_Tables_number   1
_chemical_formula_structural   Sc12Zn(OsBr8)2
_chemical_formula_sum   'Sc12 Zn1 Os2 Br16'
_cell_volume   986.03949961
_cell_formula_units_Z   1
loop_
 _symmetry_equiv_pos_site_id
 _symmetry_equiv_pos_as_xyz
  1  'x, y, z'
loop_
 _atom_site_type_symbol
 _atom_site_label
 _atom_site_symmetry_multiplicity
 _atom_site_fract_x
 _atom_site_fract_y
 _atom_site_fract_z
 _atom_site_occupancy
  Sc  Sc0  1  0.073976  0.253333  0.348840  1
  Sc  Sc1  1  0.917280  0.736336  0.644851  1
  Sc  Sc2  1  0.780521  0.536647  0.325283  1
  Sc  Sc3  1  0.216687  0.461815  0.682167  1
  Sc  Sc4  1  0.276301  0.747108  0.651962  1
  Sc  Sc5  1  0.723288  0.263052  0.354308  1
  Sc  Sc6  1  0.133226  0.537732  0.318820  1
  Sc  Sc7  1  0.860408  0.463730  0.673801  1
  Sc  Sc8  1  0.409824  0.349074  0.259133  1
  Sc  Sc9  1  0.612046  0.651409  0.741353  1
  Sc  Sc10  1  0.466460  0.294314  0.521634  1
  Sc  Sc11  1  0.554756  0.705535  0.478118  1
  Zn  Zn12  1  0.343894  0.500041  0.499431  1
  Os  Os13  1  0.009380  0.499869  0.499807  1
  Os  Os14  1  0.654125  0.500037  0.500647  1
  Br  Br15  1  0.396884  0.738731  0.879777  1
  Br  Br16  1  0.604441  0.257304  0.113274  1
  Br  Br17  1  0.188082  0.968828  0.785362  1
  Br  Br18  1  0.807389  0.031103  0.214593  1
  Br  Br19  1  0.329088  0.095068  0.251216  1
  Br  Br20  1  0.650102  0.904496  0.748270  1
  Br  Br21  1  0.544672  0.438083  0.797635  1
  Br  Br22  1  0.435049  0.562226  0.201695  1
  Br  Br23  1  0.308348  0.823314  0.463666  1
  Br  Br24  1  0.694082  0.170157  0.537413  1
  Br  Br25  1  0.169441  0.174471  0.532398  1
  Br  Br26  1  0.836860  0.831527  0.466916  1
  Br  Br27  1  0.923180  0.576269  0.158309  1
  Br  Br28  1  0.072670  0.423676  0.841509  1
  Br  Br29  1  0.927786  0.741632  0.886877  1
  Br  Br30  1  0.079754  0.263083  0.120936  1
