# generated using pymatgen
data_SmErTa2Bi2O11
_symmetry_space_group_name_H-M   'P 1'
_cell_length_a   6.58712887
_cell_length_b   7.70273815
_cell_length_c   9.76273801
_cell_angle_alpha   101.44649355
_cell_angle_beta   89.98972056
_cell_angle_gamma   90.17658828
_symmetry_Int_Tables_number   1
_chemical_formula_structural   SmErTa2Bi2O11
_chemical_formula_sum   'Sm2 Er2 Ta4 Bi4 O22'
_cell_volume   485.49621489
_cell_formula_units_Z   2
loop_
 _symmetry_equiv_pos_site_id
 _symmetry_equiv_pos_as_xyz
  1  'x, y, z'
loop_
 _atom_site_type_symbol
 _atom_site_label
 _atom_site_symmetry_multiplicity
 _atom_site_fract_x
 _atom_site_fract_y
 _atom_site_fract_z
 _atom_site_occupancy
  Sm  Sm0  1  0.748866  0.368028  0.485026  1
  Sm  Sm1  1  0.251134  0.631972  0.514974  1
  Er  Er2  1  0.759129  0.871737  0.486326  1
  Er  Er3  1  0.240871  0.128263  0.513674  1
  Ta  Ta4  1  0.911892  0.702313  0.805224  1
  Ta  Ta5  1  0.088108  0.297687  0.194776  1
  Ta  Ta6  1  0.913745  0.199513  0.804771  1
  Ta  Ta7  1  0.086255  0.800487  0.195229  1
  Bi  Bi8  1  0.437156  0.957604  0.814605  1
  Bi  Bi9  1  0.562844  0.042396  0.185395  1
  Bi  Bi10  1  0.385706  0.456326  0.827223  1
  Bi  Bi11  1  0.614294  0.543674  0.172777  1
  O  O12  1  0.216524  0.726459  0.758732  1
  O  O13  1  0.783476  0.273541  0.241268  1
  O  O14  1  0.629115  0.662644  0.843146  1
  O  O15  1  0.370885  0.337356  0.156854  1
  O  O16  1  0.628846  0.254794  0.840846  1
  O  O17  1  0.371154  0.745206  0.159154  1
  O  O18  1  0.891639  0.144118  0.587881  1
  O  O19  1  0.108361  0.855882  0.412119  1
  O  O20  1  0.215581  0.149181  0.750415  1
  O  O21  1  0.784419  0.850819  0.249585  1
  O  O22  1  0.892022  0.649903  0.590798  1
  O  O23  1  0.107978  0.350097  0.409202  1
  O  O24  1  0.029067  0.552583  0.208537  1
  O  O25  1  0.970933  0.447417  0.791463  1
  O  O26  1  0.995901  0.775136  0.002030  1
  O  O27  1  0.004099  0.224864  0.997970  1
  O  O28  1  0.575939  0.600776  0.392761  1
  O  O29  1  0.424061  0.399224  0.607239  1
  O  O30  1  0.167632  0.053622  0.212702  1
  O  O31  1  0.832368  0.946378  0.787298  1
  O  O32  1  0.537519  0.101311  0.403412  1
  O  O33  1  0.462481  0.898689  0.596588  1
