# generated using pymatgen
data_Re6Te7Cl4
_symmetry_space_group_name_H-M   'P 1'
_cell_length_a   12.50172661
_cell_length_b   12.50172672
_cell_length_c   12.50172658
_cell_angle_alpha   49.72444234
_cell_angle_beta   49.72443490
_cell_angle_gamma   49.72443992
_symmetry_Int_Tables_number   1
_chemical_formula_structural   Re6Te7Cl4
_chemical_formula_sum   'Re12 Te14 Cl8'
_cell_volume   1046.01622548
_cell_formula_units_Z   2
loop_
 _symmetry_equiv_pos_site_id
 _symmetry_equiv_pos_as_xyz
  1  'x, y, z'
loop_
 _atom_site_type_symbol
 _atom_site_label
 _atom_site_symmetry_multiplicity
 _atom_site_fract_x
 _atom_site_fract_y
 _atom_site_fract_z
 _atom_site_occupancy
  Re  Re0  1  0.544947  0.382226  0.675114  1
  Re  Re1  1  0.382226  0.675114  0.544947  1
  Re  Re2  1  0.675114  0.544947  0.382226  1
  Re  Re3  1  0.175114  0.882226  0.044947  1
  Re  Re4  1  0.882226  0.044947  0.175114  1
  Re  Re5  1  0.044947  0.175114  0.882226  1
  Re  Re6  1  0.456121  0.617093  0.325416  1
  Re  Re7  1  0.617093  0.325416  0.456121  1
  Re  Re8  1  0.325416  0.456121  0.617093  1
  Re  Re9  1  0.825416  0.117093  0.956121  1
  Re  Re10  1  0.117093  0.956121  0.825416  1
  Re  Re11  1  0.956121  0.825416  0.117093  1
  Te  Te12  1  0.840448  0.243454  0.509687  1
  Te  Te13  1  0.243454  0.509687  0.840448  1
  Te  Te14  1  0.509687  0.840448  0.243454  1
  Te  Te15  1  0.009687  0.743454  0.340448  1
  Te  Te16  1  0.743454  0.340448  0.009687  1
  Te  Te17  1  0.340448  0.009687  0.743454  1
  Te  Te18  1  0.159479  0.757543  0.487436  1
  Te  Te19  1  0.757543  0.487436  0.159479  1
  Te  Te20  1  0.487436  0.159479  0.757543  1
  Te  Te21  1  0.987436  0.257543  0.659479  1
  Te  Te22  1  0.257543  0.659479  0.987436  1
  Te  Te23  1  0.659479  0.987436  0.257543  1
  Te  Te24  1  0.602236  0.602236  0.602236  1
  Te  Te25  1  0.102236  0.102236  0.102236  1
  Cl  Cl26  1  0.916963  0.590660  0.236130  1
  Cl  Cl27  1  0.590660  0.236130  0.916963  1
  Cl  Cl28  1  0.236130  0.916963  0.590660  1
  Cl  Cl29  1  0.736130  0.090660  0.416963  1
  Cl  Cl30  1  0.090660  0.416963  0.736130  1
  Cl  Cl31  1  0.416963  0.736130  0.090660  1
  Cl  Cl32  1  0.405008  0.405008  0.405008  1
  Cl  Cl33  1  0.905008  0.905008  0.905008  1
