# generated using pymatgen
data_ErTm2Co8P6W
_symmetry_space_group_name_H-M   'P 1'
_cell_length_a   3.70095700
_cell_length_b   10.52648700
_cell_length_c   12.19887400
_cell_angle_alpha   90.00000000
_cell_angle_beta   90.00000000
_cell_angle_gamma   90.00000000
_symmetry_Int_Tables_number   1
_chemical_formula_structural   ErTm2Co8P6W
_chemical_formula_sum   'Er2 Tm4 Co16 P12 W2'
_cell_volume   475.24465733
_cell_formula_units_Z   2
loop_
 _symmetry_equiv_pos_site_id
 _symmetry_equiv_pos_as_xyz
  1  'x, y, z'
loop_
 _atom_site_type_symbol
 _atom_site_label
 _atom_site_symmetry_multiplicity
 _atom_site_fract_x
 _atom_site_fract_y
 _atom_site_fract_z
 _atom_site_occupancy
  Er  Er0  1  0.750000  0.250000  0.475504  1
  Er  Er1  1  0.250000  0.750000  0.524496  1
  Tm  Tm2  1  0.250000  0.930493  0.794801  1
  Tm  Tm3  1  0.250000  0.569507  0.794801  1
  Tm  Tm4  1  0.750000  0.069507  0.205199  1
  Tm  Tm5  1  0.750000  0.430493  0.205199  1
  Co  Co6  1  0.250000  0.250000  0.299097  1
  Co  Co7  1  0.750000  0.750000  0.700903  1
  Co  Co8  1  0.750000  0.250000  0.013429  1
  Co  Co9  1  0.250000  0.750000  0.986571  1
  Co  Co10  1  0.250000  0.417240  0.010010  1
  Co  Co11  1  0.250000  0.082760  0.010010  1
  Co  Co12  1  0.750000  0.582760  0.989990  1
  Co  Co13  1  0.750000  0.917240  0.989990  1
  Co  Co14  1  0.250000  0.454225  0.568567  1
  Co  Co15  1  0.250000  0.045775  0.568567  1
  Co  Co16  1  0.750000  0.545775  0.431433  1
  Co  Co17  1  0.750000  0.954225  0.431433  1
  Co  Co18  1  0.250000  0.872445  0.292448  1
  Co  Co19  1  0.250000  0.627555  0.292448  1
  Co  Co20  1  0.750000  0.127555  0.707552  1
  Co  Co21  1  0.750000  0.372445  0.707552  1
  P  P22  1  0.250000  0.250000  0.120556  1
  P  P23  1  0.750000  0.750000  0.879444  1
  P  P24  1  0.250000  0.250000  0.649174  1
  P  P25  1  0.750000  0.750000  0.350826  1
  P  P26  1  0.250000  0.437947  0.383797  1
  P  P27  1  0.250000  0.062053  0.383797  1
  P  P28  1  0.750000  0.562053  0.616203  1
  P  P29  1  0.750000  0.937947  0.616203  1
  P  P30  1  0.250000  0.906349  0.107710  1
  P  P31  1  0.250000  0.593651  0.107710  1
  P  P32  1  0.750000  0.093651  0.892290  1
  P  P33  1  0.750000  0.406349  0.892290  1
  W  W34  1  0.250000  0.250000  0.843604  1
  W  W35  1  0.750000  0.750000  0.156396  1
