# generated using pymatgen
data_CePrLu2(B6Ru)2
_symmetry_space_group_name_H-M   'P 1'
_cell_length_a   3.68637400
_cell_length_b   9.15088075
_cell_length_c   11.55808495
_cell_angle_alpha   90.04633235
_cell_angle_beta   90.00000000
_cell_angle_gamma   90.00000000
_symmetry_Int_Tables_number   1
_chemical_formula_structural   CePrLu2(B6Ru)2
_chemical_formula_sum   'Ce2 Pr2 Lu4 B24 Ru4'
_cell_volume   389.89532697
_cell_formula_units_Z   2
loop_
 _symmetry_equiv_pos_site_id
 _symmetry_equiv_pos_as_xyz
  1  'x, y, z'
loop_
 _atom_site_type_symbol
 _atom_site_label
 _atom_site_symmetry_multiplicity
 _atom_site_fract_x
 _atom_site_fract_y
 _atom_site_fract_z
 _atom_site_occupancy
  Ce  Ce0  1  0.000000  0.322508  0.414510  1
  Ce  Ce1  1  0.000000  0.677492  0.585490  1
  Pr  Pr2  1  0.000000  0.822280  0.085429  1
  Pr  Pr3  1  0.000000  0.177720  0.914571  1
  Lu  Lu4  1  0.000000  0.944866  0.373204  1
  Lu  Lu5  1  0.000000  0.055134  0.626796  1
  Lu  Lu6  1  0.000000  0.444444  0.127176  1
  Lu  Lu7  1  0.000000  0.555556  0.872824  1
  B  B8  1  0.500000  0.555380  0.431740  1
  B  B9  1  0.500000  0.444620  0.568260  1
  B  B10  1  0.500000  0.057376  0.071035  1
  B  B11  1  0.500000  0.942624  0.928965  1
  B  B12  1  0.500000  0.751135  0.418290  1
  B  B13  1  0.500000  0.248865  0.581710  1
  B  B14  1  0.500000  0.252053  0.083675  1
  B  B15  1  0.500000  0.747947  0.916325  1
  B  B16  1  0.500000  0.791657  0.266951  1
  B  B17  1  0.500000  0.208343  0.733049  1
  B  B18  1  0.500000  0.293014  0.235226  1
  B  B19  1  0.500000  0.706986  0.764774  1
  B  B20  1  0.500000  0.629826  0.184558  1
  B  B21  1  0.500000  0.370174  0.815442  1
  B  B22  1  0.500000  0.131631  0.317000  1
  B  B23  1  0.500000  0.868369  0.683000  1
  B  B24  1  0.500000  0.985700  0.215536  1
  B  B25  1  0.500000  0.014300  0.784464  1
  B  B26  1  0.500000  0.484641  0.286026  1
  B  B27  1  0.500000  0.515359  0.713974  1
  B  B28  1  0.500000  0.600885  0.027282  1
  B  B29  1  0.500000  0.399115  0.972718  1
  B  B30  1  0.500000  0.103285  0.472377  1
  B  B31  1  0.500000  0.896715  0.527623  1
  Ru  Ru32  1  0.000000  0.639456  0.321190  1
  Ru  Ru33  1  0.000000  0.360544  0.678810  1
  Ru  Ru34  1  0.000000  0.141787  0.183760  1
  Ru  Ru35  1  0.000000  0.858213  0.816240  1
