# generated using pymatgen
data_Na2CeI6
_symmetry_space_group_name_H-M   'P 1'
_cell_length_a   8.68327637
_cell_length_b   8.68327606
_cell_length_c   8.68327646
_cell_angle_alpha   54.34227903
_cell_angle_beta   54.34228223
_cell_angle_gamma   54.34227895
_symmetry_Int_Tables_number   1
_chemical_formula_structural   Na2CeI6
_chemical_formula_sum   'Na2 Ce1 I6'
_cell_volume   401.85103032
_cell_formula_units_Z   1
loop_
 _symmetry_equiv_pos_site_id
 _symmetry_equiv_pos_as_xyz
  1  'x, y, z'
loop_
 _atom_site_type_symbol
 _atom_site_label
 _atom_site_symmetry_multiplicity
 _atom_site_fract_x
 _atom_site_fract_y
 _atom_site_fract_z
 _atom_site_occupancy
  Na  Na0  1  0.329300  0.329300  0.329300  1
  Na  Na1  1  0.670700  0.670700  0.670700  1
  Ce  Ce2  1  0.000000  0.000000  0.000000  1
  I  I3  1  0.235689  0.611523  0.910911  1
  I  I4  1  0.611523  0.910911  0.235689  1
  I  I5  1  0.910911  0.235689  0.611523  1
  I  I6  1  0.764311  0.388477  0.089089  1
  I  I7  1  0.388477  0.089089  0.764311  1
  I  I8  1  0.089089  0.764311  0.388477  1
