# generated using pymatgen
data_SmCdCuNi2Pt
_symmetry_space_group_name_H-M   'P 1'
_cell_length_a   5.11782503
_cell_length_b   5.08081255
_cell_length_c   5.22259938
_cell_angle_alpha   60.24815776
_cell_angle_beta   60.66144289
_cell_angle_gamma   59.75872383
_symmetry_Int_Tables_number   1
_chemical_formula_structural   SmCdCuNi2Pt
_chemical_formula_sum   'Sm1 Cd1 Cu1 Ni2 Pt1'
_cell_volume   96.49873974
_cell_formula_units_Z   1
loop_
 _symmetry_equiv_pos_site_id
 _symmetry_equiv_pos_as_xyz
  1  'x, y, z'
loop_
 _atom_site_type_symbol
 _atom_site_label
 _atom_site_symmetry_multiplicity
 _atom_site_fract_x
 _atom_site_fract_y
 _atom_site_fract_z
 _atom_site_occupancy
  Sm  Sm0  1  0.248321  0.251935  0.251423  1
  Cd  Cd1  1  0.004616  0.002749  0.988020  1
  Cu  Cu2  1  0.624746  0.122254  0.628255  1
  Ni  Ni3  1  0.121547  0.624377  0.628669  1
  Ni  Ni4  1  0.625408  0.624377  0.628669  1
  Pt  Pt5  1  0.625363  0.624308  0.124966  1
