# generated using pymatgen
data_Tb8InPd19Pt5
_symmetry_space_group_name_H-M   'P 1'
_cell_length_a   8.42321300
_cell_length_b   8.43083100
_cell_length_c   8.40448500
_cell_angle_alpha   90.00000000
_cell_angle_beta   90.00000000
_cell_angle_gamma   90.00000000
_symmetry_Int_Tables_number   1
_chemical_formula_structural   Tb8InPd19Pt5
_chemical_formula_sum   'Tb8 In1 Pd19 Pt5'
_cell_volume   596.84185722
_cell_formula_units_Z   1
loop_
 _symmetry_equiv_pos_site_id
 _symmetry_equiv_pos_as_xyz
  1  'x, y, z'
loop_
 _atom_site_type_symbol
 _atom_site_label
 _atom_site_symmetry_multiplicity
 _atom_site_fract_x
 _atom_site_fract_y
 _atom_site_fract_z
 _atom_site_occupancy
  Tb  Tb0  1  0.251621  0.252083  0.251351  1
  Tb  Tb1  1  0.748752  0.747887  0.748108  1
  Tb  Tb2  1  0.748752  0.747887  0.251892  1
  Tb  Tb3  1  0.748379  0.252083  0.748649  1
  Tb  Tb4  1  0.251621  0.252083  0.748649  1
  Tb  Tb5  1  0.251248  0.747887  0.251892  1
  Tb  Tb6  1  0.251248  0.747887  0.748108  1
  Tb  Tb7  1  0.748379  0.252083  0.251351  1
  In  In8  1  0.000000  0.000488  0.000000  1
  Pd  Pd9  1  0.500000  0.734347  0.000000  1
  Pd  Pd10  1  0.500000  0.000001  0.266467  1
  Pd  Pd11  1  0.266565  0.999987  0.500000  1
  Pd  Pd12  1  0.500000  0.000001  0.733533  1
  Pd  Pd13  1  0.733435  0.999987  0.500000  1
  Pd  Pd14  1  0.000000  0.500007  0.266092  1
  Pd  Pd15  1  0.000000  0.500007  0.733908  1
  Pd  Pd16  1  0.254875  0.500048  0.500000  1
  Pd  Pd17  1  0.745125  0.500048  0.500000  1
  Pd  Pd18  1  0.500000  0.254839  0.500000  1
  Pd  Pd19  1  0.500000  0.745117  0.500000  1
  Pd  Pd20  1  0.500000  0.500073  0.255140  1
  Pd  Pd21  1  0.500000  0.500073  0.744860  1
  Pd  Pd22  1  0.312150  0.999778  0.000000  1
  Pd  Pd23  1  0.687850  0.999778  0.000000  1
  Pd  Pd24  1  0.000000  0.312092  0.000000  1
  Pd  Pd25  1  0.000000  0.688023  0.000000  1
  Pd  Pd26  1  0.000000  0.999953  0.312238  1
  Pd  Pd27  1  0.000000  0.999953  0.687762  1
  Pt  Pt28  1  0.265660  0.500038  0.000000  1
  Pt  Pt29  1  0.734340  0.500038  0.000000  1
  Pt  Pt30  1  0.000000  0.265805  0.500000  1
  Pt  Pt31  1  0.500000  0.265367  0.000000  1
  Pt  Pt32  1  0.000000  0.734268  0.500000  1
