# generated using pymatgen
data_TmNp4Ga15
_symmetry_space_group_name_H-M   'P 1'
_cell_length_a   12.49018625
_cell_length_b   12.49018590
_cell_length_c   12.49018400
_cell_angle_alpha   28.46459281
_cell_angle_beta   28.46459582
_cell_angle_gamma   28.46459436
_symmetry_Int_Tables_number   1
_chemical_formula_structural   TmNp4Ga15
_chemical_formula_sum   'Tm1 Np4 Ga15'
_cell_volume   391.20580347
_cell_formula_units_Z   1
loop_
 _symmetry_equiv_pos_site_id
 _symmetry_equiv_pos_as_xyz
  1  'x, y, z'
loop_
 _atom_site_type_symbol
 _atom_site_label
 _atom_site_symmetry_multiplicity
 _atom_site_fract_x
 _atom_site_fract_y
 _atom_site_fract_z
 _atom_site_occupancy
  Tm  Tm0  1  0.599390  0.599390  0.599390  1
  Np  Np1  1  0.129951  0.129951  0.129951  1
  Np  Np2  1  0.870321  0.870321  0.870321  1
  Np  Np3  1  0.401383  0.401383  0.401383  1
  Np  Np4  1  0.999187  0.999187  0.999187  1
  Ga  Ga5  1  0.424957  0.885452  0.885452  1
  Ga  Ga6  1  0.885452  0.885452  0.424957  1
  Ga  Ga7  1  0.885452  0.424957  0.885452  1
  Ga  Ga8  1  0.115502  0.571142  0.115502  1
  Ga  Ga9  1  0.115502  0.115502  0.571142  1
  Ga  Ga10  1  0.571142  0.115502  0.115502  1
  Ga  Ga11  1  0.130145  0.636496  0.636496  1
  Ga  Ga12  1  0.636496  0.636496  0.130145  1
  Ga  Ga13  1  0.636496  0.130145  0.636496  1
  Ga  Ga14  1  0.362917  0.873693  0.362917  1
  Ga  Ga15  1  0.362917  0.362917  0.873693  1
  Ga  Ga16  1  0.873693  0.362917  0.362917  1
  Ga  Ga17  1  0.499066  0.499066  0.000968  1
  Ga  Ga18  1  0.499066  0.000968  0.499066  1
  Ga  Ga19  1  0.000968  0.499066  0.499066  1
