# generated using pymatgen
data_K4ReTcP4
_symmetry_space_group_name_H-M   'P 1'
_cell_length_a   8.04454226
_cell_length_b   8.04454215
_cell_length_c   8.04454273
_cell_angle_alpha   136.04943654
_cell_angle_beta   127.49966794
_cell_angle_gamma   70.81036923
_symmetry_Int_Tables_number   1
_chemical_formula_structural   K4ReTcP4
_chemical_formula_sum   'K4 Re1 Tc1 P4'
_cell_volume   280.91929833
_cell_formula_units_Z   1
loop_
 _symmetry_equiv_pos_site_id
 _symmetry_equiv_pos_as_xyz
  1  'x, y, z'
loop_
 _atom_site_type_symbol
 _atom_site_label
 _atom_site_symmetry_multiplicity
 _atom_site_fract_x
 _atom_site_fract_y
 _atom_site_fract_z
 _atom_site_occupancy
  K  K0  1  0.307408  0.150621  0.155364  1
  K  K1  1  0.692592  0.847956  0.843213  1
  K  K2  1  0.004744  0.349379  0.656787  1
  K  K3  1  0.995256  0.652044  0.344636  1
  Re  Re4  1  0.500000  0.250000  0.750000  1
  Tc  Tc5  1  0.500000  0.750000  0.250000  1
  P  P6  1  0.419980  0.593602  0.823193  1
  P  P7  1  0.229591  0.906398  0.326378  1
  P  P8  1  0.770409  0.096786  0.676807  1
  P  P9  1  0.580020  0.403214  0.173622  1
