# generated using pymatgen
data_Rb12Sc(FeSe4)3
_symmetry_space_group_name_H-M   'P 1'
_cell_length_a   10.81437055
_cell_length_b   10.81438845
_cell_length_c   13.73194646
_cell_angle_alpha   90.03074047
_cell_angle_beta   90.03190969
_cell_angle_gamma   140.52747143
_symmetry_Int_Tables_number   1
_chemical_formula_structural   Rb12Sc(FeSe4)3
_chemical_formula_sum   'Rb12 Sc1 Fe3 Se12'
_cell_volume   1020.92195346
_cell_formula_units_Z   1
loop_
 _symmetry_equiv_pos_site_id
 _symmetry_equiv_pos_as_xyz
  1  'x, y, z'
loop_
 _atom_site_type_symbol
 _atom_site_label
 _atom_site_symmetry_multiplicity
 _atom_site_fract_x
 _atom_site_fract_y
 _atom_site_fract_z
 _atom_site_occupancy
  Rb  Rb0  1  0.849265  0.848659  0.336449  1
  Rb  Rb1  1  0.151339  0.150736  0.663554  1
  Rb  Rb2  1  0.644854  0.648234  0.829317  1
  Rb  Rb3  1  0.351767  0.355142  0.170684  1
  Rb  Rb4  1  0.833237  0.470207  0.133556  1
  Rb  Rb5  1  0.529789  0.166762  0.866443  1
  Rb  Rb6  1  0.011738  0.656842  0.628037  1
  Rb  Rb7  1  0.343154  0.988257  0.371963  1
  Rb  Rb8  1  0.159586  0.513519  0.870365  1
  Rb  Rb9  1  0.486478  0.840412  0.129635  1
  Rb  Rb10  1  0.989624  0.342829  0.371848  1
  Rb  Rb11  1  0.657172  0.010379  0.628153  1
  Sc  Sc12  1  0.081072  0.918927  0.000000  1
  Fe  Fe13  1  0.582379  0.417607  0.499996  1
  Fe  Fe14  1  0.916116  0.083880  0.999998  1
  Fe  Fe15  1  0.417976  0.582042  0.500004  1
  Se  Se16  1  0.010734  0.310251  0.115306  1
  Se  Se17  1  0.689753  0.989270  0.884689  1
  Se  Se18  1  0.190079  0.488642  0.613553  1
  Se  Se19  1  0.511374  0.809939  0.386450  1
  Se  Se20  1  0.978462  0.673316  0.880026  1
  Se  Se21  1  0.326684  0.021537  0.119976  1
  Se  Se22  1  0.810641  0.511057  0.386808  1
  Se  Se23  1  0.488934  0.189349  0.613187  1
  Se  Se24  1  0.786126  0.798539  0.083443  1
  Se  Se25  1  0.201463  0.213874  0.916557  1
  Se  Se26  1  0.702485  0.702269  0.580649  1
  Se  Se27  1  0.297719  0.297523  0.419356  1
