# generated using pymatgen
data_Nb4GaCo4As2P
_symmetry_space_group_name_H-M   'P 1'
_cell_length_a   3.70761400
_cell_length_b   6.31183234
_cell_length_c   7.17128865
_cell_angle_alpha   90.11763370
_cell_angle_beta   90.00000000
_cell_angle_gamma   90.00000000
_symmetry_Int_Tables_number   1
_chemical_formula_structural   Nb4GaCo4As2P
_chemical_formula_sum   'Nb4 Ga1 Co4 As2 P1'
_cell_volume   167.82098134
_cell_formula_units_Z   1
loop_
 _symmetry_equiv_pos_site_id
 _symmetry_equiv_pos_as_xyz
  1  'x, y, z'
loop_
 _atom_site_type_symbol
 _atom_site_label
 _atom_site_symmetry_multiplicity
 _atom_site_fract_x
 _atom_site_fract_y
 _atom_site_fract_z
 _atom_site_occupancy
  Nb  Nb0  1  0.250000  0.014709  0.826774  1
  Nb  Nb1  1  0.250000  0.530566  0.679139  1
  Nb  Nb2  1  0.750000  0.970737  0.168291  1
  Nb  Nb3  1  0.750000  0.476162  0.324068  1
  Ga  Ga4  1  0.250000  0.775547  0.376006  1
  Co  Co5  1  0.250000  0.149360  0.439917  1
  Co  Co6  1  0.250000  0.645293  0.046266  1
  Co  Co7  1  0.750000  0.849855  0.579706  1
  Co  Co8  1  0.750000  0.366046  0.934730  1
  As  As9  1  0.250000  0.273575  0.122156  1
  As  As10  1  0.750000  0.223921  0.621826  1
  P  P11  1  0.750000  0.724229  0.881119  1
