# generated using pymatgen
data_Er2Lu4TcIr
_symmetry_space_group_name_H-M   'P 1'
_cell_length_a   6.21873200
_cell_length_b   7.29876900
_cell_length_c   8.93360700
_cell_angle_alpha   90.00000000
_cell_angle_beta   90.00000000
_cell_angle_gamma   90.00000000
_symmetry_Int_Tables_number   1
_chemical_formula_structural   Er2Lu4TcIr
_chemical_formula_sum   'Er4 Lu8 Tc2 Ir2'
_cell_volume   405.48827733
_cell_formula_units_Z   2
loop_
 _symmetry_equiv_pos_site_id
 _symmetry_equiv_pos_as_xyz
  1  'x, y, z'
loop_
 _atom_site_type_symbol
 _atom_site_label
 _atom_site_symmetry_multiplicity
 _atom_site_fract_x
 _atom_site_fract_y
 _atom_site_fract_z
 _atom_site_occupancy
  Er  Er0  1  0.874601  0.538664  0.250000  1
  Er  Er1  1  0.625399  0.038664  0.250000  1
  Er  Er2  1  0.132415  0.460264  0.750000  1
  Er  Er3  1  0.367585  0.960264  0.750000  1
  Lu  Lu4  1  0.331415  0.676221  0.065183  1
  Lu  Lu5  1  0.168585  0.176221  0.434817  1
  Lu  Lu6  1  0.666610  0.323941  0.560637  1
  Lu  Lu7  1  0.833390  0.823941  0.939363  1
  Lu  Lu8  1  0.666610  0.323941  0.939363  1
  Lu  Lu9  1  0.833390  0.823941  0.560637  1
  Lu  Lu10  1  0.331415  0.676221  0.434817  1
  Lu  Lu11  1  0.168585  0.176221  0.065183  1
  Tc  Tc12  1  0.037323  0.885202  0.250000  1
  Tc  Tc13  1  0.462677  0.385202  0.250000  1
  Ir  Ir14  1  0.955045  0.115545  0.750000  1
  Ir  Ir15  1  0.544955  0.615545  0.750000  1
