# generated using pymatgen
data_Ba2AcBiO6
_symmetry_space_group_name_H-M   'P 1'
_cell_length_a   6.33484458
_cell_length_b   6.39890235
_cell_length_c   6.32338737
_cell_angle_alpha   119.42185292
_cell_angle_beta   120.05995079
_cell_angle_gamma   60.33060719
_symmetry_Int_Tables_number   1
_chemical_formula_structural   Ba2AcBiO6
_chemical_formula_sum   'Ba2 Ac1 Bi1 O6'
_cell_volume   182.39846082
_cell_formula_units_Z   1
loop_
 _symmetry_equiv_pos_site_id
 _symmetry_equiv_pos_as_xyz
  1  'x, y, z'
loop_
 _atom_site_type_symbol
 _atom_site_label
 _atom_site_symmetry_multiplicity
 _atom_site_fract_x
 _atom_site_fract_y
 _atom_site_fract_z
 _atom_site_occupancy
  Ba  Ba0  1  0.747497  0.766011  0.261006  1
  Ba  Ba1  1  0.252502  0.233989  0.738994  1
  Ac  Ac2  1  0.500001  0.499999  0.500000  1
  Bi  Bi3  1  0.000000  0.000000  0.000000  1
  O  O4  1  0.231388  0.678928  0.141703  1
  O  O5  1  0.288794  0.180022  0.280985  1
  O  O6  1  0.812168  0.180022  0.280985  1
  O  O7  1  0.187832  0.819978  0.719015  1
  O  O8  1  0.711206  0.819978  0.719015  1
  O  O9  1  0.768613  0.321072  0.858297  1
