# generated using pymatgen
data_Tb2Mn4Co8P7
_symmetry_space_group_name_H-M   'P 1'
_cell_length_a   9.04220824
_cell_length_b   9.05952465
_cell_length_c   3.62653800
_cell_angle_alpha   90.00000000
_cell_angle_beta   90.00000000
_cell_angle_gamma   119.87686568
_symmetry_Int_Tables_number   1
_chemical_formula_structural   Tb2Mn4Co8P7
_chemical_formula_sum   'Tb2 Mn4 Co8 P7'
_cell_volume   257.59670812
_cell_formula_units_Z   1
loop_
 _symmetry_equiv_pos_site_id
 _symmetry_equiv_pos_as_xyz
  1  'x, y, z'
loop_
 _atom_site_type_symbol
 _atom_site_label
 _atom_site_symmetry_multiplicity
 _atom_site_fract_x
 _atom_site_fract_y
 _atom_site_fract_z
 _atom_site_occupancy
  Tb  Tb0  1  0.667202  0.334291  0.000000  1
  Tb  Tb1  1  0.332735  0.667011  0.500000  1
  Mn  Mn2  1  0.880483  0.155262  0.000000  1
  Mn  Mn3  1  0.101188  0.877742  0.500000  1
  Mn  Mn4  1  0.774217  0.895386  0.500000  1
  Mn  Mn5  1  0.119884  0.223646  0.500000  1
  Co  Co6  1  0.060736  0.630665  0.000000  1
  Co  Co7  1  0.569480  0.938815  0.000000  1
  Co  Co8  1  0.371738  0.431604  0.000000  1
  Co  Co9  1  0.276836  0.118333  0.000000  1
  Co  Co10  1  0.841329  0.723242  0.000000  1
  Co  Co11  1  0.436882  0.050537  0.500000  1
  Co  Co12  1  0.613881  0.562928  0.500000  1
  Co  Co13  1  0.950182  0.387425  0.500000  1
  P  P14  1  0.298670  0.888834  0.000000  1
  P  P15  1  0.588189  0.698806  0.000000  1
  P  P16  1  0.110862  0.411115  0.000000  1
  P  P17  1  0.404023  0.289156  0.500000  1
  P  P18  1  0.888475  0.599428  0.500000  1
  P  P19  1  0.712135  0.117966  0.500000  1
  P  P20  1  0.000874  0.997810  0.000000  1
