# generated using pymatgen
data_Ho3Al3Cu2Si
_symmetry_space_group_name_H-M   'P 1'
_cell_length_a   6.88957300
_cell_length_b   6.88957391
_cell_length_c   4.17633700
_cell_angle_alpha   90.00000000
_cell_angle_beta   90.00000000
_cell_angle_gamma   120.00000044
_symmetry_Int_Tables_number   1
_chemical_formula_structural   Ho3Al3Cu2Si
_chemical_formula_sum   'Ho3 Al3 Cu2 Si1'
_cell_volume   171.67649389
_cell_formula_units_Z   1
loop_
 _symmetry_equiv_pos_site_id
 _symmetry_equiv_pos_as_xyz
  1  'x, y, z'
loop_
 _atom_site_type_symbol
 _atom_site_label
 _atom_site_symmetry_multiplicity
 _atom_site_fract_x
 _atom_site_fract_y
 _atom_site_fract_z
 _atom_site_occupancy
  Ho  Ho0  1  0.418450  0.002976  0.500000  1
  Ho  Ho1  1  0.997024  0.415474  0.500000  1
  Ho  Ho2  1  0.584526  0.581550  0.500000  1
  Al  Al3  1  0.763644  0.008120  0.000000  1
  Al  Al4  1  0.991880  0.755525  0.000000  1
  Al  Al5  1  0.244475  0.236356  0.000000  1
  Cu  Cu6  1  0.666667  0.333333  0.000000  1
  Cu  Cu7  1  0.000000  0.000000  0.500000  1
  Si  Si8  1  0.333333  0.666667  0.000000  1
