# generated using pymatgen
data_Ti9Nb3Al8(RhC)4
_symmetry_space_group_name_H-M   'P 1'
_cell_length_a   8.24753832
_cell_length_b   8.22541463
_cell_length_c   8.23635771
_cell_angle_alpha   60.13385686
_cell_angle_beta   59.86727925
_cell_angle_gamma   60.03316562
_symmetry_Int_Tables_number   1
_chemical_formula_structural   Ti9Nb3Al8(RhC)4
_chemical_formula_sum   'Ti9 Nb3 Al8 Rh4 C4'
_cell_volume   395.19379370
_cell_formula_units_Z   1
loop_
 _symmetry_equiv_pos_site_id
 _symmetry_equiv_pos_as_xyz
  1  'x, y, z'
loop_
 _atom_site_type_symbol
 _atom_site_label
 _atom_site_symmetry_multiplicity
 _atom_site_fract_x
 _atom_site_fract_y
 _atom_site_fract_z
 _atom_site_occupancy
  Ti  Ti0  1  0.685559  0.685559  0.314441  1
  Ti  Ti1  1  0.684849  0.315509  0.685883  1
  Ti  Ti2  1  0.315509  0.684849  0.313759  1
  Ti  Ti3  1  0.565118  0.934565  0.564177  1
  Ti  Ti4  1  0.564214  0.935569  0.936973  1
  Ti  Ti5  1  0.935569  0.564214  0.563245  1
  Ti  Ti6  1  0.934565  0.565118  0.936140  1
  Ti  Ti7  1  0.313846  0.313846  0.686154  1
  Ti  Ti8  1  0.564608  0.564608  0.935392  1
  Nb  Nb9  1  0.935506  0.935506  0.564494  1
  Nb  Nb10  1  0.685126  0.315447  0.313350  1
  Nb  Nb11  1  0.315447  0.685126  0.686078  1
  Al  Al12  1  0.915472  0.255069  0.914650  1
  Al  Al13  1  0.335683  0.332370  0.996608  1
  Al  Al14  1  0.996422  0.335725  0.335473  1
  Al  Al15  1  0.332370  0.335683  0.335338  1
  Al  Al16  1  0.255069  0.915472  0.914810  1
  Al  Al17  1  0.914439  0.914742  0.917479  1
  Al  Al18  1  0.914742  0.914439  0.253342  1
  Al  Al19  1  0.335725  0.996422  0.332380  1
  Rh  Rh20  1  0.125391  0.624978  0.124712  1
  Rh  Rh21  1  0.124943  0.125407  0.625373  1
  Rh  Rh22  1  0.624978  0.125391  0.124919  1
  Rh  Rh23  1  0.125407  0.124943  0.124278  1
  C  C24  1  0.619283  0.125859  0.630175  1
  C  C25  1  0.624099  0.630205  0.121695  1
  C  C26  1  0.125859  0.619283  0.624683  1
  C  C27  1  0.630205  0.624099  0.624001  1
