# generated using pymatgen
data_Tb2YLu9Os4
_symmetry_space_group_name_H-M   'P 1'
_cell_length_a   7.38747900
_cell_length_b   8.83177900
_cell_length_c   6.21207656
_cell_angle_alpha   90.00000000
_cell_angle_beta   89.64473249
_cell_angle_gamma   90.00000000
_symmetry_Int_Tables_number   1
_chemical_formula_structural   Tb2YLu9Os4
_chemical_formula_sum   'Tb2 Y1 Lu9 Os4'
_cell_volume   405.29654619
_cell_formula_units_Z   1
loop_
 _symmetry_equiv_pos_site_id
 _symmetry_equiv_pos_as_xyz
  1  'x, y, z'
loop_
 _atom_site_type_symbol
 _atom_site_label
 _atom_site_symmetry_multiplicity
 _atom_site_fract_x
 _atom_site_fract_y
 _atom_site_fract_z
 _atom_site_occupancy
  Tb  Tb0  1  0.538828  0.250000  0.873560  1
  Tb  Tb1  1  0.039563  0.250000  0.627426  1
  Y  Y2  1  0.462260  0.750000  0.126058  1
  Lu  Lu3  1  0.675679  0.061799  0.337570  1
  Lu  Lu4  1  0.171884  0.438582  0.164330  1
  Lu  Lu5  1  0.324527  0.563314  0.661950  1
  Lu  Lu6  1  0.826638  0.936766  0.834729  1
  Lu  Lu7  1  0.324527  0.936686  0.661950  1
  Lu  Lu8  1  0.826638  0.563234  0.834729  1
  Lu  Lu9  1  0.675679  0.438201  0.337570  1
  Lu  Lu10  1  0.171884  0.061418  0.164330  1
  Lu  Lu11  1  0.960509  0.750000  0.372149  1
  Os  Os12  1  0.882868  0.250000  0.045173  1
  Os  Os13  1  0.382692  0.250000  0.454111  1
  Os  Os14  1  0.115149  0.750000  0.959756  1
  Os  Os15  1  0.620677  0.750000  0.544611  1
