# generated using pymatgen
data_Sr6Li16Sn7
_symmetry_space_group_name_H-M   'P 1'
_cell_length_a   9.94580500
_cell_length_b   9.94580539
_cell_length_c   9.94580500
_cell_angle_alpha   120.00000204
_cell_angle_beta   90.00000000
_cell_angle_gamma   120.00000204
_symmetry_Int_Tables_number   1
_chemical_formula_structural   Sr6Li16Sn7
_chemical_formula_sum   'Sr6 Li16 Sn7'
_cell_volume   695.67246247
_cell_formula_units_Z   1
loop_
 _symmetry_equiv_pos_site_id
 _symmetry_equiv_pos_as_xyz
  1  'x, y, z'
loop_
 _atom_site_type_symbol
 _atom_site_label
 _atom_site_symmetry_multiplicity
 _atom_site_fract_x
 _atom_site_fract_y
 _atom_site_fract_z
 _atom_site_occupancy
  Sr  Sr0  1  0.776843  0.000000  0.223156  1
  Sr  Sr1  1  0.223157  0.446315  0.223157  1
  Sr  Sr2  1  0.223157  0.000000  0.223157  1
  Sr  Sr3  1  0.776843  0.000000  0.776843  1
  Sr  Sr4  1  0.223156  0.000000  0.776843  1
  Sr  Sr5  1  0.776843  0.553686  0.776843  1
  Li  Li6  1  0.375867  0.751733  0.127600  1
  Li  Li7  1  0.828384  0.656767  0.171617  1
  Li  Li8  1  0.514848  0.343234  0.171617  1
  Li  Li9  1  0.828384  0.343234  0.171617  1
  Li  Li10  1  0.127600  0.751733  0.375867  1
  Li  Li11  1  0.624133  0.751733  0.375867  1
  Li  Li12  1  0.624133  0.248266  0.375867  1
  Li  Li13  1  0.828384  0.656767  0.485152  1
  Li  Li14  1  0.171617  0.343234  0.514848  1
  Li  Li15  1  0.375867  0.751733  0.624133  1
  Li  Li16  1  0.375867  0.248266  0.624133  1
  Li  Li17  1  0.872400  0.248266  0.624133  1
  Li  Li18  1  0.171617  0.656767  0.828384  1
  Li  Li19  1  0.485152  0.656767  0.828384  1
  Li  Li20  1  0.171617  0.343234  0.828384  1
  Li  Li21  1  0.624133  0.248266  0.872400  1
  Sn  Sn22  1  0.500000  0.000000  0.000000  1
  Sn  Sn23  1  0.000000  0.500000  0.000000  1
  Sn  Sn24  1  0.500000  0.500000  0.000000  1
  Sn  Sn25  1  0.500000  0.000000  0.500000  1
  Sn  Sn26  1  0.000000  0.000000  0.500000  1
  Sn  Sn27  1  0.000000  0.500000  0.500000  1
  Sn  Sn28  1  0.500000  0.500000  0.500000  1
