# generated using pymatgen
data_Nd3Dy(Si3Ni5)4
_symmetry_space_group_name_H-M   'P 1'
_cell_length_a   3.84048300
_cell_length_b   18.94817885
_cell_length_c   6.61623811
_cell_angle_alpha   90.07167070
_cell_angle_beta   90.00000000
_cell_angle_gamma   90.00000000
_symmetry_Int_Tables_number   1
_chemical_formula_structural   Nd3Dy(Si3Ni5)4
_chemical_formula_sum   'Nd3 Dy1 Si12 Ni20'
_cell_volume   481.46432072
_cell_formula_units_Z   1
loop_
 _symmetry_equiv_pos_site_id
 _symmetry_equiv_pos_as_xyz
  1  'x, y, z'
loop_
 _atom_site_type_symbol
 _atom_site_label
 _atom_site_symmetry_multiplicity
 _atom_site_fract_x
 _atom_site_fract_y
 _atom_site_fract_z
 _atom_site_occupancy
  Nd  Nd0  1  0.750000  0.643287  0.123575  1
  Nd  Nd1  1  0.250000  0.355804  0.875079  1
  Nd  Nd2  1  0.250000  0.857718  0.625037  1
  Dy  Dy3  1  0.750000  0.143795  0.377643  1
  Si  Si4  1  0.750000  0.736189  0.617860  1
  Si  Si5  1  0.250000  0.261810  0.383222  1
  Si  Si6  1  0.250000  0.765131  0.116618  1
  Si  Si7  1  0.750000  0.234520  0.883674  1
  Si  Si8  1  0.750000  0.928275  0.339499  1
  Si  Si9  1  0.250000  0.073303  0.655331  1
  Si  Si10  1  0.250000  0.570879  0.838832  1
  Si  Si11  1  0.750000  0.427428  0.160316  1
  Si  Si12  1  0.750000  0.915871  0.928885  1
  Si  Si13  1  0.250000  0.088075  0.078695  1
  Si  Si14  1  0.250000  0.586691  0.431117  1
  Si  Si15  1  0.750000  0.411628  0.566958  1
  Ni  Ni16  1  0.750000  0.801726  0.309899  1
  Ni  Ni17  1  0.250000  0.197556  0.688282  1
  Ni  Ni18  1  0.250000  0.698832  0.809853  1
  Ni  Ni19  1  0.750000  0.299648  0.190822  1
  Ni  Ni20  1  0.750000  0.995714  0.634906  1
  Ni  Ni21  1  0.250000  0.006797  0.362762  1
  Ni  Ni22  1  0.250000  0.504702  0.138228  1
  Ni  Ni23  1  0.750000  0.493614  0.860814  1
  Ni  Ni24  1  0.750000  0.516430  0.390878  1
  Ni  Ni25  1  0.250000  0.481976  0.607603  1
  Ni  Ni26  1  0.250000  0.986272  0.891140  1
  Ni  Ni27  1  0.750000  0.018829  0.115638  1
  Ni  Ni28  1  0.750000  0.793820  0.927403  1
  Ni  Ni29  1  0.250000  0.207080  0.074532  1
  Ni  Ni30  1  0.250000  0.708279  0.427107  1
  Ni  Ni31  1  0.750000  0.289848  0.572226  1
  Ni  Ni32  1  0.750000  0.615581  0.646410  1
  Ni  Ni33  1  0.250000  0.382623  0.352635  1
  Ni  Ni34  1  0.250000  0.885722  0.144543  1
  Ni  Ni35  1  0.750000  0.114547  0.851980  1
