# generated using pymatgen
data_Ba2P4Ir3W
_symmetry_space_group_name_H-M   'P 1'
_cell_length_a   5.77306800
_cell_length_b   6.88384686
_cell_length_c   5.77357062
_cell_angle_alpha   65.15748446
_cell_angle_beta   89.99990075
_cell_angle_gamma   89.99994988
_symmetry_Int_Tables_number   1
_chemical_formula_structural   Ba2P4Ir3W
_chemical_formula_sum   'Ba2 P4 Ir3 W1'
_cell_volume   208.21533318
_cell_formula_units_Z   1
loop_
 _symmetry_equiv_pos_site_id
 _symmetry_equiv_pos_as_xyz
  1  'x, y, z'
loop_
 _atom_site_type_symbol
 _atom_site_label
 _atom_site_symmetry_multiplicity
 _atom_site_fract_x
 _atom_site_fract_y
 _atom_site_fract_z
 _atom_site_occupancy
  Ba  Ba0  1  0.991465  0.000001  0.999999  1
  Ba  Ba1  1  0.508791  0.999999  0.500001  1
  P  P2  1  0.497244  0.698441  0.152609  1
  P  P3  1  0.002593  0.698825  0.647734  1
  P  P4  1  0.002596  0.301175  0.352265  1
  P  P5  1  0.497247  0.301561  0.847390  1
  Ir  Ir6  1  0.249814  0.500001  0.000001  1
  Ir  Ir7  1  0.750288  0.500001  0.000000  1
  Ir  Ir8  1  0.749878  0.499997  0.500000  1
  W  W9  1  0.250085  0.499999  0.499999  1
