# generated using pymatgen
data_Y3Al2(ReN4)3
_symmetry_space_group_name_H-M   'P 1'
_cell_length_a   10.78904378
_cell_length_b   10.78904351
_cell_length_c   10.78904400
_cell_angle_alpha   109.47122156
_cell_angle_beta   109.47122105
_cell_angle_gamma   109.47122074
_symmetry_Int_Tables_number   1
_chemical_formula_structural   Y3Al2(ReN4)3
_chemical_formula_sum   'Y12 Al8 Re12 N48'
_cell_volume   966.77845966
_cell_formula_units_Z   4
loop_
 _symmetry_equiv_pos_site_id
 _symmetry_equiv_pos_as_xyz
  1  'x, y, z'
loop_
 _atom_site_type_symbol
 _atom_site_label
 _atom_site_symmetry_multiplicity
 _atom_site_fract_x
 _atom_site_fract_y
 _atom_site_fract_z
 _atom_site_occupancy
  Y  Y0  1  0.250000  0.375000  0.125000  1
  Y  Y1  1  0.375001  0.750000  0.125000  1
  Y  Y2  1  0.375000  0.125000  0.250000  1
  Y  Y3  1  0.875000  0.625000  0.250000  1
  Y  Y4  1  0.750000  0.125000  0.375001  1
  Y  Y5  1  0.125000  0.250000  0.375000  1
  Y  Y6  1  0.875000  0.750000  0.625000  1
  Y  Y7  1  0.250000  0.875000  0.625000  1
  Y  Y8  1  0.125000  0.375001  0.750000  1
  Y  Y9  1  0.625000  0.875000  0.750000  1
  Y  Y10  1  0.625000  0.250000  0.875000  1
  Y  Y11  1  0.750000  0.625000  0.875000  1
  Al  Al12  1  0.000000  0.000000  0.000000  1
  Al  Al13  1  0.500000  0.000000  0.000000  1
  Al  Al14  1  0.000000  0.500000  0.000000  1
  Al  Al15  1  0.500000  0.500000  0.000000  1
  Al  Al16  1  0.000000  0.000000  0.500000  1
  Al  Al17  1  0.500000  0.000000  0.500000  1
  Al  Al18  1  0.000000  0.500000  0.500000  1
  Al  Al19  1  0.500000  0.500000  0.500000  1
  Re  Re20  1  0.875000  0.250000  0.125000  1
  Re  Re21  1  0.750000  0.874999  0.125000  1
  Re  Re22  1  0.625000  0.375000  0.250000  1
  Re  Re23  1  0.125000  0.875000  0.250000  1
  Re  Re24  1  0.250000  0.625000  0.375000  1
  Re  Re25  1  0.625000  0.750000  0.375000  1
  Re  Re26  1  0.375000  0.250000  0.625000  1
  Re  Re27  1  0.750000  0.375000  0.625000  1
  Re  Re28  1  0.874999  0.125000  0.750000  1
  Re  Re29  1  0.375000  0.625000  0.750000  1
  Re  Re30  1  0.250000  0.125000  0.875000  1
  Re  Re31  1  0.125000  0.750000  0.874999  1
  N  N32  1  0.318200  0.902747  0.019152  1
  N  N33  1  0.200953  0.116406  0.019152  1
  N  N34  1  0.883595  0.402747  0.084547  1
  N  N35  1  0.700952  0.681800  0.084547  1
  N  N36  1  0.616405  0.415452  0.097253  1
  N  N37  1  0.980848  0.681801  0.097253  1
  N  N38  1  0.597253  0.915453  0.116406  1
  N  N39  1  0.019152  0.200953  0.116406  1
  N  N40  1  0.200953  0.584547  0.181800  1
  N  N41  1  0.480848  0.597253  0.181800  1
  N  N42  1  0.116406  0.019152  0.200953  1
  N  N43  1  0.584547  0.181800  0.200953  1
  N  N44  1  0.480848  0.383595  0.299048  1
  N  N45  1  0.318199  0.915453  0.299048  1
  N  N46  1  0.902747  0.019152  0.318200  1
  N  N47  1  0.915453  0.299048  0.318199  1
  N  N48  1  0.299048  0.480848  0.383595  1
  N  N49  1  0.584547  0.902747  0.383595  1
  N  N50  1  0.818199  0.519152  0.402747  1
  N  N51  1  0.084547  0.883595  0.402747  1
  N  N52  1  0.097253  0.616405  0.415452  1
  N  N53  1  0.818200  0.799048  0.415453  1
  N  N54  1  0.597253  0.181800  0.480848  1
  N  N55  1  0.383595  0.299048  0.480848  1
  N  N56  1  0.616406  0.700953  0.519153  1
  N  N57  1  0.402747  0.818199  0.519152  1
  N  N58  1  0.181800  0.200953  0.584547  1
  N  N59  1  0.902747  0.383595  0.584547  1
  N  N60  1  0.915453  0.116406  0.597253  1
  N  N61  1  0.181800  0.480848  0.597253  1
  N  N62  1  0.415452  0.097253  0.616405  1
  N  N63  1  0.700953  0.519153  0.616406  1
  N  N64  1  0.084547  0.700952  0.681800  1
  N  N65  1  0.097253  0.980848  0.681801  1
  N  N66  1  0.681800  0.084547  0.700952  1
  N  N67  1  0.519153  0.616406  0.700953  1
  N  N68  1  0.415453  0.818200  0.799048  1
  N  N69  1  0.883595  0.980848  0.799048  1
  N  N70  1  0.519152  0.402747  0.818199  1
  N  N71  1  0.799048  0.415453  0.818200  1
  N  N72  1  0.402747  0.084547  0.883595  1
  N  N73  1  0.980848  0.799048  0.883595  1
  N  N74  1  0.019152  0.318200  0.902747  1
  N  N75  1  0.383595  0.584547  0.902747  1
  N  N76  1  0.299048  0.318199  0.915453  1
  N  N77  1  0.116406  0.597253  0.915453  1
  N  N78  1  0.681801  0.097253  0.980848  1
  N  N79  1  0.799048  0.883595  0.980848  1
