# generated using pymatgen
data_SrBeSiIr2
_symmetry_space_group_name_H-M   'P 1'
_cell_length_a   5.98558960
_cell_length_b   5.98558902
_cell_length_c   5.98558944
_cell_angle_alpha   139.27270364
_cell_angle_beta   139.27270027
_cell_angle_gamma   58.95928575
_symmetry_Int_Tables_number   1
_chemical_formula_structural   SrBeSiIr2
_chemical_formula_sum   'Sr1 Be1 Si1 Ir2'
_cell_volume   90.42045239
_cell_formula_units_Z   1
loop_
 _symmetry_equiv_pos_site_id
 _symmetry_equiv_pos_as_xyz
  1  'x, y, z'
loop_
 _atom_site_type_symbol
 _atom_site_label
 _atom_site_symmetry_multiplicity
 _atom_site_fract_x
 _atom_site_fract_y
 _atom_site_fract_z
 _atom_site_occupancy
  Sr  Sr0  1  0.001891  0.001891  0.000000  1
  Be  Be1  1  0.654908  0.654908  0.000000  1
  Si  Si2  1  0.352516  0.352516  0.000000  1
  Ir  Ir3  1  0.745342  0.245342  0.500000  1
  Ir  Ir4  1  0.245342  0.745342  0.500000  1
