# generated using pymatgen
data_Tb3Dy5Hf11Si16Tc
_symmetry_space_group_name_H-M   'P 1'
_cell_length_a   7.25177278
_cell_length_b   7.25117105
_cell_length_c   13.28059246
_cell_angle_alpha   89.92878405
_cell_angle_beta   90.06192980
_cell_angle_gamma   90.06820427
_symmetry_Int_Tables_number   1
_chemical_formula_structural   Tb3Dy5Hf11Si16Tc
_chemical_formula_sum   'Tb3 Dy5 Hf11 Si16 Tc1'
_cell_volume   698.34317192
_cell_formula_units_Z   1
loop_
 _symmetry_equiv_pos_site_id
 _symmetry_equiv_pos_as_xyz
  1  'x, y, z'
loop_
 _atom_site_type_symbol
 _atom_site_label
 _atom_site_symmetry_multiplicity
 _atom_site_fract_x
 _atom_site_fract_y
 _atom_site_fract_z
 _atom_site_occupancy
  Tb  Tb0  1  0.495006  0.156544  0.534527  1
  Tb  Tb1  1  0.342853  0.998638  0.787997  1
  Tb  Tb2  1  0.656018  0.004597  0.282805  1
  Dy  Dy3  1  0.999082  0.343141  0.211954  1
  Dy  Dy4  1  0.004363  0.655702  0.717041  1
  Dy  Dy5  1  0.156157  0.495410  0.465318  1
  Dy  Dy6  1  0.501045  0.845748  0.033636  1
  Dy  Dy7  1  0.845850  0.501048  0.966419  1
  Hf  Hf8  1  0.825370  0.824921  0.500073  1
  Hf  Hf9  1  0.324125  0.674684  0.248454  1
  Hf  Hf10  1  0.675040  0.324494  0.751563  1
  Hf  Hf11  1  0.148231  0.997323  0.372961  1
  Hf  Hf12  1  0.853322  0.004544  0.877723  1
  Hf  Hf13  1  0.503309  0.647911  0.625163  1
  Hf  Hf14  1  0.350343  0.494394  0.877203  1
  Hf  Hf15  1  0.494190  0.350527  0.122713  1
  Hf  Hf16  1  0.648000  0.503354  0.374859  1
  Hf  Hf17  1  0.997450  0.148238  0.627041  1
  Hf  Hf18  1  0.004537  0.853331  0.122235  1
  Si  Si19  1  0.361196  0.295496  0.315984  1
  Si  Si20  1  0.637941  0.704903  0.818450  1
  Si  Si21  1  0.204892  0.861586  0.567410  1
  Si  Si22  1  0.136823  0.794812  0.932372  1
  Si  Si23  1  0.795297  0.137243  0.067759  1
  Si  Si24  1  0.862519  0.205565  0.432631  1
  Si  Si25  1  0.294732  0.362176  0.684046  1
  Si  Si26  1  0.705172  0.637253  0.181429  1
  Si  Si27  1  0.293623  0.052693  0.181546  1
  Si  Si28  1  0.704350  0.951092  0.685996  1
  Si  Si29  1  0.449835  0.795819  0.434963  1
  Si  Si30  1  0.204691  0.548062  0.064413  1
  Si  Si31  1  0.548461  0.205001  0.935740  1
  Si  Si32  1  0.796678  0.450379  0.565036  1
  Si  Si33  1  0.052397  0.294277  0.818356  1
  Si  Si34  1  0.951722  0.703534  0.314063  1
  Tc  Tc35  1  0.175382  0.175561  0.000121  1
