# generated using pymatgen
data_Gd4ErGa2Sn
_symmetry_space_group_name_H-M   'P 1'
_cell_length_a   7.83754800
_cell_length_b   7.83754800
_cell_length_c   14.24859800
_cell_angle_alpha   90.00000000
_cell_angle_beta   90.00000000
_cell_angle_gamma   90.00000000
_symmetry_Int_Tables_number   1
_chemical_formula_structural   Gd4ErGa2Sn
_chemical_formula_sum   'Gd16 Er4 Ga8 Sn4'
_cell_volume   875.25088992
_cell_formula_units_Z   4
loop_
 _symmetry_equiv_pos_site_id
 _symmetry_equiv_pos_as_xyz
  1  'x, y, z'
loop_
 _atom_site_type_symbol
 _atom_site_label
 _atom_site_symmetry_multiplicity
 _atom_site_fract_x
 _atom_site_fract_y
 _atom_site_fract_z
 _atom_site_occupancy
  Gd  Gd0  1  0.829237  0.839707  0.605022  1
  Gd  Gd1  1  0.170763  0.839707  0.105022  1
  Gd  Gd2  1  0.160293  0.829237  0.394978  1
  Gd  Gd3  1  0.839707  0.170763  0.394978  1
  Gd  Gd4  1  0.670763  0.660293  0.394978  1
  Gd  Gd5  1  0.660293  0.329237  0.605022  1
  Gd  Gd6  1  0.339707  0.670763  0.605022  1
  Gd  Gd7  1  0.660293  0.670763  0.105022  1
  Gd  Gd8  1  0.670763  0.339707  0.894978  1
  Gd  Gd9  1  0.839707  0.829237  0.894978  1
  Gd  Gd10  1  0.329237  0.339707  0.394978  1
  Gd  Gd11  1  0.170763  0.160293  0.605022  1
  Gd  Gd12  1  0.829237  0.160293  0.105022  1
  Gd  Gd13  1  0.329237  0.660293  0.894978  1
  Gd  Gd14  1  0.339707  0.329237  0.105022  1
  Gd  Gd15  1  0.160293  0.170763  0.894978  1
  Er  Er16  1  0.000000  0.500000  0.740919  1
  Er  Er17  1  0.000000  0.500000  0.240919  1
  Er  Er18  1  0.500000  0.000000  0.259081  1
  Er  Er19  1  0.500000  0.000000  0.759081  1
  Ga  Ga20  1  0.625999  0.374001  0.250000  1
  Ga  Ga21  1  0.125999  0.874001  0.750000  1
  Ga  Ga22  1  0.374001  0.374001  0.750000  1
  Ga  Ga23  1  0.374001  0.625999  0.250000  1
  Ga  Ga24  1  0.874001  0.874001  0.250000  1
  Ga  Ga25  1  0.625999  0.625999  0.750000  1
  Ga  Ga26  1  0.874001  0.125999  0.750000  1
  Ga  Ga27  1  0.125999  0.125999  0.250000  1
  Sn  Sn28  1  0.000000  0.500000  0.503703  1
  Sn  Sn29  1  0.500000  0.000000  0.496297  1
  Sn  Sn30  1  0.500000  0.000000  0.996297  1
  Sn  Sn31  1  0.000000  0.500000  0.003703  1
