# generated using pymatgen
data_La15Pr(HgRu)4
_symmetry_space_group_name_H-M   'P 1'
_cell_length_a   10.05977448
_cell_length_b   10.05977432
_cell_length_c   10.05604300
_cell_angle_alpha   60.01227230
_cell_angle_beta   60.01227282
_cell_angle_gamma   59.99176897
_symmetry_Int_Tables_number   1
_chemical_formula_structural   La15Pr(HgRu)4
_chemical_formula_sum   'La15 Pr1 Hg4 Ru4'
_cell_volume   719.68443523
_cell_formula_units_Z   1
loop_
 _symmetry_equiv_pos_site_id
 _symmetry_equiv_pos_as_xyz
  1  'x, y, z'
loop_
 _atom_site_type_symbol
 _atom_site_label
 _atom_site_symmetry_multiplicity
 _atom_site_fract_x
 _atom_site_fract_y
 _atom_site_fract_z
 _atom_site_occupancy
  La  La0  1  0.346128  0.346128  0.347673  1
  La  La1  1  0.346128  0.346128  0.960069  1
  La  La2  1  0.346022  0.958288  0.347845  1
  La  La3  1  0.958288  0.346022  0.347845  1
  La  La4  1  0.810790  0.189541  0.189540  1
  La  La5  1  0.189541  0.810790  0.810129  1
  La  La6  1  0.189541  0.810790  0.189540  1
  La  La7  1  0.810790  0.189541  0.810129  1
  La  La8  1  0.189662  0.189662  0.810338  1
  La  La9  1  0.811126  0.811126  0.188874  1
  La  La10  1  0.940962  0.560823  0.559046  1
  La  La11  1  0.560823  0.940962  0.939169  1
  La  La12  1  0.560823  0.940962  0.559046  1
  La  La13  1  0.940962  0.560823  0.939169  1
  La  La14  1  0.560272  0.560272  0.939728  1
  Pr  Pr15  1  0.939859  0.939859  0.560141  1
  Hg  Hg16  1  0.582346  0.582346  0.582442  1
  Hg  Hg17  1  0.582346  0.582346  0.252865  1
  Hg  Hg18  1  0.583099  0.252629  0.582136  1
  Hg  Hg19  1  0.252629  0.583099  0.582136  1
  Ru  Ru20  1  0.136490  0.136490  0.137091  1
  Ru  Ru21  1  0.136490  0.136490  0.589929  1
  Ru  Ru22  1  0.135414  0.589470  0.137558  1
  Ru  Ru23  1  0.589470  0.135414  0.137558  1
