# generated using pymatgen
data_Be(BIr)2
_symmetry_space_group_name_H-M   'P 1'
_cell_length_a   2.89009641
_cell_length_b   2.89009581
_cell_length_c   6.39396644
_cell_angle_alpha   103.06179587
_cell_angle_beta   103.06179332
_cell_angle_gamma   90.00001290
_symmetry_Int_Tables_number   1
_chemical_formula_structural   Be(BIr)2
_chemical_formula_sum   'Be1 B2 Ir2'
_cell_volume   50.60529193
_cell_formula_units_Z   1
loop_
 _symmetry_equiv_pos_site_id
 _symmetry_equiv_pos_as_xyz
  1  'x, y, z'
loop_
 _atom_site_type_symbol
 _atom_site_label
 _atom_site_symmetry_multiplicity
 _atom_site_fract_x
 _atom_site_fract_y
 _atom_site_fract_z
 _atom_site_occupancy
  Be  Be0  1  0.000000  0.000000  0.000000  1
  B  B1  1  0.750001  0.250000  0.500000  1
  B  B2  1  0.250000  0.750001  0.500000  1
  Ir  Ir3  1  0.616735  0.616735  0.233469  1
  Ir  Ir4  1  0.383266  0.383266  0.766532  1
