# generated using pymatgen
data_AcGd3(AuCl6)4
_symmetry_space_group_name_H-M   'P 1'
_cell_length_a   8.02640117
_cell_length_b   9.99594225
_cell_length_c   14.18022900
_cell_angle_alpha   104.32050965
_cell_angle_beta   94.50631431
_cell_angle_gamma   112.85242702
_symmetry_Int_Tables_number   1
_chemical_formula_structural   AcGd3(AuCl6)4
_chemical_formula_sum   'Ac1 Gd3 Au4 Cl24'
_cell_volume   996.20565939
_cell_formula_units_Z   1
loop_
 _symmetry_equiv_pos_site_id
 _symmetry_equiv_pos_as_xyz
  1  'x, y, z'
loop_
 _atom_site_type_symbol
 _atom_site_label
 _atom_site_symmetry_multiplicity
 _atom_site_fract_x
 _atom_site_fract_y
 _atom_site_fract_z
 _atom_site_occupancy
  Ac  Ac0  1  0.973015  0.310630  0.869482  1
  Gd  Gd1  1  0.577823  0.924929  0.616381  1
  Gd  Gd2  1  0.030094  0.690857  0.134591  1
  Gd  Gd3  1  0.418525  0.072346  0.379010  1
  Au  Au4  1  0.296520  0.637102  0.759743  1
  Au  Au5  1  0.497890  0.498162  0.498773  1
  Au  Au6  1  0.707536  0.367542  0.238446  1
  Au  Au7  1  0.999864  0.996932  0.004001  1
  Cl  Cl8  1  0.780972  0.091071  0.981472  1
  Cl  Cl9  1  0.715457  0.148067  0.261044  1
  Cl  Cl10  1  0.286437  0.855100  0.737344  1
  Cl  Cl11  1  0.780056  0.794236  0.040025  1
  Cl  Cl12  1  0.612365  0.188954  0.740614  1
  Cl  Cl13  1  0.315394  0.417326  0.777426  1
  Cl  Cl14  1  0.701012  0.591542  0.222095  1
  Cl  Cl15  1  0.313447  0.628674  0.496514  1
  Cl  Cl16  1  0.226723  0.197685  0.967812  1
  Cl  Cl17  1  0.749794  0.725902  0.518181  1
  Cl  Cl18  1  0.210360  0.896189  0.026634  1
  Cl  Cl19  1  0.713082  0.044951  0.475462  1
  Cl  Cl20  1  0.603477  0.737664  0.746086  1
  Cl  Cl21  1  0.933386  0.041407  0.713045  1
  Cl  Cl22  1  0.245524  0.269525  0.478607  1
  Cl  Cl23  1  0.372961  0.806064  0.254647  1
  Cl  Cl24  1  0.985570  0.545119  0.768278  1
  Cl  Cl25  1  0.767968  0.445168  0.989783  1
  Cl  Cl26  1  0.238178  0.577795  0.025698  1
  Cl  Cl27  1  0.016436  0.465039  0.226421  1
  Cl  Cl28  1  0.400444  0.266914  0.253390  1
  Cl  Cl29  1  0.283728  0.952441  0.520165  1
  Cl  Cl30  1  0.683086  0.368581  0.501985  1
  Cl  Cl31  1  0.062876  0.946082  0.276842  1
