# generated using pymatgen
data_YEr3Al18Ir5Au
_symmetry_space_group_name_H-M   'P 1'
_cell_length_a   7.58441417
_cell_length_b   7.58382656
_cell_length_c   9.45853027
_cell_angle_alpha   89.98022335
_cell_angle_beta   89.95800907
_cell_angle_gamma   119.55444882
_symmetry_Int_Tables_number   1
_chemical_formula_structural   YEr3Al18Ir5Au
_chemical_formula_sum   'Y1 Er3 Al18 Ir5 Au1'
_cell_volume   473.25678097
_cell_formula_units_Z   1
loop_
 _symmetry_equiv_pos_site_id
 _symmetry_equiv_pos_as_xyz
  1  'x, y, z'
loop_
 _atom_site_type_symbol
 _atom_site_label
 _atom_site_symmetry_multiplicity
 _atom_site_fract_x
 _atom_site_fract_y
 _atom_site_fract_z
 _atom_site_occupancy
  Y  Y0  1  0.326453  0.004241  0.748991  1
  Er  Er1  1  0.995862  0.673591  0.251253  1
  Er  Er2  1  0.004067  0.326458  0.748741  1
  Er  Er3  1  0.673612  0.995859  0.251257  1
  Al  Al4  1  0.134907  0.134953  0.256018  1
  Al  Al5  1  0.864652  0.865013  0.743914  1
  Al  Al6  1  0.001243  0.343991  0.079333  1
  Al  Al7  1  0.998354  0.655529  0.920974  1
  Al  Al8  1  0.000080  0.664159  0.573582  1
  Al  Al9  1  0.335440  0.999474  0.425669  1
  Al  Al10  1  0.999507  0.335439  0.426084  1
  Al  Al11  1  0.664952  0.000494  0.573596  1
  Al  Al12  1  0.656429  0.998722  0.921020  1
  Al  Al13  1  0.344069  0.001235  0.079718  1
  Al  Al14  1  0.332920  0.333270  0.552156  1
  Al  Al15  1  0.667077  0.667079  0.447444  1
  Al  Al16  1  0.658610  0.658607  0.059105  1
  Al  Al17  1  0.341430  0.341811  0.941300  1
  Al  Al18  1  0.339361  0.550421  0.251246  1
  Al  Al19  1  0.661115  0.450097  0.748753  1
  Al  Al20  1  0.550442  0.339408  0.251253  1
  Al  Al21  1  0.449604  0.660255  0.748737  1
  Ir  Ir22  1  0.672177  0.328059  0.000166  1
  Ir  Ir23  1  0.327956  0.671937  0.000190  1
  Ir  Ir24  1  0.328024  0.671900  0.499819  1
  Ir  Ir25  1  0.672164  0.328134  0.499789  1
  Ir  Ir26  1  0.999669  0.999902  0.499743  1
  Au  Au27  1  0.999823  0.999962  0.000150  1
