# generated using pymatgen
data_CeHo5Tm2(AlRu)8
_symmetry_space_group_name_H-M   'P 1'
_cell_length_a   4.08009000
_cell_length_b   6.99094537
_cell_length_c   15.87267147
_cell_angle_alpha   90.52401551
_cell_angle_beta   90.00000000
_cell_angle_gamma   90.00000000
_symmetry_Int_Tables_number   1
_chemical_formula_structural   CeHo5Tm2(AlRu)8
_chemical_formula_sum   'Ce1 Ho5 Tm2 Al8 Ru8'
_cell_volume   452.72816651
_cell_formula_units_Z   1
loop_
 _symmetry_equiv_pos_site_id
 _symmetry_equiv_pos_as_xyz
  1  'x, y, z'
loop_
 _atom_site_type_symbol
 _atom_site_label
 _atom_site_symmetry_multiplicity
 _atom_site_fract_x
 _atom_site_fract_y
 _atom_site_fract_z
 _atom_site_occupancy
  Ce  Ce0  1  0.250000  0.536864  0.719450  1
  Ho  Ho1  1  0.750000  0.964010  0.219103  1
  Ho  Ho2  1  0.250000  0.161113  0.560807  1
  Ho  Ho3  1  0.750000  0.840885  0.435979  1
  Ho  Ho4  1  0.250000  0.658060  0.938727  1
  Ho  Ho5  1  0.250000  0.038089  0.781661  1
  Tm  Tm6  1  0.750000  0.462707  0.281309  1
  Tm  Tm7  1  0.750000  0.340586  0.064700  1
  Al  Al8  1  0.750000  0.505719  0.562041  1
  Al  Al9  1  0.750000  0.360284  0.853370  1
  Al  Al10  1  0.750000  0.996609  0.935738  1
  Al  Al11  1  0.750000  0.873899  0.649712  1
  Al  Al12  1  0.250000  0.500931  0.433238  1
  Al  Al13  1  0.250000  0.996004  0.066744  1
  Al  Al14  1  0.250000  0.631714  0.151263  1
  Al  Al15  1  0.250000  0.134704  0.348360  1
  Ru  Ru16  1  0.750000  0.737199  0.807944  1
  Ru  Ru17  1  0.250000  0.231152  0.938846  1
  Ru  Ru18  1  0.750000  0.264702  0.435331  1
  Ru  Ru19  1  0.250000  0.752470  0.311388  1
  Ru  Ru20  1  0.750000  0.760506  0.064130  1
  Ru  Ru21  1  0.750000  0.260310  0.686921  1
  Ru  Ru22  1  0.250000  0.254198  0.186783  1
  Ru  Ru23  1  0.250000  0.737286  0.566456  1
