# generated using pymatgen
data_Tb4Re2MoOs5
_symmetry_space_group_name_H-M   'P 1'
_cell_length_a   5.31544489
_cell_length_b   5.23722381
_cell_length_c   9.07030900
_cell_angle_alpha   90.00000000
_cell_angle_beta   90.00000000
_cell_angle_gamma   117.74445338
_symmetry_Int_Tables_number   1
_chemical_formula_structural   Tb4Re2MoOs5
_chemical_formula_sum   'Tb4 Re2 Mo1 Os5'
_cell_volume   223.47150660
_cell_formula_units_Z   1
loop_
 _symmetry_equiv_pos_site_id
 _symmetry_equiv_pos_as_xyz
  1  'x, y, z'
loop_
 _atom_site_type_symbol
 _atom_site_label
 _atom_site_symmetry_multiplicity
 _atom_site_fract_x
 _atom_site_fract_y
 _atom_site_fract_z
 _atom_site_occupancy
  Tb  Tb0  1  0.329859  0.670809  0.434799  1
  Tb  Tb1  1  0.669790  0.333889  0.564966  1
  Tb  Tb2  1  0.669790  0.333889  0.935034  1
  Tb  Tb3  1  0.329859  0.670809  0.065201  1
  Re  Re4  1  0.164344  0.828486  0.750000  1
  Re  Re5  1  0.167456  0.336277  0.750000  1
  Mo  Mo6  1  0.837798  0.161074  0.250000  1
  Os  Os7  1  0.006115  0.008242  0.501162  1
  Os  Os8  1  0.006115  0.008242  0.998838  1
  Os  Os9  1  0.823567  0.651761  0.250000  1
  Os  Os10  1  0.345683  0.174052  0.250000  1
  Os  Os11  1  0.649624  0.822469  0.750000  1
