# generated using pymatgen
data_YbY3(Ga2Au)4
_symmetry_space_group_name_H-M   'P 1'
_cell_length_a   4.36013300
_cell_length_b   6.98700942
_cell_length_c   10.28860800
_cell_angle_alpha   90.32502180
_cell_angle_beta   90.00000000
_cell_angle_gamma   90.00000000
_symmetry_Int_Tables_number   1
_chemical_formula_structural   YbY3(Ga2Au)4
_chemical_formula_sum   'Yb1 Y3 Ga8 Au4'
_cell_volume   313.43009821
_cell_formula_units_Z   1
loop_
 _symmetry_equiv_pos_site_id
 _symmetry_equiv_pos_as_xyz
  1  'x, y, z'
loop_
 _atom_site_type_symbol
 _atom_site_label
 _atom_site_symmetry_multiplicity
 _atom_site_fract_x
 _atom_site_fract_y
 _atom_site_fract_z
 _atom_site_occupancy
  Yb  Yb0  1  0.250000  0.269320  0.671031  1
  Y  Y1  1  0.250000  0.772528  0.827171  1
  Y  Y2  1  0.750000  0.230939  0.172136  1
  Y  Y3  1  0.750000  0.728148  0.329300  1
  Ga  Ga4  1  0.250000  0.707032  0.535765  1
  Ga  Ga5  1  0.750000  0.293536  0.466096  1
  Ga  Ga6  1  0.750000  0.790363  0.036166  1
  Ga  Ga7  1  0.250000  0.204576  0.964758  1
  Ga  Ga8  1  0.250000  0.927933  0.153144  1
  Ga  Ga9  1  0.750000  0.072878  0.849592  1
  Ga  Ga10  1  0.750000  0.570232  0.648330  1
  Ga  Ga11  1  0.250000  0.428047  0.347164  1
  Au  Au12  1  0.250000  0.544900  0.102203  1
  Au  Au13  1  0.750000  0.455557  0.894298  1
  Au  Au14  1  0.750000  0.958642  0.604701  1
  Au  Au15  1  0.250000  0.045371  0.398142  1
