# generated using pymatgen
data_Li6Mg2Mn(Sn3O8)3
_symmetry_space_group_name_H-M   'P 1'
_cell_length_a   10.71891841
_cell_length_b   10.71899656
_cell_length_c   10.04481076
_cell_angle_alpha   90.02285534
_cell_angle_beta   90.02146153
_cell_angle_gamma   120.05133588
_symmetry_Int_Tables_number   1
_chemical_formula_structural   Li6Mg2Mn(Sn3O8)3
_chemical_formula_sum   'Li12 Mg4 Mn2 Sn18 O48'
_cell_volume   998.97004764
_cell_formula_units_Z   2
loop_
 _symmetry_equiv_pos_site_id
 _symmetry_equiv_pos_as_xyz
  1  'x, y, z'
loop_
 _atom_site_type_symbol
 _atom_site_label
 _atom_site_symmetry_multiplicity
 _atom_site_fract_x
 _atom_site_fract_y
 _atom_site_fract_z
 _atom_site_occupancy
  Li  Li0  1  0.983144  0.983135  0.720502  1
  Li  Li1  1  0.018040  0.018032  0.219816  1
  Li  Li2  1  0.665671  0.165833  0.993998  1
  Li  Li3  1  0.334007  0.833855  0.493425  1
  Li  Li4  1  0.304594  0.665402  0.223224  1
  Li  Li5  1  0.834491  0.834501  0.495636  1
  Li  Li6  1  0.833843  0.334002  0.493425  1
  Li  Li7  1  0.334018  0.694520  0.723676  1
  Li  Li8  1  0.165890  0.665780  0.994018  1
  Li  Li9  1  0.694618  0.334036  0.723649  1
  Li  Li10  1  0.665362  0.304565  0.223186  1
  Li  Li11  1  0.166005  0.165967  0.995337  1
  Mg  Mg12  1  0.999880  0.666374  0.308810  1
  Mg  Mg13  1  0.666497  0.999989  0.308759  1
  Mg  Mg14  1  0.666723  0.666744  0.812090  1
  Mg  Mg15  1  0.333314  0.333379  0.312101  1
  Mn  Mn16  1  0.999345  0.333635  0.812584  1
  Mn  Mn17  1  0.333627  0.999322  0.812579  1
  Sn  Sn18  1  0.321998  0.492865  0.000749  1
  Sn  Sn19  1  0.492721  0.321935  0.000585  1
  Sn  Sn20  1  0.330790  0.330717  0.720777  1
  Sn  Sn21  1  0.671308  0.671312  0.223046  1
  Sn  Sn22  1  0.508262  0.679900  0.499628  1
  Sn  Sn23  1  0.159826  0.985180  0.498472  1
  Sn  Sn24  1  0.505387  0.160717  0.500053  1
  Sn  Sn25  1  0.679924  0.508255  0.499607  1
  Sn  Sn26  1  0.333271  0.996386  0.221793  1
  Sn  Sn27  1  0.996381  0.333239  0.221812  1
  Sn  Sn28  1  0.985155  0.159743  0.498490  1
  Sn  Sn29  1  0.839231  0.013004  0.001288  1
  Sn  Sn30  1  0.160777  0.505451  0.500055  1
  Sn  Sn31  1  0.496558  0.838253  0.002709  1
  Sn  Sn32  1  0.838067  0.496503  0.002846  1
  Sn  Sn33  1  0.666899  0.002124  0.721907  1
  Sn  Sn34  1  0.002112  0.666909  0.721906  1
  Sn  Sn35  1  0.013100  0.839142  0.001213  1
  O  O36  1  0.847437  0.669156  0.875845  1
  O  O37  1  0.332968  0.002871  0.604202  1
  O  O38  1  0.178005  0.849204  0.362475  1
  O  O39  1  0.661710  0.661714  0.610728  1
  O  O40  1  0.492523  0.011950  0.361017  1
  O  O41  1  0.659401  0.815167  0.360482  1
  O  O42  1  0.664721  0.497221  0.114545  1
  O  O43  1  0.998403  0.166089  0.119881  1
  O  O44  1  0.664559  0.334272  0.402535  1
  O  O45  1  0.001546  0.001419  0.401091  1
  O  O46  1  0.667376  0.994642  0.110381  1
  O  O47  1  0.334372  0.664698  0.402476  1
  O  O48  1  0.340240  0.189633  0.861780  1
  O  O49  1  0.830583  0.503108  0.620753  1
  O  O50  1  0.669102  0.847461  0.875822  1
  O  O51  1  0.834438  0.001610  0.619847  1
  O  O52  1  0.815911  0.145546  0.866077  1
  O  O53  1  0.335193  0.503815  0.612759  1
  O  O54  1  0.666257  0.336247  0.903604  1
  O  O55  1  0.002767  0.332955  0.604201  1
  O  O56  1  0.988674  0.513538  0.864749  1
  O  O57  1  0.331053  0.150681  0.373710  1
  O  O58  1  0.849186  0.177986  0.362480  1
  O  O59  1  0.189631  0.340147  0.861782  1
  O  O60  1  0.011857  0.492493  0.361022  1
  O  O61  1  0.503726  0.335138  0.612700  1
  O  O62  1  0.997324  0.997241  0.902724  1
  O  O63  1  0.001650  0.834542  0.619893  1
  O  O64  1  0.815153  0.659410  0.360497  1
  O  O65  1  0.513502  0.988688  0.864755  1
  O  O66  1  0.662363  0.167327  0.622184  1
  O  O67  1  0.336321  0.666356  0.903624  1
  O  O68  1  0.503000  0.830552  0.620772  1
  O  O69  1  0.841663  0.841646  0.118222  1
  O  O70  1  0.517257  0.517285  0.371376  1
  O  O71  1  0.497239  0.664745  0.114581  1
  O  O72  1  0.166030  0.998356  0.119845  1
  O  O73  1  0.337450  0.831717  0.121708  1
  O  O74  1  0.150743  0.331062  0.373592  1
  O  O75  1  0.994583  0.667305  0.110437  1
  O  O76  1  0.831731  0.337357  0.121712  1
  O  O77  1  0.485097  0.485047  0.871780  1
  O  O78  1  0.339441  0.339434  0.112084  1
  O  O79  1  0.167308  0.662376  0.622234  1
  O  O80  1  0.145652  0.816021  0.866093  1
  O  O81  1  0.496311  0.169281  0.120426  1
  O  O82  1  0.169184  0.496311  0.120506  1
  O  O83  1  0.158527  0.158480  0.616255  1
