# generated using pymatgen
data_Ho6Er2Re3B24Ir
_symmetry_space_group_name_H-M   'P 1'
_cell_length_a   3.66148000
_cell_length_b   9.14011050
_cell_length_c   11.51957102
_cell_angle_alpha   90.13838335
_cell_angle_beta   90.00000000
_cell_angle_gamma   90.00000000
_symmetry_Int_Tables_number   1
_chemical_formula_structural   Ho6Er2Re3B24Ir
_chemical_formula_sum   'Ho6 Er2 Re3 B24 Ir1'
_cell_volume   385.51666127
_cell_formula_units_Z   1
loop_
 _symmetry_equiv_pos_site_id
 _symmetry_equiv_pos_as_xyz
  1  'x, y, z'
loop_
 _atom_site_type_symbol
 _atom_site_label
 _atom_site_symmetry_multiplicity
 _atom_site_fract_x
 _atom_site_fract_y
 _atom_site_fract_z
 _atom_site_occupancy
  Ho  Ho0  1  0.000000  0.318205  0.415501  1
  Ho  Ho1  1  0.000000  0.678648  0.591266  1
  Ho  Ho2  1  0.000000  0.826781  0.081384  1
  Ho  Ho3  1  0.000000  0.177271  0.912623  1
  Ho  Ho4  1  0.000000  0.944271  0.370465  1
  Ho  Ho5  1  0.000000  0.055798  0.628918  1
  Er  Er6  1  0.000000  0.441123  0.128190  1
  Er  Er7  1  0.000000  0.556592  0.871604  1
  Re  Re8  1  0.000000  0.362790  0.677630  1
  Re  Re9  1  0.000000  0.138653  0.179855  1
  Re  Re10  1  0.000000  0.861402  0.821106  1
  B  B11  1  0.500000  0.553946  0.433767  1
  B  B12  1  0.500000  0.446780  0.566551  1
  B  B13  1  0.500000  0.053324  0.066575  1
  B  B14  1  0.500000  0.946877  0.932901  1
  B  B15  1  0.500000  0.749306  0.420239  1
  B  B16  1  0.500000  0.250533  0.580917  1
  B  B17  1  0.500000  0.249330  0.081056  1
  B  B18  1  0.500000  0.751174  0.919043  1
  B  B19  1  0.500000  0.791238  0.265137  1
  B  B20  1  0.500000  0.208367  0.734246  1
  B  B21  1  0.500000  0.292088  0.235002  1
  B  B22  1  0.500000  0.707794  0.765881  1
  B  B23  1  0.500000  0.631614  0.184205  1
  B  B24  1  0.500000  0.369460  0.814299  1
  B  B25  1  0.500000  0.131186  0.314881  1
  B  B26  1  0.500000  0.868314  0.685504  1
  B  B27  1  0.500000  0.982880  0.212018  1
  B  B28  1  0.500000  0.017352  0.787185  1
  B  B29  1  0.500000  0.482746  0.287753  1
  B  B30  1  0.500000  0.518274  0.712465  1
  B  B31  1  0.500000  0.603289  0.029270  1
  B  B32  1  0.500000  0.397559  0.971935  1
  B  B33  1  0.500000  0.102400  0.471073  1
  B  B34  1  0.500000  0.895117  0.528369  1
  Ir  Ir35  1  0.000000  0.637523  0.321180  1
