# generated using pymatgen
data_Ca10Yb2Cu12Si11Ge
_symmetry_space_group_name_H-M   'P 1'
_cell_length_a   4.29537500
_cell_length_b   7.32450904
_cell_length_c   21.03572761
_cell_angle_alpha   89.99235819
_cell_angle_beta   90.00000000
_cell_angle_gamma   90.00000000
_symmetry_Int_Tables_number   1
_chemical_formula_structural   Ca10Yb2Cu12Si11Ge
_chemical_formula_sum   'Ca10 Yb2 Cu12 Si11 Ge1'
_cell_volume   661.81581233
_cell_formula_units_Z   1
loop_
 _symmetry_equiv_pos_site_id
 _symmetry_equiv_pos_as_xyz
  1  'x, y, z'
loop_
 _atom_site_type_symbol
 _atom_site_label
 _atom_site_symmetry_multiplicity
 _atom_site_fract_x
 _atom_site_fract_y
 _atom_site_fract_z
 _atom_site_occupancy
  Ca  Ca0  1  0.750000  0.208777  0.497936  1
  Ca  Ca1  1  0.250000  0.791068  0.501671  1
  Ca  Ca2  1  0.250000  0.797572  0.165911  1
  Ca  Ca3  1  0.750000  0.202487  0.833879  1
  Ca  Ca4  1  0.750000  0.298245  0.333440  1
  Ca  Ca5  1  0.250000  0.702468  0.665927  1
  Ca  Ca6  1  0.250000  0.700811  0.332840  1
  Ca  Ca7  1  0.750000  0.299526  0.666646  1
  Ca  Ca8  1  0.750000  0.201287  0.166183  1
  Ca  Ca9  1  0.250000  0.799016  0.833240  1
  Yb  Yb10  1  0.250000  0.709756  0.003022  1
  Yb  Yb11  1  0.750000  0.289896  0.997902  1
  Cu  Cu12  1  0.250000  0.414520  0.095116  1
  Cu  Cu13  1  0.750000  0.592063  0.905711  1
  Cu  Cu14  1  0.750000  0.913848  0.401834  1
  Cu  Cu15  1  0.250000  0.085833  0.597819  1
  Cu  Cu16  1  0.250000  0.413314  0.234439  1
  Cu  Cu17  1  0.750000  0.586664  0.765256  1
  Cu  Cu18  1  0.750000  0.912878  0.265529  1
  Cu  Cu19  1  0.250000  0.087429  0.734255  1
  Cu  Cu20  1  0.250000  0.419606  0.437946  1
  Cu  Cu21  1  0.750000  0.580093  0.561522  1
  Cu  Cu22  1  0.750000  0.918683  0.060290  1
  Cu  Cu23  1  0.250000  0.074074  0.942186  1
  Si  Si24  1  0.250000  0.090445  0.066328  1
  Si  Si25  1  0.750000  0.909931  0.934312  1
  Si  Si26  1  0.750000  0.590953  0.432962  1
  Si  Si27  1  0.250000  0.409289  0.566465  1
  Si  Si28  1  0.250000  0.080333  0.273265  1
  Si  Si29  1  0.750000  0.919694  0.726435  1
  Si  Si30  1  0.750000  0.580599  0.226160  1
  Si  Si31  1  0.250000  0.419186  0.771760  1
  Si  Si32  1  0.250000  0.083696  0.394452  1
  Si  Si33  1  0.750000  0.916681  0.605291  1
  Si  Si34  1  0.750000  0.583097  0.104870  1
  Ge  Ge35  1  0.250000  0.416184  0.897199  1
