# generated using pymatgen
data_Dy5Hf3Co16(SiP3)3
_symmetry_space_group_name_H-M   'P 1'
_cell_length_a   12.33861100
_cell_length_b   12.33861012
_cell_length_c   3.72124000
_cell_angle_alpha   90.00000000
_cell_angle_beta   90.00000000
_cell_angle_gamma   119.99998896
_symmetry_Int_Tables_number   1
_chemical_formula_structural   Dy5Hf3Co16(SiP3)3
_chemical_formula_sum   'Dy5 Hf3 Co16 Si3 P9'
_cell_volume   490.62635607
_cell_formula_units_Z   1
loop_
 _symmetry_equiv_pos_site_id
 _symmetry_equiv_pos_as_xyz
  1  'x, y, z'
loop_
 _atom_site_type_symbol
 _atom_site_label
 _atom_site_symmetry_multiplicity
 _atom_site_fract_x
 _atom_site_fract_y
 _atom_site_fract_z
 _atom_site_occupancy
  Dy  Dy0  1  0.666667  0.333333  0.000000  1
  Dy  Dy1  1  0.333333  0.666667  0.000000  1
  Dy  Dy2  1  0.180419  0.180419  0.500000  1
  Dy  Dy3  1  0.819581  0.000000  0.500000  1
  Dy  Dy4  1  0.000000  0.819581  0.500000  1
  Hf  Hf5  1  0.561132  0.561132  0.000000  1
  Hf  Hf6  1  0.438868  0.000000  0.000000  1
  Hf  Hf7  1  0.000000  0.438868  0.000000  1
  Co  Co8  1  0.824093  0.197705  0.000000  1
  Co  Co9  1  0.802295  0.626388  0.000000  1
  Co  Co10  1  0.373612  0.175907  0.000000  1
  Co  Co11  1  0.197705  0.824093  0.000000  1
  Co  Co12  1  0.626388  0.802295  0.000000  1
  Co  Co13  1  0.175907  0.373612  0.000000  1
  Co  Co14  1  0.642941  0.124795  0.500000  1
  Co  Co15  1  0.875205  0.518146  0.500000  1
  Co  Co16  1  0.481854  0.357059  0.500000  1
  Co  Co17  1  0.124795  0.642941  0.500000  1
  Co  Co18  1  0.518146  0.875205  0.500000  1
  Co  Co19  1  0.357059  0.481854  0.500000  1
  Co  Co20  1  0.721471  0.721471  0.500000  1
  Co  Co21  1  0.278529  0.000000  0.500000  1
  Co  Co22  1  0.000000  0.278529  0.500000  1
  Co  Co23  1  0.000000  0.000000  0.000000  1
  Si  Si24  1  0.352596  0.352596  0.000000  1
  Si  Si25  1  0.647404  0.000000  0.000000  1
  Si  Si26  1  0.000000  0.647404  0.000000  1
  P  P27  1  0.827765  0.305466  0.500000  1
  P  P28  1  0.694534  0.522300  0.500000  1
  P  P29  1  0.477700  0.172235  0.500000  1
  P  P30  1  0.305466  0.827765  0.500000  1
  P  P31  1  0.522300  0.694534  0.500000  1
  P  P32  1  0.172235  0.477700  0.500000  1
  P  P33  1  0.820564  0.820564  0.000000  1
  P  P34  1  0.179436  0.000000  0.000000  1
  P  P35  1  0.000000  0.179436  0.000000  1
