# generated using pymatgen
data_TmLu3InPt11
_symmetry_space_group_name_H-M   'P 1'
_cell_length_a   4.14978600
_cell_length_b   5.78908558
_cell_length_c   11.57409709
_cell_angle_alpha   88.01695416
_cell_angle_beta   90.00000000
_cell_angle_gamma   90.00000000
_symmetry_Int_Tables_number   1
_chemical_formula_structural   TmLu3InPt11
_chemical_formula_sum   'Tm1 Lu3 In1 Pt11'
_cell_volume   277.88341029
_cell_formula_units_Z   1
loop_
 _symmetry_equiv_pos_site_id
 _symmetry_equiv_pos_as_xyz
  1  'x, y, z'
loop_
 _atom_site_type_symbol
 _atom_site_label
 _atom_site_symmetry_multiplicity
 _atom_site_fract_x
 _atom_site_fract_y
 _atom_site_fract_z
 _atom_site_occupancy
  Tm  Tm0  1  0.500000  0.759070  0.375969  1
  Lu  Lu1  1  0.500000  0.714441  0.862221  1
  Lu  Lu2  1  0.500000  0.285545  0.137741  1
  Lu  Lu3  1  0.500000  0.240966  0.623986  1
  In  In4  1  0.000000  0.999995  0.999945  1
  Pt  Pt5  1  0.000000  0.020307  0.249338  1
  Pt  Pt6  1  0.000000  0.980345  0.750354  1
  Pt  Pt7  1  0.000000  0.499975  0.999951  1
  Pt  Pt8  1  0.000000  0.499406  0.500353  1
  Pt  Pt9  1  0.000000  0.520994  0.249685  1
  Pt  Pt10  1  0.000000  0.478392  0.749996  1
  Pt  Pt11  1  0.500000  0.258434  0.377497  1
  Pt  Pt12  1  0.500000  0.226152  0.879473  1
  Pt  Pt13  1  0.500000  0.773861  0.120183  1
  Pt  Pt14  1  0.500000  0.741554  0.622953  1
  Pt  Pt15  1  0.000000  0.000563  0.500354  1
