# generated using pymatgen
data_Yb3Dy13(ErIr3)4
_symmetry_space_group_name_H-M   'P 1'
_cell_length_a   10.84761746
_cell_length_b   10.89041760
_cell_length_c   6.35533900
_cell_angle_alpha   89.94929859
_cell_angle_beta   90.12166812
_cell_angle_gamma   90.12368590
_symmetry_Int_Tables_number   1
_chemical_formula_structural   Yb3Dy13(ErIr3)4
_chemical_formula_sum   'Yb3 Dy13 Er4 Ir12'
_cell_volume   750.78477372
_cell_formula_units_Z   1
loop_
 _symmetry_equiv_pos_site_id
 _symmetry_equiv_pos_as_xyz
  1  'x, y, z'
loop_
 _atom_site_type_symbol
 _atom_site_label
 _atom_site_symmetry_multiplicity
 _atom_site_fract_x
 _atom_site_fract_y
 _atom_site_fract_z
 _atom_site_occupancy
  Yb  Yb0  1  0.289855  0.086625  0.374629  1
  Yb  Yb1  1  0.289035  0.912568  0.875283  1
  Yb  Yb2  1  0.710986  0.087210  0.875149  1
  Dy  Dy3  1  0.708676  0.913932  0.378424  1
  Dy  Dy4  1  0.587195  0.794163  0.877493  1
  Dy  Dy5  1  0.586157  0.206954  0.377970  1
  Dy  Dy6  1  0.411231  0.794172  0.378040  1
  Dy  Dy7  1  0.413931  0.206166  0.878100  1
  Dy  Dy8  1  0.210386  0.412796  0.624042  1
  Dy  Dy9  1  0.210141  0.586411  0.123504  1
  Dy  Dy10  1  0.790625  0.412744  0.122741  1
  Dy  Dy11  1  0.789626  0.587086  0.621711  1
  Dy  Dy12  1  0.913119  0.709815  0.123637  1
  Dy  Dy13  1  0.912474  0.289746  0.623521  1
  Dy  Dy14  1  0.086861  0.709748  0.622469  1
  Dy  Dy15  1  0.087961  0.290020  0.123470  1
  Er  Er16  1  0.001897  0.000088  0.499082  1
  Er  Er17  1  0.999291  0.000364  0.999215  1
  Er  Er18  1  0.500223  0.500482  0.997869  1
  Er  Er19  1  0.499487  0.500455  0.497863  1
  Ir  Ir20  1  0.851251  0.153208  0.256159  1
  Ir  Ir21  1  0.852337  0.843331  0.746370  1
  Ir  Ir22  1  0.147076  0.157836  0.753616  1
  Ir  Ir23  1  0.146436  0.842366  0.251659  1
  Ir  Ir24  1  0.650053  0.351527  0.748014  1
  Ir  Ir25  1  0.651047  0.653466  0.249454  1
  Ir  Ir26  1  0.349312  0.351146  0.246265  1
  Ir  Ir27  1  0.348789  0.648655  0.747278  1
  Ir  Ir28  1  0.501961  0.998988  0.123883  1
  Ir  Ir29  1  0.502443  0.998535  0.622058  1
  Ir  Ir30  1  0.000138  0.499848  0.880334  1
  Ir  Ir31  1  0.999999  0.499553  0.380701  1
