# generated using pymatgen
data_CrGa3Fe8(Mo3N)4
_symmetry_space_group_name_H-M   'P 1'
_cell_length_a   7.92636685
_cell_length_b   7.93225521
_cell_length_c   7.93225500
_cell_angle_alpha   59.99999671
_cell_angle_beta   59.97541928
_cell_angle_gamma   59.97542792
_symmetry_Int_Tables_number   1
_chemical_formula_structural   CrGa3Fe8(Mo3N)4
_chemical_formula_sum   'Cr1 Ga3 Fe8 Mo12 N4'
_cell_volume   352.52593832
_cell_formula_units_Z   1
loop_
 _symmetry_equiv_pos_site_id
 _symmetry_equiv_pos_as_xyz
  1  'x, y, z'
loop_
 _atom_site_type_symbol
 _atom_site_label
 _atom_site_symmetry_multiplicity
 _atom_site_fract_x
 _atom_site_fract_y
 _atom_site_fract_z
 _atom_site_occupancy
  Cr  Cr0  1  0.125000  0.625000  0.625000  1
  Ga  Ga1  1  0.625000  0.125000  0.625000  1
  Ga  Ga2  1  0.625000  0.625000  0.125000  1
  Ga  Ga3  1  0.625000  0.625000  0.625000  1
  Fe  Fe4  1  0.743927  0.418691  0.418691  1
  Fe  Fe5  1  0.411577  0.746143  0.421140  1
  Fe  Fe6  1  0.411577  0.421140  0.746143  1
  Fe  Fe7  1  0.411577  0.421140  0.421140  1
  Fe  Fe8  1  0.506073  0.831309  0.831309  1
  Fe  Fe9  1  0.838423  0.503857  0.828860  1
  Fe  Fe10  1  0.838423  0.828860  0.503857  1
  Fe  Fe11  1  0.838423  0.828860  0.828860  1
  Mo  Mo12  1  0.807870  0.806730  0.192700  1
  Mo  Mo13  1  0.193322  0.195744  0.805468  1
  Mo  Mo14  1  0.807870  0.192700  0.806730  1
  Mo  Mo15  1  0.193322  0.805468  0.195744  1
  Mo  Mo16  1  0.193322  0.805468  0.805468  1
  Mo  Mo17  1  0.807870  0.192700  0.192700  1
  Mo  Mo18  1  0.442130  0.443270  0.057300  1
  Mo  Mo19  1  0.056678  0.054256  0.444532  1
  Mo  Mo20  1  0.442130  0.057300  0.443270  1
  Mo  Mo21  1  0.056678  0.444532  0.054256  1
  Mo  Mo22  1  0.056678  0.444532  0.444532  1
  Mo  Mo23  1  0.442130  0.057300  0.057300  1
  N  N24  1  0.625000  0.125000  0.125000  1
  N  N25  1  0.125000  0.625000  0.125000  1
  N  N26  1  0.125000  0.125000  0.625000  1
  N  N27  1  0.125000  0.125000  0.125000  1
