# generated using pymatgen
data_K3Li(SeF6)2
_symmetry_space_group_name_H-M   'P 1'
_cell_length_a   5.64394300
_cell_length_b   5.64394300
_cell_length_c   19.95573700
_cell_angle_alpha   90.00000000
_cell_angle_beta   90.00000000
_cell_angle_gamma   90.00000000
_symmetry_Int_Tables_number   1
_chemical_formula_structural   K3Li(SeF6)2
_chemical_formula_sum   'K6 Li2 Se4 F24'
_cell_volume   635.67189404
_cell_formula_units_Z   2
loop_
 _symmetry_equiv_pos_site_id
 _symmetry_equiv_pos_as_xyz
  1  'x, y, z'
loop_
 _atom_site_type_symbol
 _atom_site_label
 _atom_site_symmetry_multiplicity
 _atom_site_fract_x
 _atom_site_fract_y
 _atom_site_fract_z
 _atom_site_occupancy
  K  K0  1  0.000000  0.500000  0.311671  1
  K  K1  1  0.500000  0.000000  0.688329  1
  K  K2  1  0.500000  0.000000  0.188329  1
  K  K3  1  0.000000  0.500000  0.811671  1
  K  K4  1  0.000000  0.000000  0.500000  1
  K  K5  1  0.500000  0.500000  0.000000  1
  Li  Li6  1  0.000000  0.000000  0.000000  1
  Li  Li7  1  0.500000  0.500000  0.500000  1
  Se  Se8  1  0.000000  0.500000  0.118942  1
  Se  Se9  1  0.500000  0.000000  0.881058  1
  Se  Se10  1  0.500000  0.000000  0.381058  1
  Se  Se11  1  0.000000  0.500000  0.618942  1
  F  F12  1  0.201341  0.171296  0.382105  1
  F  F13  1  0.798659  0.828704  0.382105  1
  F  F14  1  0.171296  0.798659  0.617895  1
  F  F15  1  0.298659  0.671296  0.117895  1
  F  F16  1  0.828704  0.201341  0.617895  1
  F  F17  1  0.701341  0.328704  0.117895  1
  F  F18  1  0.328704  0.298659  0.882105  1
  F  F19  1  0.671296  0.701341  0.882105  1
  F  F20  1  0.115579  0.297937  0.188977  1
  F  F21  1  0.884421  0.702063  0.188977  1
  F  F22  1  0.297937  0.884421  0.811023  1
  F  F23  1  0.384421  0.797937  0.311023  1
  F  F24  1  0.702063  0.115579  0.811023  1
  F  F25  1  0.615579  0.202063  0.311023  1
  F  F26  1  0.202063  0.384421  0.688977  1
  F  F27  1  0.797937  0.615579  0.688977  1
  F  F28  1  0.126416  0.264401  0.049352  1
  F  F29  1  0.873584  0.735599  0.049352  1
  F  F30  1  0.264401  0.873584  0.950648  1
  F  F31  1  0.373584  0.764401  0.450648  1
  F  F32  1  0.735599  0.126416  0.950648  1
  F  F33  1  0.626416  0.235599  0.450648  1
  F  F34  1  0.235599  0.373584  0.549352  1
  F  F35  1  0.764401  0.626416  0.549352  1
