# generated using pymatgen
data_Ca2DyUO6
_symmetry_space_group_name_H-M   'P 1'
_cell_length_a   6.79824797
_cell_length_b   6.79045872
_cell_length_c   6.77253740
_cell_angle_alpha   91.52869648
_cell_angle_beta   91.28935350
_cell_angle_gamma   91.24228233
_symmetry_Int_Tables_number   1
_chemical_formula_structural   Ca2DyUO6
_chemical_formula_sum   'Ca4 Dy2 U2 O12'
_cell_volume   312.37408751
_cell_formula_units_Z   2
loop_
 _symmetry_equiv_pos_site_id
 _symmetry_equiv_pos_as_xyz
  1  'x, y, z'
loop_
 _atom_site_type_symbol
 _atom_site_label
 _atom_site_symmetry_multiplicity
 _atom_site_fract_x
 _atom_site_fract_y
 _atom_site_fract_z
 _atom_site_occupancy
  Ca  Ca0  1  0.553356  0.249984  0.059439  1
  Ca  Ca1  1  0.251771  0.058804  0.556647  1
  Ca  Ca2  1  0.062235  0.555773  0.249874  1
  Ca  Ca3  1  0.446327  0.749943  0.940960  1
  Dy  Dy4  1  0.937360  0.442393  0.748528  1
  Dy  Dy5  1  0.748888  0.938183  0.441647  1
  U  U6  1  0.999272  0.998212  0.999133  1
  U  U7  1  0.497517  0.498508  0.499796  1
  O  O8  1  0.292958  0.062210  0.922894  1
  O  O9  1  0.057265  0.921863  0.303168  1
  O  O10  1  0.924679  0.302130  0.054663  1
  O  O11  1  0.703454  0.934527  0.092981  1
  O  O12  1  0.922931  0.087286  0.691824  1
  O  O13  1  0.072041  0.693556  0.924633  1
  O  O14  1  0.193262  0.409136  0.546235  1
  O  O15  1  0.411560  0.540292  0.203282  1
  O  O16  1  0.472783  0.805113  0.587303  1
  O  O17  1  0.600842  0.458497  0.796738  1
  O  O18  1  0.805546  0.598186  0.469899  1
  O  O19  1  0.545952  0.195406  0.410353  1
