# generated using pymatgen
data_Cs6ErInBi4
_symmetry_space_group_name_H-M   'P 1'
_cell_length_a   10.49897852
_cell_length_b   10.49897912
_cell_length_c   10.49898100
_cell_angle_alpha   127.72890083
_cell_angle_beta   69.89437321
_cell_angle_gamma   137.03967669
_symmetry_Int_Tables_number   1
_chemical_formula_structural   Cs6ErInBi4
_chemical_formula_sum   'Cs6 Er1 In1 Bi4'
_cell_volume   612.04245160
_cell_formula_units_Z   1
loop_
 _symmetry_equiv_pos_site_id
 _symmetry_equiv_pos_as_xyz
  1  'x, y, z'
loop_
 _atom_site_type_symbol
 _atom_site_label
 _atom_site_symmetry_multiplicity
 _atom_site_fract_x
 _atom_site_fract_y
 _atom_site_fract_z
 _atom_site_occupancy
  Cs  Cs0  1  0.250000  0.250000  0.000000  1
  Cs  Cs1  1  0.750000  0.750000  0.000000  1
  Cs  Cs2  1  0.829496  0.310758  0.120728  1
  Cs  Cs3  1  0.670503  0.791233  0.481262  1
  Cs  Cs4  1  0.309970  0.189242  0.518738  1
  Cs  Cs5  1  0.190029  0.708768  0.879272  1
  Er  Er6  1  0.750000  0.250000  0.500000  1
  In  In7  1  0.250000  0.750000  0.500000  1
  Bi  Bi8  1  0.399200  0.809817  0.214694  1
  Bi  Bi9  1  0.100800  0.315492  0.410617  1
  Bi  Bi10  1  0.904877  0.690183  0.589384  1
  Bi  Bi11  1  0.595123  0.184508  0.785306  1
