# generated using pymatgen
data_Nd4DyIr2
_symmetry_space_group_name_H-M   'P 1'
_cell_length_a   6.65163904
_cell_length_b   7.29447312
_cell_length_c   8.92368854
_cell_angle_alpha   96.34513480
_cell_angle_beta   111.88196039
_cell_angle_gamma   89.99999979
_symmetry_Int_Tables_number   1
_chemical_formula_structural   Nd4DyIr2
_chemical_formula_sum   'Nd8 Dy2 Ir4'
_cell_volume   398.92490767
_cell_formula_units_Z   2
loop_
 _symmetry_equiv_pos_site_id
 _symmetry_equiv_pos_as_xyz
  1  'x, y, z'
loop_
 _atom_site_type_symbol
 _atom_site_label
 _atom_site_symmetry_multiplicity
 _atom_site_fract_x
 _atom_site_fract_y
 _atom_site_fract_z
 _atom_site_occupancy
  Nd  Nd0  1  0.794133  0.079427  0.818155  1
  Nd  Nd1  1  0.975979  0.420573  0.181845  1
  Nd  Nd2  1  0.205867  0.920573  0.181845  1
  Nd  Nd3  1  0.024021  0.579427  0.818155  1
  Nd  Nd4  1  0.213329  0.186849  0.566432  1
  Nd  Nd5  1  0.646897  0.313151  0.433568  1
  Nd  Nd6  1  0.786671  0.813151  0.433568  1
  Nd  Nd7  1  0.353103  0.686849  0.566432  1
  Dy  Dy8  1  0.435316  0.250000  0.000000  1
  Dy  Dy9  1  0.564684  0.750000  0.000000  1
  Ir  Ir10  1  0.598131  0.429243  0.786842  1
  Ir  Ir11  1  0.811289  0.070757  0.213158  1
  Ir  Ir12  1  0.401869  0.570757  0.213158  1
  Ir  Ir13  1  0.188711  0.929243  0.786842  1
