# generated using pymatgen
data_Sr4Yb5TmPt8
_symmetry_space_group_name_H-M   'P 1'
_cell_length_a   7.67564900
_cell_length_b   7.81887213
_cell_length_c   14.84907225
_cell_angle_alpha   90.02110063
_cell_angle_beta   90.00000000
_cell_angle_gamma   90.00000000
_symmetry_Int_Tables_number   1
_chemical_formula_structural   Sr4Yb5TmPt8
_chemical_formula_sum   'Sr8 Yb10 Tm2 Pt16'
_cell_volume   891.16579410
_cell_formula_units_Z   2
loop_
 _symmetry_equiv_pos_site_id
 _symmetry_equiv_pos_as_xyz
  1  'x, y, z'
loop_
 _atom_site_type_symbol
 _atom_site_label
 _atom_site_symmetry_multiplicity
 _atom_site_fract_x
 _atom_site_fract_y
 _atom_site_fract_z
 _atom_site_occupancy
  Sr  Sr0  1  0.501355  0.324925  0.904421  1
  Sr  Sr1  1  0.001355  0.175075  0.595579  1
  Sr  Sr2  1  0.498415  0.675474  0.403483  1
  Sr  Sr3  1  0.998415  0.824526  0.096517  1
  Sr  Sr4  1  0.498524  0.674436  0.097411  1
  Sr  Sr5  1  0.998524  0.825564  0.402589  1
  Sr  Sr6  1  0.502163  0.323456  0.595715  1
  Sr  Sr7  1  0.002163  0.176544  0.904285  1
  Yb  Yb8  1  0.660322  0.167016  0.376650  1
  Yb  Yb9  1  0.160322  0.332984  0.123350  1
  Yb  Yb10  1  0.661207  0.167217  0.123228  1
  Yb  Yb11  1  0.161207  0.332783  0.376772  1
  Yb  Yb12  1  0.338915  0.832620  0.622917  1
  Yb  Yb13  1  0.838915  0.667380  0.877083  1
  Yb  Yb14  1  0.178103  0.496550  0.749934  1
  Yb  Yb15  1  0.678103  0.003450  0.750066  1
  Yb  Yb16  1  0.822318  0.502395  0.249621  1
  Yb  Yb17  1  0.322318  0.997605  0.250379  1
  Tm  Tm18  1  0.339819  0.832824  0.876222  1
  Tm  Tm19  1  0.839819  0.667176  0.623778  1
  Pt  Pt20  1  0.332284  0.036192  0.039004  1
  Pt  Pt21  1  0.832284  0.463808  0.460996  1
  Pt  Pt22  1  0.668448  0.951361  0.544389  1
  Pt  Pt23  1  0.168448  0.548639  0.955611  1
  Pt  Pt24  1  0.658817  0.958168  0.955101  1
  Pt  Pt25  1  0.158817  0.541832  0.544899  1
  Pt  Pt26  1  0.338148  0.039828  0.457947  1
  Pt  Pt27  1  0.838148  0.460172  0.042053  1
  Pt  Pt28  1  0.545157  0.634408  0.751642  1
  Pt  Pt29  1  0.045157  0.865592  0.748358  1
  Pt  Pt30  1  0.454569  0.370096  0.249757  1
  Pt  Pt31  1  0.954569  0.129904  0.250243  1
  Pt  Pt32  1  0.304294  0.119366  0.753352  1
  Pt  Pt33  1  0.804294  0.380634  0.746648  1
  Pt  Pt34  1  0.697140  0.874994  0.250025  1
  Pt  Pt35  1  0.197140  0.625006  0.249975  1
