# generated using pymatgen
data_ZnI35
_symmetry_space_group_name_H-M   'P 1'
_cell_length_a   17.58017498
_cell_length_b   12.54030950
_cell_length_c   11.87107100
_cell_angle_alpha   88.81408644
_cell_angle_beta   66.02770740
_cell_angle_gamma   92.31545562
_symmetry_Int_Tables_number   1
_chemical_formula_structural   ZnI35
_chemical_formula_sum   'Zn1 I35'
_cell_volume   2387.43274716
_cell_formula_units_Z   1
loop_
 _symmetry_equiv_pos_site_id
 _symmetry_equiv_pos_as_xyz
  1  'x, y, z'
loop_
 _atom_site_type_symbol
 _atom_site_label
 _atom_site_symmetry_multiplicity
 _atom_site_fract_x
 _atom_site_fract_y
 _atom_site_fract_z
 _atom_site_occupancy
  Zn  Zn0  1  0.184350  0.334296  0.432517  1
  I  I1  1  0.498581  0.301280  0.546963  1
  I  I2  1  0.758388  0.588308  0.570919  1
  I  I3  1  0.488480  0.705112  0.770708  1
  I  I4  1  0.064639  0.877714  0.832514  1
  I  I5  1  0.893297  0.142006  0.005892  1
  I  I6  1  0.638716  0.331263  0.297236  1
  I  I7  1  0.618799  0.353112  0.848059  1
  I  I8  1  0.356450  0.787285  0.713606  1
  I  I9  1  0.355951  0.563018  0.195714  1
  I  I10  1  0.643685  0.136874  0.807865  1
  I  I11  1  0.891841  0.553412  0.340417  1
  I  I12  1  0.062236  0.924896  0.593884  1
  I  I13  1  0.889058  0.097423  0.257012  1
  I  I14  1  0.893160  0.194320  0.770172  1
  I  I15  1  0.649141  0.066411  0.271717  1
  I  I16  1  0.039260  0.821735  0.089228  1
  I  I17  1  0.364308  0.013638  0.754543  1
  I  I18  1  0.889143  0.320836  0.311290  1
  I  I19  1  0.874985  0.911647  0.695110  1
  I  I20  1  0.900397  0.654037  0.802492  1
  I  I21  1  0.331878  0.041833  0.225542  1
  I  I22  1  0.332503  0.315025  0.230830  1
  I  I23  1  0.623410  0.614576  0.825554  1
  I  I24  1  0.090876  0.454612  0.388221  1
  I  I25  1  0.697701  0.897985  0.800124  1
  I  I26  1  0.880737  0.433193  0.791361  1
  I  I27  1  0.492955  0.048546  0.250153  1
  I  I28  1  0.180120  0.219186  0.608052  1
  I  I29  1  0.675220  0.799449  0.267491  1
  I  I30  1  0.857940  0.812672  0.178078  1
  I  I31  1  0.369213  0.245819  0.787969  1
  I  I32  1  0.345132  0.493331  0.581684  1
  I  I33  1  0.650755  0.563091  0.263140  1
  I  I34  1  0.199818  0.592861  0.645591  1
  I  I35  1  0.316878  0.789197  0.248354  1
