# generated using pymatgen
data_Hf6ZnSn5Ir6
_symmetry_space_group_name_H-M   'P 1'
_cell_length_a   7.46046842
_cell_length_b   7.46046919
_cell_length_c   7.07980420
_cell_angle_alpha   90.12045635
_cell_angle_beta   89.87954310
_cell_angle_gamma   120.57694449
_symmetry_Int_Tables_number   1
_chemical_formula_structural   Hf6ZnSn5Ir6
_chemical_formula_sum   'Hf6 Zn1 Sn5 Ir6'
_cell_volume   339.25677145
_cell_formula_units_Z   1
loop_
 _symmetry_equiv_pos_site_id
 _symmetry_equiv_pos_as_xyz
  1  'x, y, z'
loop_
 _atom_site_type_symbol
 _atom_site_label
 _atom_site_symmetry_multiplicity
 _atom_site_fract_x
 _atom_site_fract_y
 _atom_site_fract_z
 _atom_site_occupancy
  Hf  Hf0  1  0.023763  0.400478  0.744063  1
  Hf  Hf1  1  0.592125  0.601648  0.742491  1
  Hf  Hf2  1  0.390225  0.006524  0.744064  1
  Hf  Hf3  1  0.006524  0.390225  0.255936  1
  Hf  Hf4  1  0.601648  0.592125  0.257509  1
  Hf  Hf5  1  0.400478  0.023763  0.255937  1
  Zn  Zn6  1  0.277597  0.277597  0.500000  1
  Sn  Sn7  1  0.001205  0.725829  0.499707  1
  Sn  Sn8  1  0.997954  0.729515  0.000038  1
  Sn  Sn9  1  0.725829  0.001205  0.500293  1
  Sn  Sn10  1  0.729515  0.997954  0.999962  1
  Sn  Sn11  1  0.266730  0.266730  0.000000  1
  Ir  Ir12  1  0.331307  0.661186  0.484681  1
  Ir  Ir13  1  0.661186  0.331307  0.515319  1
  Ir  Ir14  1  0.328859  0.660444  0.017524  1
  Ir  Ir15  1  0.002121  0.002490  0.739841  1
  Ir  Ir16  1  0.002490  0.002121  0.260159  1
  Ir  Ir17  1  0.660444  0.328859  0.982476  1
