# generated using pymatgen
data_Rb4Na2LaInAs4
_symmetry_space_group_name_H-M   'P 1'
_cell_length_a   7.18410679
_cell_length_b   7.06214677
_cell_length_c   9.56519924
_cell_angle_alpha   111.69287237
_cell_angle_beta   112.09350585
_cell_angle_gamma   90.01674961
_symmetry_Int_Tables_number   1
_chemical_formula_structural   Rb4Na2LaInAs4
_chemical_formula_sum   'Rb4 Na2 La1 In1 As4'
_cell_volume   412.30606392
_cell_formula_units_Z   1
loop_
 _symmetry_equiv_pos_site_id
 _symmetry_equiv_pos_as_xyz
  1  'x, y, z'
loop_
 _atom_site_type_symbol
 _atom_site_label
 _atom_site_symmetry_multiplicity
 _atom_site_fract_x
 _atom_site_fract_y
 _atom_site_fract_z
 _atom_site_occupancy
  Rb  Rb0  1  0.409197  0.166642  0.357767  1
  Rb  Rb1  1  0.948613  0.691196  0.357900  1
  Rb  Rb2  1  0.051332  0.333288  0.642140  1
  Rb  Rb3  1  0.590722  0.808818  0.642145  1
  Na  Na4  1  0.000143  0.250161  0.000244  1
  Na  Na5  1  0.999968  0.750031  0.000030  1
  La  La6  1  0.500121  0.250234  0.000064  1
  In  In7  1  0.499964  0.749730  0.999858  1
  As  As8  1  0.823394  0.084531  0.197375  1
  As  As9  1  0.374146  0.613070  0.197245  1
  As  As10  1  0.625971  0.415472  0.802633  1
  As  As11  1  0.176429  0.886827  0.802601  1
