# generated using pymatgen
data_TbYTm8(CoSb2)2
_symmetry_space_group_name_H-M   'P 1'
_cell_length_a   7.77972900
_cell_length_b   8.72495400
_cell_length_c   12.08220400
_cell_angle_alpha   90.00000000
_cell_angle_beta   90.00000000
_cell_angle_gamma   90.00000000
_symmetry_Int_Tables_number   1
_chemical_formula_structural   TbYTm8(CoSb2)2
_chemical_formula_sum   'Tb2 Y2 Tm16 Co4 Sb8'
_cell_volume   820.11315672
_cell_formula_units_Z   2
loop_
 _symmetry_equiv_pos_site_id
 _symmetry_equiv_pos_as_xyz
  1  'x, y, z'
loop_
 _atom_site_type_symbol
 _atom_site_label
 _atom_site_symmetry_multiplicity
 _atom_site_fract_x
 _atom_site_fract_y
 _atom_site_fract_z
 _atom_site_occupancy
  Tb  Tb0  1  0.377876  0.250000  0.693400  1
  Tb  Tb1  1  0.877876  0.750000  0.806600  1
  Y  Y2  1  0.622600  0.750000  0.306175  1
  Y  Y3  1  0.122600  0.250000  0.193825  1
  Tm  Tm4  1  0.154607  0.750000  0.203307  1
  Tm  Tm5  1  0.654607  0.250000  0.296693  1
  Tm  Tm6  1  0.845033  0.250000  0.796441  1
  Tm  Tm7  1  0.345033  0.750000  0.703559  1
  Tm  Tm8  1  0.449520  0.750000  0.997612  1
  Tm  Tm9  1  0.949520  0.250000  0.502388  1
  Tm  Tm10  1  0.550286  0.250000  0.002126  1
  Tm  Tm11  1  0.050286  0.750000  0.497874  1
  Tm  Tm12  1  0.823120  0.963961  0.065131  1
  Tm  Tm13  1  0.323120  0.036039  0.434869  1
  Tm  Tm14  1  0.177032  0.462841  0.934632  1
  Tm  Tm15  1  0.677032  0.537159  0.565368  1
  Tm  Tm16  1  0.177032  0.037159  0.934632  1
  Tm  Tm17  1  0.677032  0.962841  0.565368  1
  Tm  Tm18  1  0.823120  0.536039  0.065131  1
  Tm  Tm19  1  0.323120  0.463961  0.434869  1
  Co  Co20  1  0.431686  0.750000  0.491923  1
  Co  Co21  1  0.931686  0.250000  0.008077  1
  Co  Co22  1  0.567592  0.250000  0.508731  1
  Co  Co23  1  0.067592  0.750000  0.991269  1
  Sb  Sb24  1  0.930166  0.991528  0.328176  1
  Sb  Sb25  1  0.430166  0.008472  0.171824  1
  Sb  Sb26  1  0.070083  0.491424  0.671586  1
  Sb  Sb27  1  0.570083  0.508576  0.828414  1
  Sb  Sb28  1  0.070083  0.008576  0.671586  1
  Sb  Sb29  1  0.570083  0.991424  0.828414  1
  Sb  Sb30  1  0.930166  0.508472  0.328176  1
  Sb  Sb31  1  0.430166  0.491528  0.171824  1
