# generated using pymatgen
data_PmCu2Pt3
_symmetry_space_group_name_H-M   'P 1'
_cell_length_a   5.49660332
_cell_length_b   5.20119944
_cell_length_c   4.30739200
_cell_angle_alpha   90.00000000
_cell_angle_beta   90.00000000
_cell_angle_gamma   58.06043697
_symmetry_Int_Tables_number   1
_chemical_formula_structural   PmCu2Pt3
_chemical_formula_sum   'Pm1 Cu2 Pt3'
_cell_volume   104.50058039
_cell_formula_units_Z   1
loop_
 _symmetry_equiv_pos_site_id
 _symmetry_equiv_pos_as_xyz
  1  'x, y, z'
loop_
 _atom_site_type_symbol
 _atom_site_label
 _atom_site_symmetry_multiplicity
 _atom_site_fract_x
 _atom_site_fract_y
 _atom_site_fract_z
 _atom_site_occupancy
  Pm  Pm0  1  0.001828  0.996065  0.000000  1
  Cu  Cu1  1  0.339998  0.319869  0.000000  1
  Cu  Cu2  1  0.498388  0.004072  0.499999  1
  Pt  Pt3  1  0.657442  0.684871  0.000000  1
  Pt  Pt4  1  0.005894  0.497365  0.499999  1
  Pt  Pt5  1  0.496444  0.497762  0.499999  1
