# generated using pymatgen
data_Ac2ZrTe5
_symmetry_space_group_name_H-M   'P 1'
_cell_length_a   8.47782600
_cell_length_b   9.46034800
_cell_length_c   13.16728600
_cell_angle_alpha   90.00000000
_cell_angle_beta   90.00000000
_cell_angle_gamma   90.00000000
_symmetry_Int_Tables_number   1
_chemical_formula_structural   Ac2ZrTe5
_chemical_formula_sum   'Ac8 Zr4 Te20'
_cell_volume   1056.05826504
_cell_formula_units_Z   4
loop_
 _symmetry_equiv_pos_site_id
 _symmetry_equiv_pos_as_xyz
  1  'x, y, z'
loop_
 _atom_site_type_symbol
 _atom_site_label
 _atom_site_symmetry_multiplicity
 _atom_site_fract_x
 _atom_site_fract_y
 _atom_site_fract_z
 _atom_site_occupancy
  Ac  Ac0  1  0.434687  0.499836  0.170665  1
  Ac  Ac1  1  0.065313  0.000164  0.670665  1
  Ac  Ac2  1  0.565313  0.999836  0.829335  1
  Ac  Ac3  1  0.934687  0.500164  0.329335  1
  Ac  Ac4  1  0.565313  0.500164  0.829335  1
  Ac  Ac5  1  0.934687  0.999836  0.329335  1
  Ac  Ac6  1  0.434687  0.000164  0.170665  1
  Ac  Ac7  1  0.065313  0.499836  0.670665  1
  Zr  Zr8  1  0.922528  0.750000  0.010852  1
  Zr  Zr9  1  0.577472  0.750000  0.510852  1
  Zr  Zr10  1  0.077472  0.250000  0.989148  1
  Zr  Zr11  1  0.422528  0.250000  0.489148  1
  Te  Te12  1  0.138402  0.750000  0.191232  1
  Te  Te13  1  0.361598  0.750000  0.691232  1
  Te  Te14  1  0.861598  0.250000  0.808768  1
  Te  Te15  1  0.638402  0.250000  0.308768  1
  Te  Te16  1  0.650632  0.750000  0.292751  1
  Te  Te17  1  0.849368  0.750000  0.792751  1
  Te  Te18  1  0.349368  0.250000  0.707249  1
  Te  Te19  1  0.150632  0.250000  0.207249  1
  Te  Te20  1  0.561387  0.750000  0.007185  1
  Te  Te21  1  0.938613  0.750000  0.507185  1
  Te  Te22  1  0.438613  0.250000  0.992815  1
  Te  Te23  1  0.061387  0.250000  0.492815  1
  Te  Te24  1  0.821688  0.463263  0.068419  1
  Te  Te25  1  0.678312  0.036737  0.568419  1
  Te  Te26  1  0.178312  0.963263  0.931581  1
  Te  Te27  1  0.321688  0.536737  0.431581  1
  Te  Te28  1  0.178312  0.536737  0.931581  1
  Te  Te29  1  0.321688  0.963263  0.431581  1
  Te  Te30  1  0.821688  0.036737  0.068419  1
  Te  Te31  1  0.678312  0.463263  0.568419  1
