# generated using pymatgen
data_Dy2Ga9Ni2Ru
_symmetry_space_group_name_H-M   'P 1'
_cell_length_a   7.47076211
_cell_length_b   7.47076164
_cell_length_c   9.39238600
_cell_angle_alpha   90.00000000
_cell_angle_beta   90.00000000
_cell_angle_gamma   120.00519305
_symmetry_Int_Tables_number   1
_chemical_formula_structural   Dy2Ga9Ni2Ru
_chemical_formula_sum   'Dy4 Ga18 Ni4 Ru2'
_cell_volume   453.95585672
_cell_formula_units_Z   2
loop_
 _symmetry_equiv_pos_site_id
 _symmetry_equiv_pos_as_xyz
  1  'x, y, z'
loop_
 _atom_site_type_symbol
 _atom_site_label
 _atom_site_symmetry_multiplicity
 _atom_site_fract_x
 _atom_site_fract_y
 _atom_site_fract_z
 _atom_site_occupancy
  Dy  Dy0  1  0.333881  0.004099  0.749421  1
  Dy  Dy1  1  0.666119  0.995901  0.249421  1
  Dy  Dy2  1  0.004099  0.333881  0.750579  1
  Dy  Dy3  1  0.995901  0.666119  0.250579  1
  Ga  Ga4  1  0.880004  0.880004  0.750000  1
  Ga  Ga5  1  0.119996  0.119996  0.250000  1
  Ga  Ga6  1  0.668931  0.669717  0.438411  1
  Ga  Ga7  1  0.331069  0.330283  0.938411  1
  Ga  Ga8  1  0.669717  0.668931  0.061589  1
  Ga  Ga9  1  0.330283  0.331069  0.561589  1
  Ga  Ga10  1  0.453429  0.663278  0.752039  1
  Ga  Ga11  1  0.546571  0.336722  0.252039  1
  Ga  Ga12  1  0.663278  0.453429  0.747961  1
  Ga  Ga13  1  0.336722  0.546571  0.247961  1
  Ga  Ga14  1  0.003925  0.333473  0.075461  1
  Ga  Ga15  1  0.996075  0.666527  0.575461  1
  Ga  Ga16  1  0.333473  0.003925  0.424539  1
  Ga  Ga17  1  0.666527  0.996075  0.924539  1
  Ga  Ga18  1  0.005162  0.669009  0.924820  1
  Ga  Ga19  1  0.994838  0.330991  0.424820  1
  Ga  Ga20  1  0.669009  0.005162  0.575180  1
  Ga  Ga21  1  0.330991  0.994838  0.075180  1
  Ni  Ni22  1  0.000156  0.999844  0.500000  1
  Ni  Ni23  1  0.999844  0.000156  0.000000  1
  Ni  Ni24  1  0.669472  0.330528  0.500000  1
  Ni  Ni25  1  0.330528  0.669472  0.000000  1
  Ru  Ru26  1  0.327176  0.672824  0.500000  1
  Ru  Ru27  1  0.672824  0.327176  0.000000  1
