# generated using pymatgen
data_YNb3MoN6
_symmetry_space_group_name_H-M   'P 1'
_cell_length_a   5.24832205
_cell_length_b   5.24724541
_cell_length_c   10.74161200
_cell_angle_alpha   90.01558171
_cell_angle_beta   89.99220528
_cell_angle_gamma   119.99322278
_symmetry_Int_Tables_number   1
_chemical_formula_structural   YNb3MoN6
_chemical_formula_sum   'Y2 Nb6 Mo2 N12'
_cell_volume   256.20145038
_cell_formula_units_Z   2
loop_
 _symmetry_equiv_pos_site_id
 _symmetry_equiv_pos_as_xyz
  1  'x, y, z'
loop_
 _atom_site_type_symbol
 _atom_site_label
 _atom_site_symmetry_multiplicity
 _atom_site_fract_x
 _atom_site_fract_y
 _atom_site_fract_z
 _atom_site_occupancy
  Y  Y0  1  0.667197  0.333178  0.000728  1
  Y  Y1  1  0.332803  0.665981  0.000728  1
  Nb  Nb2  1  0.000000  0.326064  0.738918  1
  Nb  Nb3  1  0.325798  0.325798  0.262135  1
  Nb  Nb4  1  0.674202  0.000000  0.262135  1
  Nb  Nb5  1  0.000000  0.674339  0.261996  1
  Nb  Nb6  1  0.331953  0.667259  0.493638  1
  Nb  Nb7  1  0.668047  0.335305  0.493638  1
  Mo  Mo8  1  0.673332  0.672262  0.738708  1
  Mo  Mo9  1  0.326668  0.998931  0.738708  1
  N  N10  1  0.668152  0.668978  0.386442  1
  N  N11  1  0.331848  0.000826  0.386442  1
  N  N12  1  0.000000  0.330541  0.385727  1
  N  N13  1  0.346574  0.342762  0.618870  1
  N  N14  1  0.653426  0.996188  0.618870  1
  N  N15  1  0.000000  0.661780  0.618759  1
  N  N16  1  0.339770  0.335890  0.855230  1
  N  N17  1  0.660230  0.996120  0.855230  1
  N  N18  1  0.000000  0.667538  0.855661  1
  N  N19  1  0.660483  0.660548  0.142337  1
  N  N20  1  0.339517  0.000065  0.142337  1
  N  N21  1  0.000000  0.339645  0.142765  1
