# generated using pymatgen
data_Tb2Hf3Ni9As7
_symmetry_space_group_name_H-M   'P 1'
_cell_length_a   3.85902400
_cell_length_b   9.76127911
_cell_length_c   9.76127900
_cell_angle_alpha   119.99999625
_cell_angle_beta   90.00000000
_cell_angle_gamma   90.00000000
_symmetry_Int_Tables_number   1
_chemical_formula_structural   Tb2Hf3Ni9As7
_chemical_formula_sum   'Tb2 Hf3 Ni9 As7'
_cell_volume   318.43557816
_cell_formula_units_Z   1
loop_
 _symmetry_equiv_pos_site_id
 _symmetry_equiv_pos_as_xyz
  1  'x, y, z'
loop_
 _atom_site_type_symbol
 _atom_site_label
 _atom_site_symmetry_multiplicity
 _atom_site_fract_x
 _atom_site_fract_y
 _atom_site_fract_z
 _atom_site_occupancy
  Tb  Tb0  1  0.000000  0.666667  0.333333  1
  Tb  Tb1  1  0.500000  0.333333  0.666667  1
  Hf  Hf2  1  0.500000  0.770338  0.888755  1
  Hf  Hf3  1  0.500000  0.118416  0.229662  1
  Hf  Hf4  1  0.500000  0.111245  0.881584  1
  Ni  Ni5  1  0.000000  0.577111  0.935115  1
  Ni  Ni6  1  0.000000  0.358003  0.422889  1
  Ni  Ni7  1  0.000000  0.064885  0.641997  1
  Ni  Ni8  1  0.000000  0.873066  0.156709  1
  Ni  Ni9  1  0.000000  0.283643  0.126934  1
  Ni  Ni10  1  0.000000  0.843291  0.716357  1
  Ni  Ni11  1  0.500000  0.943741  0.384320  1
  Ni  Ni12  1  0.500000  0.440579  0.056259  1
  Ni  Ni13  1  0.500000  0.615680  0.559421  1
  As  As14  1  0.000000  0.000000  0.000000  1
  As  As15  1  0.500000  0.708977  0.124276  1
  As  As16  1  0.500000  0.415299  0.291023  1
  As  As17  1  0.500000  0.875724  0.584701  1
  As  As18  1  0.000000  0.575635  0.684007  1
  As  As19  1  0.000000  0.108372  0.424365  1
  As  As20  1  0.000000  0.315993  0.891628  1
