# generated using pymatgen
data_Na2RuCl6
_symmetry_space_group_name_H-M   'P 1'
_cell_length_a   6.84590500
_cell_length_b   6.76444592
_cell_length_c   11.65645267
_cell_angle_alpha   54.74608876
_cell_angle_beta   90.00000000
_cell_angle_gamma   90.00000000
_symmetry_Int_Tables_number   1
_chemical_formula_structural   Na2RuCl6
_chemical_formula_sum   'Na4 Ru2 Cl12'
_cell_volume   440.79841449
_cell_formula_units_Z   2
loop_
 _symmetry_equiv_pos_site_id
 _symmetry_equiv_pos_as_xyz
  1  'x, y, z'
loop_
 _atom_site_type_symbol
 _atom_site_label
 _atom_site_symmetry_multiplicity
 _atom_site_fract_x
 _atom_site_fract_y
 _atom_site_fract_z
 _atom_site_occupancy
  Na  Na0  1  0.572689  0.735769  0.255568  1
  Na  Na1  1  0.427311  0.264231  0.744432  1
  Na  Na2  1  0.927311  0.735769  0.755568  1
  Na  Na3  1  0.072689  0.264231  0.244432  1
  Ru  Ru4  1  0.500000  0.000000  0.500000  1
  Ru  Ru5  1  0.000000  0.000000  0.000000  1
  Cl  Cl6  1  0.290836  0.782419  0.050904  1
  Cl  Cl7  1  0.820184  0.659493  0.051186  1
  Cl  Cl8  1  0.209164  0.782419  0.550904  1
  Cl  Cl9  1  0.790836  0.217581  0.449096  1
  Cl  Cl10  1  0.679816  0.659493  0.551186  1
  Cl  Cl11  1  0.320184  0.340507  0.448814  1
  Cl  Cl12  1  0.973011  0.862665  0.236321  1
  Cl  Cl13  1  0.179816  0.340507  0.948814  1
  Cl  Cl14  1  0.026989  0.137335  0.763679  1
  Cl  Cl15  1  0.709164  0.217581  0.949096  1
  Cl  Cl16  1  0.473011  0.137335  0.263679  1
  Cl  Cl17  1  0.526989  0.862665  0.736321  1
