# generated using pymatgen
data_Dy15HoCd4Co3Ru
_symmetry_space_group_name_H-M   'P 1'
_cell_length_a   9.55114748
_cell_length_b   9.50555596
_cell_length_c   9.50555600
_cell_angle_alpha   59.99999984
_cell_angle_beta   60.15777771
_cell_angle_gamma   60.15778579
_symmetry_Int_Tables_number   1
_chemical_formula_structural   Dy15HoCd4Co3Ru
_chemical_formula_sum   'Dy15 Ho1 Cd4 Co3 Ru1'
_cell_volume   611.68415394
_cell_formula_units_Z   1
loop_
 _symmetry_equiv_pos_site_id
 _symmetry_equiv_pos_as_xyz
  1  'x, y, z'
loop_
 _atom_site_type_symbol
 _atom_site_label
 _atom_site_symmetry_multiplicity
 _atom_site_fract_x
 _atom_site_fract_y
 _atom_site_fract_z
 _atom_site_occupancy
  Dy  Dy0  1  0.936944  0.937157  0.562949  1
  Dy  Dy1  1  0.816172  0.187740  0.187740  1
  Dy  Dy2  1  0.936944  0.562949  0.562949  1
  Dy  Dy3  1  0.936944  0.562949  0.937157  1
  Dy  Dy4  1  0.816172  0.808348  0.187740  1
  Dy  Dy5  1  0.342197  0.349165  0.349165  1
  Dy  Dy6  1  0.563622  0.937939  0.937939  1
  Dy  Dy7  1  0.563622  0.937939  0.560501  1
  Dy  Dy8  1  0.187823  0.812373  0.812373  1
  Dy  Dy9  1  0.187823  0.187432  0.812373  1
  Dy  Dy10  1  0.342197  0.349165  0.959475  1
  Dy  Dy11  1  0.342197  0.959475  0.349165  1
  Dy  Dy12  1  0.816172  0.187740  0.808348  1
  Dy  Dy13  1  0.563622  0.560501  0.937939  1
  Dy  Dy14  1  0.187823  0.812373  0.187432  1
  Ho  Ho15  1  0.962925  0.345692  0.345692  1
  Cd  Cd16  1  0.580448  0.579946  0.259661  1
  Cd  Cd17  1  0.259995  0.580002  0.580002  1
  Cd  Cd18  1  0.580448  0.579946  0.579946  1
  Cd  Cd19  1  0.580448  0.259661  0.579946  1
  Co  Co20  1  0.139378  0.141806  0.141806  1
  Co  Co21  1  0.139378  0.577011  0.141806  1
  Co  Co22  1  0.139378  0.141806  0.577011  1
  Ru  Ru23  1  0.577330  0.140890  0.140890  1
