# generated using pymatgen
data_Pr3YIrRh3O14
_symmetry_space_group_name_H-M   'P 1'
_cell_length_a   7.40000544
_cell_length_b   7.36685036
_cell_length_c   7.40000574
_cell_angle_alpha   59.85984712
_cell_angle_beta   59.95094094
_cell_angle_gamma   59.85984913
_symmetry_Int_Tables_number   1
_chemical_formula_structural   Pr3YIrRh3O14
_chemical_formula_sum   'Pr3 Y1 Ir1 Rh3 O14'
_cell_volume   284.54246491
_cell_formula_units_Z   1
loop_
 _symmetry_equiv_pos_site_id
 _symmetry_equiv_pos_as_xyz
  1  'x, y, z'
loop_
 _atom_site_type_symbol
 _atom_site_label
 _atom_site_symmetry_multiplicity
 _atom_site_fract_x
 _atom_site_fract_y
 _atom_site_fract_z
 _atom_site_occupancy
  Pr  Pr0  1  0.625000  0.125000  0.125000  1
  Pr  Pr1  1  0.125000  0.125000  0.625000  1
  Pr  Pr2  1  0.125000  0.125000  0.125000  1
  Y  Y3  1  0.125000  0.625000  0.125000  1
  Ir  Ir4  1  0.625000  0.625000  0.625000  1
  Rh  Rh5  1  0.125000  0.625000  0.625000  1
  Rh  Rh6  1  0.625000  0.125000  0.625000  1
  Rh  Rh7  1  0.625000  0.625000  0.125000  1
  O  O8  1  0.711249  0.700349  0.297127  1
  O  O9  1  0.291554  0.292023  0.705722  1
  O  O10  1  0.705037  0.298101  0.705037  1
  O  O11  1  0.290694  0.700589  0.290694  1
  O  O12  1  0.297127  0.700349  0.711249  1
  O  O13  1  0.705722  0.292023  0.291554  1
  O  O14  1  0.538751  0.549651  0.952873  1
  O  O15  1  0.958446  0.957977  0.544278  1
  O  O16  1  0.544963  0.951899  0.544963  1
  O  O17  1  0.959306  0.549411  0.959306  1
  O  O18  1  0.952873  0.549651  0.538751  1
  O  O19  1  0.544278  0.957977  0.958446  1
  O  O20  1  0.246126  0.263474  0.246126  1
  O  O21  1  0.003874  0.986526  0.003874  1
