# generated using pymatgen
data_LaTh3(HgPt2)2
_symmetry_space_group_name_H-M   'P 1'
_cell_length_a   8.03247604
_cell_length_b   8.03247604
_cell_length_c   3.79374400
_cell_angle_alpha   90.00000000
_cell_angle_beta   90.00000000
_cell_angle_gamma   88.95180296
_symmetry_Int_Tables_number   1
_chemical_formula_structural   LaTh3(HgPt2)2
_chemical_formula_sum   'La1 Th3 Hg2 Pt4'
_cell_volume   244.73394952
_cell_formula_units_Z   1
loop_
 _symmetry_equiv_pos_site_id
 _symmetry_equiv_pos_as_xyz
  1  'x, y, z'
loop_
 _atom_site_type_symbol
 _atom_site_label
 _atom_site_symmetry_multiplicity
 _atom_site_fract_x
 _atom_site_fract_y
 _atom_site_fract_z
 _atom_site_occupancy
  La  La0  1  0.673511  0.173511  0.500000  1
  Th  Th1  1  0.172054  0.327567  0.500000  1
  Th  Th2  1  0.328532  0.828532  0.500000  1
  Th  Th3  1  0.827567  0.672054  0.500000  1
  Hg  Hg4  1  0.499437  0.497955  0.000000  1
  Hg  Hg5  1  0.997955  0.999437  0.000000  1
  Pt  Pt6  1  0.624730  0.864548  0.000000  1
  Pt  Pt7  1  0.131805  0.631805  0.000000  1
  Pt  Pt8  1  0.879860  0.379860  0.000000  1
  Pt  Pt9  1  0.364548  0.124730  0.000000  1
