# generated using pymatgen
data_Dy3HoCd2(CuNi)2
_symmetry_space_group_name_H-M   'P 1'
_cell_length_a   7.46591300
_cell_length_b   7.46591255
_cell_length_c   3.65663000
_cell_angle_alpha   90.00000000
_cell_angle_beta   90.00000000
_cell_angle_gamma   90.67157963
_symmetry_Int_Tables_number   1
_chemical_formula_structural   Dy3HoCd2(CuNi)2
_chemical_formula_sum   'Dy3 Ho1 Cd2 Cu2 Ni2'
_cell_volume   203.80601965
_cell_formula_units_Z   1
loop_
 _symmetry_equiv_pos_site_id
 _symmetry_equiv_pos_as_xyz
  1  'x, y, z'
loop_
 _atom_site_type_symbol
 _atom_site_label
 _atom_site_symmetry_multiplicity
 _atom_site_fract_x
 _atom_site_fract_y
 _atom_site_fract_z
 _atom_site_occupancy
  Dy  Dy0  1  0.684131  0.184160  0.500000  1
  Dy  Dy1  1  0.315840  0.815869  0.500000  1
  Dy  Dy2  1  0.833261  0.666739  0.500000  1
  Ho  Ho3  1  0.166704  0.333296  0.500000  1
  Cd  Cd4  1  0.000050  0.000062  0.000000  1
  Cd  Cd5  1  0.499938  0.499950  0.000000  1
  Cu  Cu6  1  0.618834  0.881166  0.000000  1
  Cu  Cu7  1  0.381075  0.118925  0.000000  1
  Ni  Ni8  1  0.118995  0.618827  0.000000  1
  Ni  Ni9  1  0.881173  0.381005  0.000000  1
