# generated using pymatgen
data_Ti4TcOs2Ru
_symmetry_space_group_name_H-M   'P 1'
_cell_length_a   4.37959401
_cell_length_b   4.37285941
_cell_length_c   7.58721930
_cell_angle_alpha   73.26888588
_cell_angle_beta   90.00109739
_cell_angle_gamma   120.05019803
_symmetry_Int_Tables_number   1
_chemical_formula_structural   Ti4TcOs2Ru
_chemical_formula_sum   'Ti4 Tc1 Os2 Ru1'
_cell_volume   118.61513194
_cell_formula_units_Z   1
loop_
 _symmetry_equiv_pos_site_id
 _symmetry_equiv_pos_as_xyz
  1  'x, y, z'
loop_
 _atom_site_type_symbol
 _atom_site_label
 _atom_site_symmetry_multiplicity
 _atom_site_fract_x
 _atom_site_fract_y
 _atom_site_fract_z
 _atom_site_occupancy
  Ti  Ti0  1  0.000479  0.000955  0.998534  1
  Ti  Ti1  1  0.499570  0.999141  0.501317  1
  Ti  Ti2  1  0.250432  0.500860  0.248684  1
  Ti  Ti3  1  0.749523  0.499045  0.751467  1
  Tc  Tc4  1  0.374998  0.749999  0.875000  1
  Os  Os5  1  0.624472  0.248940  0.126575  1
  Os  Os6  1  0.125529  0.251061  0.623425  1
  Ru  Ru7  1  0.874999  0.749999  0.374999  1
