# generated using pymatgen
data_Tb4Tc5OsRu2
_symmetry_space_group_name_H-M   'P 1'
_cell_length_a   5.28687182
_cell_length_b   5.20182250
_cell_length_c   9.28962400
_cell_angle_alpha   90.00000000
_cell_angle_beta   90.00000000
_cell_angle_gamma   119.46927431
_symmetry_Int_Tables_number   1
_chemical_formula_structural   Tb4Tc5OsRu2
_chemical_formula_sum   'Tb4 Tc5 Os1 Ru2'
_cell_volume   222.42362067
_cell_formula_units_Z   1
loop_
 _symmetry_equiv_pos_site_id
 _symmetry_equiv_pos_as_xyz
  1  'x, y, z'
loop_
 _atom_site_type_symbol
 _atom_site_label
 _atom_site_symmetry_multiplicity
 _atom_site_fract_x
 _atom_site_fract_y
 _atom_site_fract_z
 _atom_site_occupancy
  Tb  Tb0  1  0.331939  0.665970  0.438093  1
  Tb  Tb1  1  0.669167  0.334583  0.564641  1
  Tb  Tb2  1  0.669167  0.334583  0.935359  1
  Tb  Tb3  1  0.331939  0.665970  0.061907  1
  Tc  Tc4  1  0.829915  0.170599  0.250000  1
  Tc  Tc5  1  0.829915  0.659317  0.250000  1
  Tc  Tc6  1  0.340723  0.170362  0.250000  1
  Tc  Tc7  1  0.168477  0.828730  0.750000  1
  Tc  Tc8  1  0.168477  0.339746  0.750000  1
  Os  Os9  1  0.657310  0.828654  0.750000  1
  Ru  Ru10  1  0.001486  0.000743  0.500871  1
  Ru  Ru11  1  0.001486  0.000743  0.999129  1
