# generated using pymatgen
data_Sr21Ga8Sn6Sb
_symmetry_space_group_name_H-M   'P 1'
_cell_length_a   12.10651651
_cell_length_b   12.10651713
_cell_length_c   12.10651700
_cell_angle_alpha   60.00000309
_cell_angle_beta   60.00000140
_cell_angle_gamma   59.99999947
_symmetry_Int_Tables_number   1
_chemical_formula_structural   Sr21Ga8Sn6Sb
_chemical_formula_sum   'Sr21 Ga8 Sn6 Sb1'
_cell_volume   1254.70795358
_cell_formula_units_Z   1
loop_
 _symmetry_equiv_pos_site_id
 _symmetry_equiv_pos_as_xyz
  1  'x, y, z'
loop_
 _atom_site_type_symbol
 _atom_site_label
 _atom_site_symmetry_multiplicity
 _atom_site_fract_x
 _atom_site_fract_y
 _atom_site_fract_z
 _atom_site_occupancy
  Sr  Sr0  1  0.869484  0.869484  0.391547  1
  Sr  Sr1  1  0.608453  0.130516  0.130516  1
  Sr  Sr2  1  0.869484  0.391547  0.869484  1
  Sr  Sr3  1  0.130516  0.130516  0.130516  1
  Sr  Sr4  1  0.391547  0.869484  0.869484  1
  Sr  Sr5  1  0.869484  0.869484  0.869484  1
  Sr  Sr6  1  0.178497  0.821503  0.500000  1
  Sr  Sr7  1  0.821503  0.500000  0.500000  1
  Sr  Sr8  1  0.130516  0.130516  0.608453  1
  Sr  Sr9  1  0.821503  0.178497  0.500000  1
  Sr  Sr10  1  0.178497  0.500000  0.500000  1
  Sr  Sr11  1  0.130516  0.608453  0.130516  1
  Sr  Sr12  1  0.500000  0.500000  0.178497  1
  Sr  Sr13  1  0.500000  0.178497  0.821503  1
  Sr  Sr14  1  0.500000  0.821503  0.178497  1
  Sr  Sr15  1  0.500000  0.500000  0.821503  1
  Sr  Sr16  1  0.500000  0.178497  0.500000  1
  Sr  Sr17  1  0.178497  0.500000  0.821503  1
  Sr  Sr18  1  0.000000  0.000000  0.000000  1
  Sr  Sr19  1  0.500000  0.821503  0.500000  1
  Sr  Sr20  1  0.821503  0.500000  0.178497  1
  Ga  Ga21  1  0.693081  0.920759  0.693081  1
  Ga  Ga22  1  0.693081  0.693081  0.920759  1
  Ga  Ga23  1  0.693081  0.693081  0.693081  1
  Ga  Ga24  1  0.306919  0.079241  0.306919  1
  Ga  Ga25  1  0.920759  0.693081  0.693081  1
  Ga  Ga26  1  0.306919  0.306919  0.079241  1
  Ga  Ga27  1  0.079241  0.306919  0.306919  1
  Ga  Ga28  1  0.306919  0.306919  0.306919  1
  Sn  Sn29  1  0.786698  0.213302  0.786698  1
  Sn  Sn30  1  0.786698  0.213302  0.213302  1
  Sn  Sn31  1  0.213302  0.786698  0.213302  1
  Sn  Sn32  1  0.213302  0.786698  0.786698  1
  Sn  Sn33  1  0.786698  0.786698  0.213302  1
  Sn  Sn34  1  0.213302  0.213302  0.786698  1
  Sb  Sb35  1  0.500000  0.500000  0.500000  1
