# generated using pymatgen
data_Ti8Al15Fe7
_symmetry_space_group_name_H-M   'P 1'
_cell_length_a   8.46506668
_cell_length_b   8.46506622
_cell_length_c   8.46506618
_cell_angle_alpha   120.30332305
_cell_angle_beta   119.78525949
_cell_angle_gamma   89.92388831
_symmetry_Int_Tables_number   1
_chemical_formula_structural   Ti8Al15Fe7
_chemical_formula_sum   'Ti8 Al15 Fe7'
_cell_volume   428.62128516
_cell_formula_units_Z   1
loop_
 _symmetry_equiv_pos_site_id
 _symmetry_equiv_pos_as_xyz
  1  'x, y, z'
loop_
 _atom_site_type_symbol
 _atom_site_label
 _atom_site_symmetry_multiplicity
 _atom_site_fract_x
 _atom_site_fract_y
 _atom_site_fract_z
 _atom_site_occupancy
  Ti  Ti0  1  0.787923  0.278010  0.061337  1
  Ti  Ti1  1  0.216673  0.278010  0.490086  1
  Ti  Ti2  1  0.215719  0.715719  0.500000  1
  Ti  Ti3  1  0.216673  0.726587  0.938663  1
  Ti  Ti4  1  0.787923  0.726587  0.509914  1
  Ti  Ti5  1  0.777984  0.277984  0.500000  1
  Ti  Ti6  1  0.380519  0.121429  0.740910  1
  Ti  Ti7  1  0.380519  0.639610  0.259090  1
  Al  Al8  1  0.996576  0.496576  0.500000  1
  Al  Al9  1  0.159669  0.343590  0.183920  1
  Al  Al10  1  0.159669  0.975749  0.816080  1
  Al  Al11  1  0.156793  0.345578  0.811216  1
  Al  Al12  1  0.534361  0.345578  0.188784  1
  Al  Al13  1  0.841970  0.655337  0.813369  1
  Al  Al14  1  0.841970  0.028601  0.186631  1
  Al  Al15  1  0.841374  0.655021  0.186353  1
  Al  Al16  1  0.468669  0.655021  0.813647  1
  Al  Al17  1  0.382696  0.122083  0.260613  1
  Al  Al18  1  0.861470  0.122083  0.739387  1
  Al  Al19  1  0.618987  0.875993  0.257006  1
  Al  Al20  1  0.618987  0.361981  0.742994  1
  Al  Al21  1  0.616471  0.877204  0.739267  1
  Al  Al22  1  0.137936  0.877204  0.260733  1
  Fe  Fe23  1  0.001715  0.000001  0.501436  1
  Fe  Fe24  1  0.498564  0.000001  0.998286  1
  Fe  Fe25  1  0.498425  0.498425  0.000000  1
  Fe  Fe26  1  0.498564  0.500278  0.498564  1
  Fe  Fe27  1  0.001715  0.500278  0.001714  1
  Fe  Fe28  1  0.000679  0.000679  0.000000  1
  Fe  Fe29  1  0.498805  0.998805  0.500000  1
