# generated using pymatgen
data_K2MnAlF7
_symmetry_space_group_name_H-M   'P 1'
_cell_length_a   7.68654108
_cell_length_b   7.68654116
_cell_length_c   7.68654156
_cell_angle_alpha   120.35534880
_cell_angle_beta   117.21491967
_cell_angle_gamma   92.13815784
_symmetry_Int_Tables_number   1
_chemical_formula_structural   K2MnAlF7
_chemical_formula_sum   'K4 Mn2 Al2 F14'
_cell_volume   326.48510681
_cell_formula_units_Z   2
loop_
 _symmetry_equiv_pos_site_id
 _symmetry_equiv_pos_as_xyz
  1  'x, y, z'
loop_
 _atom_site_type_symbol
 _atom_site_label
 _atom_site_symmetry_multiplicity
 _atom_site_fract_x
 _atom_site_fract_y
 _atom_site_fract_z
 _atom_site_occupancy
  K  K0  1  0.000000  0.000000  0.000000  1
  K  K1  1  0.500000  0.500000  0.000000  1
  K  K2  1  0.500000  0.000000  0.000000  1
  K  K3  1  0.500000  0.500000  0.500000  1
  Mn  Mn4  1  0.000000  0.000000  0.500000  1
  Mn  Mn5  1  0.000000  0.500000  0.000000  1
  Al  Al6  1  0.500000  0.000000  0.500000  1
  Al  Al7  1  0.000000  0.500000  0.500000  1
  F  F8  1  0.380186  0.080588  0.299598  1
  F  F9  1  0.719010  0.419412  0.299598  1
  F  F10  1  0.679650  0.281801  0.744515  1
  F  F11  1  0.962713  0.218199  0.397849  1
  F  F12  1  0.962713  0.564865  0.744515  1
  F  F13  1  0.679650  0.935135  0.397849  1
  F  F14  1  0.320350  0.064865  0.602151  1
  F  F15  1  0.037287  0.435135  0.255485  1
  F  F16  1  0.037287  0.781801  0.602151  1
  F  F17  1  0.320350  0.718199  0.255485  1
  F  F18  1  0.875699  0.750000  0.125699  1
  F  F19  1  0.619814  0.919412  0.700402  1
  F  F20  1  0.280990  0.580588  0.700402  1
  F  F21  1  0.124301  0.250000  0.874301  1
