# generated using pymatgen
data_Y6Er10Cd4NiIr3
_symmetry_space_group_name_H-M   'P 1'
_cell_length_a   9.54371997
_cell_length_b   9.56742130
_cell_length_c   9.56742100
_cell_angle_alpha   60.00000450
_cell_angle_beta   59.91781868
_cell_angle_gamma   59.91781529
_symmetry_Int_Tables_number   1
_chemical_formula_structural   Y6Er10Cd4NiIr3
_chemical_formula_sum   'Y6 Er10 Cd4 Ni1 Ir3'
_cell_volume   616.95273131
_cell_formula_units_Z   1
loop_
 _symmetry_equiv_pos_site_id
 _symmetry_equiv_pos_as_xyz
  1  'x, y, z'
loop_
 _atom_site_type_symbol
 _atom_site_label
 _atom_site_symmetry_multiplicity
 _atom_site_fract_x
 _atom_site_fract_y
 _atom_site_fract_z
 _atom_site_occupancy
  Y  Y0  1  0.188247  0.811898  0.811898  1
  Y  Y1  1  0.810993  0.186787  0.186787  1
  Y  Y2  1  0.810993  0.186787  0.815433  1
  Y  Y3  1  0.188247  0.811898  0.187956  1
  Y  Y4  1  0.810993  0.815433  0.186787  1
  Y  Y5  1  0.188247  0.187956  0.811898  1
  Er  Er6  1  0.601651  0.597189  0.597189  1
  Er  Er7  1  0.601651  0.597189  0.203970  1
  Er  Er8  1  0.601651  0.203970  0.597189  1
  Er  Er9  1  0.202748  0.599084  0.599084  1
  Er  Er10  1  0.060531  0.438256  0.438256  1
  Er  Er11  1  0.437821  0.061689  0.061689  1
  Er  Er12  1  0.437821  0.061689  0.438800  1
  Er  Er13  1  0.060531  0.438256  0.062956  1
  Er  Er14  1  0.437821  0.438800  0.061689  1
  Er  Er15  1  0.060531  0.062956  0.438256  1
  Cd  Cd16  1  0.830102  0.830864  0.830864  1
  Cd  Cd17  1  0.830102  0.830864  0.508168  1
  Cd  Cd18  1  0.830102  0.508168  0.830864  1
  Cd  Cd19  1  0.507584  0.830805  0.830805  1
  Ni  Ni20  1  0.825765  0.391412  0.391412  1
  Ir  Ir21  1  0.391956  0.391946  0.391946  1
  Ir  Ir22  1  0.391956  0.391946  0.824154  1
  Ir  Ir23  1  0.391956  0.824154  0.391946  1
