# generated using pymatgen
data_Lu2Mn6P7Ir5Rh
_symmetry_space_group_name_H-M   'P 1'
_cell_length_a   9.36672902
_cell_length_b   9.37956977
_cell_length_c   3.82107600
_cell_angle_alpha   90.00000000
_cell_angle_beta   90.00000000
_cell_angle_gamma   119.98273207
_symmetry_Int_Tables_number   1
_chemical_formula_structural   Lu2Mn6P7Ir5Rh
_chemical_formula_sum   'Lu2 Mn6 P7 Ir5 Rh1'
_cell_volume   290.77878934
_cell_formula_units_Z   1
loop_
 _symmetry_equiv_pos_site_id
 _symmetry_equiv_pos_as_xyz
  1  'x, y, z'
loop_
 _atom_site_type_symbol
 _atom_site_label
 _atom_site_symmetry_multiplicity
 _atom_site_fract_x
 _atom_site_fract_y
 _atom_site_fract_z
 _atom_site_occupancy
  Lu  Lu0  1  0.666510  0.333597  0.000000  1
  Lu  Lu1  1  0.999981  0.000119  0.500000  1
  Mn  Mn2  1  0.492471  0.937008  0.000000  1
  Mn  Mn3  1  0.062489  0.554238  0.000000  1
  Mn  Mn4  1  0.444705  0.507121  0.000000  1
  Mn  Mn5  1  0.548956  0.762746  0.500000  1
  Mn  Mn6  1  0.238128  0.786838  0.500000  1
  Mn  Mn7  1  0.212758  0.451566  0.500000  1
  P  P8  1  0.450911  0.062887  0.500000  1
  P  P9  1  0.936423  0.388372  0.500000  1
  P  P10  1  0.612523  0.548115  0.500000  1
  P  P11  1  0.744189  0.965441  0.000000  1
  P  P12  1  0.033927  0.777707  0.000000  1
  P  P13  1  0.222168  0.256477  0.000000  1
  P  P14  1  0.333106  0.666436  0.000000  1
  Ir  Ir15  1  0.267038  0.028700  0.000000  1
  Ir  Ir16  1  0.971399  0.238402  0.000000  1
  Ir  Ir17  1  0.719621  0.111396  0.500000  1
  Ir  Ir18  1  0.890556  0.610707  0.500000  1
  Ir  Ir19  1  0.390996  0.280019  0.500000  1
  Rh  Rh20  1  0.761140  0.732109  0.000000  1
