# generated using pymatgen
data_Er2P7(Rh3W)3
_symmetry_space_group_name_H-M   'P 1'
_cell_length_a   3.93778367
_cell_length_b   9.51311129
_cell_length_c   9.51233314
_cell_angle_alpha   120.00271758
_cell_angle_beta   89.99241105
_cell_angle_gamma   90.01031516
_symmetry_Int_Tables_number   1
_chemical_formula_structural   Er2P7(Rh3W)3
_chemical_formula_sum   'Er2 P7 Rh9 W3'
_cell_volume   308.58883790
_cell_formula_units_Z   1
loop_
 _symmetry_equiv_pos_site_id
 _symmetry_equiv_pos_as_xyz
  1  'x, y, z'
loop_
 _atom_site_type_symbol
 _atom_site_label
 _atom_site_symmetry_multiplicity
 _atom_site_fract_x
 _atom_site_fract_y
 _atom_site_fract_z
 _atom_site_occupancy
  Er  Er0  1  0.261440  0.666642  0.333301  1
  Er  Er1  1  0.762089  0.333319  0.666672  1
  P  P2  1  0.262213  0.000024  0.999968  1
  P  P3  1  0.761728  0.880310  0.591376  1
  P  P4  1  0.761741  0.408602  0.288915  1
  P  P5  1  0.761733  0.711058  0.119647  1
  P  P6  1  0.262001  0.119101  0.412925  1
  P  P7  1  0.262011  0.587123  0.706229  1
  P  P8  1  0.261988  0.293833  0.880934  1
  Rh  Rh9  1  0.261920  0.885875  0.159742  1
  Rh  Rh10  1  0.261912  0.840210  0.726017  1
  Rh  Rh11  1  0.261891  0.273953  0.114209  1
  Rh  Rh12  1  0.761940  0.613425  0.558387  1
  Rh  Rh13  1  0.761886  0.441531  0.054941  1
  Rh  Rh14  1  0.761924  0.944971  0.386558  1
  Rh  Rh15  1  0.261959  0.370535  0.439805  1
  Rh  Rh16  1  0.261872  0.560276  0.930819  1
  Rh  Rh17  1  0.261924  0.069234  0.629508  1
  W  W18  1  0.761941  0.090855  0.869872  1
  W  W19  1  0.761954  0.130197  0.221116  1
  W  W20  1  0.761934  0.778924  0.909060  1
