# generated using pymatgen
data_Al6Cd4O13
_symmetry_space_group_name_H-M   'P 1'
_cell_length_a   7.59614787
_cell_length_b   7.59614823
_cell_length_c   7.59614800
_cell_angle_alpha   109.47121736
_cell_angle_beta   109.47121830
_cell_angle_gamma   109.47122580
_symmetry_Int_Tables_number   1
_chemical_formula_structural   Al6Cd4O13
_chemical_formula_sum   'Al6 Cd4 O13'
_cell_volume   337.41032691
_cell_formula_units_Z   1
loop_
 _symmetry_equiv_pos_site_id
 _symmetry_equiv_pos_as_xyz
  1  'x, y, z'
loop_
 _atom_site_type_symbol
 _atom_site_label
 _atom_site_symmetry_multiplicity
 _atom_site_fract_x
 _atom_site_fract_y
 _atom_site_fract_z
 _atom_site_occupancy
  Al  Al0  1  0.250000  0.500000  0.750000  1
  Al  Al1  1  0.750000  0.500000  0.250000  1
  Al  Al2  1  0.250000  0.750000  0.500000  1
  Al  Al3  1  0.750000  0.250000  0.500000  1
  Al  Al4  1  0.500000  0.250000  0.750000  1
  Al  Al5  1  0.500000  0.750000  0.250000  1
  Cd  Cd6  1  0.000000  0.299854  0.000000  1
  Cd  Cd7  1  0.299854  0.000000  0.000000  1
  Cd  Cd8  1  0.700146  0.700146  0.700146  1
  Cd  Cd9  1  0.000000  0.000000  0.299854  1
  O  O10  1  0.000000  0.000000  0.000000  1
  O  O11  1  0.000000  0.539993  0.267981  1
  O  O12  1  0.460007  0.460007  0.727988  1
  O  O13  1  0.000000  0.267981  0.539993  1
  O  O14  1  0.267981  0.000000  0.539993  1
  O  O15  1  0.732019  0.272012  0.732019  1
  O  O16  1  0.272012  0.732019  0.732019  1
  O  O17  1  0.732019  0.732019  0.272012  1
  O  O18  1  0.539993  0.267981  0.000000  1
  O  O19  1  0.267981  0.539993  0.000000  1
  O  O20  1  0.460007  0.727988  0.460007  1
  O  O21  1  0.539993  0.000000  0.267981  1
  O  O22  1  0.727988  0.460007  0.460007  1
