# generated using pymatgen
data_Ac8Yb3Y9Pt16
_symmetry_space_group_name_H-M   'P 1'
_cell_length_a   7.63677600
_cell_length_b   7.90791877
_cell_length_c   14.91360600
_cell_angle_alpha   90.00000000
_cell_angle_beta   90.00000000
_cell_angle_gamma   89.93706672
_symmetry_Int_Tables_number   1
_chemical_formula_structural   Ac8Yb3Y9Pt16
_chemical_formula_sum   'Ac8 Yb3 Y9 Pt16'
_cell_volume   900.64710040
_cell_formula_units_Z   1
loop_
 _symmetry_equiv_pos_site_id
 _symmetry_equiv_pos_as_xyz
  1  'x, y, z'
loop_
 _atom_site_type_symbol
 _atom_site_label
 _atom_site_symmetry_multiplicity
 _atom_site_fract_x
 _atom_site_fract_y
 _atom_site_fract_z
 _atom_site_occupancy
  Ac  Ac0  1  0.503969  0.676110  0.596955  1
  Ac  Ac1  1  0.005203  0.827211  0.903771  1
  Ac  Ac2  1  0.494317  0.324230  0.098324  1
  Ac  Ac3  1  0.994002  0.176431  0.402527  1
  Ac  Ac4  1  0.494317  0.324230  0.401676  1
  Ac  Ac5  1  0.994002  0.176431  0.097473  1
  Ac  Ac6  1  0.503969  0.676110  0.903045  1
  Ac  Ac7  1  0.005203  0.827211  0.596229  1
  Yb  Yb8  1  0.331201  0.998673  0.750000  1
  Yb  Yb9  1  0.167980  0.498342  0.250000  1
  Yb  Yb10  1  0.668410  0.000165  0.250000  1
  Y  Y11  1  0.664403  0.167224  0.624335  1
  Y  Y12  1  0.167808  0.331344  0.875973  1
  Y  Y13  1  0.334292  0.830398  0.125124  1
  Y  Y14  1  0.834848  0.667913  0.375559  1
  Y  Y15  1  0.334292  0.830398  0.374876  1
  Y  Y16  1  0.834848  0.667913  0.124441  1
  Y  Y17  1  0.664403  0.167224  0.875665  1
  Y  Y18  1  0.167808  0.331344  0.624027  1
  Y  Y19  1  0.833411  0.500552  0.750000  1
  Pt  Pt20  1  0.674082  0.956313  0.460309  1
  Pt  Pt21  1  0.173562  0.542440  0.039798  1
  Pt  Pt22  1  0.326913  0.043065  0.960502  1
  Pt  Pt23  1  0.827020  0.458415  0.543930  1
  Pt  Pt24  1  0.326913  0.043065  0.539498  1
  Pt  Pt25  1  0.827020  0.458415  0.956070  1
  Pt  Pt26  1  0.674082  0.956313  0.039691  1
  Pt  Pt27  1  0.173562  0.542440  0.460202  1
  Pt  Pt28  1  0.467942  0.374982  0.750000  1
  Pt  Pt29  1  0.961719  0.134016  0.750000  1
  Pt  Pt30  1  0.535986  0.629629  0.250000  1
  Pt  Pt31  1  0.035030  0.869023  0.250000  1
  Pt  Pt32  1  0.707189  0.863776  0.750000  1
  Pt  Pt33  1  0.197730  0.630255  0.750000  1
  Pt  Pt34  1  0.295715  0.131038  0.250000  1
  Pt  Pt35  1  0.796850  0.367365  0.250000  1
