# generated using pymatgen
data_Cs3Li2NbAs3
_symmetry_space_group_name_H-M   'P 1'
_cell_length_a   10.26258649
_cell_length_b   10.26258708
_cell_length_c   17.49777000
_cell_angle_alpha   90.00000000
_cell_angle_beta   90.00000000
_cell_angle_gamma   142.41484023
_symmetry_Int_Tables_number   1
_chemical_formula_structural   Cs3Li2NbAs3
_chemical_formula_sum   'Cs12 Li8 Nb4 As12'
_cell_volume   1124.04437292
_cell_formula_units_Z   4
loop_
 _symmetry_equiv_pos_site_id
 _symmetry_equiv_pos_as_xyz
  1  'x, y, z'
loop_
 _atom_site_type_symbol
 _atom_site_label
 _atom_site_symmetry_multiplicity
 _atom_site_fract_x
 _atom_site_fract_y
 _atom_site_fract_z
 _atom_site_occupancy
  Cs  Cs0  1  0.947536  0.608429  0.832144  1
  Cs  Cs1  1  0.552464  0.891571  0.332144  1
  Cs  Cs2  1  0.391571  0.052464  0.167856  1
  Cs  Cs3  1  0.052464  0.391571  0.167856  1
  Cs  Cs4  1  0.891571  0.552464  0.332144  1
  Cs  Cs5  1  0.447536  0.108429  0.667856  1
  Cs  Cs6  1  0.608429  0.947536  0.832144  1
  Cs  Cs7  1  0.283234  0.283234  0.319479  1
  Cs  Cs8  1  0.783234  0.783234  0.180521  1
  Cs  Cs9  1  0.216766  0.216766  0.819479  1
  Cs  Cs10  1  0.716766  0.716766  0.680521  1
  Cs  Cs11  1  0.108429  0.447536  0.667856  1
  Li  Li12  1  0.918927  0.081073  0.000000  1
  Li  Li13  1  0.581073  0.418927  0.500000  1
  Li  Li14  1  0.081073  0.918927  0.000000  1
  Li  Li15  1  0.418927  0.581073  0.500000  1
  Li  Li16  1  0.748975  0.251025  0.000000  1
  Li  Li17  1  0.751025  0.248975  0.500000  1
  Li  Li18  1  0.251025  0.748975  0.000000  1
  Li  Li19  1  0.248975  0.751025  0.500000  1
  Nb  Nb20  1  0.582401  0.417599  0.000000  1
  Nb  Nb21  1  0.917599  0.082401  0.500000  1
  Nb  Nb22  1  0.417599  0.582401  0.000000  1
  Nb  Nb23  1  0.082401  0.917599  0.500000  1
  As  As24  1  0.886235  0.568456  0.078248  1
  As  As25  1  0.431544  0.113765  0.921752  1
  As  As26  1  0.613765  0.931544  0.578248  1
  As  As27  1  0.931544  0.613765  0.578248  1
  As  As28  1  0.113765  0.431544  0.921752  1
  As  As29  1  0.568456  0.886235  0.078248  1
  As  As30  1  0.386235  0.068456  0.421752  1
  As  As31  1  0.219641  0.219641  0.581674  1
  As  As32  1  0.719641  0.719641  0.918326  1
  As  As33  1  0.280359  0.280359  0.081674  1
  As  As34  1  0.068456  0.386235  0.421752  1
  As  As35  1  0.780359  0.780359  0.418326  1
