# generated using pymatgen
data_Tb8DyHo11Pt16
_symmetry_space_group_name_H-M   'P 1'
_cell_length_a   7.47697400
_cell_length_b   7.55647515
_cell_length_c   14.75217900
_cell_angle_alpha   89.98904352
_cell_angle_beta   90.00157091
_cell_angle_gamma   89.99702044
_symmetry_Int_Tables_number   1
_chemical_formula_structural   Tb8DyHo11Pt16
_chemical_formula_sum   'Tb8 Dy1 Ho11 Pt16'
_cell_volume   833.49172738
_cell_formula_units_Z   1
loop_
 _symmetry_equiv_pos_site_id
 _symmetry_equiv_pos_as_xyz
  1  'x, y, z'
loop_
 _atom_site_type_symbol
 _atom_site_label
 _atom_site_symmetry_multiplicity
 _atom_site_fract_x
 _atom_site_fract_y
 _atom_site_fract_z
 _atom_site_occupancy
  Tb  Tb0  1  0.998029  0.820285  0.406791  1
  Tb  Tb1  1  0.497849  0.679631  0.093500  1
  Tb  Tb2  1  0.502022  0.320358  0.593056  1
  Tb  Tb3  1  0.002155  0.180079  0.906815  1
  Tb  Tb4  1  0.001962  0.179593  0.593121  1
  Tb  Tb5  1  0.501954  0.320335  0.906820  1
  Tb  Tb6  1  0.497959  0.679686  0.406787  1
  Tb  Tb7  1  0.998026  0.820238  0.093253  1
  Dy  Dy8  1  0.656271  0.832145  0.877900  1
  Ho  Ho9  1  0.680933  0.988553  0.250096  1
  Ho  Ho10  1  0.180921  0.511483  0.250110  1
  Ho  Ho11  1  0.819170  0.488342  0.749754  1
  Ho  Ho12  1  0.318969  0.011741  0.749789  1
  Ho  Ho13  1  0.656240  0.832214  0.622108  1
  Ho  Ho14  1  0.156387  0.667800  0.877637  1
  Ho  Ho15  1  0.843802  0.332241  0.377828  1
  Ho  Ho16  1  0.343651  0.167916  0.122391  1
  Ho  Ho17  1  0.343750  0.167768  0.377836  1
  Ho  Ho18  1  0.843833  0.332241  0.122493  1
  Ho  Ho19  1  0.156288  0.667781  0.622060  1
  Pt  Pt20  1  0.816730  0.642111  0.250111  1
  Pt  Pt21  1  0.316644  0.857887  0.250119  1
  Pt  Pt22  1  0.683237  0.142381  0.749596  1
  Pt  Pt23  1  0.182973  0.357719  0.749864  1
  Pt  Pt24  1  0.547061  0.385034  0.250153  1
  Pt  Pt25  1  0.047132  0.114990  0.250142  1
  Pt  Pt26  1  0.953271  0.885327  0.749624  1
  Pt  Pt27  1  0.452779  0.614430  0.749680  1
  Pt  Pt28  1  0.817188  0.532698  0.542006  1
  Pt  Pt29  1  0.316322  0.967485  0.958133  1
  Pt  Pt30  1  0.682846  0.032660  0.457902  1
  Pt  Pt31  1  0.183126  0.467434  0.042124  1
  Pt  Pt32  1  0.182833  0.467370  0.457861  1
  Pt  Pt33  1  0.682625  0.032882  0.042595  1
  Pt  Pt34  1  0.317204  0.967323  0.541985  1
  Pt  Pt35  1  0.817862  0.531844  0.957963  1
