# generated using pymatgen
data_LaTb6Sn23Ir6
_symmetry_space_group_name_H-M   'P 1'
_cell_length_a   9.90949800
_cell_length_b   9.90949713
_cell_length_c   10.10684500
_cell_angle_alpha   90.00000000
_cell_angle_beta   90.00000000
_cell_angle_gamma   120.00000291
_symmetry_Int_Tables_number   1
_chemical_formula_structural   LaTb6Sn23Ir6
_chemical_formula_sum   'La1 Tb6 Sn23 Ir6'
_cell_volume   859.50715195
_cell_formula_units_Z   1
loop_
 _symmetry_equiv_pos_site_id
 _symmetry_equiv_pos_as_xyz
  1  'x, y, z'
loop_
 _atom_site_type_symbol
 _atom_site_label
 _atom_site_symmetry_multiplicity
 _atom_site_fract_x
 _atom_site_fract_y
 _atom_site_fract_z
 _atom_site_occupancy
  La  La0  1  0.000000  0.000000  0.000000  1
  Tb  Tb1  1  0.480737  0.519263  0.306543  1
  Tb  Tb2  1  0.519263  0.480737  0.693457  1
  Tb  Tb3  1  0.480737  0.961474  0.306543  1
  Tb  Tb4  1  0.519263  0.038526  0.693457  1
  Tb  Tb5  1  0.038526  0.519263  0.306543  1
  Tb  Tb6  1  0.961474  0.480737  0.693457  1
  Sn  Sn7  1  0.353255  0.000000  0.000000  1
  Sn  Sn8  1  0.646745  0.000000  0.000000  1
  Sn  Sn9  1  0.000000  0.353255  0.000000  1
  Sn  Sn10  1  0.000000  0.646745  0.000000  1
  Sn  Sn11  1  0.646745  0.646745  0.000000  1
  Sn  Sn12  1  0.353255  0.353255  0.000000  1
  Sn  Sn13  1  0.333333  0.666667  0.825536  1
  Sn  Sn14  1  0.666667  0.333333  0.174464  1
  Sn  Sn15  1  0.000000  0.000000  0.500000  1
  Sn  Sn16  1  0.777785  0.222215  0.458080  1
  Sn  Sn17  1  0.222215  0.777785  0.541920  1
  Sn  Sn18  1  0.777785  0.555571  0.458080  1
  Sn  Sn19  1  0.222215  0.444429  0.541920  1
  Sn  Sn20  1  0.444429  0.222215  0.458080  1
  Sn  Sn21  1  0.555571  0.777785  0.541920  1
  Sn  Sn22  1  0.333333  0.666667  0.121081  1
  Sn  Sn23  1  0.666667  0.333333  0.878919  1
  Sn  Sn24  1  0.118291  0.881709  0.284128  1
  Sn  Sn25  1  0.881709  0.118291  0.715872  1
  Sn  Sn26  1  0.118291  0.236582  0.284128  1
  Sn  Sn27  1  0.881709  0.763418  0.715872  1
  Sn  Sn28  1  0.763418  0.881709  0.284128  1
  Sn  Sn29  1  0.236582  0.118291  0.715872  1
  Ir  Ir30  1  0.830063  0.169937  0.200021  1
  Ir  Ir31  1  0.169937  0.830063  0.799979  1
  Ir  Ir32  1  0.830063  0.660126  0.200021  1
  Ir  Ir33  1  0.169937  0.339874  0.799979  1
  Ir  Ir34  1  0.339874  0.169937  0.200021  1
  Ir  Ir35  1  0.660126  0.830063  0.799979  1
