# generated using pymatgen
data_Lu20IrPt10Rh
_symmetry_space_group_name_H-M   'P 1'
_cell_length_a   10.75610800
_cell_length_b   10.75610800
_cell_length_c   6.25869800
_cell_angle_alpha   90.00000000
_cell_angle_beta   90.00000000
_cell_angle_gamma   90.00000000
_symmetry_Int_Tables_number   1
_chemical_formula_structural   Lu20IrPt10Rh
_chemical_formula_sum   'Lu20 Ir1 Pt10 Rh1'
_cell_volume   724.09292586
_cell_formula_units_Z   1
loop_
 _symmetry_equiv_pos_site_id
 _symmetry_equiv_pos_as_xyz
  1  'x, y, z'
loop_
 _atom_site_type_symbol
 _atom_site_label
 _atom_site_symmetry_multiplicity
 _atom_site_fract_x
 _atom_site_fract_y
 _atom_site_fract_z
 _atom_site_occupancy
  Lu  Lu0  1  0.292305  0.088591  0.376844  1
  Lu  Lu1  1  0.292374  0.911260  0.876777  1
  Lu  Lu2  1  0.707626  0.088740  0.876777  1
  Lu  Lu3  1  0.707695  0.911409  0.376844  1
  Lu  Lu4  1  0.588740  0.792374  0.876777  1
  Lu  Lu5  1  0.588591  0.207695  0.376844  1
  Lu  Lu6  1  0.411409  0.792305  0.376844  1
  Lu  Lu7  1  0.411260  0.207626  0.876777  1
  Lu  Lu8  1  0.205480  0.411985  0.622206  1
  Lu  Lu9  1  0.205657  0.588206  0.124985  1
  Lu  Lu10  1  0.794343  0.411794  0.124985  1
  Lu  Lu11  1  0.794520  0.588015  0.622206  1
  Lu  Lu12  1  0.911794  0.705657  0.124985  1
  Lu  Lu13  1  0.911985  0.294520  0.622206  1
  Lu  Lu14  1  0.088015  0.705480  0.622206  1
  Lu  Lu15  1  0.088206  0.294343  0.124985  1
  Lu  Lu16  1  0.000000  0.000000  0.500886  1
  Lu  Lu17  1  0.000000  0.000000  0.000702  1
  Lu  Lu18  1  0.500000  0.500000  0.000702  1
  Lu  Lu19  1  0.500000  0.500000  0.500886  1
  Ir  Ir20  1  0.000000  0.500000  0.377831  1
  Pt  Pt21  1  0.845191  0.153612  0.250245  1
  Pt  Pt22  1  0.845625  0.845891  0.750436  1
  Pt  Pt23  1  0.154375  0.154109  0.750436  1
  Pt  Pt24  1  0.154809  0.846388  0.250245  1
  Pt  Pt25  1  0.654109  0.345625  0.750436  1
  Pt  Pt26  1  0.653612  0.654809  0.250245  1
  Pt  Pt27  1  0.346388  0.345191  0.250245  1
  Pt  Pt28  1  0.345891  0.654375  0.750436  1
  Pt  Pt29  1  0.500000  0.000000  0.117193  1
  Pt  Pt30  1  0.500000  0.000000  0.617143  1
  Rh  Rh31  1  0.000000  0.500000  0.878682  1
