# generated using pymatgen
data_Y10CdIn7Au4
_symmetry_space_group_name_H-M   'P 1'
_cell_length_a   3.69709900
_cell_length_b   8.23207377
_cell_length_c   18.43410704
_cell_angle_alpha   89.96618021
_cell_angle_beta   90.00000000
_cell_angle_gamma   90.00000000
_symmetry_Int_Tables_number   1
_chemical_formula_structural   Y10CdIn7Au4
_chemical_formula_sum   'Y10 Cd1 In7 Au4'
_cell_volume   561.03811008
_cell_formula_units_Z   1
loop_
 _symmetry_equiv_pos_site_id
 _symmetry_equiv_pos_as_xyz
  1  'x, y, z'
loop_
 _atom_site_type_symbol
 _atom_site_label
 _atom_site_symmetry_multiplicity
 _atom_site_fract_x
 _atom_site_fract_y
 _atom_site_fract_z
 _atom_site_occupancy
  Y  Y0  1  0.500000  0.237745  0.782475  1
  Y  Y1  1  0.500000  0.764860  0.216629  1
  Y  Y2  1  0.500000  0.259008  0.280907  1
  Y  Y3  1  0.500000  0.738066  0.717567  1
  Y  Y4  1  0.500000  0.120739  0.580046  1
  Y  Y5  1  0.500000  0.880109  0.420117  1
  Y  Y6  1  0.500000  0.379769  0.080758  1
  Y  Y7  1  0.500000  0.619935  0.919968  1
  Y  Y8  1  0.500000  0.999208  0.999969  1
  Y  Y9  1  0.500000  0.499590  0.499938  1
  Cd  Cd10  1  0.000000  0.078656  0.147188  1
  In  In11  1  0.000000  0.920148  0.852793  1
  In  In12  1  0.000000  0.421132  0.647253  1
  In  In13  1  0.000000  0.578869  0.353243  1
  In  In14  1  0.000000  0.210348  0.432618  1
  In  In15  1  0.000000  0.790920  0.567012  1
  In  In16  1  0.000000  0.289269  0.933696  1
  In  In17  1  0.000000  0.711680  0.067396  1
  Au  Au18  1  0.000000  0.027593  0.696622  1
  Au  Au19  1  0.000000  0.972220  0.303343  1
  Au  Au20  1  0.000000  0.473103  0.196903  1
  Au  Au21  1  0.000000  0.527030  0.803563  1
