# generated using pymatgen
data_Y4NpNbRu6
_symmetry_space_group_name_H-M   'P 1'
_cell_length_a   5.81300000
_cell_length_b   5.81299978
_cell_length_c   7.87827700
_cell_angle_alpha   90.00000000
_cell_angle_beta   90.00000000
_cell_angle_gamma   119.99998985
_symmetry_Int_Tables_number   1
_chemical_formula_structural   Y4NpNbRu6
_chemical_formula_sum   'Y4 Np1 Nb1 Ru6'
_cell_volume   230.54863349
_cell_formula_units_Z   1
loop_
 _symmetry_equiv_pos_site_id
 _symmetry_equiv_pos_as_xyz
  1  'x, y, z'
loop_
 _atom_site_type_symbol
 _atom_site_label
 _atom_site_symmetry_multiplicity
 _atom_site_fract_x
 _atom_site_fract_y
 _atom_site_fract_z
 _atom_site_occupancy
  Y  Y0  1  0.333333  0.666667  0.447773  1
  Y  Y1  1  0.666667  0.333333  0.552227  1
  Y  Y2  1  0.666667  0.333333  0.938652  1
  Y  Y3  1  0.333333  0.666667  0.061348  1
  Np  Np4  1  0.000000  0.000000  0.000000  1
  Nb  Nb5  1  0.000000  0.000000  0.500000  1
  Ru  Ru6  1  0.166977  0.333953  0.758674  1
  Ru  Ru7  1  0.166977  0.833023  0.758674  1
  Ru  Ru8  1  0.333953  0.166977  0.241326  1
  Ru  Ru9  1  0.833023  0.666047  0.241326  1
  Ru  Ru10  1  0.666047  0.833023  0.758674  1
  Ru  Ru11  1  0.833023  0.166977  0.241326  1
