# generated using pymatgen
data_Hf3Si4TcRh4
_symmetry_space_group_name_H-M   'P 1'
_cell_length_a   3.89410900
_cell_length_b   6.40243653
_cell_length_c   7.39267585
_cell_angle_alpha   90.91899817
_cell_angle_beta   90.00000000
_cell_angle_gamma   90.00000000
_symmetry_Int_Tables_number   1
_chemical_formula_structural   Hf3Si4TcRh4
_chemical_formula_sum   'Hf3 Si4 Tc1 Rh4'
_cell_volume   184.28890187
_cell_formula_units_Z   1
loop_
 _symmetry_equiv_pos_site_id
 _symmetry_equiv_pos_as_xyz
  1  'x, y, z'
loop_
 _atom_site_type_symbol
 _atom_site_label
 _atom_site_symmetry_multiplicity
 _atom_site_fract_x
 _atom_site_fract_y
 _atom_site_fract_z
 _atom_site_occupancy
  Hf  Hf0  1  0.750000  0.477562  0.824648  1
  Hf  Hf1  1  0.250000  0.020344  0.309836  1
  Hf  Hf2  1  0.750000  0.967614  0.680579  1
  Si  Si3  1  0.250000  0.768825  0.896291  1
  Si  Si4  1  0.750000  0.250770  0.126899  1
  Si  Si5  1  0.250000  0.269058  0.619175  1
  Si  Si6  1  0.750000  0.703153  0.359186  1
  Tc  Tc7  1  0.250000  0.531213  0.177151  1
  Rh  Rh8  1  0.750000  0.862045  0.064818  1
  Rh  Rh9  1  0.250000  0.154030  0.935102  1
  Rh  Rh10  1  0.750000  0.343280  0.441469  1
  Rh  Rh11  1  0.250000  0.652105  0.564845  1
