# generated using pymatgen
data_DyEr(BeB14)2
_symmetry_space_group_name_H-M   'P 1'
_cell_length_a   7.19830230
_cell_length_b   7.19830051
_cell_length_c   7.19830165
_cell_angle_alpha   132.70946363
_cell_angle_beta   110.36432008
_cell_angle_gamma   88.49470085
_symmetry_Int_Tables_number   1
_chemical_formula_structural   DyEr(BeB14)2
_chemical_formula_sum   'Dy1 Er1 Be2 B28'
_cell_volume   244.73822266
_cell_formula_units_Z   1
loop_
 _symmetry_equiv_pos_site_id
 _symmetry_equiv_pos_as_xyz
  1  'x, y, z'
loop_
 _atom_site_type_symbol
 _atom_site_label
 _atom_site_symmetry_multiplicity
 _atom_site_fract_x
 _atom_site_fract_y
 _atom_site_fract_z
 _atom_site_occupancy
  Dy  Dy0  1  0.107428  0.750000  0.357428  1
  Er  Er1  1  0.892033  0.250000  0.642033  1
  Be  Be2  1  0.499966  0.500032  0.499998  1
  Be  Be3  1  0.499966  0.999968  0.999934  1
  B  B4  1  0.131589  0.166475  0.965115  1
  B  B5  1  0.868111  0.833574  0.034536  1
  B  B6  1  0.700963  0.666426  0.034536  1
  B  B7  1  0.298639  0.333525  0.965115  1
  B  B8  1  0.290634  0.655856  0.634778  1
  B  B9  1  0.709883  0.343961  0.365922  1
  B  B10  1  0.521962  0.156039  0.365922  1
  B  B11  1  0.478922  0.844144  0.634778  1
  B  B12  1  0.424932  0.592466  0.832465  1
  B  B13  1  0.575275  0.407497  0.167780  1
  B  B14  1  0.260282  0.092503  0.167780  1
  B  B15  1  0.740000  0.907534  0.832465  1
  B  B16  1  0.898070  0.896304  0.676289  1
  B  B17  1  0.101570  0.777615  0.997332  1
  B  B18  1  0.719717  0.395762  0.997332  1
  B  B19  1  0.279983  0.278218  0.676289  1
  B  B20  1  0.101570  0.104238  0.323954  1
  B  B21  1  0.898070  0.221782  0.001765  1
  B  B22  1  0.279983  0.603696  0.001765  1
  B  B23  1  0.719717  0.722385  0.323954  1
  B  B24  1  0.533163  0.328177  0.698712  1
  B  B25  1  0.467061  0.165753  0.795361  1
  B  B26  1  0.129609  0.828300  0.795361  1
  B  B27  1  0.870534  0.665551  0.698712  1
  B  B28  1  0.467061  0.671700  0.301308  1
  B  B29  1  0.533163  0.834449  0.204985  1
  B  B30  1  0.870534  0.171823  0.204985  1
  B  B31  1  0.129609  0.334247  0.301308  1
