# generated using pymatgen
data_Tm3Lu5B24(MoRu)2
_symmetry_space_group_name_H-M   'P 1'
_cell_length_a   3.59869300
_cell_length_b   9.10756468
_cell_length_c   11.48331113
_cell_angle_alpha   89.75638964
_cell_angle_beta   90.00000000
_cell_angle_gamma   90.00000000
_symmetry_Int_Tables_number   1
_chemical_formula_structural   Tm3Lu5B24(MoRu)2
_chemical_formula_sum   'Tm3 Lu5 B24 Mo2 Ru2'
_cell_volume   376.36590107
_cell_formula_units_Z   1
loop_
 _symmetry_equiv_pos_site_id
 _symmetry_equiv_pos_as_xyz
  1  'x, y, z'
loop_
 _atom_site_type_symbol
 _atom_site_label
 _atom_site_symmetry_multiplicity
 _atom_site_fract_x
 _atom_site_fract_y
 _atom_site_fract_z
 _atom_site_occupancy
  Tm  Tm0  1  0.000000  0.321627  0.414564  1
  Tm  Tm1  1  0.000000  0.678295  0.585546  1
  Tm  Tm2  1  0.000000  0.821425  0.085876  1
  Lu  Lu3  1  0.000000  0.178759  0.913998  1
  Lu  Lu4  1  0.000000  0.944918  0.371258  1
  Lu  Lu5  1  0.000000  0.055290  0.628836  1
  Lu  Lu6  1  0.000000  0.441869  0.127958  1
  Lu  Lu7  1  0.000000  0.557826  0.871891  1
  B  B8  1  0.500000  0.551596  0.434497  1
  B  B9  1  0.500000  0.448279  0.565658  1
  B  B10  1  0.500000  0.054101  0.066156  1
  B  B11  1  0.500000  0.946286  0.933610  1
  B  B12  1  0.500000  0.751884  0.421297  1
  B  B13  1  0.500000  0.248235  0.578840  1
  B  B14  1  0.500000  0.249378  0.080182  1
  B  B15  1  0.500000  0.750597  0.919443  1
  B  B16  1  0.500000  0.795981  0.263493  1
  B  B17  1  0.500000  0.204031  0.736774  1
  B  B18  1  0.500000  0.291060  0.233901  1
  B  B19  1  0.500000  0.708934  0.766041  1
  B  B20  1  0.500000  0.631164  0.181610  1
  B  B21  1  0.500000  0.368523  0.818483  1
  B  B22  1  0.500000  0.130152  0.314210  1
  B  B23  1  0.500000  0.869918  0.685797  1
  B  B24  1  0.500000  0.982785  0.211641  1
  B  B25  1  0.500000  0.017550  0.788482  1
  B  B26  1  0.500000  0.477341  0.286645  1
  B  B27  1  0.500000  0.522436  0.713322  1
  B  B28  1  0.500000  0.601851  0.027540  1
  B  B29  1  0.500000  0.397766  0.972349  1
  B  B30  1  0.500000  0.101808  0.470992  1
  B  B31  1  0.500000  0.898233  0.529045  1
  Mo  Mo32  1  0.000000  0.639466  0.318717  1
  Mo  Mo33  1  0.000000  0.360357  0.681492  1
  Ru  Ru34  1  0.000000  0.138380  0.178121  1
  Ru  Ru35  1  0.000000  0.861896  0.821734  1
