# generated using pymatgen
data_LiTh4Co2Ru9C10
_symmetry_space_group_name_H-M   'P 1'
_cell_length_a   9.03188000
_cell_length_b   9.03188000
_cell_length_c   4.17373300
_cell_angle_alpha   90.00000000
_cell_angle_beta   90.00000000
_cell_angle_gamma   90.00000000
_symmetry_Int_Tables_number   1
_chemical_formula_structural   LiTh4Co2Ru9C10
_chemical_formula_sum   'Li1 Th4 Co2 Ru9 C10'
_cell_volume   340.47166985
_cell_formula_units_Z   1
loop_
 _symmetry_equiv_pos_site_id
 _symmetry_equiv_pos_as_xyz
  1  'x, y, z'
loop_
 _atom_site_type_symbol
 _atom_site_label
 _atom_site_symmetry_multiplicity
 _atom_site_fract_x
 _atom_site_fract_y
 _atom_site_fract_z
 _atom_site_occupancy
  Li  Li0  1  0.000000  0.000000  0.500000  1
  Th  Th1  1  0.332730  0.813519  0.500000  1
  Th  Th2  1  0.813519  0.667270  0.500000  1
  Th  Th3  1  0.186481  0.332730  0.500000  1
  Th  Th4  1  0.667270  0.186481  0.500000  1
  Co  Co5  1  0.500000  0.000000  0.000000  1
  Co  Co6  1  0.000000  0.500000  0.000000  1
  Ru  Ru7  1  0.718205  0.433444  0.000000  1
  Ru  Ru8  1  0.433444  0.281795  0.000000  1
  Ru  Ru9  1  0.500000  0.500000  0.500000  1
  Ru  Ru10  1  0.785444  0.939159  0.000000  1
  Ru  Ru11  1  0.939159  0.214556  0.000000  1
  Ru  Ru12  1  0.060841  0.785444  0.000000  1
  Ru  Ru13  1  0.214556  0.060841  0.000000  1
  Ru  Ru14  1  0.566556  0.718205  0.000000  1
  Ru  Ru15  1  0.281795  0.566556  0.000000  1
  C  C16  1  0.500000  0.500000  0.000000  1
  C  C17  1  0.000000  0.000000  0.000000  1
  C  C18  1  0.888936  0.380727  0.673925  1
  C  C19  1  0.111064  0.619273  0.673925  1
  C  C20  1  0.888936  0.380727  0.326075  1
  C  C21  1  0.380727  0.111064  0.326075  1
  C  C22  1  0.619273  0.888936  0.326075  1
  C  C23  1  0.111064  0.619273  0.326075  1
  C  C24  1  0.619273  0.888936  0.673925  1
  C  C25  1  0.380727  0.111064  0.673925  1
