# generated using pymatgen
data_ZrNp3As5
_symmetry_space_group_name_H-M   'P 1'
_cell_length_a   8.65026100
_cell_length_b   8.65025958
_cell_length_c   5.84339800
_cell_angle_alpha   90.00000000
_cell_angle_beta   90.00000000
_cell_angle_gamma   119.99999396
_symmetry_Int_Tables_number   1
_chemical_formula_structural   ZrNp3As5
_chemical_formula_sum   'Zr2 Np6 As10'
_cell_volume   378.66440013
_cell_formula_units_Z   2
loop_
 _symmetry_equiv_pos_site_id
 _symmetry_equiv_pos_as_xyz
  1  'x, y, z'
loop_
 _atom_site_type_symbol
 _atom_site_label
 _atom_site_symmetry_multiplicity
 _atom_site_fract_x
 _atom_site_fract_y
 _atom_site_fract_z
 _atom_site_occupancy
  Zr  Zr0  1  0.000000  0.000000  0.000000  1
  Zr  Zr1  1  0.000000  0.000000  0.500000  1
  Np  Np2  1  0.615191  0.000000  0.250000  1
  Np  Np3  1  0.384809  0.000000  0.750000  1
  Np  Np4  1  0.000000  0.615191  0.250000  1
  Np  Np5  1  0.000000  0.384809  0.750000  1
  Np  Np6  1  0.384809  0.384809  0.250000  1
  Np  Np7  1  0.615191  0.615191  0.750000  1
  As  As8  1  0.270236  0.000000  0.250000  1
  As  As9  1  0.729764  0.000000  0.750000  1
  As  As10  1  0.000000  0.270236  0.250000  1
  As  As11  1  0.000000  0.729764  0.750000  1
  As  As12  1  0.729764  0.729764  0.250000  1
  As  As13  1  0.270236  0.270236  0.750000  1
  As  As14  1  0.333333  0.666667  0.000000  1
  As  As15  1  0.666667  0.333333  0.000000  1
  As  As16  1  0.666667  0.333333  0.500000  1
  As  As17  1  0.333333  0.666667  0.500000  1
