# generated using pymatgen
data_HoTm(SiTe3)2
_symmetry_space_group_name_H-M   'P 1'
_cell_length_a   7.25676900
_cell_length_b   7.25676885
_cell_length_c   7.67138700
_cell_angle_alpha   90.00000000
_cell_angle_beta   90.00000000
_cell_angle_gamma   119.99998699
_symmetry_Int_Tables_number   1
_chemical_formula_structural   HoTm(SiTe3)2
_chemical_formula_sum   'Ho1 Tm1 Si2 Te6'
_cell_volume   349.85748470
_cell_formula_units_Z   1
loop_
 _symmetry_equiv_pos_site_id
 _symmetry_equiv_pos_as_xyz
  1  'x, y, z'
loop_
 _atom_site_type_symbol
 _atom_site_label
 _atom_site_symmetry_multiplicity
 _atom_site_fract_x
 _atom_site_fract_y
 _atom_site_fract_z
 _atom_site_occupancy
  Ho  Ho0  1  0.333333  0.666667  0.500000  1
  Tm  Tm1  1  0.666667  0.333333  0.500000  1
  Si  Si2  1  0.000000  0.000000  0.349215  1
  Si  Si3  1  0.000000  0.000000  0.650785  1
  Te  Te4  1  0.998007  0.665913  0.247513  1
  Te  Te5  1  0.334087  0.332094  0.247513  1
  Te  Te6  1  0.998007  0.332094  0.752487  1
  Te  Te7  1  0.334087  0.001993  0.752487  1
  Te  Te8  1  0.667906  0.001993  0.247513  1
  Te  Te9  1  0.667906  0.665913  0.752487  1
