# generated using pymatgen
data_DyTm(Si2Rh3)2
_symmetry_space_group_name_H-M   'P 1'
_cell_length_a   6.61534647
_cell_length_b   6.61534559
_cell_length_c   6.61534727
_cell_angle_alpha   130.44151561
_cell_angle_beta   113.91500374
_cell_angle_gamma   86.90152195
_symmetry_Int_Tables_number   1
_chemical_formula_structural   DyTm(Si2Rh3)2
_chemical_formula_sum   'Dy1 Tm1 Si4 Rh6'
_cell_volume   192.12324958
_cell_formula_units_Z   1
loop_
 _symmetry_equiv_pos_site_id
 _symmetry_equiv_pos_as_xyz
  1  'x, y, z'
loop_
 _atom_site_type_symbol
 _atom_site_label
 _atom_site_symmetry_multiplicity
 _atom_site_fract_x
 _atom_site_fract_y
 _atom_site_fract_z
 _atom_site_occupancy
  Dy  Dy0  1  0.750000  0.459080  0.709080  1
  Tm  Tm1  1  0.250000  0.546863  0.296863  1
  Si  Si2  1  0.078774  0.884730  0.805955  1
  Si  Si3  1  0.921168  0.115559  0.194391  1
  Si  Si4  1  0.578832  0.773223  0.194391  1
  Si  Si5  1  0.421226  0.227181  0.805955  1
  Rh  Rh6  1  0.712795  0.996950  0.712147  1
  Rh  Rh7  1  0.215197  0.499353  0.712147  1
  Rh  Rh8  1  0.284803  0.996950  0.284155  1
  Rh  Rh9  1  0.787205  0.499353  0.284155  1
  Rh  Rh10  1  0.000747  0.000380  0.501128  1
  Rh  Rh11  1  0.499253  0.000380  0.999633  1
