# generated using pymatgen
data_Pr2Nd4SiPBr6
_symmetry_space_group_name_H-M   'P 1'
_cell_length_a   10.38128716
_cell_length_b   10.38128724
_cell_length_c   10.41128076
_cell_angle_alpha   109.41379868
_cell_angle_beta   109.41380090
_cell_angle_gamma   109.46936652
_symmetry_Int_Tables_number   1
_chemical_formula_structural   Pr2Nd4SiPBr6
_chemical_formula_sum   'Pr4 Nd8 Si2 P2 Br12'
_cell_volume   864.98478430
_cell_formula_units_Z   2
loop_
 _symmetry_equiv_pos_site_id
 _symmetry_equiv_pos_as_xyz
  1  'x, y, z'
loop_
 _atom_site_type_symbol
 _atom_site_label
 _atom_site_symmetry_multiplicity
 _atom_site_fract_x
 _atom_site_fract_y
 _atom_site_fract_z
 _atom_site_occupancy
  Pr  Pr0  1  0.489449  0.239449  0.478897  1
  Pr  Pr1  1  0.015083  0.484917  0.750000  1
  Pr  Pr2  1  0.260551  0.010551  0.021103  1
  Pr  Pr3  1  0.234917  0.265083  0.750000  1
  Nd  Nd4  1  0.473039  0.488556  0.235741  1
  Nd  Nd5  1  0.752815  0.237298  0.264259  1
  Nd  Nd6  1  0.753545  0.015563  0.488564  1
  Nd  Nd7  1  0.235019  0.473001  0.488564  1
  Nd  Nd8  1  0.262702  0.747185  0.235741  1
  Nd  Nd9  1  0.026999  0.264981  0.011436  1
  Nd  Nd10  1  0.011444  0.026961  0.264259  1
  Nd  Nd11  1  0.484437  0.746455  0.011436  1
  Si  Si12  1  0.248933  0.251067  0.250000  1
  Si  Si13  1  0.501067  0.998933  0.250000  1
  P  P14  1  0.999546  0.249546  0.499092  1
  P  P15  1  0.250454  0.500454  0.000908  1
  Br  Br16  1  0.251987  0.754112  0.743766  1
  Br  Br17  1  0.510345  0.508222  0.756234  1
  Br  Br18  1  0.988756  0.743818  0.996561  1
  Br  Br19  1  0.745888  0.248013  0.756234  1
  Br  Br20  1  0.991778  0.989655  0.743766  1
  Br  Br21  1  0.247257  0.992192  0.503439  1
  Br  Br22  1  0.756182  0.511244  0.503439  1
  Br  Br23  1  0.507808  0.252743  0.996561  1
  Br  Br24  1  0.754529  0.745471  0.250000  1
  Br  Br25  1  0.745764  0.995764  0.991529  1
  Br  Br26  1  0.995471  0.504529  0.250000  1
  Br  Br27  1  0.504236  0.754236  0.508471  1
