# generated using pymatgen
data_NdTm5(Si3Ru)8
_symmetry_space_group_name_H-M   'P 1'
_cell_length_a   10.12188493
_cell_length_b   10.12188480
_cell_length_c   8.13686396
_cell_angle_alpha   89.84486853
_cell_angle_beta   90.15513149
_cell_angle_gamma   132.57424600
_symmetry_Int_Tables_number   1
_chemical_formula_structural   NdTm5(Si3Ru)8
_chemical_formula_sum   'Nd1 Tm5 Si24 Ru8'
_cell_volume   613.89269670
_cell_formula_units_Z   1
loop_
 _symmetry_equiv_pos_site_id
 _symmetry_equiv_pos_as_xyz
  1  'x, y, z'
loop_
 _atom_site_type_symbol
 _atom_site_label
 _atom_site_symmetry_multiplicity
 _atom_site_fract_x
 _atom_site_fract_y
 _atom_site_fract_z
 _atom_site_occupancy
  Nd  Nd0  1  0.997157  0.497157  0.250000  1
  Tm  Tm1  1  0.497276  0.997276  0.250000  1
  Tm  Tm2  1  0.002238  0.502238  0.750000  1
  Tm  Tm3  1  0.501446  0.001446  0.750000  1
  Tm  Tm4  1  0.499864  0.499894  0.500082  1
  Tm  Tm5  1  0.999894  0.999864  0.999918  1
  Si  Si6  1  0.388817  0.156875  0.005264  1
  Si  Si7  1  0.656875  0.888817  0.494736  1
  Si  Si8  1  0.112941  0.348040  0.508263  1
  Si  Si9  1  0.848040  0.612941  0.991737  1
  Si  Si10  1  0.610820  0.842811  0.996184  1
  Si  Si11  1  0.342811  0.110820  0.503816  1
  Si  Si12  1  0.887300  0.653307  0.498383  1
  Si  Si13  1  0.153307  0.387300  0.001617  1
  Si  Si14  1  0.610666  0.376103  0.229687  1
  Si  Si15  1  0.876103  0.110666  0.270313  1
  Si  Si16  1  0.889543  0.123016  0.727627  1
  Si  Si17  1  0.623016  0.389543  0.772373  1
  Si  Si18  1  0.386409  0.619352  0.772201  1
  Si  Si19  1  0.119352  0.886409  0.727799  1
  Si  Si20  1  0.703657  0.292993  0.997841  1
  Si  Si21  1  0.792993  0.203657  0.502159  1
  Si  Si22  1  0.295967  0.706645  0.997945  1
  Si  Si23  1  0.206645  0.795967  0.502055  1
  Si  Si24  1  0.167427  0.168117  0.332517  1
  Si  Si25  1  0.668117  0.667427  0.167483  1
  Si  Si26  1  0.332312  0.332191  0.833074  1
  Si  Si27  1  0.832191  0.832312  0.666926  1
  Si  Si28  1  0.380366  0.614719  0.228319  1
  Si  Si29  1  0.114719  0.880366  0.271681  1
  Ru  Ru30  1  0.627081  0.626396  0.873234  1
  Ru  Ru31  1  0.126396  0.127081  0.626766  1
  Ru  Ru32  1  0.874276  0.873621  0.372352  1
  Ru  Ru33  1  0.373621  0.374276  0.127648  1
  Ru  Ru34  1  0.336219  0.673841  0.502297  1
  Ru  Ru35  1  0.173841  0.836219  0.997703  1
  Ru  Ru36  1  0.664021  0.326274  0.503741  1
  Ru  Ru37  1  0.826274  0.164021  0.996259  1
