# generated using pymatgen
data_CePr4Er3(Si3Rh)4
_symmetry_space_group_name_H-M   'P 1'
_cell_length_a   8.24035100
_cell_length_b   8.24035099
_cell_length_c   8.17983300
_cell_angle_alpha   90.00000000
_cell_angle_beta   90.00000000
_cell_angle_gamma   120.00000406
_symmetry_Int_Tables_number   1
_chemical_formula_structural   CePr4Er3(Si3Rh)4
_chemical_formula_sum   'Ce1 Pr4 Er3 Si12 Rh4'
_cell_volume   481.02369767
_cell_formula_units_Z   1
loop_
 _symmetry_equiv_pos_site_id
 _symmetry_equiv_pos_as_xyz
  1  'x, y, z'
loop_
 _atom_site_type_symbol
 _atom_site_label
 _atom_site_symmetry_multiplicity
 _atom_site_fract_x
 _atom_site_fract_y
 _atom_site_fract_z
 _atom_site_occupancy
  Ce  Ce0  1  0.000000  0.000000  0.750000  1
  Pr  Pr1  1  0.000000  0.000000  0.250000  1
  Pr  Pr2  1  0.498248  0.501752  0.250000  1
  Pr  Pr3  1  0.498248  0.996495  0.250000  1
  Pr  Pr4  1  0.003505  0.501752  0.250000  1
  Er  Er5  1  0.504865  0.495135  0.750000  1
  Er  Er6  1  0.990269  0.495135  0.750000  1
  Er  Er7  1  0.504865  0.009731  0.750000  1
  Si  Si8  1  0.834044  0.165956  0.510514  1
  Si  Si9  1  0.834044  0.668089  0.510514  1
  Si  Si10  1  0.331911  0.165956  0.510514  1
  Si  Si11  1  0.834044  0.165956  0.989486  1
  Si  Si12  1  0.834044  0.668089  0.989486  1
  Si  Si13  1  0.331911  0.165956  0.989486  1
  Si  Si14  1  0.167809  0.832191  0.991865  1
  Si  Si15  1  0.664383  0.832191  0.991865  1
  Si  Si16  1  0.167809  0.335617  0.991865  1
  Si  Si17  1  0.167809  0.832191  0.508135  1
  Si  Si18  1  0.664383  0.832191  0.508135  1
  Si  Si19  1  0.167809  0.335617  0.508135  1
  Rh  Rh20  1  0.666667  0.333333  0.512443  1
  Rh  Rh21  1  0.666667  0.333333  0.987557  1
  Rh  Rh22  1  0.333333  0.666667  0.956378  1
  Rh  Rh23  1  0.333333  0.666667  0.543622  1
