# generated using pymatgen
data_Ce12Mn(Si4Ir)3
_symmetry_space_group_name_H-M   'P 1'
_cell_length_a   4.32056600
_cell_length_b   10.45447206
_cell_length_c   12.82417608
_cell_angle_alpha   90.01252407
_cell_angle_beta   90.00000000
_cell_angle_gamma   90.00000000
_symmetry_Int_Tables_number   1
_chemical_formula_structural   Ce12Mn(Si4Ir)3
_chemical_formula_sum   'Ce12 Mn1 Si12 Ir3'
_cell_volume   579.25822881
_cell_formula_units_Z   1
loop_
 _symmetry_equiv_pos_site_id
 _symmetry_equiv_pos_as_xyz
  1  'x, y, z'
loop_
 _atom_site_type_symbol
 _atom_site_label
 _atom_site_symmetry_multiplicity
 _atom_site_fract_x
 _atom_site_fract_y
 _atom_site_fract_z
 _atom_site_occupancy
  Ce  Ce0  1  0.250000  0.902141  0.027378  1
  Ce  Ce1  1  0.250000  0.594024  0.529470  1
  Ce  Ce2  1  0.750000  0.096465  0.972602  1
  Ce  Ce3  1  0.750000  0.404668  0.473582  1
  Ce  Ce4  1  0.250000  0.914669  0.594471  1
  Ce  Ce5  1  0.250000  0.585231  0.094279  1
  Ce  Ce6  1  0.750000  0.084338  0.405556  1
  Ce  Ce7  1  0.750000  0.417001  0.907240  1
  Ce  Ce8  1  0.250000  0.661110  0.805751  1
  Ce  Ce9  1  0.250000  0.836079  0.306565  1
  Ce  Ce10  1  0.750000  0.337736  0.193537  1
  Ce  Ce11  1  0.750000  0.163888  0.693356  1
  Mn  Mn12  1  0.250000  0.381207  0.686669  1
  Si  Si13  1  0.250000  0.997773  0.810773  1
  Si  Si14  1  0.250000  0.503506  0.311398  1
  Si  Si15  1  0.750000  0.002812  0.189180  1
  Si  Si16  1  0.750000  0.497303  0.689567  1
  Si  Si17  1  0.250000  0.238633  0.842808  1
  Si  Si18  1  0.250000  0.263880  0.343041  1
  Si  Si19  1  0.750000  0.764349  0.156719  1
  Si  Si20  1  0.750000  0.736624  0.656661  1
  Si  Si21  1  0.250000  0.216067  0.539698  1
  Si  Si22  1  0.250000  0.282642  0.040090  1
  Si  Si23  1  0.750000  0.782841  0.459545  1
  Si  Si24  1  0.750000  0.716538  0.958850  1
  Ir  Ir25  1  0.250000  0.118126  0.187810  1
  Ir  Ir26  1  0.750000  0.618776  0.311020  1
  Ir  Ir27  1  0.750000  0.881571  0.812384  1
