# generated using pymatgen
data_Tm2LuGa5
_symmetry_space_group_name_H-M   'P 1'
_cell_length_a   6.04389000
_cell_length_b   9.57689400
_cell_length_c   11.27029200
_cell_angle_alpha   90.00000000
_cell_angle_beta   90.00000000
_cell_angle_gamma   90.00000000
_symmetry_Int_Tables_number   1
_chemical_formula_structural   Tm2LuGa5
_chemical_formula_sum   'Tm8 Lu4 Ga20'
_cell_volume   652.34359146
_cell_formula_units_Z   4
loop_
 _symmetry_equiv_pos_site_id
 _symmetry_equiv_pos_as_xyz
  1  'x, y, z'
loop_
 _atom_site_type_symbol
 _atom_site_label
 _atom_site_symmetry_multiplicity
 _atom_site_fract_x
 _atom_site_fract_y
 _atom_site_fract_z
 _atom_site_occupancy
  Tm  Tm0  1  0.889613  0.511215  0.352730  1
  Tm  Tm1  1  0.610387  0.988785  0.852730  1
  Tm  Tm2  1  0.110387  0.011215  0.647270  1
  Tm  Tm3  1  0.389613  0.488785  0.147270  1
  Tm  Tm4  1  0.110387  0.488785  0.647270  1
  Tm  Tm5  1  0.389613  0.011215  0.147270  1
  Tm  Tm6  1  0.889613  0.988785  0.352730  1
  Tm  Tm7  1  0.610387  0.511215  0.852730  1
  Lu  Lu8  1  0.848345  0.750000  0.072777  1
  Lu  Lu9  1  0.651655  0.750000  0.572777  1
  Lu  Lu10  1  0.151655  0.250000  0.927223  1
  Lu  Lu11  1  0.348345  0.250000  0.427223  1
  Ga  Ga12  1  0.873160  0.051107  0.090994  1
  Ga  Ga13  1  0.626840  0.448893  0.590994  1
  Ga  Ga14  1  0.126840  0.551107  0.909006  1
  Ga  Ga15  1  0.373160  0.948893  0.409006  1
  Ga  Ga16  1  0.126840  0.948893  0.909006  1
  Ga  Ga17  1  0.373160  0.551107  0.409006  1
  Ga  Ga18  1  0.873160  0.448893  0.090994  1
  Ga  Ga19  1  0.626840  0.051107  0.590994  1
  Ga  Ga20  1  0.175236  0.750000  0.249986  1
  Ga  Ga21  1  0.324764  0.750000  0.749986  1
  Ga  Ga22  1  0.824764  0.250000  0.750014  1
  Ga  Ga23  1  0.675236  0.250000  0.250014  1
  Ga  Ga24  1  0.373367  0.750000  0.007294  1
  Ga  Ga25  1  0.126633  0.750000  0.507294  1
  Ga  Ga26  1  0.626633  0.250000  0.992706  1
  Ga  Ga27  1  0.873367  0.250000  0.492706  1
  Ga  Ga28  1  0.606197  0.750000  0.298958  1
  Ga  Ga29  1  0.893803  0.750000  0.798958  1
  Ga  Ga30  1  0.393803  0.250000  0.701042  1
  Ga  Ga31  1  0.106197  0.250000  0.201042  1
