# generated using pymatgen
data_Tb2Y6Tc3B24Ru
_symmetry_space_group_name_H-M   'P 1'
_cell_length_a   3.68743300
_cell_length_b   9.17491922
_cell_length_c   11.56641706
_cell_angle_alpha   89.92889733
_cell_angle_beta   90.00000000
_cell_angle_gamma   90.00000000
_symmetry_Int_Tables_number   1
_chemical_formula_structural   Tb2Y6Tc3B24Ru
_chemical_formula_sum   'Tb2 Y6 Tc3 B24 Ru1'
_cell_volume   391.31356283
_cell_formula_units_Z   1
loop_
 _symmetry_equiv_pos_site_id
 _symmetry_equiv_pos_as_xyz
  1  'x, y, z'
loop_
 _atom_site_type_symbol
 _atom_site_label
 _atom_site_symmetry_multiplicity
 _atom_site_fract_x
 _atom_site_fract_y
 _atom_site_fract_z
 _atom_site_occupancy
  Tb  Tb0  1  0.000000  0.323726  0.414005  1
  Tb  Tb1  1  0.000000  0.674962  0.584217  1
  Y  Y2  1  0.000000  0.823187  0.087191  1
  Y  Y3  1  0.000000  0.177893  0.914539  1
  Y  Y4  1  0.000000  0.942555  0.370277  1
  Y  Y5  1  0.000000  0.057939  0.630656  1
  Y  Y6  1  0.000000  0.442941  0.129845  1
  Y  Y7  1  0.000000  0.557800  0.869246  1
  Tc  Tc8  1  0.000000  0.638275  0.320565  1
  Tc  Tc9  1  0.000000  0.361704  0.679950  1
  Tc  Tc10  1  0.000000  0.137821  0.178202  1
  B  B11  1  0.500000  0.553075  0.432549  1
  B  B12  1  0.500000  0.446508  0.567090  1
  B  B13  1  0.500000  0.053080  0.067005  1
  B  B14  1  0.500000  0.946139  0.932672  1
  B  B15  1  0.500000  0.748058  0.418450  1
  B  B16  1  0.500000  0.251333  0.581756  1
  B  B17  1  0.500000  0.248682  0.081424  1
  B  B18  1  0.500000  0.751998  0.918268  1
  B  B19  1  0.500000  0.791426  0.265574  1
  B  B20  1  0.500000  0.208964  0.735098  1
  B  B21  1  0.500000  0.291304  0.234493  1
  B  B22  1  0.500000  0.709757  0.765361  1
  B  B23  1  0.500000  0.631183  0.185749  1
  B  B24  1  0.500000  0.368963  0.814609  1
  B  B25  1  0.500000  0.130608  0.313811  1
  B  B26  1  0.500000  0.868760  0.686080  1
  B  B27  1  0.500000  0.982021  0.211699  1
  B  B28  1  0.500000  0.016491  0.788546  1
  B  B29  1  0.500000  0.482418  0.287987  1
  B  B30  1  0.500000  0.517269  0.711541  1
  B  B31  1  0.500000  0.602840  0.028276  1
  B  B32  1  0.500000  0.398845  0.971367  1
  B  B33  1  0.500000  0.101892  0.471930  1
  B  B34  1  0.500000  0.897795  0.528912  1
  Ru  Ru35  1  0.000000  0.861785  0.821064  1
