# generated using pymatgen
data_Er5In4CuPt
_symmetry_space_group_name_H-M   'P 1'
_cell_length_a   3.60384800
_cell_length_b   8.05577326
_cell_length_c   18.04969602
_cell_angle_alpha   90.08560396
_cell_angle_beta   90.00000000
_cell_angle_gamma   90.00000000
_symmetry_Int_Tables_number   1
_chemical_formula_structural   Er5In4CuPt
_chemical_formula_sum   'Er10 In8 Cu2 Pt2'
_cell_volume   524.01426118
_cell_formula_units_Z   2
loop_
 _symmetry_equiv_pos_site_id
 _symmetry_equiv_pos_as_xyz
  1  'x, y, z'
loop_
 _atom_site_type_symbol
 _atom_site_label
 _atom_site_symmetry_multiplicity
 _atom_site_fract_x
 _atom_site_fract_y
 _atom_site_fract_z
 _atom_site_occupancy
  Er  Er0  1  0.000000  0.117400  0.415057  1
  Er  Er1  1  0.000000  0.882600  0.584943  1
  Er  Er2  1  0.000000  0.383436  0.915416  1
  Er  Er3  1  0.000000  0.616564  0.084584  1
  Er  Er4  1  0.000000  0.245649  0.219730  1
  Er  Er5  1  0.000000  0.754351  0.780270  1
  Er  Er6  1  0.000000  0.259531  0.720375  1
  Er  Er7  1  0.000000  0.740469  0.279625  1
  Er  Er8  1  0.000000  0.000000  0.000000  1
  Er  Er9  1  0.000000  0.500000  0.500000  1
  In  In10  1  0.500000  0.421980  0.352018  1
  In  In11  1  0.500000  0.578020  0.647982  1
  In  In12  1  0.500000  0.074772  0.849811  1
  In  In13  1  0.500000  0.925228  0.150189  1
  In  In14  1  0.500000  0.291884  0.066407  1
  In  In15  1  0.500000  0.708116  0.933593  1
  In  In16  1  0.500000  0.207040  0.567582  1
  In  In17  1  0.500000  0.792960  0.432418  1
  Cu  Cu18  1  0.500000  0.025947  0.302131  1
  Cu  Cu19  1  0.500000  0.974053  0.697869  1
  Pt  Pt20  1  0.500000  0.473642  0.802397  1
  Pt  Pt21  1  0.500000  0.526358  0.197603  1
