# generated using pymatgen
data_La2H12Ir2Pd
_symmetry_space_group_name_H-M   'P 1'
_cell_length_a   4.91224200
_cell_length_b   4.91224169
_cell_length_c   8.21451000
_cell_angle_alpha   90.00000000
_cell_angle_beta   90.00000000
_cell_angle_gamma   120.00000211
_symmetry_Int_Tables_number   1
_chemical_formula_structural   La2H12Ir2Pd
_chemical_formula_sum   'La2 H12 Ir2 Pd1'
_cell_volume   171.66105034
_cell_formula_units_Z   1
loop_
 _symmetry_equiv_pos_site_id
 _symmetry_equiv_pos_as_xyz
  1  'x, y, z'
loop_
 _atom_site_type_symbol
 _atom_site_label
 _atom_site_symmetry_multiplicity
 _atom_site_fract_x
 _atom_site_fract_y
 _atom_site_fract_z
 _atom_site_occupancy
  La  La0  1  0.000000  0.000000  0.060136  1
  La  La1  1  0.333333  0.666667  0.605917  1
  H  H2  1  0.165948  0.834052  0.348147  1
  H  H3  1  0.668102  0.834052  0.348147  1
  H  H4  1  0.165948  0.331898  0.348147  1
  H  H5  1  0.831408  0.168592  0.642375  1
  H  H6  1  0.337185  0.168592  0.642375  1
  H  H7  1  0.831408  0.662815  0.642375  1
  H  H8  1  0.506596  0.013192  0.875550  1
  H  H9  1  0.506596  0.493404  0.875550  1
  H  H10  1  0.986808  0.493404  0.875550  1
  H  H11  1  0.499706  0.999413  0.125495  1
  H  H12  1  0.499706  0.500294  0.125495  1
  H  H13  1  0.000587  0.500294  0.125495  1
  Ir  Ir14  1  0.666667  0.333333  0.756435  1
  Ir  Ir15  1  0.333333  0.666667  0.235475  1
  Pd  Pd16  1  0.666667  0.333333  0.367335  1
