# generated using pymatgen
data_YbY5In3
_symmetry_space_group_name_H-M   'P 1'
_cell_length_a   9.35712901
_cell_length_b   9.35712884
_cell_length_c   6.78663000
_cell_angle_alpha   90.00000000
_cell_angle_beta   90.00000000
_cell_angle_gamma   120.00414886
_symmetry_Int_Tables_number   1
_chemical_formula_structural   YbY5In3
_chemical_formula_sum   'Yb2 Y10 In6'
_cell_volume   514.57878012
_cell_formula_units_Z   2
loop_
 _symmetry_equiv_pos_site_id
 _symmetry_equiv_pos_as_xyz
  1  'x, y, z'
loop_
 _atom_site_type_symbol
 _atom_site_label
 _atom_site_symmetry_multiplicity
 _atom_site_fract_x
 _atom_site_fract_y
 _atom_site_fract_z
 _atom_site_occupancy
  Yb  Yb0  1  0.000011  0.000011  0.000000  1
  Yb  Yb1  1  0.999990  0.999989  0.500001  1
  Y  Y2  1  0.666672  0.333333  0.999998  1
  Y  Y3  1  0.333333  0.666673  0.999998  1
  Y  Y4  1  0.667417  0.667417  0.249995  1
  Y  Y5  1  0.332595  0.000002  0.250003  1
  Y  Y6  1  0.000001  0.332595  0.250003  1
  Y  Y7  1  0.666666  0.333327  0.499999  1
  Y  Y8  1  0.333328  0.666667  0.499999  1
  Y  Y9  1  0.332583  0.332583  0.749994  1
  Y  Y10  1  0.667406  0.999999  0.750004  1
  Y  Y11  1  0.999998  0.667405  0.750004  1
  In  In12  1  0.665465  0.999968  0.250001  1
  In  In13  1  0.999969  0.665466  0.250001  1
  In  In14  1  0.334520  0.334520  0.249999  1
  In  In15  1  0.334535  0.000032  0.750000  1
  In  In16  1  0.000032  0.334534  0.750000  1
  In  In17  1  0.665480  0.665480  0.750000  1
