# generated using pymatgen
data_Pa8TaTi10Si16Ir
_symmetry_space_group_name_H-M   'P 1'
_cell_length_a   7.02675024
_cell_length_b   7.02675091
_cell_length_c   12.94010880
_cell_angle_alpha   89.72545741
_cell_angle_beta   90.27454361
_cell_angle_gamma   89.85170847
_symmetry_Int_Tables_number   1
_chemical_formula_structural   Pa8TaTi10Si16Ir
_chemical_formula_sum   'Pa8 Ta1 Ti10 Si16 Ir1'
_cell_volume   638.90391840
_cell_formula_units_Z   1
loop_
 _symmetry_equiv_pos_site_id
 _symmetry_equiv_pos_as_xyz
  1  'x, y, z'
loop_
 _atom_site_type_symbol
 _atom_site_label
 _atom_site_symmetry_multiplicity
 _atom_site_fract_x
 _atom_site_fract_y
 _atom_site_fract_z
 _atom_site_occupancy
  Pa  Pa0  1  0.996446  0.664921  0.031522  1
  Pa  Pa1  1  0.001686  0.338051  0.532259  1
  Pa  Pa2  1  0.664921  0.996446  0.968478  1
  Pa  Pa3  1  0.164242  0.503579  0.778675  1
  Pa  Pa4  1  0.836874  0.497408  0.283441  1
  Pa  Pa5  1  0.503579  0.164242  0.221325  1
  Pa  Pa6  1  0.497408  0.836874  0.716559  1
  Pa  Pa7  1  0.338051  0.001686  0.467741  1
  Ta  Ta8  1  0.331241  0.331241  0.000000  1
  Ti  Ti9  1  0.339999  0.497016  0.375652  1
  Ti  Ti10  1  0.843359  0.999526  0.377201  1
  Ti  Ti11  1  0.001990  0.156900  0.124180  1
  Ti  Ti12  1  0.999526  0.843359  0.622799  1
  Ti  Ti13  1  0.497016  0.339999  0.624348  1
  Ti  Ti14  1  0.156900  0.001990  0.875820  1
  Ti  Ti15  1  0.829001  0.170158  0.748104  1
  Ti  Ti16  1  0.170158  0.829001  0.251896  1
  Ti  Ti17  1  0.500587  0.655780  0.126298  1
  Ti  Ti18  1  0.655780  0.500587  0.873702  1
  Si  Si19  1  0.045453  0.711452  0.435241  1
  Si  Si20  1  0.958602  0.291712  0.932969  1
  Si  Si21  1  0.711452  0.045453  0.564759  1
  Si  Si22  1  0.208924  0.460272  0.185921  1
  Si  Si23  1  0.786725  0.543403  0.681200  1
  Si  Si24  1  0.460272  0.208924  0.814079  1
  Si  Si25  1  0.543403  0.786725  0.318800  1
  Si  Si26  1  0.291712  0.958602  0.067031  1
  Si  Si27  1  0.798021  0.872482  0.185795  1
  Si  Si28  1  0.293386  0.625358  0.565254  1
  Si  Si29  1  0.705128  0.372081  0.067217  1
  Si  Si30  1  0.625358  0.293386  0.434746  1
  Si  Si31  1  0.372081  0.705128  0.932783  1
  Si  Si32  1  0.125394  0.203106  0.316120  1
  Si  Si33  1  0.203106  0.125394  0.683880  1
  Si  Si34  1  0.872482  0.798021  0.814205  1
  Ir  Ir35  1  0.669737  0.669737  0.500000  1
