# generated using pymatgen
data_Zr6FeAs5Ru6
_symmetry_space_group_name_H-M   'P 1'
_cell_length_a   7.71183803
_cell_length_b   7.71238559
_cell_length_c   7.71183860
_cell_angle_alpha   128.75617117
_cell_angle_beta   119.29579271
_cell_angle_gamma   83.37548998
_symmetry_Int_Tables_number   1
_chemical_formula_structural   Zr6FeAs5Ru6
_chemical_formula_sum   'Zr6 Fe1 As5 Ru6'
_cell_volume   299.38777743
_cell_formula_units_Z   1
loop_
 _symmetry_equiv_pos_site_id
 _symmetry_equiv_pos_as_xyz
  1  'x, y, z'
loop_
 _atom_site_type_symbol
 _atom_site_label
 _atom_site_symmetry_multiplicity
 _atom_site_fract_x
 _atom_site_fract_y
 _atom_site_fract_z
 _atom_site_occupancy
  Zr  Zr0  1  0.439390  0.636318  0.696927  1
  Zr  Zr1  1  0.537661  0.250475  0.212815  1
  Zr  Zr2  1  0.750028  0.841230  0.591203  1
  Zr  Zr3  1  0.250166  0.865251  0.115085  1
  Zr  Zr4  1  0.060588  0.257598  0.697010  1
  Zr  Zr5  1  0.962055  0.674269  0.212214  1
  Fe  Fe6  1  0.250013  0.251665  0.501654  1
  As  As7  1  0.749723  0.256942  0.007218  1
  As  As8  1  0.333995  0.586361  0.253627  1
  As  As9  1  0.667596  0.919638  0.253687  1
  As  As10  1  0.165952  0.919638  0.752042  1
  As  As11  1  0.832734  0.586361  0.752366  1
  Ru  Ru12  1  0.505408  0.491642  0.997015  1
  Ru  Ru13  1  0.994628  0.491642  0.486234  1
  Ru  Ru14  1  0.115046  0.252270  0.128059  1
  Ru  Ru15  1  0.876100  0.013014  0.128305  1
  Ru  Ru16  1  0.384709  0.013014  0.636915  1
  Ru  Ru17  1  0.624210  0.252270  0.637224  1
