# generated using pymatgen
data_Th2Fe9Mo3P7
_symmetry_space_group_name_H-M   'P 1'
_cell_length_a   9.20777100
_cell_length_b   9.20777196
_cell_length_c   3.76904500
_cell_angle_alpha   90.00000000
_cell_angle_beta   90.00000000
_cell_angle_gamma   119.99999294
_symmetry_Int_Tables_number   1
_chemical_formula_structural   Th2Fe9Mo3P7
_chemical_formula_sum   'Th2 Fe9 Mo3 P7'
_cell_volume   276.73943515
_cell_formula_units_Z   1
loop_
 _symmetry_equiv_pos_site_id
 _symmetry_equiv_pos_as_xyz
  1  'x, y, z'
loop_
 _atom_site_type_symbol
 _atom_site_label
 _atom_site_symmetry_multiplicity
 _atom_site_fract_x
 _atom_site_fract_y
 _atom_site_fract_z
 _atom_site_occupancy
  Th  Th0  1  0.333333  0.666667  0.000000  1
  Th  Th1  1  0.000000  0.000000  0.500000  1
  Fe  Fe2  1  0.037986  0.274338  0.000000  1
  Fe  Fe3  1  0.725662  0.763647  0.000000  1
  Fe  Fe4  1  0.236353  0.962014  0.000000  1
  Fe  Fe5  1  0.543155  0.057384  0.000000  1
  Fe  Fe6  1  0.942616  0.485771  0.000000  1
  Fe  Fe7  1  0.514229  0.456845  0.000000  1
  Fe  Fe8  1  0.614312  0.894802  0.500000  1
  Fe  Fe9  1  0.105198  0.719509  0.500000  1
  Fe  Fe10  1  0.280491  0.385688  0.500000  1
  Mo  Mo11  1  0.780350  0.228378  0.500000  1
  Mo  Mo12  1  0.771622  0.551972  0.500000  1
  Mo  Mo13  1  0.448028  0.219650  0.500000  1
  P  P14  1  0.767369  0.027903  0.000000  1
  P  P15  1  0.972097  0.739467  0.000000  1
  P  P16  1  0.260533  0.232631  0.000000  1
  P  P17  1  0.377940  0.932552  0.500000  1
  P  P18  1  0.067448  0.445387  0.500000  1
  P  P19  1  0.554613  0.622060  0.500000  1
  P  P20  1  0.666667  0.333333  0.000000  1
