# generated using pymatgen
data_Li7Ac8CdSn8
_symmetry_space_group_name_H-M   'P 1'
_cell_length_a   9.93276290
_cell_length_b   9.93276252
_cell_length_c   8.27885417
_cell_angle_alpha   89.95453469
_cell_angle_beta   90.04546495
_cell_angle_gamma   120.02671790
_symmetry_Int_Tables_number   1
_chemical_formula_structural   Li7Ac8CdSn8
_chemical_formula_sum   'Li7 Ac8 Cd1 Sn8'
_cell_volume   707.16997956
_cell_formula_units_Z   1
loop_
 _symmetry_equiv_pos_site_id
 _symmetry_equiv_pos_as_xyz
  1  'x, y, z'
loop_
 _atom_site_type_symbol
 _atom_site_label
 _atom_site_symmetry_multiplicity
 _atom_site_fract_x
 _atom_site_fract_y
 _atom_site_fract_z
 _atom_site_occupancy
  Li  Li0  1  0.834350  0.666497  0.714399  1
  Li  Li1  1  0.333503  0.165650  0.714399  1
  Li  Li2  1  0.167268  0.832732  0.211154  1
  Li  Li3  1  0.167431  0.334322  0.214146  1
  Li  Li4  1  0.665678  0.832569  0.214146  1
  Li  Li5  1  0.666519  0.333481  0.326290  1
  Li  Li6  1  0.331803  0.668197  0.828786  1
  Ac  Ac7  1  0.487881  0.512119  0.501357  1
  Ac  Ac8  1  0.484005  0.973760  0.502607  1
  Ac  Ac9  1  0.026240  0.515995  0.502607  1
  Ac  Ac10  1  0.511841  0.488159  0.008920  1
  Ac  Ac11  1  0.511884  0.024456  0.005736  1
  Ac  Ac12  1  0.975544  0.488116  0.005736  1
  Ac  Ac13  1  0.003009  0.996991  0.498641  1
  Ac  Ac14  1  0.999901  0.000099  0.001869  1
  Cd  Cd15  1  0.833124  0.166876  0.710038  1
  Sn  Sn16  1  0.833711  0.166289  0.274230  1
  Sn  Sn17  1  0.833548  0.666198  0.271292  1
  Sn  Sn18  1  0.333802  0.166452  0.271292  1
  Sn  Sn19  1  0.166519  0.833481  0.772252  1
  Sn  Sn20  1  0.173581  0.336938  0.774847  1
  Sn  Sn21  1  0.663062  0.826419  0.774847  1
  Sn  Sn22  1  0.662662  0.337338  0.730250  1
  Sn  Sn23  1  0.333132  0.666868  0.228166  1
