# generated using pymatgen
data_Tm3Sc3Si2Ru
_symmetry_space_group_name_H-M   'P 1'
_cell_length_a   7.35638500
_cell_length_b   7.35638363
_cell_length_c   4.21504500
_cell_angle_alpha   90.00000000
_cell_angle_beta   90.00000000
_cell_angle_gamma   120.00000165
_symmetry_Int_Tables_number   1
_chemical_formula_structural   Tm3Sc3Si2Ru
_chemical_formula_sum   'Tm3 Sc3 Si2 Ru1'
_cell_volume   197.54300669
_cell_formula_units_Z   1
loop_
 _symmetry_equiv_pos_site_id
 _symmetry_equiv_pos_as_xyz
  1  'x, y, z'
loop_
 _atom_site_type_symbol
 _atom_site_label
 _atom_site_symmetry_multiplicity
 _atom_site_fract_x
 _atom_site_fract_y
 _atom_site_fract_z
 _atom_site_occupancy
  Tm  Tm0  1  0.416875  0.000000  0.000000  1
  Tm  Tm1  1  0.000000  0.416875  0.000000  1
  Tm  Tm2  1  0.583126  0.583125  0.000000  1
  Sc  Sc3  1  0.757886  0.000000  0.499999  1
  Sc  Sc4  1  0.242114  0.242114  0.499999  1
  Sc  Sc5  1  0.000000  0.757886  0.499999  1
  Si  Si6  1  0.666667  0.333334  0.499999  1
  Si  Si7  1  0.333333  0.666666  0.499999  1
  Ru  Ru8  1  0.000000  0.000000  0.000000  1
