# generated using pymatgen
data_AcEu2(AgSn)4
_symmetry_space_group_name_H-M   'P 1'
_cell_length_a   4.81517958
_cell_length_b   7.64175828
_cell_length_c   9.07640374
_cell_angle_alpha   114.89573691
_cell_angle_beta   105.38229304
_cell_angle_gamma   90.00000669
_symmetry_Int_Tables_number   1
_chemical_formula_structural   AcEu2(AgSn)4
_chemical_formula_sum   'Ac1 Eu2 Ag4 Sn4'
_cell_volume   289.70156441
_cell_formula_units_Z   1
loop_
 _symmetry_equiv_pos_site_id
 _symmetry_equiv_pos_as_xyz
  1  'x, y, z'
loop_
 _atom_site_type_symbol
 _atom_site_label
 _atom_site_symmetry_multiplicity
 _atom_site_fract_x
 _atom_site_fract_y
 _atom_site_fract_z
 _atom_site_occupancy
  Ac  Ac0  1  0.000000  0.000000  0.000000  1
  Eu  Eu1  1  0.871735  0.371735  0.743469  1
  Eu  Eu2  1  0.128265  0.628265  0.256531  1
  Ag  Ag3  1  0.329711  0.021150  0.659422  1
  Ag  Ag4  1  0.670289  0.978850  0.340578  1
  Ag  Ag5  1  0.329711  0.638272  0.659422  1
  Ag  Ag6  1  0.670289  0.361728  0.340578  1
  Sn  Sn7  1  0.219491  0.219491  0.438982  1
  Sn  Sn8  1  0.780509  0.780509  0.561018  1
  Sn  Sn9  1  0.500000  0.312241  0.000000  1
  Sn  Sn10  1  0.500000  0.687759  0.000000  1
