# generated using pymatgen
data_HgBi3Ru3PtO14
_symmetry_space_group_name_H-M   'P 1'
_cell_length_a   7.26367090
_cell_length_b   7.26367170
_cell_length_c   7.26367131
_cell_angle_alpha   61.67821477
_cell_angle_beta   61.67820932
_cell_angle_gamma   61.67821207
_symmetry_Int_Tables_number   1
_chemical_formula_structural   HgBi3Ru3PtO14
_chemical_formula_sum   'Hg1 Bi3 Ru3 Pt1 O14'
_cell_volume   281.18598156
_cell_formula_units_Z   1
loop_
 _symmetry_equiv_pos_site_id
 _symmetry_equiv_pos_as_xyz
  1  'x, y, z'
loop_
 _atom_site_type_symbol
 _atom_site_label
 _atom_site_symmetry_multiplicity
 _atom_site_fract_x
 _atom_site_fract_y
 _atom_site_fract_z
 _atom_site_occupancy
  Hg  Hg0  1  0.125000  0.125000  0.125000  1
  Bi  Bi1  1  0.125000  0.125000  0.625000  1
  Bi  Bi2  1  0.125000  0.625000  0.125000  1
  Bi  Bi3  1  0.625000  0.125000  0.125000  1
  Ru  Ru4  1  0.625000  0.625000  0.125000  1
  Ru  Ru5  1  0.625000  0.125000  0.625000  1
  Ru  Ru6  1  0.125000  0.625000  0.625000  1
  Pt  Pt7  1  0.625000  0.625000  0.625000  1
  O  O8  1  0.244453  0.244453  0.244453  1
  O  O9  1  0.005547  0.005547  0.005547  1
  O  O10  1  0.539918  0.959098  0.539918  1
  O  O11  1  0.306366  0.686866  0.306366  1
  O  O12  1  0.539918  0.539918  0.959098  1
  O  O13  1  0.959098  0.539918  0.539918  1
  O  O14  1  0.563134  0.943634  0.943634  1
  O  O15  1  0.943634  0.943634  0.563134  1
  O  O16  1  0.943634  0.563134  0.943634  1
  O  O17  1  0.686866  0.306366  0.306366  1
  O  O18  1  0.290902  0.710082  0.710082  1
  O  O19  1  0.710082  0.290902  0.710082  1
  O  O20  1  0.306366  0.306366  0.686866  1
  O  O21  1  0.710082  0.710082  0.290902  1
