# generated using pymatgen
data_Sr5Pr3(In4Au3)4
_symmetry_space_group_name_H-M   'P 1'
_cell_length_a   15.44217100
_cell_length_b   15.44217092
_cell_length_c   4.45576500
_cell_angle_alpha   90.00000000
_cell_angle_beta   90.00000000
_cell_angle_gamma   120.00000230
_symmetry_Int_Tables_number   1
_chemical_formula_structural   Sr5Pr3(In4Au3)4
_chemical_formula_sum   'Sr5 Pr3 In16 Au12'
_cell_volume   920.17326707
_cell_formula_units_Z   1
loop_
 _symmetry_equiv_pos_site_id
 _symmetry_equiv_pos_as_xyz
  1  'x, y, z'
loop_
 _atom_site_type_symbol
 _atom_site_label
 _atom_site_symmetry_multiplicity
 _atom_site_fract_x
 _atom_site_fract_y
 _atom_site_fract_z
 _atom_site_occupancy
  Sr  Sr0  1  0.333333  0.666667  0.000000  1
  Sr  Sr1  1  0.666667  0.333333  0.000000  1
  Sr  Sr2  1  0.815728  0.000000  0.500000  1
  Sr  Sr3  1  0.000000  0.815728  0.500000  1
  Sr  Sr4  1  0.184272  0.184272  0.500000  1
  Pr  Pr5  1  0.449484  0.000000  0.000000  1
  Pr  Pr6  1  0.000000  0.449484  0.000000  1
  Pr  Pr7  1  0.550516  0.550516  0.000000  1
  In  In8  1  0.181007  0.373721  0.000000  1
  In  In9  1  0.626279  0.807287  0.000000  1
  In  In10  1  0.373721  0.181007  0.000000  1
  In  In11  1  0.192713  0.818993  0.000000  1
  In  In12  1  0.807287  0.626279  0.000000  1
  In  In13  1  0.818993  0.192713  0.000000  1
  In  In14  1  0.285719  0.000000  0.500000  1
  In  In15  1  0.000000  0.285719  0.500000  1
  In  In16  1  0.714281  0.714281  0.500000  1
  In  In17  1  0.351709  0.477837  0.500000  1
  In  In18  1  0.522163  0.873872  0.500000  1
  In  In19  1  0.477837  0.351709  0.500000  1
  In  In20  1  0.126128  0.648291  0.500000  1
  In  In21  1  0.873872  0.522163  0.500000  1
  In  In22  1  0.648291  0.126128  0.500000  1
  In  In23  1  0.000000  0.000000  0.000000  1
  Au  Au24  1  0.171080  0.490613  0.500000  1
  Au  Au25  1  0.509387  0.680467  0.500000  1
  Au  Au26  1  0.490613  0.171080  0.500000  1
  Au  Au27  1  0.319533  0.828920  0.500000  1
  Au  Au28  1  0.680467  0.509387  0.500000  1
  Au  Au29  1  0.828920  0.319533  0.500000  1
  Au  Au30  1  0.175107  0.000000  0.000000  1
  Au  Au31  1  0.000000  0.175107  0.000000  1
  Au  Au32  1  0.824893  0.824893  0.000000  1
  Au  Au33  1  0.651797  0.000000  0.000000  1
  Au  Au34  1  0.000000  0.651797  0.000000  1
  Au  Au35  1  0.348203  0.348203  0.000000  1
