# generated using pymatgen
data_LaPa3(ZnIr)4
_symmetry_space_group_name_H-M   'P 1'
_cell_length_a   3.87994400
_cell_length_b   7.42294800
_cell_length_c   16.57376300
_cell_angle_alpha   90.00000000
_cell_angle_beta   90.00000000
_cell_angle_gamma   90.00000000
_symmetry_Int_Tables_number   1
_chemical_formula_structural   LaPa3(ZnIr)4
_chemical_formula_sum   'La2 Pa6 Zn8 Ir8'
_cell_volume   477.33469248
_cell_formula_units_Z   2
loop_
 _symmetry_equiv_pos_site_id
 _symmetry_equiv_pos_as_xyz
  1  'x, y, z'
loop_
 _atom_site_type_symbol
 _atom_site_label
 _atom_site_symmetry_multiplicity
 _atom_site_fract_x
 _atom_site_fract_y
 _atom_site_fract_z
 _atom_site_occupancy
  La  La0  1  0.750000  0.444093  0.213388  1
  La  La1  1  0.750000  0.944093  0.286612  1
  Pa  Pa2  1  0.750000  0.325728  0.443949  1
  Pa  Pa3  1  0.250000  0.061105  0.715885  1
  Pa  Pa4  1  0.250000  0.561105  0.784115  1
  Pa  Pa5  1  0.250000  0.667150  0.563896  1
  Pa  Pa6  1  0.750000  0.825728  0.056051  1
  Pa  Pa7  1  0.250000  0.167150  0.936104  1
  Zn  Zn8  1  0.250000  0.111510  0.148751  1
  Zn  Zn9  1  0.250000  0.990832  0.445936  1
  Zn  Zn10  1  0.750000  0.889076  0.843191  1
  Zn  Zn11  1  0.750000  0.004461  0.564704  1
  Zn  Zn12  1  0.250000  0.490832  0.054064  1
  Zn  Zn13  1  0.750000  0.389076  0.656809  1
  Zn  Zn14  1  0.750000  0.504461  0.935296  1
  Zn  Zn15  1  0.250000  0.611510  0.351249  1
  Ir  Ir16  1  0.750000  0.260014  0.811901  1
  Ir  Ir17  1  0.250000  0.254843  0.330594  1
  Ir  Ir18  1  0.250000  0.762307  0.936636  1
  Ir  Ir19  1  0.250000  0.262307  0.563364  1
  Ir  Ir20  1  0.250000  0.754843  0.169406  1
  Ir  Ir21  1  0.750000  0.728882  0.449177  1
  Ir  Ir22  1  0.750000  0.228882  0.050823  1
  Ir  Ir23  1  0.750000  0.760014  0.688099  1
