# generated using pymatgen
data_Dy4Ho2Al16Os7
_symmetry_space_group_name_H-M   'P 1'
_cell_length_a   8.95397152
_cell_length_b   8.95045598
_cell_length_c   8.95045444
_cell_angle_alpha   60.01450827
_cell_angle_beta   59.98677803
_cell_angle_gamma   59.98677329
_symmetry_Int_Tables_number   1
_chemical_formula_structural   Dy4Ho2Al16Os7
_chemical_formula_sum   'Dy4 Ho2 Al16 Os7'
_cell_volume   507.16782868
_cell_formula_units_Z   1
loop_
 _symmetry_equiv_pos_site_id
 _symmetry_equiv_pos_as_xyz
  1  'x, y, z'
loop_
 _atom_site_type_symbol
 _atom_site_label
 _atom_site_symmetry_multiplicity
 _atom_site_fract_x
 _atom_site_fract_y
 _atom_site_fract_z
 _atom_site_occupancy
  Dy  Dy0  1  0.211760  0.788283  0.788283  1
  Dy  Dy1  1  0.788329  0.211717  0.211717  1
  Dy  Dy2  1  0.788196  0.211825  0.788174  1
  Dy  Dy3  1  0.788196  0.788174  0.211825  1
  Ho  Ho4  1  0.211939  0.788152  0.211848  1
  Ho  Ho5  1  0.211939  0.211848  0.788152  1
  Al  Al6  1  0.832294  0.832292  0.832292  1
  Al  Al7  1  0.832468  0.832305  0.502992  1
  Al  Al8  1  0.502780  0.832484  0.832484  1
  Al  Al9  1  0.832468  0.502992  0.832305  1
  Al  Al10  1  0.167746  0.167516  0.167516  1
  Al  Al11  1  0.167762  0.167696  0.497008  1
  Al  Al12  1  0.167762  0.497008  0.167696  1
  Al  Al13  1  0.496876  0.167708  0.167708  1
  Al  Al14  1  0.620791  0.620846  0.620846  1
  Al  Al15  1  0.620633  0.620896  0.137552  1
  Al  Al16  1  0.137595  0.620725  0.620725  1
  Al  Al17  1  0.620633  0.137552  0.620896  1
  Al  Al18  1  0.379044  0.379275  0.379275  1
  Al  Al19  1  0.379080  0.379104  0.862448  1
  Al  Al20  1  0.379080  0.862448  0.379104  1
  Al  Al21  1  0.862483  0.379154  0.379154  1
  Os  Os22  1  0.499945  0.500000  0.500000  1
  Os  Os23  1  0.000311  0.500000  0.500000  1
  Os  Os24  1  0.499749  0.000000  0.000000  1
  Os  Os25  1  0.499893  0.000140  0.500144  1
  Os  Os26  1  0.499893  0.500144  0.000140  1
  Os  Os27  1  0.000177  0.499856  0.999860  1
  Os  Os28  1  0.000177  0.999860  0.499856  1
