# generated using pymatgen
data_Hf4Mn9Fe11P12
_symmetry_space_group_name_H-M   'P 1'
_cell_length_a   3.57692200
_cell_length_b   10.14056229
_cell_length_c   11.93413906
_cell_angle_alpha   89.69795433
_cell_angle_beta   90.00000000
_cell_angle_gamma   90.00000000
_symmetry_Int_Tables_number   1
_chemical_formula_structural   Hf4Mn9Fe11P12
_chemical_formula_sum   'Hf4 Mn9 Fe11 P12'
_cell_volume   432.86908126
_cell_formula_units_Z   1
loop_
 _symmetry_equiv_pos_site_id
 _symmetry_equiv_pos_as_xyz
  1  'x, y, z'
loop_
 _atom_site_type_symbol
 _atom_site_label
 _atom_site_symmetry_multiplicity
 _atom_site_fract_x
 _atom_site_fract_y
 _atom_site_fract_z
 _atom_site_occupancy
  Hf  Hf0  1  0.250000  0.579139  0.710130  1
  Hf  Hf1  1  0.250000  0.918017  0.210304  1
  Hf  Hf2  1  0.750000  0.424177  0.291812  1
  Hf  Hf3  1  0.750000  0.078573  0.788940  1
  Mn  Mn4  1  0.250000  0.708121  0.992734  1
  Mn  Mn5  1  0.250000  0.791860  0.493471  1
  Mn  Mn6  1  0.750000  0.290641  0.009366  1
  Mn  Mn7  1  0.750000  0.210687  0.506473  1
  Mn  Mn8  1  0.250000  0.410294  0.490905  1
  Mn  Mn9  1  0.250000  0.090060  0.989094  1
  Mn  Mn10  1  0.750000  0.592157  0.511279  1
  Mn  Mn11  1  0.750000  0.905666  0.009554  1
  Mn  Mn12  1  0.250000  0.219844  0.173451  1
  Fe  Fe13  1  0.250000  0.275887  0.673891  1
  Fe  Fe14  1  0.750000  0.775470  0.825366  1
  Fe  Fe15  1  0.750000  0.725366  0.326331  1
  Fe  Fe16  1  0.250000  0.879715  0.697929  1
  Fe  Fe17  1  0.250000  0.621276  0.198172  1
  Fe  Fe18  1  0.750000  0.124897  0.299426  1
  Fe  Fe19  1  0.750000  0.378580  0.802889  1
  Fe  Fe20  1  0.250000  0.461658  0.934371  1
  Fe  Fe21  1  0.250000  0.038414  0.432735  1
  Fe  Fe22  1  0.750000  0.537853  0.065634  1
  Fe  Fe23  1  0.750000  0.962606  0.565626  1
  P  P24  1  0.250000  0.424964  0.116366  1
  P  P25  1  0.250000  0.077143  0.614296  1
  P  P26  1  0.750000  0.576072  0.884110  1
  P  P27  1  0.750000  0.925176  0.384084  1
  P  P28  1  0.250000  0.262752  0.861706  1
  P  P29  1  0.250000  0.239325  0.365332  1
  P  P30  1  0.750000  0.735777  0.138130  1
  P  P31  1  0.750000  0.763910  0.638164  1
  P  P32  1  0.250000  0.601075  0.381405  1
  P  P33  1  0.250000  0.900500  0.880933  1
  P  P34  1  0.750000  0.400832  0.620085  1
  P  P35  1  0.750000  0.091517  0.115501  1
