# generated using pymatgen
data_Ca4Ru3RhO14
_symmetry_space_group_name_H-M   'P 1'
_cell_length_a   7.24820911
_cell_length_b   7.24820821
_cell_length_c   7.24820872
_cell_angle_alpha   60.55936422
_cell_angle_beta   60.55937222
_cell_angle_gamma   60.55936361
_symmetry_Int_Tables_number   1
_chemical_formula_structural   Ca4Ru3RhO14
_chemical_formula_sum   'Ca4 Ru3 Rh1 O14'
_cell_volume   272.66584301
_cell_formula_units_Z   1
loop_
 _symmetry_equiv_pos_site_id
 _symmetry_equiv_pos_as_xyz
  1  'x, y, z'
loop_
 _atom_site_type_symbol
 _atom_site_label
 _atom_site_symmetry_multiplicity
 _atom_site_fract_x
 _atom_site_fract_y
 _atom_site_fract_z
 _atom_site_occupancy
  Ca  Ca0  1  0.625000  0.125000  0.625000  1
  Ca  Ca1  1  0.625000  0.625000  0.125000  1
  Ca  Ca2  1  0.125000  0.625000  0.625000  1
  Ca  Ca3  1  0.625000  0.625000  0.625000  1
  Ru  Ru4  1  0.625000  0.125000  0.125000  1
  Ru  Ru5  1  0.125000  0.625000  0.125000  1
  Ru  Ru6  1  0.125000  0.125000  0.625000  1
  Rh  Rh7  1  0.125000  0.125000  0.125000  1
  O  O8  1  0.197362  0.197362  0.798346  1
  O  O9  1  0.197362  0.798346  0.197362  1
  O  O10  1  0.451654  0.052638  0.052638  1
  O  O11  1  0.195804  0.808150  0.808150  1
  O  O12  1  0.054196  0.441850  0.441850  1
  O  O13  1  0.808150  0.808150  0.195804  1
  O  O14  1  0.441850  0.441850  0.054196  1
  O  O15  1  0.499659  0.499659  0.499659  1
  O  O16  1  0.052638  0.052638  0.451654  1
  O  O17  1  0.441850  0.054196  0.441850  1
  O  O18  1  0.052638  0.451654  0.052638  1
  O  O19  1  0.750341  0.750341  0.750341  1
  O  O20  1  0.808150  0.195804  0.808150  1
  O  O21  1  0.798346  0.197362  0.197362  1
