# generated using pymatgen
data_Pr19Er(BiPb3)4
_symmetry_space_group_name_H-M   'P 1'
_cell_length_a   8.55176002
_cell_length_b   8.60740595
_cell_length_c   16.35120013
_cell_angle_alpha   90.00241252
_cell_angle_beta   89.98595477
_cell_angle_gamma   89.94593994
_symmetry_Int_Tables_number   1
_chemical_formula_structural   Pr19Er(BiPb3)4
_chemical_formula_sum   'Pr19 Er1 Bi4 Pb12'
_cell_volume   1203.58625307
_cell_formula_units_Z   1
loop_
 _symmetry_equiv_pos_site_id
 _symmetry_equiv_pos_as_xyz
  1  'x, y, z'
loop_
 _atom_site_type_symbol
 _atom_site_label
 _atom_site_symmetry_multiplicity
 _atom_site_fract_x
 _atom_site_fract_y
 _atom_site_fract_z
 _atom_site_occupancy
  Pr  Pr0  1  0.386811  0.841158  0.882293  1
  Pr  Pr1  1  0.886641  0.659044  0.618563  1
  Pr  Pr2  1  0.613120  0.157665  0.380958  1
  Pr  Pr3  1  0.113913  0.340609  0.119257  1
  Pr  Pr4  1  0.617145  0.158408  0.118831  1
  Pr  Pr5  1  0.117746  0.339246  0.381157  1
  Pr  Pr6  1  0.383182  0.840512  0.617429  1
  Pr  Pr7  1  0.882907  0.659920  0.881755  1
  Pr  Pr8  1  0.551692  0.330227  0.893516  1
  Pr  Pr9  1  0.051985  0.170963  0.605796  1
  Pr  Pr10  1  0.446658  0.671260  0.393176  1
  Pr  Pr11  1  0.948605  0.830395  0.106813  1
  Pr  Pr12  1  0.458012  0.673361  0.104573  1
  Pr  Pr13  1  0.959965  0.827638  0.395154  1
  Pr  Pr14  1  0.540773  0.327490  0.604127  1
  Pr  Pr15  1  0.040866  0.173545  0.896139  1
  Pr  Pr16  1  0.216999  0.499031  0.747672  1
  Pr  Pr17  1  0.717023  0.000432  0.752206  1
  Pr  Pr18  1  0.782645  0.501409  0.247795  1
  Er  Er19  1  0.281256  0.000990  0.252455  1
  Bi  Bi20  1  0.271250  0.020935  0.049977  1
  Bi  Bi21  1  0.770261  0.477693  0.453166  1
  Bi  Bi22  1  0.730280  0.977857  0.546424  1
  Bi  Bi23  1  0.229564  0.521910  0.953747  1
  Pb  Pb24  1  0.726255  0.973436  0.955175  1
  Pb  Pb25  1  0.225881  0.526501  0.544694  1
  Pb  Pb26  1  0.274589  0.025090  0.452075  1
  Pb  Pb27  1  0.774143  0.472749  0.045356  1
  Pb  Pb28  1  0.582289  0.627718  0.749010  1
  Pb  Pb29  1  0.083223  0.872551  0.751005  1
  Pb  Pb30  1  0.416571  0.369275  0.249063  1
  Pb  Pb31  1  0.921406  0.126144  0.250975  1
  Pb  Pb32  1  0.351781  0.144006  0.751196  1
  Pb  Pb33  1  0.851872  0.354736  0.748838  1
  Pb  Pb34  1  0.643306  0.856087  0.251029  1
  Pb  Pb35  1  0.149384  0.650007  0.248605  1
