# generated using pymatgen
data_Th4SiHgH8
_symmetry_space_group_name_H-M   'P 1'
_cell_length_a   6.27882750
_cell_length_b   6.27882929
_cell_length_c   6.27882818
_cell_angle_alpha   105.97344056
_cell_angle_beta   105.97345616
_cell_angle_gamma   116.71906971
_symmetry_Int_Tables_number   1
_chemical_formula_structural   Th4SiHgH8
_chemical_formula_sum   'Th4 Si1 Hg1 H8'
_cell_volume   188.23772265
_cell_formula_units_Z   1
loop_
 _symmetry_equiv_pos_site_id
 _symmetry_equiv_pos_as_xyz
  1  'x, y, z'
loop_
 _atom_site_type_symbol
 _atom_site_label
 _atom_site_symmetry_multiplicity
 _atom_site_fract_x
 _atom_site_fract_y
 _atom_site_fract_z
 _atom_site_occupancy
  Th  Th0  1  0.835956  0.664044  0.500000  1
  Th  Th1  1  0.664044  0.164044  0.828090  1
  Th  Th2  1  0.164044  0.335956  0.500000  1
  Th  Th3  1  0.335956  0.835956  0.171910  1
  Si  Si4  1  0.750000  0.750000  0.000000  1
  Hg  Hg5  1  0.250000  0.250000  0.000000  1
  H  H6  1  0.221384  0.978029  0.500145  1
  H  H7  1  0.477884  0.721239  0.499855  1
  H  H8  1  0.721239  0.221384  0.243356  1
  H  H9  1  0.978029  0.477884  0.756644  1
  H  H10  1  0.278616  0.778761  0.756644  1
  H  H11  1  0.521971  0.278616  0.499855  1
  H  H12  1  0.022116  0.521971  0.243356  1
  H  H13  1  0.778761  0.022116  0.500145  1
