# generated using pymatgen
data_YbEu3Al18IrPd5
_symmetry_space_group_name_H-M   'P 1'
_cell_length_a   7.69864647
_cell_length_b   7.70337019
_cell_length_c   9.62636482
_cell_angle_alpha   89.96170851
_cell_angle_beta   89.99024240
_cell_angle_gamma   119.52732416
_symmetry_Int_Tables_number   1
_chemical_formula_structural   YbEu3Al18IrPd5
_chemical_formula_sum   'Yb1 Eu3 Al18 Ir1 Pd5'
_cell_volume   496.74879787
_cell_formula_units_Z   1
loop_
 _symmetry_equiv_pos_site_id
 _symmetry_equiv_pos_as_xyz
  1  'x, y, z'
loop_
 _atom_site_type_symbol
 _atom_site_label
 _atom_site_symmetry_multiplicity
 _atom_site_fract_x
 _atom_site_fract_y
 _atom_site_fract_z
 _atom_site_occupancy
  Yb  Yb0  1  0.329485  0.004751  0.748980  1
  Eu  Eu1  1  0.996178  0.669120  0.250568  1
  Eu  Eu2  1  0.004646  0.331156  0.749333  1
  Eu  Eu3  1  0.668323  0.995604  0.250439  1
  Al  Al4  1  0.129781  0.128878  0.252594  1
  Al  Al5  1  0.870829  0.871070  0.747649  1
  Al  Al6  1  0.002003  0.334395  0.075977  1
  Al  Al7  1  0.998908  0.666132  0.922659  1
  Al  Al8  1  0.000740  0.670367  0.574990  1
  Al  Al9  1  0.330632  0.000314  0.427865  1
  Al  Al10  1  0.000514  0.330525  0.426502  1
  Al  Al11  1  0.668380  0.999417  0.575033  1
  Al  Al12  1  0.664336  0.998086  0.922356  1
  Al  Al13  1  0.334366  0.001855  0.074630  1
  Al  Al14  1  0.329456  0.328937  0.550262  1
  Al  Al15  1  0.670855  0.670543  0.452255  1
  Al  Al16  1  0.666328  0.666133  0.050685  1
  Al  Al17  1  0.334064  0.333721  0.947167  1
  Al  Al18  1  0.340835  0.543964  0.250779  1
  Al  Al19  1  0.659406  0.455614  0.749284  1
  Al  Al20  1  0.543892  0.339932  0.250673  1
  Al  Al21  1  0.455501  0.659429  0.749305  1
  Ir  Ir22  1  0.001064  0.000263  0.501196  1
  Pd  Pd23  1  0.669792  0.328156  0.998815  1
  Pd  Pd24  1  0.329483  0.671738  0.999357  1
  Pd  Pd25  1  0.330158  0.671264  0.500906  1
  Pd  Pd26  1  0.669055  0.328405  0.500894  1
  Pd  Pd27  1  0.000992  0.000233  0.998849  1
