# generated using pymatgen
data_MnIr5W2
_symmetry_space_group_name_H-M   'P 1'
_cell_length_a   5.51592279
_cell_length_b   5.51592296
_cell_length_c   4.38363400
_cell_angle_alpha   90.00000000
_cell_angle_beta   90.00000000
_cell_angle_gamma   120.33242349
_symmetry_Int_Tables_number   1
_chemical_formula_structural   MnIr5W2
_chemical_formula_sum   'Mn1 Ir5 W2'
_cell_volume   115.11628243
_cell_formula_units_Z   1
loop_
 _symmetry_equiv_pos_site_id
 _symmetry_equiv_pos_as_xyz
  1  'x, y, z'
loop_
 _atom_site_type_symbol
 _atom_site_label
 _atom_site_symmetry_multiplicity
 _atom_site_fract_x
 _atom_site_fract_y
 _atom_site_fract_z
 _atom_site_occupancy
  Mn  Mn0  1  0.832790  0.167210  0.750000  1
  Ir  Ir1  1  0.160054  0.331238  0.250000  1
  Ir  Ir2  1  0.668762  0.839946  0.250000  1
  Ir  Ir3  1  0.165371  0.834629  0.250000  1
  Ir  Ir4  1  0.835186  0.666952  0.750000  1
  Ir  Ir5  1  0.333048  0.164814  0.750000  1
  W  W6  1  0.333278  0.666722  0.750000  1
  W  W7  1  0.671510  0.328490  0.250000  1
