# generated using pymatgen
data_Ho4TmRu2
_symmetry_space_group_name_H-M   'P 1'
_cell_length_a   6.29979573
_cell_length_b   7.24314542
_cell_length_c   8.41006075
_cell_angle_alpha   96.77707571
_cell_angle_beta   111.99584327
_cell_angle_gamma   90.00000613
_symmetry_Int_Tables_number   1
_chemical_formula_structural   Ho4TmRu2
_chemical_formula_sum   'Ho8 Tm2 Ru4'
_cell_volume   352.92732786
_cell_formula_units_Z   2
loop_
 _symmetry_equiv_pos_site_id
 _symmetry_equiv_pos_as_xyz
  1  'x, y, z'
loop_
 _atom_site_type_symbol
 _atom_site_label
 _atom_site_symmetry_multiplicity
 _atom_site_fract_x
 _atom_site_fract_y
 _atom_site_fract_z
 _atom_site_occupancy
  Ho  Ho0  1  0.791396  0.084487  0.814359  1
  Ho  Ho1  1  0.977038  0.415513  0.185641  1
  Ho  Ho2  1  0.208604  0.915513  0.185641  1
  Ho  Ho3  1  0.022962  0.584487  0.814359  1
  Ho  Ho4  1  0.206485  0.184571  0.566311  1
  Ho  Ho5  1  0.640173  0.315429  0.433689  1
  Ho  Ho6  1  0.793515  0.815429  0.433689  1
  Ho  Ho7  1  0.359827  0.684571  0.566311  1
  Tm  Tm8  1  0.420492  0.250000  0.000000  1
  Tm  Tm9  1  0.579508  0.750000  0.000000  1
  Ru  Ru10  1  0.602690  0.423929  0.780987  1
  Ru  Ru11  1  0.821702  0.076071  0.219013  1
  Ru  Ru12  1  0.397310  0.576071  0.219013  1
  Ru  Ru13  1  0.178298  0.923929  0.780987  1
