# generated using pymatgen
data_Nd4Ga7Ge3IrRh5
_symmetry_space_group_name_H-M   'P 1'
_cell_length_a   8.62957105
_cell_length_b   8.68693360
_cell_length_c   8.68693475
_cell_angle_alpha   140.91392623
_cell_angle_beta   108.34933052
_cell_angle_gamma   84.86390572
_symmetry_Int_Tables_number   1
_chemical_formula_structural   Nd4Ga7Ge3IrRh5
_chemical_formula_sum   'Nd4 Ga7 Ge3 Ir1 Rh5'
_cell_volume   376.43475824
_cell_formula_units_Z   1
loop_
 _symmetry_equiv_pos_site_id
 _symmetry_equiv_pos_as_xyz
  1  'x, y, z'
loop_
 _atom_site_type_symbol
 _atom_site_label
 _atom_site_symmetry_multiplicity
 _atom_site_fract_x
 _atom_site_fract_y
 _atom_site_fract_z
 _atom_site_occupancy
  Nd  Nd0  1  0.861586  0.631725  0.229860  1
  Nd  Nd1  1  0.136526  0.364252  0.772274  1
  Nd  Nd2  1  0.409865  0.138254  0.271611  1
  Nd  Nd3  1  0.593716  0.864309  0.729405  1
  Ga  Ga4  1  0.498351  0.751810  0.249687  1
  Ga  Ga5  1  0.498351  0.248664  0.746541  1
  Ga  Ga6  1  0.213416  0.962292  0.749076  1
  Ga  Ga7  1  0.788209  0.533931  0.746613  1
  Ga  Ga8  1  0.788209  0.041595  0.254278  1
  Ga  Ga9  1  0.213416  0.464340  0.251126  1
  Ga  Ga10  1  0.075799  0.908393  0.167405  1
  Ge  Ge11  1  0.928400  0.093241  0.835159  1
  Ge  Ge12  1  0.735395  0.403040  0.332355  1
  Ge  Ge13  1  0.259576  0.593009  0.666567  1
  Ir  Ir14  1  0.547139  0.645709  0.901429  1
  Rh  Rh15  1  0.997888  0.748644  0.746490  1
  Rh  Rh16  1  0.997888  0.251398  0.249244  1
  Rh  Rh17  1  0.257205  0.855069  0.402138  1
  Rh  Rh18  1  0.746151  0.143904  0.602246  1
  Rh  Rh19  1  0.452915  0.356418  0.096497  1
