# generated using pymatgen
data_Tb2Eu2H9
_symmetry_space_group_name_H-M   'P 1'
_cell_length_a   6.64440888
_cell_length_b   6.64440912
_cell_length_c   6.64440963
_cell_angle_alpha   132.03727974
_cell_angle_beta   132.03728465
_cell_angle_gamma   70.17014821
_symmetry_Int_Tables_number   1
_chemical_formula_structural   Tb2Eu2H9
_chemical_formula_sum   'Tb2 Eu2 H9'
_cell_volume   158.61088447
_cell_formula_units_Z   1
loop_
 _symmetry_equiv_pos_site_id
 _symmetry_equiv_pos_as_xyz
  1  'x, y, z'
loop_
 _atom_site_type_symbol
 _atom_site_label
 _atom_site_symmetry_multiplicity
 _atom_site_fract_x
 _atom_site_fract_y
 _atom_site_fract_z
 _atom_site_occupancy
  Tb  Tb0  1  0.735990  0.735990  0.000000  1
  Tb  Tb1  1  0.264010  0.264010  0.000000  1
  Eu  Eu2  1  0.500000  0.000000  0.500000  1
  Eu  Eu3  1  0.000000  0.500000  0.500000  1
  H  H4  1  0.899541  0.374934  0.000000  1
  H  H5  1  0.374934  0.899541  0.000000  1
  H  H6  1  0.625066  0.100459  0.000000  1
  H  H7  1  0.100459  0.100459  0.475393  1
  H  H8  1  0.374934  0.374934  0.475393  1
  H  H9  1  0.500000  0.500000  0.000000  1
  H  H10  1  0.100459  0.625066  0.000000  1
  H  H11  1  0.625066  0.625066  0.524607  1
  H  H12  1  0.899541  0.899541  0.524607  1
