# generated using pymatgen
data_Dy8Sc11Si16W
_symmetry_space_group_name_H-M   'P 1'
_cell_length_a   7.07767836
_cell_length_b   7.32427932
_cell_length_c   13.88520862
_cell_angle_alpha   90.17263012
_cell_angle_beta   89.65853645
_cell_angle_gamma   89.67821941
_symmetry_Int_Tables_number   1
_chemical_formula_structural   Dy8Sc11Si16W
_chemical_formula_sum   'Dy8 Sc11 Si16 W1'
_cell_volume   719.76637308
_cell_formula_units_Z   1
loop_
 _symmetry_equiv_pos_site_id
 _symmetry_equiv_pos_as_xyz
  1  'x, y, z'
loop_
 _atom_site_type_symbol
 _atom_site_label
 _atom_site_symmetry_multiplicity
 _atom_site_fract_x
 _atom_site_fract_y
 _atom_site_fract_z
 _atom_site_occupancy
  Dy  Dy0  1  0.011827  0.174235  0.096926  1
  Dy  Dy1  1  0.988878  0.825830  0.899042  1
  Dy  Dy2  1  0.487066  0.677034  0.899688  1
  Dy  Dy3  1  0.993110  0.829961  0.595935  1
  Dy  Dy4  1  0.513077  0.323703  0.096754  1
  Dy  Dy5  1  0.010873  0.174956  0.403811  1
  Dy  Dy6  1  0.507472  0.324537  0.409339  1
  Dy  Dy7  1  0.487363  0.675808  0.596242  1
  Sc  Sc8  1  0.162369  0.494912  0.745327  1
  Sc  Sc9  1  0.838429  0.497350  0.251509  1
  Sc  Sc10  1  0.338134  0.002897  0.251672  1
  Sc  Sc11  1  0.657648  0.001740  0.747323  1
  Sc  Sc12  1  0.666779  0.825363  0.378668  1
  Sc  Sc13  1  0.168411  0.677850  0.377997  1
  Sc  Sc14  1  0.669713  0.824225  0.124556  1
  Sc  Sc15  1  0.831644  0.323841  0.623873  1
  Sc  Sc16  1  0.332295  0.176597  0.875010  1
  Sc  Sc17  1  0.829401  0.322828  0.871747  1
  Sc  Sc18  1  0.170393  0.676770  0.125611  1
  Si  Si19  1  0.042200  0.121379  0.744858  1
  Si  Si20  1  0.964988  0.885198  0.251340  1
  Si  Si21  1  0.467361  0.617548  0.250637  1
  Si  Si22  1  0.529754  0.373990  0.745661  1
  Si  Si23  1  0.287076  0.880976  0.745958  1
  Si  Si24  1  0.712168  0.126579  0.250772  1
  Si  Si25  1  0.215464  0.373340  0.250609  1
  Si  Si26  1  0.783751  0.624591  0.747087  1
  Si  Si27  1  0.175492  0.450706  0.541372  1
  Si  Si28  1  0.843083  0.531986  0.460676  1
  Si  Si29  1  0.334485  0.970159  0.470864  1
  Si  Si30  1  0.845153  0.534707  0.039131  1
  Si  Si31  1  0.645930  0.035776  0.545098  1
  Si  Si32  1  0.153905  0.466281  0.959180  1
  Si  Si33  1  0.660235  0.035884  0.958710  1
  Si  Si34  1  0.341785  0.963529  0.038744  1
  W  W35  1  0.332288  0.176934  0.628273  1
