# generated using pymatgen
data_Pr6Nb4SiW5N24
_symmetry_space_group_name_H-M   'P 1'
_cell_length_a   11.34058071
_cell_length_b   11.34317127
_cell_length_c   11.33374806
_cell_angle_alpha   109.52951826
_cell_angle_beta   109.52025479
_cell_angle_gamma   109.39303748
_symmetry_Int_Tables_number   1
_chemical_formula_structural   Pr6Nb4SiW5N24
_chemical_formula_sum   'Pr12 Nb8 Si2 W10 N48'
_cell_volume   1121.92684939
_cell_formula_units_Z   2
loop_
 _symmetry_equiv_pos_site_id
 _symmetry_equiv_pos_as_xyz
  1  'x, y, z'
loop_
 _atom_site_type_symbol
 _atom_site_label
 _atom_site_symmetry_multiplicity
 _atom_site_fract_x
 _atom_site_fract_y
 _atom_site_fract_z
 _atom_site_occupancy
  Pr  Pr0  1  0.374034  0.749300  0.120281  1
  Pr  Pr1  1  0.246248  0.370983  0.120280  1
  Pr  Pr2  1  0.368979  0.118980  0.237959  1
  Pr  Pr3  1  0.877476  0.627475  0.254949  1
  Pr  Pr4  1  0.747519  0.120351  0.369719  1
  Pr  Pr5  1  0.122199  0.249368  0.369720  1
  Pr  Pr6  1  0.883049  0.755723  0.630339  1
  Pr  Pr7  1  0.247289  0.874615  0.630340  1
  Pr  Pr8  1  0.127927  0.377927  0.755854  1
  Pr  Pr9  1  0.627768  0.877766  0.755534  1
  Pr  Pr10  1  0.623192  0.246270  0.879557  1
  Pr  Pr11  1  0.756362  0.633284  0.879553  1
  Nb  Nb12  1  0.987243  0.005486  0.008853  1
  Nb  Nb13  1  0.521610  0.003367  0.008851  1
  Nb  Nb14  1  0.987641  0.491175  0.005613  1
  Nb  Nb15  1  0.517974  0.514442  0.005615  1
  Nb  Nb16  1  0.991031  0.004104  0.487021  1
  Nb  Nb17  1  0.498196  0.996166  0.498400  1
  Nb  Nb18  1  0.995987  0.482919  0.487022  1
  Nb  Nb19  1  0.500201  0.502233  0.498398  1
  Si  Si20  1  0.874745  0.247144  0.123163  1
  Si  Si21  1  0.748417  0.876020  0.123160  1
  W  W22  1  0.625762  0.374575  0.248972  1
  W  W23  1  0.123213  0.874396  0.248972  1
  W  W24  1  0.248809  0.624395  0.374514  1
  W  W25  1  0.625703  0.750116  0.374512  1
  W  W26  1  0.374149  0.250482  0.625152  1
  W  W27  1  0.751002  0.374669  0.625152  1
  W  W28  1  0.874802  0.123861  0.750264  1
  W  W29  1  0.375461  0.626402  0.750261  1
  W  W30  1  0.250315  0.125816  0.875977  1
  W  W31  1  0.125662  0.750159  0.875976  1
  N  N32  1  0.199774  0.118498  0.017897  1
  N  N33  1  0.318121  0.899399  0.017896  1
  N  N34  1  0.889063  0.388986  0.083041  1
  N  N35  1  0.693980  0.694057  0.083042  1
  N  N36  1  0.620180  0.420805  0.101723  1
  N  N37  1  0.981543  0.680920  0.101722  1
  N  N38  1  0.609011  0.915875  0.112881  1
  N  N39  1  0.003869  0.197006  0.112881  1
  N  N40  1  0.201019  0.585588  0.186441  1
  N  N41  1  0.485420  0.600852  0.186437  1
  N  N42  1  0.587524  0.185950  0.203370  1
  N  N43  1  0.115847  0.017420  0.203372  1
  N  N44  1  0.486872  0.384731  0.301679  1
  N  N45  1  0.314809  0.916948  0.301679  1
  N  N46  1  0.916883  0.305597  0.306210  1
  N  N47  1  0.889328  0.000614  0.306209  1
  N  N48  1  0.299537  0.483493  0.383604  1
  N  N49  1  0.584067  0.900108  0.383605  1
  N  N50  1  0.813048  0.514528  0.398260  1
  N  N51  1  0.085212  0.883733  0.398260  1
  N  N52  1  0.099796  0.616891  0.414158  1
  N  N53  1  0.814361  0.797268  0.414158  1
  N  N54  1  0.602839  0.184808  0.486557  1
  N  N55  1  0.383717  0.301748  0.486557  1
  N  N56  1  0.615228  0.698706  0.515067  1
  N  N57  1  0.399838  0.816360  0.515067  1
  N  N58  1  0.180990  0.197132  0.578544  1
  N  N59  1  0.897555  0.381412  0.578546  1
  N  N60  1  0.914418  0.114760  0.598505  1
  N  N61  1  0.184085  0.483745  0.598504  1
  N  N62  1  0.417981  0.103300  0.615456  1
  N  N63  1  0.697473  0.512154  0.615454  1
  N  N64  1  0.084244  0.700888  0.685373  1
  N  N65  1  0.101131  0.984487  0.685375  1
  N  N66  1  0.684490  0.082764  0.700580  1
  N  N67  1  0.516089  0.617814  0.700578  1
  N  N68  1  0.418113  0.816378  0.799993  1
  N  N69  1  0.881881  0.983615  0.799994  1
  N  N70  1  0.515385  0.400986  0.815840  1
  N  N71  1  0.800456  0.414855  0.815841  1
  N  N72  1  0.401368  0.086389  0.884179  1
  N  N73  1  0.982812  0.797790  0.884178  1
  N  N74  1  0.014467  0.313093  0.898345  1
  N  N75  1  0.383879  0.585252  0.898343  1
  N  N76  1  0.297674  0.315482  0.915987  1
  N  N77  1  0.118315  0.600504  0.915988  1
  N  N78  1  0.693992  0.108464  0.996345  1
  N  N79  1  0.802353  0.887879  0.996342  1
