# generated using pymatgen
data_Tb3Dy2Bi2Pt
_symmetry_space_group_name_H-M   'P 1'
_cell_length_a   8.11627600
_cell_length_b   9.05654500
_cell_length_c   12.48155000
_cell_angle_alpha   90.00000000
_cell_angle_beta   90.00000000
_cell_angle_gamma   90.00000000
_symmetry_Int_Tables_number   1
_chemical_formula_structural   Tb3Dy2Bi2Pt
_chemical_formula_sum   'Tb12 Dy8 Bi8 Pt4'
_cell_volume   917.46156035
_cell_formula_units_Z   4
loop_
 _symmetry_equiv_pos_site_id
 _symmetry_equiv_pos_as_xyz
  1  'x, y, z'
loop_
 _atom_site_type_symbol
 _atom_site_label
 _atom_site_symmetry_multiplicity
 _atom_site_fract_x
 _atom_site_fract_y
 _atom_site_fract_z
 _atom_site_occupancy
  Tb  Tb0  1  0.838396  0.750000  0.790497  1
  Tb  Tb1  1  0.161604  0.250000  0.209503  1
  Tb  Tb2  1  0.338396  0.250000  0.709503  1
  Tb  Tb3  1  0.661604  0.750000  0.290497  1
  Tb  Tb4  1  0.371067  0.750000  0.697697  1
  Tb  Tb5  1  0.628933  0.250000  0.302303  1
  Tb  Tb6  1  0.871067  0.250000  0.802303  1
  Tb  Tb7  1  0.128933  0.750000  0.197697  1
  Tb  Tb8  1  0.950427  0.750000  0.499901  1
  Tb  Tb9  1  0.049573  0.250000  0.500099  1
  Tb  Tb10  1  0.450427  0.250000  0.000099  1
  Tb  Tb11  1  0.549573  0.750000  0.999901  1
  Dy  Dy12  1  0.678900  0.046110  0.566615  1
  Dy  Dy13  1  0.321100  0.953890  0.433385  1
  Dy  Dy14  1  0.178900  0.953890  0.933385  1
  Dy  Dy15  1  0.321100  0.546110  0.433385  1
  Dy  Dy16  1  0.821100  0.046110  0.066615  1
  Dy  Dy17  1  0.678900  0.453890  0.566615  1
  Dy  Dy18  1  0.821100  0.453890  0.066615  1
  Dy  Dy19  1  0.178900  0.546110  0.933385  1
  Bi  Bi20  1  0.568502  0.490944  0.827229  1
  Bi  Bi21  1  0.431498  0.509056  0.172771  1
  Bi  Bi22  1  0.068502  0.509056  0.672771  1
  Bi  Bi23  1  0.431498  0.990944  0.172771  1
  Bi  Bi24  1  0.931498  0.490944  0.327229  1
  Bi  Bi25  1  0.568502  0.009056  0.827229  1
  Bi  Bi26  1  0.931498  0.009056  0.327229  1
  Bi  Bi27  1  0.068502  0.990944  0.672771  1
  Pt  Pt28  1  0.575428  0.750000  0.511916  1
  Pt  Pt29  1  0.424572  0.250000  0.488084  1
  Pt  Pt30  1  0.075428  0.250000  0.988084  1
  Pt  Pt31  1  0.924572  0.750000  0.011916  1
