# generated using pymatgen
data_Eu5TlSi2
_symmetry_space_group_name_H-M   'P 1'
_cell_length_a   9.65308789
_cell_length_b   9.65308920
_cell_length_c   9.65308831
_cell_angle_alpha   131.18287341
_cell_angle_beta   131.18287094
_cell_angle_gamma   71.52269725
_symmetry_Int_Tables_number   1
_chemical_formula_structural   Eu5TlSi2
_chemical_formula_sum   'Eu10 Tl2 Si4'
_cell_volume   498.57543302
_cell_formula_units_Z   2
loop_
 _symmetry_equiv_pos_site_id
 _symmetry_equiv_pos_as_xyz
  1  'x, y, z'
loop_
 _atom_site_type_symbol
 _atom_site_label
 _atom_site_symmetry_multiplicity
 _atom_site_fract_x
 _atom_site_fract_y
 _atom_site_fract_z
 _atom_site_occupancy
  Eu  Eu0  1  0.812004  0.312003  0.847507  1
  Eu  Eu1  1  0.464496  0.964496  0.152494  1
  Eu  Eu2  1  0.687997  0.535504  0.500000  1
  Eu  Eu3  1  0.035504  0.187997  0.500000  1
  Eu  Eu4  1  0.187997  0.687997  0.152494  1
  Eu  Eu5  1  0.535505  0.035504  0.847507  1
  Eu  Eu6  1  0.964496  0.812002  0.500000  1
  Eu  Eu7  1  0.312003  0.464496  0.500000  1
  Eu  Eu8  1  0.000000  0.000000  0.000000  1
  Eu  Eu9  1  0.500000  0.500000  0.000000  1
  Tl  Tl10  1  0.250000  0.250000  0.000000  1
  Tl  Tl11  1  0.750000  0.750000  0.000000  1
  Si  Si12  1  0.890180  0.390180  0.280362  1
  Si  Si13  1  0.109820  0.609819  0.719636  1
  Si  Si14  1  0.609820  0.890180  0.500000  1
  Si  Si15  1  0.390180  0.109820  0.500000  1
