# generated using pymatgen
data_Fe7Si16Os
_symmetry_space_group_name_H-M   'P 1'
_cell_length_a   6.33222891
_cell_length_b   6.33222895
_cell_length_c   7.89624680
_cell_angle_alpha   89.91382351
_cell_angle_beta   89.91382779
_cell_angle_gamma   103.43435717
_symmetry_Int_Tables_number   1
_chemical_formula_structural   Fe7Si16Os
_chemical_formula_sum   'Fe7 Si16 Os1'
_cell_volume   307.95220541
_cell_formula_units_Z   1
loop_
 _symmetry_equiv_pos_site_id
 _symmetry_equiv_pos_as_xyz
  1  'x, y, z'
loop_
 _atom_site_type_symbol
 _atom_site_label
 _atom_site_symmetry_multiplicity
 _atom_site_fract_x
 _atom_site_fract_y
 _atom_site_fract_z
 _atom_site_occupancy
  Fe  Fe0  1  0.308796  0.308796  0.312805  1
  Fe  Fe1  1  0.692204  0.692204  0.685949  1
  Fe  Fe2  1  0.807240  0.807240  0.188012  1
  Fe  Fe3  1  0.283420  0.717073  0.497727  1
  Fe  Fe4  1  0.216753  0.784774  0.001284  1
  Fe  Fe5  1  0.717073  0.283420  0.497727  1
  Fe  Fe6  1  0.784774  0.216753  0.001284  1
  Si  Si7  1  0.418939  0.671919  0.227259  1
  Si  Si8  1  0.075928  0.816877  0.723735  1
  Si  Si9  1  0.170300  0.917951  0.273439  1
  Si  Si10  1  0.331669  0.589072  0.771555  1
  Si  Si11  1  0.589072  0.331669  0.771555  1
  Si  Si12  1  0.917951  0.170300  0.273439  1
  Si  Si13  1  0.816877  0.075928  0.723735  1
  Si  Si14  1  0.671919  0.418939  0.227259  1
  Si  Si15  1  0.144751  0.408767  0.058713  1
  Si  Si16  1  0.357307  0.096783  0.544536  1
  Si  Si17  1  0.900976  0.645305  0.448851  1
  Si  Si18  1  0.598052  0.854420  0.952013  1
  Si  Si19  1  0.854420  0.598052  0.952013  1
  Si  Si20  1  0.645305  0.900976  0.448851  1
  Si  Si21  1  0.096783  0.357307  0.544536  1
  Si  Si22  1  0.408767  0.144751  0.058713  1
  Os  Os23  1  0.190724  0.190724  0.815005  1
