# generated using pymatgen
data_Sc10Hg3Ir
_symmetry_space_group_name_H-M   'P 1'
_cell_length_a   9.03789502
_cell_length_b   9.03849950
_cell_length_c   9.01615500
_cell_angle_alpha   90.00000000
_cell_angle_beta   90.00000000
_cell_angle_gamma   120.00587247
_symmetry_Int_Tables_number   1
_chemical_formula_structural   Sc10Hg3Ir
_chemical_formula_sum   'Sc20 Hg6 Ir2'
_cell_volume   637.80795173
_cell_formula_units_Z   2
loop_
 _symmetry_equiv_pos_site_id
 _symmetry_equiv_pos_as_xyz
  1  'x, y, z'
loop_
 _atom_site_type_symbol
 _atom_site_label
 _atom_site_symmetry_multiplicity
 _atom_site_fract_x
 _atom_site_fract_y
 _atom_site_fract_z
 _atom_site_occupancy
  Sc  Sc0  1  0.000000  0.000000  0.500000  1
  Sc  Sc1  1  0.000000  0.000000  0.000000  1
  Sc  Sc2  1  0.208493  0.791518  0.441612  1
  Sc  Sc3  1  0.208497  0.416977  0.441621  1
  Sc  Sc4  1  0.583017  0.791507  0.441616  1
  Sc  Sc5  1  0.791507  0.208482  0.558388  1
  Sc  Sc6  1  0.791503  0.583023  0.558379  1
  Sc  Sc7  1  0.416983  0.208493  0.558384  1
  Sc  Sc8  1  0.791507  0.208482  0.941612  1
  Sc  Sc9  1  0.791503  0.583023  0.941621  1
  Sc  Sc10  1  0.416983  0.208493  0.941616  1
  Sc  Sc11  1  0.208493  0.791518  0.058388  1
  Sc  Sc12  1  0.208497  0.416977  0.058379  1
  Sc  Sc13  1  0.583017  0.791507  0.058384  1
  Sc  Sc14  1  0.540520  0.459478  0.250000  1
  Sc  Sc15  1  0.540537  0.081059  0.250000  1
  Sc  Sc16  1  0.918947  0.459463  0.250000  1
  Sc  Sc17  1  0.459480  0.540522  0.750000  1
  Sc  Sc18  1  0.459463  0.918941  0.750000  1
  Sc  Sc19  1  0.081053  0.540537  0.750000  1
  Hg  Hg20  1  0.880934  0.119071  0.250000  1
  Hg  Hg21  1  0.880925  0.761863  0.250000  1
  Hg  Hg22  1  0.238135  0.119075  0.250000  1
  Hg  Hg23  1  0.119066  0.880929  0.750000  1
  Hg  Hg24  1  0.119075  0.238137  0.750000  1
  Hg  Hg25  1  0.761865  0.880925  0.750000  1
  Ir  Ir26  1  0.333335  0.666645  0.250000  1
  Ir  Ir27  1  0.666665  0.333355  0.750000  1
