# generated using pymatgen
data_Th7Pa(ZnRh)8
_symmetry_space_group_name_H-M   'P 1'
_cell_length_a   3.94968500
_cell_length_b   7.49942602
_cell_length_c   16.48241586
_cell_angle_alpha   90.17556253
_cell_angle_beta   90.00000000
_cell_angle_gamma   90.00000000
_symmetry_Int_Tables_number   1
_chemical_formula_structural   Th7Pa(ZnRh)8
_chemical_formula_sum   'Th7 Pa1 Zn8 Rh8'
_cell_volume   488.21297222
_cell_formula_units_Z   1
loop_
 _symmetry_equiv_pos_site_id
 _symmetry_equiv_pos_as_xyz
  1  'x, y, z'
loop_
 _atom_site_type_symbol
 _atom_site_label
 _atom_site_symmetry_multiplicity
 _atom_site_fract_x
 _atom_site_fract_y
 _atom_site_fract_z
 _atom_site_occupancy
  Th  Th0  1  0.250000  0.056615  0.713801  1
  Th  Th1  1  0.250000  0.557590  0.784967  1
  Th  Th2  1  0.250000  0.670164  0.559022  1
  Th  Th3  1  0.750000  0.828492  0.060282  1
  Th  Th4  1  0.250000  0.174022  0.940164  1
  Th  Th5  1  0.750000  0.442412  0.216628  1
  Th  Th6  1  0.750000  0.940859  0.286252  1
  Pa  Pa7  1  0.750000  0.327079  0.439833  1
  Zn  Zn8  1  0.250000  0.115578  0.154829  1
  Zn  Zn9  1  0.250000  0.993442  0.440473  1
  Zn  Zn10  1  0.750000  0.885869  0.846817  1
  Zn  Zn11  1  0.750000  0.004780  0.557180  1
  Zn  Zn12  1  0.250000  0.496987  0.060070  1
  Zn  Zn13  1  0.750000  0.381611  0.651295  1
  Zn  Zn14  1  0.750000  0.502904  0.941784  1
  Zn  Zn15  1  0.250000  0.611943  0.347250  1
  Rh  Rh16  1  0.750000  0.258968  0.813980  1
  Rh  Rh17  1  0.250000  0.249032  0.324085  1
  Rh  Rh18  1  0.250000  0.754144  0.937304  1
  Rh  Rh19  1  0.250000  0.261585  0.553243  1
  Rh  Rh20  1  0.250000  0.744862  0.185184  1
  Rh  Rh21  1  0.750000  0.735879  0.436967  1
  Rh  Rh22  1  0.750000  0.246402  0.064196  1
  Rh  Rh23  1  0.750000  0.758782  0.684391  1
