# generated using pymatgen
data_Dy7Y(LuIn5)4
_symmetry_space_group_name_H-M   'P 1'
_cell_length_a   6.53526300
_cell_length_b   10.34246401
_cell_length_c   12.17111500
_cell_angle_alpha   89.99880386
_cell_angle_beta   89.99865177
_cell_angle_gamma   90.00406710
_symmetry_Int_Tables_number   1
_chemical_formula_structural   Dy7Y(LuIn5)4
_chemical_formula_sum   'Dy7 Y1 Lu4 In20'
_cell_volume   822.65445290
_cell_formula_units_Z   1
loop_
 _symmetry_equiv_pos_site_id
 _symmetry_equiv_pos_as_xyz
  1  'x, y, z'
loop_
 _atom_site_type_symbol
 _atom_site_label
 _atom_site_symmetry_multiplicity
 _atom_site_fract_x
 _atom_site_fract_y
 _atom_site_fract_z
 _atom_site_occupancy
  Dy  Dy0  1  0.887195  0.488902  0.141952  1
  Dy  Dy1  1  0.612793  0.011100  0.641957  1
  Dy  Dy2  1  0.112794  0.988908  0.858033  1
  Dy  Dy3  1  0.387182  0.511104  0.358001  1
  Dy  Dy4  1  0.112800  0.511099  0.858047  1
  Dy  Dy5  1  0.387212  0.988905  0.358048  1
  Dy  Dy6  1  0.887198  0.011094  0.141951  1
  Y  Y7  1  0.612826  0.488894  0.641999  1
  Lu  Lu8  1  0.352678  0.749999  0.052354  1
  Lu  Lu9  1  0.147313  0.750013  0.552348  1
  Lu  Lu10  1  0.647318  0.250005  0.947644  1
  Lu  Lu11  1  0.852693  0.249972  0.447630  1
  In  In12  1  0.609987  0.750043  0.505409  1
  In  In13  1  0.889995  0.750005  0.005434  1
  In  In14  1  0.389990  0.249990  0.494553  1
  In  In15  1  0.109984  0.249995  0.994573  1
  In  In16  1  0.650295  0.749996  0.241753  1
  In  In17  1  0.849716  0.750033  0.741773  1
  In  In18  1  0.349653  0.249966  0.758249  1
  In  In19  1  0.150285  0.249997  0.258244  1
  In  In20  1  0.117522  0.750007  0.277930  1
  In  In21  1  0.382485  0.750019  0.777953  1
  In  In22  1  0.882572  0.249951  0.722080  1
  In  In23  1  0.617522  0.249999  0.222060  1
  In  In24  1  0.871571  0.543170  0.401526  1
  In  In25  1  0.628434  0.956817  0.901555  1
  In  In26  1  0.128434  0.043189  0.598457  1
  In  In27  1  0.371576  0.456837  0.098450  1
  In  In28  1  0.128413  0.456805  0.598435  1
  In  In29  1  0.371569  0.043171  0.098460  1
  In  In30  1  0.871566  0.956826  0.401541  1
  In  In31  1  0.628429  0.543193  0.901598  1
