# generated using pymatgen
data_EuGaCuPt3
_symmetry_space_group_name_H-M   'P 1'
_cell_length_a   5.56097500
_cell_length_b   5.56097508
_cell_length_c   4.00759200
_cell_angle_alpha   90.00000000
_cell_angle_beta   90.00000000
_cell_angle_gamma   119.99999358
_symmetry_Int_Tables_number   1
_chemical_formula_structural   EuGaCuPt3
_chemical_formula_sum   'Eu1 Ga1 Cu1 Pt3'
_cell_volume   107.32874528
_cell_formula_units_Z   1
loop_
 _symmetry_equiv_pos_site_id
 _symmetry_equiv_pos_as_xyz
  1  'x, y, z'
loop_
 _atom_site_type_symbol
 _atom_site_label
 _atom_site_symmetry_multiplicity
 _atom_site_fract_x
 _atom_site_fract_y
 _atom_site_fract_z
 _atom_site_occupancy
  Eu  Eu0  1  0.000000  0.000000  0.000000  1
  Ga  Ga1  1  0.333333  0.666667  0.000000  1
  Cu  Cu2  1  0.666667  0.333333  0.000000  1
  Pt  Pt3  1  0.501656  0.498344  0.500000  1
  Pt  Pt4  1  0.501656  0.003312  0.500000  1
  Pt  Pt5  1  0.996688  0.498344  0.500000  1
