# generated using pymatgen
data_Ce3Nd5Zn8CuRh7
_symmetry_space_group_name_H-M   'P 1'
_cell_length_a   3.95015500
_cell_length_b   7.42906451
_cell_length_c   16.45005921
_cell_angle_alpha   91.20800712
_cell_angle_beta   90.00000000
_cell_angle_gamma   90.00000000
_symmetry_Int_Tables_number   1
_chemical_formula_structural   Ce3Nd5Zn8CuRh7
_chemical_formula_sum   'Ce3 Nd5 Zn8 Cu1 Rh7'
_cell_volume   482.63542805
_cell_formula_units_Z   1
loop_
 _symmetry_equiv_pos_site_id
 _symmetry_equiv_pos_as_xyz
  1  'x, y, z'
loop_
 _atom_site_type_symbol
 _atom_site_label
 _atom_site_symmetry_multiplicity
 _atom_site_fract_x
 _atom_site_fract_y
 _atom_site_fract_z
 _atom_site_occupancy
  Ce  Ce0  1  0.250000  0.173826  0.940326  1
  Ce  Ce1  1  0.750000  0.319919  0.440582  1
  Ce  Ce2  1  0.750000  0.952487  0.279923  1
  Nd  Nd3  1  0.250000  0.665892  0.563295  1
  Nd  Nd4  1  0.750000  0.833038  0.060015  1
  Nd  Nd5  1  0.750000  0.450072  0.217180  1
  Nd  Nd6  1  0.250000  0.050620  0.714220  1
  Nd  Nd7  1  0.250000  0.549291  0.784931  1
  Zn  Zn8  1  0.750000  0.998495  0.559446  1
  Zn  Zn9  1  0.250000  0.624782  0.349910  1
  Zn  Zn10  1  0.750000  0.380000  0.650762  1
  Zn  Zn11  1  0.250000  0.504832  0.061156  1
  Zn  Zn12  1  0.750000  0.507157  0.939632  1
  Zn  Zn13  1  0.250000  0.986207  0.437783  1
  Zn  Zn14  1  0.250000  0.125385  0.149277  1
  Zn  Zn15  1  0.750000  0.880916  0.847283  1
  Cu  Cu16  1  0.750000  0.755648  0.431861  1
  Rh  Rh17  1  0.250000  0.232024  0.320798  1
  Rh  Rh18  1  0.750000  0.243735  0.822658  1
  Rh  Rh19  1  0.750000  0.753100  0.683607  1
  Rh  Rh20  1  0.250000  0.246357  0.557496  1
  Rh  Rh21  1  0.250000  0.762305  0.195481  1
  Rh  Rh22  1  0.750000  0.252936  0.057884  1
  Rh  Rh23  1  0.250000  0.750976  0.934496  1
