# generated using pymatgen
data_Mg2AlPt12W
_symmetry_space_group_name_H-M   'P 1'
_cell_length_a   5.61437600
_cell_length_b   5.61437742
_cell_length_c   7.92390500
_cell_angle_alpha   90.00000000
_cell_angle_beta   90.00000000
_cell_angle_gamma   90.02226772
_symmetry_Int_Tables_number   1
_chemical_formula_structural   Mg2AlPt12W
_chemical_formula_sum   'Mg2 Al1 Pt12 W1'
_cell_volume   249.77118037
_cell_formula_units_Z   1
loop_
 _symmetry_equiv_pos_site_id
 _symmetry_equiv_pos_as_xyz
  1  'x, y, z'
loop_
 _atom_site_type_symbol
 _atom_site_label
 _atom_site_symmetry_multiplicity
 _atom_site_fract_x
 _atom_site_fract_y
 _atom_site_fract_z
 _atom_site_occupancy
  Mg  Mg0  1  0.500000  0.000000  0.249876  1
  Mg  Mg1  1  0.500000  0.000000  0.750090  1
  Al  Al2  1  0.000000  0.500000  0.249941  1
  Pt  Pt3  1  0.244648  0.255352  0.998571  1
  Pt  Pt4  1  0.755462  0.255462  0.501421  1
  Pt  Pt5  1  0.755253  0.255253  0.998440  1
  Pt  Pt6  1  0.755352  0.744648  0.998571  1
  Pt  Pt7  1  0.500000  0.500000  0.749989  1
  Pt  Pt8  1  0.244894  0.255106  0.501654  1
  Pt  Pt9  1  0.755106  0.744894  0.501654  1
  Pt  Pt10  1  0.244538  0.744538  0.501421  1
  Pt  Pt11  1  0.500000  0.500000  0.250046  1
  Pt  Pt12  1  0.000000  0.000000  0.749989  1
  Pt  Pt13  1  0.000000  0.000000  0.250046  1
  Pt  Pt14  1  0.244747  0.744747  0.998440  1
  W  W15  1  0.000000  0.500000  0.749848  1
