# generated using pymatgen
data_La2Al3SiAu2
_symmetry_space_group_name_H-M   'P 1'
_cell_length_a   9.36555918
_cell_length_b   9.36555922
_cell_length_c   4.34931700
_cell_angle_alpha   90.00000000
_cell_angle_beta   90.00000000
_cell_angle_gamma   152.49992010
_symmetry_Int_Tables_number   1
_chemical_formula_structural   La2Al3SiAu2
_chemical_formula_sum   'La2 Al3 Si1 Au2'
_cell_volume   176.15511249
_cell_formula_units_Z   1
loop_
 _symmetry_equiv_pos_site_id
 _symmetry_equiv_pos_as_xyz
  1  'x, y, z'
loop_
 _atom_site_type_symbol
 _atom_site_label
 _atom_site_symmetry_multiplicity
 _atom_site_fract_x
 _atom_site_fract_y
 _atom_site_fract_z
 _atom_site_occupancy
  La  La0  1  0.101451  0.898549  0.250000  1
  La  La1  1  0.897918  0.102082  0.750000  1
  Al  Al2  1  0.751615  0.248385  0.250000  1
  Al  Al3  1  0.248226  0.751774  0.750000  1
  Al  Al4  1  0.534762  0.465238  0.750000  1
  Si  Si5  1  0.465208  0.534792  0.250000  1
  Au  Au6  1  0.673885  0.326115  0.750000  1
  Au  Au7  1  0.326935  0.673065  0.250000  1
