# generated using pymatgen
data_Ta3Ti3V4Si6B
_symmetry_space_group_name_H-M   'P 1'
_cell_length_a   7.40995500
_cell_length_b   7.40995502
_cell_length_c   4.99997200
_cell_angle_alpha   90.00000000
_cell_angle_beta   90.00000000
_cell_angle_gamma   120.00000440
_symmetry_Int_Tables_number   1
_chemical_formula_structural   Ta3Ti3V4Si6B
_chemical_formula_sum   'Ta3 Ti3 V4 Si6 B1'
_cell_volume   237.75481814
_cell_formula_units_Z   1
loop_
 _symmetry_equiv_pos_site_id
 _symmetry_equiv_pos_as_xyz
  1  'x, y, z'
loop_
 _atom_site_type_symbol
 _atom_site_label
 _atom_site_symmetry_multiplicity
 _atom_site_fract_x
 _atom_site_fract_y
 _atom_site_fract_z
 _atom_site_occupancy
  Ta  Ta0  1  0.000000  0.245756  0.753167  1
  Ta  Ta1  1  0.754244  0.754244  0.753167  1
  Ta  Ta2  1  0.245756  0.000000  0.753167  1
  Ti  Ti3  1  0.000000  0.755809  0.244986  1
  Ti  Ti4  1  0.244191  0.244191  0.244986  1
  Ti  Ti5  1  0.755809  0.000000  0.244986  1
  V  V6  1  0.333333  0.666667  0.499812  1
  V  V7  1  0.666667  0.333333  0.499812  1
  V  V8  1  0.666667  0.333333  0.003154  1
  V  V9  1  0.333333  0.666667  0.003154  1
  Si  Si10  1  0.000000  0.402717  0.249085  1
  Si  Si11  1  0.597283  0.597283  0.249085  1
  Si  Si12  1  0.402717  0.000000  0.249085  1
  Si  Si13  1  0.000000  0.597234  0.753534  1
  Si  Si14  1  0.402766  0.402766  0.753534  1
  Si  Si15  1  0.597234  0.000000  0.753534  1
  B  B16  1  0.000000  0.000000  0.491753  1
