# generated using pymatgen
data_Tb3Sc2Sn3
_symmetry_space_group_name_H-M   'P 1'
_cell_length_a   8.82967000
_cell_length_b   8.82967041
_cell_length_c   6.29956300
_cell_angle_alpha   90.00000000
_cell_angle_beta   90.00000000
_cell_angle_gamma   119.99999847
_symmetry_Int_Tables_number   1
_chemical_formula_structural   Tb3Sc2Sn3
_chemical_formula_sum   'Tb6 Sc4 Sn6'
_cell_volume   425.33392835
_cell_formula_units_Z   2
loop_
 _symmetry_equiv_pos_site_id
 _symmetry_equiv_pos_as_xyz
  1  'x, y, z'
loop_
 _atom_site_type_symbol
 _atom_site_label
 _atom_site_symmetry_multiplicity
 _atom_site_fract_x
 _atom_site_fract_y
 _atom_site_fract_z
 _atom_site_occupancy
  Tb  Tb0  1  0.760603  0.000000  0.750000  1
  Tb  Tb1  1  0.760603  0.760603  0.250000  1
  Tb  Tb2  1  0.239397  0.000000  0.250000  1
  Tb  Tb3  1  0.239397  0.239397  0.750000  1
  Tb  Tb4  1  0.000000  0.760603  0.750000  1
  Tb  Tb5  1  0.000000  0.239397  0.250000  1
  Sc  Sc6  1  0.333333  0.666667  0.500000  1
  Sc  Sc7  1  0.666667  0.333333  0.000000  1
  Sc  Sc8  1  0.666667  0.333333  0.500000  1
  Sc  Sc9  1  0.333333  0.666667  0.000000  1
  Sn  Sn10  1  0.399868  0.000000  0.750000  1
  Sn  Sn11  1  0.399868  0.399868  0.250000  1
  Sn  Sn12  1  0.000000  0.600132  0.250000  1
  Sn  Sn13  1  0.000000  0.399868  0.750000  1
  Sn  Sn14  1  0.600132  0.600132  0.750000  1
  Sn  Sn15  1  0.600132  0.000000  0.250000  1
