# generated using pymatgen
data_La8Nd8MgHg3Pt4
_symmetry_space_group_name_H-M   'P 1'
_cell_length_a   10.09786347
_cell_length_b   10.12802881
_cell_length_c   10.12907300
_cell_angle_alpha   59.99658619
_cell_angle_beta   59.89770421
_cell_angle_gamma   59.99735355
_symmetry_Int_Tables_number   1
_chemical_formula_structural   La8Nd8MgHg3Pt4
_chemical_formula_sum   'La8 Nd8 Mg1 Hg3 Pt4'
_cell_volume   731.90107632
_cell_formula_units_Z   1
loop_
 _symmetry_equiv_pos_site_id
 _symmetry_equiv_pos_as_xyz
  1  'x, y, z'
loop_
 _atom_site_type_symbol
 _atom_site_label
 _atom_site_symmetry_multiplicity
 _atom_site_fract_x
 _atom_site_fract_y
 _atom_site_fract_z
 _atom_site_occupancy
  La  La0  1  0.349775  0.348741  0.349853  1
  La  La1  1  0.349775  0.348741  0.951632  1
  La  La2  1  0.352911  0.948796  0.349147  1
  La  La3  1  0.941412  0.355243  0.351673  1
  La  La4  1  0.806248  0.194494  0.193836  1
  La  La5  1  0.188916  0.809507  0.808734  1
  La  La6  1  0.188916  0.809507  0.192843  1
  La  La7  1  0.806248  0.194494  0.805421  1
  Nd  Nd8  1  0.190349  0.194580  0.807536  1
  Nd  Nd9  1  0.803139  0.804170  0.196345  1
  Nd  Nd10  1  0.935761  0.565741  0.567445  1
  Nd  Nd11  1  0.562924  0.936396  0.932888  1
  Nd  Nd12  1  0.562924  0.936396  0.567791  1
  Nd  Nd13  1  0.935761  0.565741  0.931052  1
  Nd  Nd14  1  0.562936  0.566438  0.935312  1
  Nd  Nd15  1  0.934191  0.933082  0.566363  1
  Mg  Mg16  1  0.284173  0.569769  0.573029  1
  Hg  Hg17  1  0.582194  0.588624  0.587343  1
  Hg  Hg18  1  0.582194  0.588624  0.241839  1
  Hg  Hg19  1  0.579991  0.241535  0.589237  1
  Pt  Pt20  1  0.141539  0.141870  0.144979  1
  Pt  Pt21  1  0.141539  0.141870  0.571612  1
  Pt  Pt22  1  0.142749  0.573379  0.141936  1
  Pt  Pt23  1  0.573435  0.142259  0.142153  1
