# generated using pymatgen
data_Pr6Y10Cd4OsPd3
_symmetry_space_group_name_H-M   'P 1'
_cell_length_a   9.86629796
_cell_length_b   9.86629851
_cell_length_c   9.86629748
_cell_angle_alpha   59.73850262
_cell_angle_beta   59.73850216
_cell_angle_gamma   59.73850747
_symmetry_Int_Tables_number   1
_chemical_formula_structural   Pr6Y10Cd4OsPd3
_chemical_formula_sum   'Pr6 Y10 Cd4 Os1 Pd3'
_cell_volume   675.08889696
_cell_formula_units_Z   1
loop_
 _symmetry_equiv_pos_site_id
 _symmetry_equiv_pos_as_xyz
  1  'x, y, z'
loop_
 _atom_site_type_symbol
 _atom_site_label
 _atom_site_symmetry_multiplicity
 _atom_site_fract_x
 _atom_site_fract_y
 _atom_site_fract_z
 _atom_site_occupancy
  Pr  Pr0  1  0.936434  0.563085  0.563085  1
  Pr  Pr1  1  0.556045  0.939702  0.939702  1
  Pr  Pr2  1  0.563085  0.936434  0.563085  1
  Pr  Pr3  1  0.939702  0.556045  0.939702  1
  Pr  Pr4  1  0.563085  0.563085  0.936434  1
  Pr  Pr5  1  0.939702  0.939702  0.556045  1
  Y  Y6  1  0.353330  0.353330  0.353330  1
  Y  Y7  1  0.347950  0.347950  0.951347  1
  Y  Y8  1  0.347950  0.951347  0.347950  1
  Y  Y9  1  0.951347  0.347950  0.347950  1
  Y  Y10  1  0.818448  0.186436  0.186436  1
  Y  Y11  1  0.184054  0.811701  0.811701  1
  Y  Y12  1  0.186436  0.818448  0.186436  1
  Y  Y13  1  0.811701  0.184054  0.811701  1
  Y  Y14  1  0.186436  0.186436  0.818448  1
  Y  Y15  1  0.811701  0.811701  0.184054  1
  Cd  Cd16  1  0.578951  0.578951  0.578951  1
  Cd  Cd17  1  0.579563  0.579563  0.260405  1
  Cd  Cd18  1  0.579563  0.260405  0.579563  1
  Cd  Cd19  1  0.260405  0.579563  0.579563  1
  Os  Os20  1  0.142829  0.142829  0.142829  1
  Pd  Pd21  1  0.144966  0.144966  0.571351  1
  Pd  Pd22  1  0.144966  0.571351  0.144966  1
  Pd  Pd23  1  0.571351  0.144966  0.144966  1
