# generated using pymatgen
data_Ac12Os3Pt
_symmetry_space_group_name_H-M   'P 1'
_cell_length_a   6.92999200
_cell_length_b   7.90250895
_cell_length_c   10.39625400
_cell_angle_alpha   90.00000000
_cell_angle_beta   90.00000000
_cell_angle_gamma   90.18218654
_symmetry_Int_Tables_number   1
_chemical_formula_structural   Ac12Os3Pt
_chemical_formula_sum   'Ac12 Os3 Pt1'
_cell_volume   569.34094216
_cell_formula_units_Z   1
loop_
 _symmetry_equiv_pos_site_id
 _symmetry_equiv_pos_as_xyz
  1  'x, y, z'
loop_
 _atom_site_type_symbol
 _atom_site_label
 _atom_site_symmetry_multiplicity
 _atom_site_fract_x
 _atom_site_fract_y
 _atom_site_fract_z
 _atom_site_occupancy
  Ac  Ac0  1  0.335210  0.668924  0.066533  1
  Ac  Ac1  1  0.170130  0.179998  0.433624  1
  Ac  Ac2  1  0.674422  0.325159  0.570704  1
  Ac  Ac3  1  0.824405  0.827533  0.927440  1
  Ac  Ac4  1  0.674422  0.325159  0.929296  1
  Ac  Ac5  1  0.824405  0.827533  0.572560  1
  Ac  Ac6  1  0.335210  0.668924  0.433467  1
  Ac  Ac7  1  0.170130  0.179998  0.066376  1
  Ac  Ac8  1  0.842468  0.537996  0.250000  1
  Ac  Ac9  1  0.646164  0.049952  0.250000  1
  Ac  Ac10  1  0.154140  0.456773  0.750000  1
  Ac  Ac11  1  0.341284  0.954463  0.750000  1
  Os  Os12  1  0.440722  0.381795  0.250000  1
  Os  Os13  1  0.946400  0.117033  0.750000  1
  Os  Os14  1  0.555185  0.618341  0.750000  1
  Pt  Pt15  1  0.065305  0.880417  0.250000  1
