# generated using pymatgen
data_La3Eu3TaSnO14
_symmetry_space_group_name_H-M   'P 1'
_cell_length_a   6.66465224
_cell_length_b   6.65207532
_cell_length_c   7.80950577
_cell_angle_alpha   89.49979029
_cell_angle_beta   90.65387821
_cell_angle_gamma   109.94410838
_symmetry_Int_Tables_number   1
_chemical_formula_structural   La3Eu3TaSnO14
_chemical_formula_sum   'La3 Eu3 Ta1 Sn1 O14'
_cell_volume   325.43476616
_cell_formula_units_Z   1
loop_
 _symmetry_equiv_pos_site_id
 _symmetry_equiv_pos_as_xyz
  1  'x, y, z'
loop_
 _atom_site_type_symbol
 _atom_site_label
 _atom_site_symmetry_multiplicity
 _atom_site_fract_x
 _atom_site_fract_y
 _atom_site_fract_z
 _atom_site_occupancy
  La  La0  1  0.002131  0.466827  0.748445  1
  La  La1  1  0.502947  0.502410  0.499250  1
  La  La2  1  0.502255  0.500007  0.000217  1
  Eu  Eu3  1  0.999994  0.528414  0.250091  1
  Eu  Eu4  1  0.525542  0.999946  0.749674  1
  Eu  Eu5  1  0.470922  0.001594  0.251599  1
  Ta  Ta6  1  0.998986  0.999624  0.001910  1
  Sn  Sn7  1  0.998254  0.998787  0.497836  1
  O  O8  1  0.629671  0.356238  0.753155  1
  O  O9  1  0.359496  0.644009  0.246410  1
  O  O10  1  0.938654  0.058340  0.755721  1
  O  O11  1  0.065203  0.936477  0.244432  1
  O  O12  1  0.914952  0.668184  0.519619  1
  O  O13  1  0.075560  0.316328  0.035293  1
  O  O14  1  0.315240  0.068119  0.968226  1
  O  O15  1  0.667931  0.925134  0.474875  1
  O  O16  1  0.379018  0.641783  0.751851  1
  O  O17  1  0.634567  0.365825  0.248436  1
  O  O18  1  0.922044  0.681089  0.973506  1
  O  O19  1  0.082269  0.329363  0.469401  1
  O  O20  1  0.328855  0.075734  0.525504  1
  O  O21  1  0.685509  0.935765  0.034550  1
