# generated using pymatgen
data_Ca4Sc4B24IrOs3
_symmetry_space_group_name_H-M   'P 1'
_cell_length_a   3.54379600
_cell_length_b   9.00919237
_cell_length_c   11.41084611
_cell_angle_alpha   90.02377437
_cell_angle_beta   90.00000000
_cell_angle_gamma   90.00000000
_symmetry_Int_Tables_number   1
_chemical_formula_structural   Ca4Sc4B24IrOs3
_chemical_formula_sum   'Ca4 Sc4 B24 Ir1 Os3'
_cell_volume   364.31108406
_cell_formula_units_Z   1
loop_
 _symmetry_equiv_pos_site_id
 _symmetry_equiv_pos_as_xyz
  1  'x, y, z'
loop_
 _atom_site_type_symbol
 _atom_site_label
 _atom_site_symmetry_multiplicity
 _atom_site_fract_x
 _atom_site_fract_y
 _atom_site_fract_z
 _atom_site_occupancy
  Ca  Ca0  1  0.500000  0.320355  0.415350  1
  Ca  Ca1  1  0.500000  0.678757  0.586691  1
  Ca  Ca2  1  0.500000  0.177843  0.914552  1
  Ca  Ca3  1  0.500000  0.823255  0.083414  1
  Sc  Sc4  1  0.500000  0.440825  0.128251  1
  Sc  Sc5  1  0.500000  0.556633  0.870186  1
  Sc  Sc6  1  0.500000  0.056355  0.630317  1
  Sc  Sc7  1  0.500000  0.946027  0.369920  1
  B  B8  1  0.000000  0.094618  0.474418  1
  B  B9  1  0.000000  0.904740  0.525578  1
  B  B10  1  0.000000  0.404877  0.974367  1
  B  B11  1  0.000000  0.595389  0.025896  1
  B  B12  1  0.000000  0.129487  0.317148  1
  B  B13  1  0.000000  0.870556  0.683388  1
  B  B14  1  0.000000  0.370879  0.816437  1
  B  B15  1  0.000000  0.629688  0.182549  1
  B  B16  1  0.000000  0.054564  0.067369  1
  B  B17  1  0.000000  0.945646  0.932189  1
  B  B18  1  0.000000  0.445183  0.567772  1
  B  B19  1  0.000000  0.554874  0.433171  1
  B  B20  1  0.000000  0.482338  0.286821  1
  B  B21  1  0.000000  0.518324  0.713420  1
  B  B22  1  0.000000  0.018146  0.786644  1
  B  B23  1  0.000000  0.982318  0.213421  1
  B  B24  1  0.000000  0.252629  0.082873  1
  B  B25  1  0.000000  0.747410  0.917102  1
  B  B26  1  0.000000  0.246602  0.583008  1
  B  B27  1  0.000000  0.752481  0.417733  1
  B  B28  1  0.000000  0.294220  0.235888  1
  B  B29  1  0.000000  0.705449  0.764669  1
  B  B30  1  0.000000  0.205505  0.735442  1
  B  B31  1  0.000000  0.793902  0.264023  1
  Ir  Ir32  1  0.500000  0.640813  0.317806  1
  Os  Os33  1  0.500000  0.140632  0.182917  1
  Os  Os34  1  0.500000  0.859261  0.817269  1
  Os  Os35  1  0.500000  0.359417  0.682000  1
