# generated using pymatgen
data_ErPa2Zn3FePd2
_symmetry_space_group_name_H-M   'P 1'
_cell_length_a   7.24617029
_cell_length_b   7.37079982
_cell_length_c   3.69402900
_cell_angle_alpha   90.00000000
_cell_angle_beta   90.00000000
_cell_angle_gamma   120.97232040
_symmetry_Int_Tables_number   1
_chemical_formula_structural   ErPa2Zn3FePd2
_chemical_formula_sum   'Er1 Pa2 Zn3 Fe1 Pd2'
_cell_volume   169.16676515
_cell_formula_units_Z   1
loop_
 _symmetry_equiv_pos_site_id
 _symmetry_equiv_pos_as_xyz
  1  'x, y, z'
loop_
 _atom_site_type_symbol
 _atom_site_label
 _atom_site_symmetry_multiplicity
 _atom_site_fract_x
 _atom_site_fract_y
 _atom_site_fract_z
 _atom_site_occupancy
  Er  Er0  1  0.402692  0.408187  0.000000  1
  Pa  Pa1  1  0.568807  0.973996  0.000000  1
  Pa  Pa2  1  0.032225  0.595926  0.000000  1
  Zn  Zn3  1  0.254361  0.011375  0.500000  1
  Zn  Zn4  1  0.010613  0.253467  0.500000  1
  Zn  Zn5  1  0.733151  0.731806  0.500000  1
  Fe  Fe6  1  0.324802  0.700128  0.500000  1
  Pd  Pd7  1  0.989725  0.991161  0.000000  1
  Pd  Pd8  1  0.683623  0.333953  0.500000  1
