# generated using pymatgen
data_Nd3Dy5Cd2IrRu
_symmetry_space_group_name_H-M   'P 1'
_cell_length_a   9.74454685
_cell_length_b   9.74454717
_cell_length_c   9.76914100
_cell_angle_alpha   59.91647975
_cell_angle_beta   59.91647866
_cell_angle_gamma   59.90524256
_symmetry_Int_Tables_number   1
_chemical_formula_structural   Nd3Dy5Cd2IrRu
_chemical_formula_sum   'Nd6 Dy10 Cd4 Ir2 Ru2'
_cell_volume   654.64233134
_cell_formula_units_Z   2
loop_
 _symmetry_equiv_pos_site_id
 _symmetry_equiv_pos_as_xyz
  1  'x, y, z'
loop_
 _atom_site_type_symbol
 _atom_site_label
 _atom_site_symmetry_multiplicity
 _atom_site_fract_x
 _atom_site_fract_y
 _atom_site_fract_z
 _atom_site_occupancy
  Nd  Nd0  1  0.940199  0.557480  0.560649  1
  Nd  Nd1  1  0.557480  0.940199  0.941672  1
  Nd  Nd2  1  0.557480  0.940199  0.560649  1
  Nd  Nd3  1  0.940199  0.557480  0.941672  1
  Nd  Nd4  1  0.559408  0.559408  0.940592  1
  Nd  Nd5  1  0.941263  0.941263  0.558737  1
  Dy  Dy6  1  0.346294  0.346294  0.346558  1
  Dy  Dy7  1  0.346294  0.346294  0.960852  1
  Dy  Dy8  1  0.345881  0.962510  0.345804  1
  Dy  Dy9  1  0.962510  0.345881  0.345804  1
  Dy  Dy10  1  0.813416  0.187327  0.187474  1
  Dy  Dy11  1  0.187327  0.813416  0.811783  1
  Dy  Dy12  1  0.187327  0.813416  0.187474  1
  Dy  Dy13  1  0.813416  0.187327  0.811783  1
  Dy  Dy14  1  0.186967  0.186967  0.813033  1
  Dy  Dy15  1  0.811873  0.811873  0.188127  1
  Cd  Cd16  1  0.579365  0.579365  0.579267  1
  Cd  Cd17  1  0.579365  0.579365  0.262003  1
  Cd  Cd18  1  0.579410  0.261279  0.579655  1
  Cd  Cd19  1  0.261279  0.579410  0.579655  1
  Ir  Ir20  1  0.142848  0.578056  0.139548  1
  Ir  Ir21  1  0.578056  0.142848  0.139548  1
  Ru  Ru22  1  0.141170  0.141170  0.137987  1
  Ru  Ru23  1  0.141170  0.141170  0.579673  1
