# generated using pymatgen
data_Dy4YTmNi2
_symmetry_space_group_name_H-M   'P 1'
_cell_length_a   6.34295827
_cell_length_b   6.82285400
_cell_length_c   9.53027658
_cell_angle_alpha   90.00000000
_cell_angle_beta   89.59665614
_cell_angle_gamma   90.00000000
_symmetry_Int_Tables_number   1
_chemical_formula_structural   Dy4YTmNi2
_chemical_formula_sum   'Dy8 Y2 Tm2 Ni4'
_cell_volume   412.43230543
_cell_formula_units_Z   2
loop_
 _symmetry_equiv_pos_site_id
 _symmetry_equiv_pos_as_xyz
  1  'x, y, z'
loop_
 _atom_site_type_symbol
 _atom_site_label
 _atom_site_symmetry_multiplicity
 _atom_site_fract_x
 _atom_site_fract_y
 _atom_site_fract_z
 _atom_site_occupancy
  Dy  Dy0  1  0.678588  0.322568  0.564314  1
  Dy  Dy1  1  0.821412  0.822568  0.935686  1
  Dy  Dy2  1  0.677916  0.321627  0.935969  1
  Dy  Dy3  1  0.822084  0.821627  0.564031  1
  Dy  Dy4  1  0.321366  0.677250  0.432717  1
  Dy  Dy5  1  0.178634  0.177250  0.067283  1
  Dy  Dy6  1  0.861864  0.533513  0.249305  1
  Dy  Dy7  1  0.638136  0.033513  0.250695  1
  Y  Y8  1  0.138067  0.469232  0.750442  1
  Y  Y9  1  0.361933  0.969232  0.749558  1
  Tm  Tm10  1  0.323060  0.677606  0.066136  1
  Tm  Tm11  1  0.176940  0.177606  0.433864  1
  Ni  Ni12  1  0.056345  0.890033  0.250799  1
  Ni  Ni13  1  0.443655  0.390033  0.249201  1
  Ni  Ni14  1  0.943422  0.108172  0.746262  1
  Ni  Ni15  1  0.556578  0.608172  0.753738  1
