# generated using pymatgen
data_Hf10Sn2Sb5
_symmetry_space_group_name_H-M   'P 1'
_cell_length_a   5.86302626
_cell_length_b   8.58598653
_cell_length_c   8.57218043
_cell_angle_alpha   120.05329667
_cell_angle_beta   89.90814017
_cell_angle_gamma   90.18342651
_symmetry_Int_Tables_number   1
_chemical_formula_structural   Hf10Sn2Sb5
_chemical_formula_sum   'Hf10 Sn2 Sb5'
_cell_volume   373.50658476
_cell_formula_units_Z   1
loop_
 _symmetry_equiv_pos_site_id
 _symmetry_equiv_pos_as_xyz
  1  'x, y, z'
loop_
 _atom_site_type_symbol
 _atom_site_label
 _atom_site_symmetry_multiplicity
 _atom_site_fract_x
 _atom_site_fract_y
 _atom_site_fract_z
 _atom_site_occupancy
  Hf  Hf0  1  0.499835  0.333488  0.667652  1
  Hf  Hf1  1  0.499835  0.665836  0.332348  1
  Hf  Hf2  1  0.001644  0.666309  0.332924  1
  Hf  Hf3  1  0.001644  0.333385  0.667076  1
  Hf  Hf4  1  0.774906  0.270086  0.000000  1
  Hf  Hf5  1  0.777661  0.732293  0.731686  1
  Hf  Hf6  1  0.777661  0.000605  0.268314  1
  Hf  Hf7  1  0.222376  0.728454  0.000000  1
  Hf  Hf8  1  0.222075  0.269232  0.269702  1
  Hf  Hf9  1  0.222075  0.999531  0.730298  1
  Sn  Sn10  1  0.259652  0.614391  0.614438  1
  Sn  Sn11  1  0.259652  0.999953  0.385562  1
  Sb  Sb12  1  0.742107  0.613806  0.000000  1
  Sb  Sb13  1  0.742480  0.388065  0.388495  1
  Sb  Sb14  1  0.742480  0.999570  0.611505  1
  Sb  Sb15  1  0.256474  0.385443  0.000000  1
  Sb  Sb16  1  0.497442  0.999556  0.000000  1
