# generated using pymatgen
data_Hf2SnIr5
_symmetry_space_group_name_H-M   'P 1'
_cell_length_a   4.12542700
_cell_length_b   5.63766700
_cell_length_c   11.28073300
_cell_angle_alpha   90.00000000
_cell_angle_beta   90.00000000
_cell_angle_gamma   90.00000000
_symmetry_Int_Tables_number   1
_chemical_formula_structural   Hf2SnIr5
_chemical_formula_sum   'Hf4 Sn2 Ir10'
_cell_volume   262.36484763
_cell_formula_units_Z   2
loop_
 _symmetry_equiv_pos_site_id
 _symmetry_equiv_pos_as_xyz
  1  'x, y, z'
loop_
 _atom_site_type_symbol
 _atom_site_label
 _atom_site_symmetry_multiplicity
 _atom_site_fract_x
 _atom_site_fract_y
 _atom_site_fract_z
 _atom_site_occupancy
  Hf  Hf0  1  0.500000  0.201089  0.638417  1
  Hf  Hf1  1  0.500000  0.798911  0.361583  1
  Hf  Hf2  1  0.500000  0.701089  0.861583  1
  Hf  Hf3  1  0.500000  0.298911  0.138417  1
  Sn  Sn4  1  0.000000  0.500000  0.500000  1
  Sn  Sn5  1  0.000000  0.000000  0.000000  1
  Ir  Ir6  1  0.500000  0.220292  0.879867  1
  Ir  Ir7  1  0.500000  0.779708  0.120133  1
  Ir  Ir8  1  0.500000  0.720292  0.620133  1
  Ir  Ir9  1  0.500000  0.279708  0.379867  1
  Ir  Ir10  1  0.000000  0.462506  0.751434  1
  Ir  Ir11  1  0.000000  0.537494  0.248566  1
  Ir  Ir12  1  0.000000  0.000000  0.500000  1
  Ir  Ir13  1  0.000000  0.500000  0.000000  1
  Ir  Ir14  1  0.000000  0.037494  0.251434  1
  Ir  Ir15  1  0.000000  0.962506  0.748566  1
