# generated using pymatgen
data_Tb2PrTm(MoN3)4
_symmetry_space_group_name_H-M   'P 1'
_cell_length_a   7.27273751
_cell_length_b   7.27273914
_cell_length_c   6.22612782
_cell_angle_alpha   75.26725194
_cell_angle_beta   75.26723588
_cell_angle_gamma   82.64741240
_symmetry_Int_Tables_number   1
_chemical_formula_structural   Tb2PrTm(MoN3)4
_chemical_formula_sum   'Tb2 Pr1 Tm1 Mo4 N12'
_cell_volume   307.31238589
_cell_formula_units_Z   1
loop_
 _symmetry_equiv_pos_site_id
 _symmetry_equiv_pos_as_xyz
  1  'x, y, z'
loop_
 _atom_site_type_symbol
 _atom_site_label
 _atom_site_symmetry_multiplicity
 _atom_site_fract_x
 _atom_site_fract_y
 _atom_site_fract_z
 _atom_site_occupancy
  Tb  Tb0  1  0.088764  0.911236  0.250000  1
  Tb  Tb1  1  0.302581  0.697419  0.750000  1
  Pr  Pr2  1  0.692762  0.307238  0.250000  1
  Tm  Tm3  1  0.916258  0.083742  0.750000  1
  Mo  Mo4  1  0.802196  0.619269  0.752313  1
  Mo  Mo5  1  0.196878  0.381685  0.246271  1
  Mo  Mo6  1  0.618315  0.803122  0.253729  1
  Mo  Mo7  1  0.380731  0.197804  0.747687  1
  N  N8  1  0.219532  0.997280  0.848667  1
  N  N9  1  0.346496  0.367473  0.470168  1
  N  N10  1  0.649415  0.635003  0.532287  1
  N  N11  1  0.622460  0.110312  0.666937  1
  N  N12  1  0.002720  0.780468  0.651333  1
  N  N13  1  0.785829  0.996796  0.142002  1
  N  N14  1  0.105392  0.620745  0.153215  1
  N  N15  1  0.889688  0.377540  0.833063  1
  N  N16  1  0.003204  0.214171  0.357998  1
  N  N17  1  0.364997  0.350585  0.967713  1
  N  N18  1  0.632527  0.653504  0.029832  1
  N  N19  1  0.379255  0.894608  0.346785  1
