# generated using pymatgen
data_SmTm3(Lu3Pb4)2
_symmetry_space_group_name_H-M   'P 1'
_cell_length_a   8.12664000
_cell_length_b   8.19960339
_cell_length_c   15.44727561
_cell_angle_alpha   90.06673144
_cell_angle_beta   90.00000000
_cell_angle_gamma   90.00000000
_symmetry_Int_Tables_number   1
_chemical_formula_structural   SmTm3(Lu3Pb4)2
_chemical_formula_sum   'Sm2 Tm6 Lu12 Pb16'
_cell_volume   1029.33198678
_cell_formula_units_Z   2
loop_
 _symmetry_equiv_pos_site_id
 _symmetry_equiv_pos_as_xyz
  1  'x, y, z'
loop_
 _atom_site_type_symbol
 _atom_site_label
 _atom_site_symmetry_multiplicity
 _atom_site_fract_x
 _atom_site_fract_y
 _atom_site_fract_z
 _atom_site_occupancy
  Sm  Sm0  1  0.468568  0.677699  0.904112  1
  Sm  Sm1  1  0.968568  0.822301  0.595888  1
  Tm  Tm2  1  0.462606  0.676162  0.598617  1
  Tm  Tm3  1  0.962606  0.823838  0.901383  1
  Tm  Tm4  1  0.536193  0.322321  0.099069  1
  Tm  Tm5  1  0.036193  0.177679  0.400931  1
  Tm  Tm6  1  0.535379  0.323092  0.401305  1
  Tm  Tm7  1  0.035379  0.176908  0.098695  1
  Lu  Lu8  1  0.627921  0.157949  0.621827  1
  Lu  Lu9  1  0.127921  0.342051  0.878173  1
  Lu  Lu10  1  0.371633  0.844022  0.123397  1
  Lu  Lu11  1  0.871633  0.655978  0.376603  1
  Lu  Lu12  1  0.372329  0.843737  0.377106  1
  Lu  Lu13  1  0.872329  0.656263  0.122894  1
  Lu  Lu14  1  0.625871  0.156548  0.877665  1
  Lu  Lu15  1  0.125871  0.343452  0.622335  1
  Lu  Lu16  1  0.795416  0.494020  0.750015  1
  Lu  Lu17  1  0.295416  0.005980  0.749985  1
  Lu  Lu18  1  0.204337  0.505005  0.250477  1
  Lu  Lu19  1  0.704337  0.994995  0.249523  1
  Pb  Pb20  1  0.713844  0.966843  0.454785  1
  Pb  Pb21  1  0.213844  0.533157  0.045215  1
  Pb  Pb22  1  0.281700  0.036291  0.957869  1
  Pb  Pb23  1  0.781700  0.463709  0.542131  1
  Pb  Pb24  1  0.289029  0.040896  0.541660  1
  Pb  Pb25  1  0.789029  0.459104  0.958340  1
  Pb  Pb26  1  0.715098  0.963301  0.042771  1
  Pb  Pb27  1  0.215098  0.536699  0.457229  1
  Pb  Pb28  1  0.433120  0.372904  0.749795  1
  Pb  Pb29  1  0.933120  0.127096  0.750205  1
  Pb  Pb30  1  0.566055  0.626387  0.249881  1
  Pb  Pb31  1  0.066055  0.873613  0.250119  1
  Pb  Pb32  1  0.654002  0.844117  0.748178  1
  Pb  Pb33  1  0.154002  0.655883  0.751822  1
  Pb  Pb34  1  0.346899  0.158074  0.249986  1
  Pb  Pb35  1  0.846899  0.341926  0.250014  1
