# generated using pymatgen
data_Dy5Bi2Ru
_symmetry_space_group_name_H-M   'P 1'
_cell_length_a   7.97054600
_cell_length_b   9.00604100
_cell_length_c   12.45766800
_cell_angle_alpha   90.00000000
_cell_angle_beta   90.00000000
_cell_angle_gamma   90.00000000
_symmetry_Int_Tables_number   1
_chemical_formula_structural   Dy5Bi2Ru
_chemical_formula_sum   'Dy20 Bi8 Ru4'
_cell_volume   894.24958019
_cell_formula_units_Z   4
loop_
 _symmetry_equiv_pos_site_id
 _symmetry_equiv_pos_as_xyz
  1  'x, y, z'
loop_
 _atom_site_type_symbol
 _atom_site_label
 _atom_site_symmetry_multiplicity
 _atom_site_fract_x
 _atom_site_fract_y
 _atom_site_fract_z
 _atom_site_occupancy
  Dy  Dy0  1  0.842729  0.750000  0.793679  1
  Dy  Dy1  1  0.157271  0.250000  0.206321  1
  Dy  Dy2  1  0.342729  0.250000  0.706321  1
  Dy  Dy3  1  0.657271  0.750000  0.293679  1
  Dy  Dy4  1  0.375320  0.750000  0.691617  1
  Dy  Dy5  1  0.624680  0.250000  0.308383  1
  Dy  Dy6  1  0.875320  0.250000  0.808383  1
  Dy  Dy7  1  0.124680  0.750000  0.191617  1
  Dy  Dy8  1  0.946784  0.750000  0.504405  1
  Dy  Dy9  1  0.053216  0.250000  0.495595  1
  Dy  Dy10  1  0.446784  0.250000  0.995595  1
  Dy  Dy11  1  0.553216  0.750000  0.004405  1
  Dy  Dy12  1  0.675344  0.040742  0.564118  1
  Dy  Dy13  1  0.324656  0.959258  0.435882  1
  Dy  Dy14  1  0.175344  0.959258  0.935882  1
  Dy  Dy15  1  0.324656  0.540742  0.435882  1
  Dy  Dy16  1  0.824656  0.040742  0.064118  1
  Dy  Dy17  1  0.675344  0.459258  0.564118  1
  Dy  Dy18  1  0.824656  0.459258  0.064118  1
  Dy  Dy19  1  0.175344  0.540742  0.935882  1
  Bi  Bi20  1  0.569099  0.493343  0.827292  1
  Bi  Bi21  1  0.430901  0.506657  0.172708  1
  Bi  Bi22  1  0.069099  0.506657  0.672708  1
  Bi  Bi23  1  0.430901  0.993343  0.172708  1
  Bi  Bi24  1  0.930901  0.493343  0.327292  1
  Bi  Bi25  1  0.569099  0.006657  0.827292  1
  Bi  Bi26  1  0.930901  0.006657  0.327292  1
  Bi  Bi27  1  0.069099  0.993343  0.672708  1
  Ru  Ru28  1  0.572854  0.750000  0.510861  1
  Ru  Ru29  1  0.427146  0.250000  0.489139  1
  Ru  Ru30  1  0.072854  0.250000  0.989139  1
  Ru  Ru31  1  0.927146  0.750000  0.010861  1
