# generated using pymatgen
data_Pa5Fe18CuP12
_symmetry_space_group_name_H-M   'P 1'
_cell_length_a   11.96382700
_cell_length_b   11.96382666
_cell_length_c   3.71394000
_cell_angle_alpha   90.00000000
_cell_angle_beta   90.00000000
_cell_angle_gamma   119.99999819
_symmetry_Int_Tables_number   1
_chemical_formula_structural   Pa5Fe18CuP12
_chemical_formula_sum   'Pa5 Fe18 Cu1 P12'
_cell_volume   460.36866873
_cell_formula_units_Z   1
loop_
 _symmetry_equiv_pos_site_id
 _symmetry_equiv_pos_as_xyz
  1  'x, y, z'
loop_
 _atom_site_type_symbol
 _atom_site_label
 _atom_site_symmetry_multiplicity
 _atom_site_fract_x
 _atom_site_fract_y
 _atom_site_fract_z
 _atom_site_occupancy
  Pa  Pa0  1  0.666667  0.333333  0.000000  1
  Pa  Pa1  1  0.333333  0.666667  0.000000  1
  Pa  Pa2  1  0.194672  0.194672  0.500000  1
  Pa  Pa3  1  0.805328  0.000000  0.500000  1
  Pa  Pa4  1  0.000000  0.805328  0.500000  1
  Fe  Fe5  1  0.818670  0.193492  0.000000  1
  Fe  Fe6  1  0.806508  0.625178  0.000000  1
  Fe  Fe7  1  0.374822  0.181330  0.000000  1
  Fe  Fe8  1  0.193492  0.818670  0.000000  1
  Fe  Fe9  1  0.625178  0.806508  0.000000  1
  Fe  Fe10  1  0.181330  0.374822  0.000000  1
  Fe  Fe11  1  0.560244  0.560244  0.000000  1
  Fe  Fe12  1  0.439756  0.000000  0.000000  1
  Fe  Fe13  1  0.000000  0.439756  0.000000  1
  Fe  Fe14  1  0.635004  0.124353  0.500000  1
  Fe  Fe15  1  0.875647  0.510651  0.500000  1
  Fe  Fe16  1  0.489349  0.364996  0.500000  1
  Fe  Fe17  1  0.124353  0.635004  0.500000  1
  Fe  Fe18  1  0.510651  0.875647  0.500000  1
  Fe  Fe19  1  0.364996  0.489349  0.500000  1
  Fe  Fe20  1  0.717499  0.717499  0.500000  1
  Fe  Fe21  1  0.282501  0.000000  0.500000  1
  Fe  Fe22  1  0.000000  0.282501  0.500000  1
  Cu  Cu23  1  0.000000  0.000000  0.000000  1
  P  P24  1  0.377758  0.377758  0.000000  1
  P  P25  1  0.622242  0.000000  0.000000  1
  P  P26  1  0.000000  0.622242  0.000000  1
  P  P27  1  0.833778  0.308660  0.500000  1
  P  P28  1  0.691340  0.525118  0.500000  1
  P  P29  1  0.474882  0.166222  0.500000  1
  P  P30  1  0.308660  0.833778  0.500000  1
  P  P31  1  0.525118  0.691340  0.500000  1
  P  P32  1  0.166222  0.474882  0.500000  1
  P  P33  1  0.815528  0.815528  0.000000  1
  P  P34  1  0.184472  0.000000  0.000000  1
  P  P35  1  0.000000  0.184472  0.000000  1
