# generated using pymatgen
data_MnZnCo(AsO4)2
_symmetry_space_group_name_H-M   'P 1'
_cell_length_a   5.34161106
_cell_length_b   8.02208932
_cell_length_c   8.82452863
_cell_angle_alpha   89.91825852
_cell_angle_beta   89.66963714
_cell_angle_gamma   96.03380749
_symmetry_Int_Tables_number   1
_chemical_formula_structural   MnZnCo(AsO4)2
_chemical_formula_sum   'Mn2 Zn2 Co2 As4 O16'
_cell_volume   376.03691763
_cell_formula_units_Z   2
loop_
 _symmetry_equiv_pos_site_id
 _symmetry_equiv_pos_as_xyz
  1  'x, y, z'
loop_
 _atom_site_type_symbol
 _atom_site_label
 _atom_site_symmetry_multiplicity
 _atom_site_fract_x
 _atom_site_fract_y
 _atom_site_fract_z
 _atom_site_occupancy
  Mn  Mn0  1  0.999957  0.499794  0.499891  1
  Mn  Mn1  1  0.499675  0.000030  0.000192  1
  Zn  Zn2  1  0.912192  0.387821  0.863484  1
  Zn  Zn3  1  0.087963  0.612243  0.136412  1
  Co  Co4  1  0.410581  0.891310  0.638578  1
  Co  Co5  1  0.589272  0.108733  0.361469  1
  As  As6  1  0.460381  0.301736  0.696986  1
  As  As7  1  0.959584  0.799822  0.801849  1
  As  As8  1  0.539796  0.698296  0.303083  1
  As  As9  1  0.040202  0.200157  0.198045  1
  O  O10  1  0.455688  0.133784  0.573454  1
  O  O11  1  0.948383  0.633223  0.927365  1
  O  O12  1  0.544466  0.866202  0.426575  1
  O  O13  1  0.051616  0.366765  0.072572  1
  O  O14  1  0.577188  0.243656  0.871089  1
  O  O15  1  0.078470  0.741672  0.628243  1
  O  O16  1  0.422900  0.756423  0.129000  1
  O  O17  1  0.921512  0.258269  0.371708  1
  O  O18  1  0.161808  0.364260  0.699729  1
  O  O19  1  0.665269  0.868265  0.801041  1
  O  O20  1  0.838455  0.635922  0.300263  1
  O  O21  1  0.334511  0.131650  0.199019  1
  O  O22  1  0.678263  0.463441  0.644603  1
  O  O23  1  0.185287  0.958777  0.850479  1
  O  O24  1  0.322122  0.536451  0.355410  1
  O  O25  1  0.814460  0.041301  0.149464  1
