# generated using pymatgen
data_Th3B2CN3
_symmetry_space_group_name_H-M   'P 1'
_cell_length_a   6.51273083
_cell_length_b   6.54271612
_cell_length_c   6.54271392
_cell_angle_alpha   147.97298390
_cell_angle_beta   121.66403402
_cell_angle_gamma   68.15881815
_symmetry_Int_Tables_number   1
_chemical_formula_structural   Th3B2CN3
_chemical_formula_sum   'Th3 B2 C1 N3'
_cell_volume   124.18283891
_cell_formula_units_Z   1
loop_
 _symmetry_equiv_pos_site_id
 _symmetry_equiv_pos_as_xyz
  1  'x, y, z'
loop_
 _atom_site_type_symbol
 _atom_site_label
 _atom_site_symmetry_multiplicity
 _atom_site_fract_x
 _atom_site_fract_y
 _atom_site_fract_z
 _atom_site_occupancy
  Th  Th0  1  0.694303  0.197025  0.497278  1
  Th  Th1  1  0.303538  0.803665  0.499873  1
  Th  Th2  1  0.004165  0.001105  0.003060  1
  B  B3  1  0.359872  0.499053  0.860819  1
  B  B4  1  0.640191  0.498833  0.141358  1
  C  C5  1  0.359807  0.623710  0.736097  1
  N  N6  1  0.880142  0.619517  0.260627  1
  N  N7  1  0.116721  0.377662  0.739057  1
  N  N8  1  0.641262  0.379431  0.261831  1
