# generated using pymatgen
data_Nd3Ho2Sn3
_symmetry_space_group_name_H-M   'P 1'
_cell_length_a   9.16778400
_cell_length_b   9.16778550
_cell_length_c   6.68693900
_cell_angle_alpha   90.00000000
_cell_angle_beta   90.00000000
_cell_angle_gamma   120.00000179
_symmetry_Int_Tables_number   1
_chemical_formula_structural   Nd3Ho2Sn3
_chemical_formula_sum   'Nd6 Ho4 Sn6'
_cell_volume   486.72852769
_cell_formula_units_Z   2
loop_
 _symmetry_equiv_pos_site_id
 _symmetry_equiv_pos_as_xyz
  1  'x, y, z'
loop_
 _atom_site_type_symbol
 _atom_site_label
 _atom_site_symmetry_multiplicity
 _atom_site_fract_x
 _atom_site_fract_y
 _atom_site_fract_z
 _atom_site_occupancy
  Nd  Nd0  1  0.241407  0.000000  0.250000  1
  Nd  Nd1  1  0.241407  0.241407  0.750000  1
  Nd  Nd2  1  0.000000  0.758593  0.750000  1
  Nd  Nd3  1  0.000000  0.241407  0.250000  1
  Nd  Nd4  1  0.758593  0.758593  0.250000  1
  Nd  Nd5  1  0.758593  0.000000  0.750000  1
  Ho  Ho6  1  0.333333  0.666667  0.000000  1
  Ho  Ho7  1  0.666667  0.333333  0.500000  1
  Ho  Ho8  1  0.666667  0.333333  0.000000  1
  Ho  Ho9  1  0.333333  0.666667  0.500000  1
  Sn  Sn10  1  0.601964  0.000000  0.250000  1
  Sn  Sn11  1  0.601964  0.601964  0.750000  1
  Sn  Sn12  1  0.000000  0.398036  0.750000  1
  Sn  Sn13  1  0.000000  0.601964  0.250000  1
  Sn  Sn14  1  0.398036  0.398036  0.250000  1
  Sn  Sn15  1  0.398036  0.000000  0.750000  1
