# generated using pymatgen
data_TbYb(TcB4)2
_symmetry_space_group_name_H-M   'P 1'
_cell_length_a   3.58945300
_cell_length_b   5.97552379
_cell_length_c   11.56338593
_cell_angle_alpha   89.93269373
_cell_angle_beta   90.00000000
_cell_angle_gamma   90.00000000
_symmetry_Int_Tables_number   1
_chemical_formula_structural   TbYb(TcB4)2
_chemical_formula_sum   'Tb2 Yb2 Tc4 B16'
_cell_volume   248.02129558
_cell_formula_units_Z   2
loop_
 _symmetry_equiv_pos_site_id
 _symmetry_equiv_pos_as_xyz
  1  'x, y, z'
loop_
 _atom_site_type_symbol
 _atom_site_label
 _atom_site_symmetry_multiplicity
 _atom_site_fract_x
 _atom_site_fract_y
 _atom_site_fract_z
 _atom_site_occupancy
  Tb  Tb0  1  0.500000  0.628188  0.348070  1
  Tb  Tb1  1  0.500000  0.371812  0.651930  1
  Yb  Yb2  1  0.500000  0.128098  0.148948  1
  Yb  Yb3  1  0.500000  0.871902  0.851052  1
  Tc  Tc4  1  0.500000  0.132167  0.414527  1
  Tc  Tc5  1  0.500000  0.867833  0.585473  1
  Tc  Tc6  1  0.500000  0.630441  0.083695  1
  Tc  Tc7  1  0.500000  0.369559  0.916305  1
  B  B8  1  0.000000  0.477592  0.191658  1
  B  B9  1  0.000000  0.522408  0.808342  1
  B  B10  1  0.000000  0.978058  0.306891  1
  B  B11  1  0.000000  0.021942  0.693109  1
  B  B12  1  0.000000  0.285147  0.314132  1
  B  B13  1  0.000000  0.714853  0.685868  1
  B  B14  1  0.000000  0.786855  0.183885  1
  B  B15  1  0.000000  0.213145  0.816115  1
  B  B16  1  0.000000  0.364074  0.468059  1
  B  B17  1  0.000000  0.635926  0.531941  1
  B  B18  1  0.000000  0.865431  0.032184  1
  B  B19  1  0.000000  0.134569  0.967816  1
  B  B20  1  0.000000  0.385941  0.047056  1
  B  B21  1  0.000000  0.614059  0.952944  1
  B  B22  1  0.000000  0.887568  0.452497  1
  B  B23  1  0.000000  0.112432  0.547503  1
