# generated using pymatgen
data_Tm5(FeTe)2
_symmetry_space_group_name_H-M   'P 1'
_cell_length_a   3.97760100
_cell_length_b   7.54259718
_cell_length_c   15.08052400
_cell_angle_alpha   90.00000000
_cell_angle_beta   90.00000000
_cell_angle_gamma   74.71171925
_symmetry_Int_Tables_number   1
_chemical_formula_structural   Tm5(FeTe)2
_chemical_formula_sum   'Tm10 Fe4 Te4'
_cell_volume   436.42632533
_cell_formula_units_Z   2
loop_
 _symmetry_equiv_pos_site_id
 _symmetry_equiv_pos_as_xyz
  1  'x, y, z'
loop_
 _atom_site_type_symbol
 _atom_site_label
 _atom_site_symmetry_multiplicity
 _atom_site_fract_x
 _atom_site_fract_y
 _atom_site_fract_z
 _atom_site_occupancy
  Tm  Tm0  1  0.037321  0.925361  0.119590  1
  Tm  Tm1  1  0.743550  0.512898  0.130108  1
  Tm  Tm2  1  0.398961  0.202079  0.250000  1
  Tm  Tm3  1  0.743550  0.512898  0.369892  1
  Tm  Tm4  1  0.037321  0.925361  0.380410  1
  Tm  Tm5  1  0.962679  0.074639  0.619590  1
  Tm  Tm6  1  0.256450  0.487102  0.630108  1
  Tm  Tm7  1  0.601039  0.797921  0.750000  1
  Tm  Tm8  1  0.256450  0.487102  0.869892  1
  Tm  Tm9  1  0.962679  0.074639  0.880410  1
  Fe  Fe10  1  0.160775  0.678451  0.250000  1
  Fe  Fe11  1  0.601962  0.796073  0.250000  1
  Fe  Fe12  1  0.398038  0.203927  0.750000  1
  Fe  Fe13  1  0.839225  0.321549  0.750000  1
  Te  Te14  1  0.380984  0.238034  0.038894  1
  Te  Te15  1  0.380984  0.238034  0.461106  1
  Te  Te16  1  0.619016  0.761966  0.538894  1
  Te  Te17  1  0.619016  0.761966  0.961106  1
