# generated using pymatgen
data_Ca(NiB)2
_symmetry_space_group_name_H-M   'P 1'
_cell_length_a   4.96490884
_cell_length_b   4.96490917
_cell_length_c   6.83312816
_cell_angle_alpha   59.23488279
_cell_angle_beta   59.23488043
_cell_angle_gamma   64.20434689
_symmetry_Int_Tables_number   1
_chemical_formula_structural   Ca(NiB)2
_chemical_formula_sum   'Ca2 Ni4 B4'
_cell_volume   120.88358681
_cell_formula_units_Z   2
loop_
 _symmetry_equiv_pos_site_id
 _symmetry_equiv_pos_as_xyz
  1  'x, y, z'
loop_
 _atom_site_type_symbol
 _atom_site_label
 _atom_site_symmetry_multiplicity
 _atom_site_fract_x
 _atom_site_fract_y
 _atom_site_fract_z
 _atom_site_occupancy
  Ca  Ca0  1  0.122129  0.877871  0.750000  1
  Ca  Ca1  1  0.877871  0.122129  0.250000  1
  Ni  Ni2  1  0.466359  0.281507  0.702578  1
  Ni  Ni3  1  0.718493  0.533641  0.797422  1
  Ni  Ni4  1  0.533641  0.718493  0.297422  1
  Ni  Ni5  1  0.281507  0.466359  0.202578  1
  B  B6  1  0.156908  0.498346  0.525169  1
  B  B7  1  0.501654  0.843092  0.974831  1
  B  B8  1  0.843092  0.501654  0.474831  1
  B  B9  1  0.498346  0.156908  0.025169  1
