# generated using pymatgen
data_DyHo3Er4(WO6)4
_symmetry_space_group_name_H-M   'P 1'
_cell_length_a   5.37531600
_cell_length_b   7.67771854
_cell_length_c   11.41751008
_cell_angle_alpha   75.41136188
_cell_angle_beta   90.00000000
_cell_angle_gamma   90.00000000
_symmetry_Int_Tables_number   1
_chemical_formula_structural   DyHo3Er4(WO6)4
_chemical_formula_sum   'Dy1 Ho3 Er4 W4 O24'
_cell_volume   456.01053006
_cell_formula_units_Z   1
loop_
 _symmetry_equiv_pos_site_id
 _symmetry_equiv_pos_as_xyz
  1  'x, y, z'
loop_
 _atom_site_type_symbol
 _atom_site_label
 _atom_site_symmetry_multiplicity
 _atom_site_fract_x
 _atom_site_fract_y
 _atom_site_fract_z
 _atom_site_occupancy
  Dy  Dy0  1  0.684265  0.500000  0.250000  1
  Ho  Ho1  1  0.315897  0.500000  0.750000  1
  Ho  Ho2  1  0.740462  0.000000  0.250000  1
  Ho  Ho3  1  0.259555  0.000000  0.750000  1
  Er  Er4  1  0.183352  0.205801  0.421831  1
  Er  Er5  1  0.183352  0.794199  0.078169  1
  Er  Er6  1  0.816694  0.794030  0.578268  1
  Er  Er7  1  0.816694  0.205970  0.921732  1
  W  W8  1  0.256056  0.276350  0.114623  1
  W  W9  1  0.256056  0.723650  0.385377  1
  W  W10  1  0.743918  0.723557  0.885176  1
  W  W11  1  0.743918  0.276443  0.614824  1
  O  O12  1  0.457802  0.208331  0.273691  1
  O  O13  1  0.457802  0.791669  0.226309  1
  O  O14  1  0.542002  0.791408  0.726304  1
  O  O15  1  0.542002  0.208592  0.773696  1
  O  O16  1  0.044528  0.059689  0.104107  1
  O  O17  1  0.044528  0.940311  0.395893  1
  O  O18  1  0.955413  0.940326  0.895813  1
  O  O19  1  0.955413  0.059674  0.604187  1
  O  O20  1  0.980667  0.288909  0.228934  1
  O  O21  1  0.980667  0.711091  0.271066  1
  O  O22  1  0.019943  0.710581  0.771070  1
  O  O23  1  0.019943  0.289419  0.728930  1
  O  O24  1  0.849633  0.365582  0.451307  1
  O  O25  1  0.849633  0.634418  0.048693  1
  O  O26  1  0.150598  0.634320  0.549012  1
  O  O27  1  0.150598  0.365680  0.950988  1
  O  O28  1  0.638933  0.510926  0.614592  1
  O  O29  1  0.638933  0.489074  0.885408  1
  O  O30  1  0.360261  0.489039  0.385703  1
  O  O31  1  0.360261  0.510961  0.114297  1
  O  O32  1  0.463945  0.153593  0.569031  1
  O  O33  1  0.463945  0.846407  0.930969  1
  O  O34  1  0.536165  0.846409  0.430983  1
  O  O35  1  0.536165  0.153591  0.069017  1
