# generated using pymatgen
data_Y5Cr(Co3P2)6
_symmetry_space_group_name_H-M   'P 1'
_cell_length_a   11.99716437
_cell_length_b   11.99716466
_cell_length_c   3.67614000
_cell_angle_alpha   90.00000000
_cell_angle_beta   90.00000000
_cell_angle_gamma   119.80374814
_symmetry_Int_Tables_number   1
_chemical_formula_structural   Y5Cr(Co3P2)6
_chemical_formula_sum   'Y5 Cr1 Co18 P12'
_cell_volume   459.12966644
_cell_formula_units_Z   1
loop_
 _symmetry_equiv_pos_site_id
 _symmetry_equiv_pos_as_xyz
  1  'x, y, z'
loop_
 _atom_site_type_symbol
 _atom_site_label
 _atom_site_symmetry_multiplicity
 _atom_site_fract_x
 _atom_site_fract_y
 _atom_site_fract_z
 _atom_site_occupancy
  Y  Y0  1  0.665752  0.333983  0.000000  1
  Y  Y1  1  0.333983  0.665752  0.000000  1
  Y  Y2  1  0.186335  0.186335  0.500000  1
  Y  Y3  1  0.811863  0.999186  0.500000  1
  Y  Y4  1  0.999186  0.811863  0.500000  1
  Cr  Cr5  1  0.556835  0.556835  0.000000  1
  Co  Co6  1  0.447549  0.999039  0.000000  1
  Co  Co7  1  0.999039  0.447549  0.000000  1
  Co  Co8  1  0.822237  0.200688  0.000000  1
  Co  Co9  1  0.801024  0.623278  0.000000  1
  Co  Co10  1  0.377877  0.177087  0.000000  1
  Co  Co11  1  0.200688  0.822237  0.000000  1
  Co  Co12  1  0.623278  0.801024  0.000000  1
  Co  Co13  1  0.177087  0.377877  0.000000  1
  Co  Co14  1  0.641426  0.124804  0.500000  1
  Co  Co15  1  0.873463  0.515802  0.500000  1
  Co  Co16  1  0.482145  0.357891  0.500000  1
  Co  Co17  1  0.124804  0.641426  0.500000  1
  Co  Co18  1  0.515802  0.873463  0.500000  1
  Co  Co19  1  0.357891  0.482145  0.500000  1
  Co  Co20  1  0.717024  0.717024  0.500000  1
  Co  Co21  1  0.285217  0.999543  0.500000  1
  Co  Co22  1  0.999543  0.285217  0.500000  1
  Co  Co23  1  0.001564  0.001564  0.000000  1
  P  P24  1  0.366214  0.366214  0.000000  1
  P  P25  1  0.632101  0.000639  0.000000  1
  P  P26  1  0.000639  0.632101  0.000000  1
  P  P27  1  0.833749  0.314018  0.500000  1
  P  P28  1  0.684469  0.520781  0.500000  1
  P  P29  1  0.479380  0.164874  0.500000  1
  P  P30  1  0.314018  0.833749  0.500000  1
  P  P31  1  0.520781  0.684469  0.500000  1
  P  P32  1  0.164874  0.479380  0.500000  1
  P  P33  1  0.820988  0.820988  0.000000  1
  P  P34  1  0.181235  0.999940  0.000000  1
  P  P35  1  0.999940  0.181235  0.000000  1
