# generated using pymatgen
data_MnOsCl9
_symmetry_space_group_name_H-M   'P 1'
_cell_length_a   11.44384600
_cell_length_b   6.68375551
_cell_length_c   9.18976317
_cell_angle_alpha   74.98886488
_cell_angle_beta   90.00000000
_cell_angle_gamma   90.00000000
_symmetry_Int_Tables_number   1
_chemical_formula_structural   MnOsCl9
_chemical_formula_sum   'Mn2 Os2 Cl18'
_cell_volume   678.91910932
_cell_formula_units_Z   2
loop_
 _symmetry_equiv_pos_site_id
 _symmetry_equiv_pos_as_xyz
  1  'x, y, z'
loop_
 _atom_site_type_symbol
 _atom_site_label
 _atom_site_symmetry_multiplicity
 _atom_site_fract_x
 _atom_site_fract_y
 _atom_site_fract_z
 _atom_site_occupancy
  Mn  Mn0  1  0.250000  0.750909  0.481246  1
  Mn  Mn1  1  0.750000  0.249091  0.518754  1
  Os  Os2  1  0.250000  0.647510  0.844671  1
  Os  Os3  1  0.750000  0.352490  0.155329  1
  Cl  Cl4  1  0.612476  0.439954  0.325676  1
  Cl  Cl5  1  0.112476  0.560046  0.674324  1
  Cl  Cl6  1  0.387524  0.560046  0.674324  1
  Cl  Cl7  1  0.887524  0.439954  0.325676  1
  Cl  Cl8  1  0.750000  0.680581  0.009196  1
  Cl  Cl9  1  0.250000  0.319419  0.990804  1
  Cl  Cl10  1  0.750000  0.497249  0.628751  1
  Cl  Cl11  1  0.250000  0.502751  0.371249  1
  Cl  Cl12  1  0.750000  0.027384  0.342141  1
  Cl  Cl13  1  0.250000  0.972616  0.657859  1
  Cl  Cl14  1  0.894712  0.245748  0.026756  1
  Cl  Cl15  1  0.394712  0.754252  0.973244  1
  Cl  Cl16  1  0.105288  0.754252  0.973244  1
  Cl  Cl17  1  0.605288  0.245748  0.026756  1
  Cl  Cl18  1  0.890736  0.073607  0.646730  1
  Cl  Cl19  1  0.390736  0.926393  0.353270  1
  Cl  Cl20  1  0.109264  0.926393  0.353270  1
  Cl  Cl21  1  0.609264  0.073607  0.646730  1
