# generated using pymatgen
data_Zr6AlSN2
_symmetry_space_group_name_H-M   'P 1'
_cell_length_a   5.97690284
_cell_length_b   5.97690365
_cell_length_c   8.62592800
_cell_angle_alpha   90.00000000
_cell_angle_beta   90.00000000
_cell_angle_gamma   146.92546831
_symmetry_Int_Tables_number   1
_chemical_formula_structural   Zr6AlSN2
_chemical_formula_sum   'Zr6 Al1 S1 N2'
_cell_volume   168.16504951
_cell_formula_units_Z   1
loop_
 _symmetry_equiv_pos_site_id
 _symmetry_equiv_pos_as_xyz
  1  'x, y, z'
loop_
 _atom_site_type_symbol
 _atom_site_label
 _atom_site_symmetry_multiplicity
 _atom_site_fract_x
 _atom_site_fract_y
 _atom_site_fract_z
 _atom_site_occupancy
  Zr  Zr0  1  0.949902  0.050098  0.750000  1
  Zr  Zr1  1  0.066307  0.933693  0.250000  1
  Zr  Zr2  1  0.626759  0.373241  0.546700  1
  Zr  Zr3  1  0.367878  0.632122  0.437043  1
  Zr  Zr4  1  0.367878  0.632122  0.062957  1
  Zr  Zr5  1  0.626759  0.373241  0.953300  1
  Al  Al6  1  0.255623  0.744377  0.750000  1
  S  S7  1  0.742507  0.257493  0.250000  1
  N  N8  1  0.998193  0.001807  0.494256  1
  N  N9  1  0.998193  0.001807  0.005744  1
