# generated using pymatgen
data_K2Th2CuTe6Au
_symmetry_space_group_name_H-M   'P 1'
_cell_length_a   4.46234900
_cell_length_b   8.31448114
_cell_length_c   11.60858534
_cell_angle_alpha   89.92849188
_cell_angle_beta   90.00000000
_cell_angle_gamma   74.43400875
_symmetry_Int_Tables_number   1
_chemical_formula_structural   K2Th2CuTe6Au
_chemical_formula_sum   'K2 Th2 Cu1 Te6 Au1'
_cell_volume   414.90541845
_cell_formula_units_Z   1
loop_
 _symmetry_equiv_pos_site_id
 _symmetry_equiv_pos_as_xyz
  1  'x, y, z'
loop_
 _atom_site_type_symbol
 _atom_site_label
 _atom_site_symmetry_multiplicity
 _atom_site_fract_x
 _atom_site_fract_y
 _atom_site_fract_z
 _atom_site_occupancy
  K  K0  1  0.243064  0.513872  0.248740  1
  K  K1  1  0.750207  0.499584  0.748586  1
  Th  Th2  1  0.998516  0.002969  0.491775  1
  Th  Th3  1  0.001279  0.997441  0.996230  1
  Cu  Cu4  1  0.473979  0.052042  0.745869  1
  Te  Te5  1  0.632512  0.734976  0.440006  1
  Te  Te6  1  0.371655  0.256690  0.563934  1
  Te  Te7  1  0.634478  0.731043  0.052574  1
  Te  Te8  1  0.373469  0.253063  0.927811  1
  Te  Te9  1  0.919851  0.160299  0.243092  1
  Te  Te10  1  0.070689  0.858620  0.743582  1
  Au  Au11  1  0.530300  0.939400  0.245623  1
