# generated using pymatgen
data_Sm12Ga8RuRh7
_symmetry_space_group_name_H-M   'P 1'
_cell_length_a   5.62857186
_cell_length_b   8.10880639
_cell_length_c   13.61723211
_cell_angle_alpha   89.90081917
_cell_angle_beta   90.15148266
_cell_angle_gamma   90.03658418
_symmetry_Int_Tables_number   1
_chemical_formula_structural   Sm12Ga8RuRh7
_chemical_formula_sum   'Sm12 Ga8 Ru1 Rh7'
_cell_volume   621.50085544
_cell_formula_units_Z   1
loop_
 _symmetry_equiv_pos_site_id
 _symmetry_equiv_pos_as_xyz
  1  'x, y, z'
loop_
 _atom_site_type_symbol
 _atom_site_label
 _atom_site_symmetry_multiplicity
 _atom_site_fract_x
 _atom_site_fract_y
 _atom_site_fract_z
 _atom_site_occupancy
  Sm  Sm0  1  0.630483  0.260923  0.249800  1
  Sm  Sm1  1  0.368424  0.738164  0.749957  1
  Sm  Sm2  1  0.369815  0.764422  0.247869  1
  Sm  Sm3  1  0.634149  0.237265  0.750246  1
  Sm  Sm4  1  0.148207  0.396104  0.098213  1
  Sm  Sm5  1  0.853036  0.600577  0.902609  1
  Sm  Sm6  1  0.852789  0.600439  0.597875  1
  Sm  Sm7  1  0.852311  0.899380  0.401429  1
  Sm  Sm8  1  0.146836  0.399985  0.401769  1
  Sm  Sm9  1  0.147607  0.100498  0.598075  1
  Sm  Sm10  1  0.148008  0.099696  0.903079  1
  Sm  Sm11  1  0.852562  0.903720  0.098508  1
  Ga  Ga12  1  0.131639  0.110703  0.250588  1
  Ga  Ga13  1  0.870140  0.888396  0.749727  1
  Ga  Ga14  1  0.869454  0.610758  0.249401  1
  Ga  Ga15  1  0.133497  0.388788  0.750504  1
  Ga  Ga16  1  0.627934  0.248650  0.000259  1
  Ga  Ga17  1  0.368571  0.750789  0.001303  1
  Ga  Ga18  1  0.367319  0.750028  0.499781  1
  Ga  Ga19  1  0.631842  0.250219  0.500294  1
  Ru  Ru20  1  0.349248  0.032940  0.091029  1
  Rh  Rh21  1  0.645601  0.965542  0.906916  1
  Rh  Rh22  1  0.646286  0.966980  0.591665  1
  Rh  Rh23  1  0.645902  0.533075  0.408144  1
  Rh  Rh24  1  0.353021  0.033047  0.409459  1
  Rh  Rh25  1  0.354016  0.467568  0.591814  1
  Rh  Rh26  1  0.355005  0.470297  0.907934  1
  Rh  Rh27  1  0.646298  0.531044  0.091755  1
