# generated using pymatgen
data_Sr12Sn11BiAu12
_symmetry_space_group_name_H-M   'P 1'
_cell_length_a   4.92889000
_cell_length_b   8.36322552
_cell_length_c   23.88172557
_cell_angle_alpha   90.16228697
_cell_angle_beta   90.00000000
_cell_angle_gamma   90.00000000
_symmetry_Int_Tables_number   1
_chemical_formula_structural   Sr12Sn11BiAu12
_chemical_formula_sum   'Sr12 Sn11 Bi1 Au12'
_cell_volume   984.43465858
_cell_formula_units_Z   1
loop_
 _symmetry_equiv_pos_site_id
 _symmetry_equiv_pos_as_xyz
  1  'x, y, z'
loop_
 _atom_site_type_symbol
 _atom_site_label
 _atom_site_symmetry_multiplicity
 _atom_site_fract_x
 _atom_site_fract_y
 _atom_site_fract_z
 _atom_site_occupancy
  Sr  Sr0  1  0.750000  0.224201  0.497190  1
  Sr  Sr1  1  0.250000  0.789651  0.165853  1
  Sr  Sr2  1  0.250000  0.781669  0.500182  1
  Sr  Sr3  1  0.250000  0.791595  0.834448  1
  Sr  Sr4  1  0.250000  0.710928  0.332697  1
  Sr  Sr5  1  0.750000  0.210715  0.834692  1
  Sr  Sr6  1  0.750000  0.285946  0.998290  1
  Sr  Sr7  1  0.750000  0.291435  0.668709  1
  Sr  Sr8  1  0.750000  0.290561  0.333000  1
  Sr  Sr9  1  0.250000  0.709783  0.667705  1
  Sr  Sr10  1  0.250000  0.713370  0.002365  1
  Sr  Sr11  1  0.750000  0.208694  0.166175  1
  Sn  Sn12  1  0.250000  0.084256  0.397787  1
  Sn  Sn13  1  0.250000  0.085899  0.065162  1
  Sn  Sn14  1  0.250000  0.416965  0.898737  1
  Sn  Sn15  1  0.750000  0.582604  0.101695  1
  Sn  Sn16  1  0.250000  0.418043  0.769924  1
  Sn  Sn17  1  0.750000  0.581892  0.230366  1
  Sn  Sn18  1  0.750000  0.588435  0.432351  1
  Sn  Sn19  1  0.750000  0.913572  0.935012  1
  Sn  Sn20  1  0.250000  0.081762  0.269091  1
  Sn  Sn21  1  0.750000  0.914033  0.602554  1
  Sn  Sn22  1  0.750000  0.917562  0.732314  1
  Bi  Bi23  1  0.250000  0.406275  0.576184  1
  Au  Au24  1  0.250000  0.065770  0.594702  1
  Au  Au25  1  0.250000  0.083851  0.740962  1
  Au  Au26  1  0.750000  0.584781  0.906949  1
  Au  Au27  1  0.750000  0.916800  0.406604  1
  Au  Au28  1  0.750000  0.599860  0.561852  1
  Au  Au29  1  0.750000  0.583823  0.760793  1
  Au  Au30  1  0.250000  0.419252  0.423326  1
  Au  Au31  1  0.250000  0.415755  0.239624  1
  Au  Au32  1  0.750000  0.917432  0.067313  1
  Au  Au33  1  0.250000  0.415098  0.093124  1
  Au  Au34  1  0.250000  0.082493  0.932968  1
  Au  Au35  1  0.750000  0.915241  0.259299  1
