# generated using pymatgen
data_ErZr3(Al3Ir)6
_symmetry_space_group_name_H-M   'P 1'
_cell_length_a   7.49510139
_cell_length_b   7.48836050
_cell_length_c   9.31627900
_cell_angle_alpha   90.00000000
_cell_angle_beta   90.00000000
_cell_angle_gamma   119.78784034
_symmetry_Int_Tables_number   1
_chemical_formula_structural   ErZr3(Al3Ir)6
_chemical_formula_sum   'Er1 Zr3 Al18 Ir6'
_cell_volume   453.79726203
_cell_formula_units_Z   1
loop_
 _symmetry_equiv_pos_site_id
 _symmetry_equiv_pos_as_xyz
  1  'x, y, z'
loop_
 _atom_site_type_symbol
 _atom_site_label
 _atom_site_symmetry_multiplicity
 _atom_site_fract_x
 _atom_site_fract_y
 _atom_site_fract_z
 _atom_site_occupancy
  Er  Er0  1  0.329369  0.006003  0.250000  1
  Zr  Zr1  1  0.994381  0.671411  0.750000  1
  Zr  Zr2  1  0.005971  0.329707  0.250000  1
  Zr  Zr3  1  0.670980  0.994151  0.750000  1
  Al  Al4  1  0.122397  0.123583  0.750000  1
  Al  Al5  1  0.872544  0.875616  0.250000  1
  Al  Al6  1  0.997589  0.334322  0.576164  1
  Al  Al7  1  0.000169  0.663165  0.425593  1
  Al  Al8  1  0.000169  0.663165  0.074407  1
  Al  Al9  1  0.334705  0.998282  0.920831  1
  Al  Al10  1  0.997589  0.334322  0.923836  1
  Al  Al11  1  0.667764  0.002091  0.074524  1
  Al  Al12  1  0.667764  0.002091  0.425476  1
  Al  Al13  1  0.334705  0.998282  0.579169  1
  Al  Al14  1  0.331571  0.333597  0.055509  1
  Al  Al15  1  0.668231  0.668114  0.941573  1
  Al  Al16  1  0.668231  0.668114  0.558427  1
  Al  Al17  1  0.331571  0.333597  0.444491  1
  Al  Al18  1  0.338158  0.552307  0.750000  1
  Al  Al19  1  0.665635  0.451903  0.250000  1
  Al  Al20  1  0.553734  0.339358  0.750000  1
  Al  Al21  1  0.447047  0.657405  0.250000  1
  Ir  Ir22  1  0.672139  0.327648  0.500875  1
  Ir  Ir23  1  0.328198  0.673144  0.501332  1
  Ir  Ir24  1  0.328198  0.673144  0.998668  1
  Ir  Ir25  1  0.672139  0.327648  0.999125  1
  Ir  Ir26  1  0.999525  0.998914  0.501025  1
  Ir  Ir27  1  0.999525  0.998914  0.998975  1
