# generated using pymatgen
data_Ba5SnRh2
_symmetry_space_group_name_H-M   'P 1'
_cell_length_a   8.57153800
_cell_length_b   8.57153800
_cell_length_c   16.30872300
_cell_angle_alpha   90.00000000
_cell_angle_beta   90.00000000
_cell_angle_gamma   90.00000000
_symmetry_Int_Tables_number   1
_chemical_formula_structural   Ba5SnRh2
_chemical_formula_sum   'Ba20 Sn4 Rh8'
_cell_volume   1198.22248791
_cell_formula_units_Z   4
loop_
 _symmetry_equiv_pos_site_id
 _symmetry_equiv_pos_as_xyz
  1  'x, y, z'
loop_
 _atom_site_type_symbol
 _atom_site_label
 _atom_site_symmetry_multiplicity
 _atom_site_fract_x
 _atom_site_fract_y
 _atom_site_fract_z
 _atom_site_occupancy
  Ba  Ba0  1  0.322614  0.673735  0.116804  1
  Ba  Ba1  1  0.173735  0.177386  0.116804  1
  Ba  Ba2  1  0.500000  0.000000  0.747210  1
  Ba  Ba3  1  0.326265  0.677386  0.383196  1
  Ba  Ba4  1  0.673735  0.677386  0.883196  1
  Ba  Ba5  1  0.177386  0.173735  0.383196  1
  Ba  Ba6  1  0.673735  0.322614  0.383196  1
  Ba  Ba7  1  0.173735  0.822614  0.616804  1
  Ba  Ba8  1  0.326265  0.322614  0.883196  1
  Ba  Ba9  1  0.177386  0.826265  0.883196  1
  Ba  Ba10  1  0.500000  0.000000  0.247210  1
  Ba  Ba11  1  0.826265  0.177386  0.616804  1
  Ba  Ba12  1  0.322614  0.326265  0.616804  1
  Ba  Ba13  1  0.822614  0.826265  0.383196  1
  Ba  Ba14  1  0.822614  0.173735  0.883196  1
  Ba  Ba15  1  0.826265  0.822614  0.116804  1
  Ba  Ba16  1  0.000000  0.500000  0.252790  1
  Ba  Ba17  1  0.000000  0.500000  0.752790  1
  Ba  Ba18  1  0.677386  0.326265  0.116804  1
  Ba  Ba19  1  0.677386  0.673735  0.616804  1
  Sn  Sn20  1  0.000000  0.500000  0.997597  1
  Sn  Sn21  1  0.500000  0.000000  0.002403  1
  Sn  Sn22  1  0.500000  0.000000  0.502403  1
  Sn  Sn23  1  0.000000  0.500000  0.497597  1
  Rh  Rh24  1  0.112049  0.112049  0.750000  1
  Rh  Rh25  1  0.387951  0.612049  0.750000  1
  Rh  Rh26  1  0.612049  0.612049  0.250000  1
  Rh  Rh27  1  0.112049  0.887951  0.250000  1
  Rh  Rh28  1  0.612049  0.387951  0.750000  1
  Rh  Rh29  1  0.887951  0.887951  0.750000  1
  Rh  Rh30  1  0.387951  0.387951  0.250000  1
  Rh  Rh31  1  0.887951  0.112049  0.250000  1
