# generated using pymatgen
data_DyTmZr2(Al3Ir)6
_symmetry_space_group_name_H-M   'P 1'
_cell_length_a   7.51852606
_cell_length_b   7.50423019
_cell_length_c   9.34993600
_cell_angle_alpha   90.00000000
_cell_angle_beta   90.00000000
_cell_angle_gamma   119.73799642
_symmetry_Int_Tables_number   1
_chemical_formula_structural   DyTmZr2(Al3Ir)6
_chemical_formula_sum   'Dy1 Tm1 Zr2 Al18 Ir6'
_cell_volume   458.05610269
_cell_formula_units_Z   1
loop_
 _symmetry_equiv_pos_site_id
 _symmetry_equiv_pos_as_xyz
  1  'x, y, z'
loop_
 _atom_site_type_symbol
 _atom_site_label
 _atom_site_symmetry_multiplicity
 _atom_site_fract_x
 _atom_site_fract_y
 _atom_site_fract_z
 _atom_site_occupancy
  Dy  Dy0  1  0.670549  0.994375  0.250000  1
  Tm  Tm1  1  0.329281  0.005562  0.750000  1
  Zr  Zr2  1  0.995227  0.670980  0.250000  1
  Zr  Zr3  1  0.004862  0.329090  0.750000  1
  Al  Al4  1  0.126160  0.124227  0.250000  1
  Al  Al5  1  0.874295  0.875978  0.750000  1
  Al  Al6  1  0.000001  0.336959  0.074827  1
  Al  Al7  1  0.000344  0.663335  0.924748  1
  Al  Al8  1  0.000344  0.663335  0.575252  1
  Al  Al9  1  0.332310  0.998560  0.422560  1
  Al  Al10  1  0.000001  0.336959  0.425173  1
  Al  Al11  1  0.667406  0.001514  0.578091  1
  Al  Al12  1  0.667406  0.001514  0.921909  1
  Al  Al13  1  0.332310  0.998560  0.077440  1
  Al  Al14  1  0.331378  0.333287  0.556712  1
  Al  Al15  1  0.668608  0.666408  0.443646  1
  Al  Al16  1  0.668608  0.666408  0.056354  1
  Al  Al17  1  0.331378  0.333287  0.943288  1
  Al  Al18  1  0.334782  0.548117  0.250000  1
  Al  Al19  1  0.664901  0.451409  0.750000  1
  Al  Al20  1  0.553705  0.343302  0.250000  1
  Al  Al21  1  0.446097  0.656868  0.750000  1
  Ir  Ir22  1  0.671886  0.327387  0.999325  1
  Ir  Ir23  1  0.327862  0.672562  0.000392  1
  Ir  Ir24  1  0.327862  0.672562  0.499608  1
  Ir  Ir25  1  0.671886  0.327387  0.500675  1
  Ir  Ir26  1  0.000276  0.000034  0.999840  1
  Ir  Ir27  1  0.000276  0.000034  0.500160  1
