# generated using pymatgen
data_Dy3Hf8ScPb10
_symmetry_space_group_name_H-M   'P 1'
_cell_length_a   11.35827246
_cell_length_b   11.37242818
_cell_length_c   11.37242800
_cell_angle_alpha   148.99880104
_cell_angle_beta   132.03557367
_cell_angle_gamma   58.22598156
_symmetry_Int_Tables_number   1
_chemical_formula_structural   Dy3Hf8ScPb10
_chemical_formula_sum   'Dy3 Hf8 Sc1 Pb10'
_cell_volume   557.63189327
_cell_formula_units_Z   1
loop_
 _symmetry_equiv_pos_site_id
 _symmetry_equiv_pos_as_xyz
  1  'x, y, z'
loop_
 _atom_site_type_symbol
 _atom_site_label
 _atom_site_symmetry_multiplicity
 _atom_site_fract_x
 _atom_site_fract_y
 _atom_site_fract_z
 _atom_site_occupancy
  Dy  Dy0  1  0.256201  0.144145  0.112055  1
  Dy  Dy1  1  0.746542  0.856656  0.889887  1
  Dy  Dy2  1  0.031340  0.643520  0.387821  1
  Hf  Hf3  1  0.312883  0.561282  0.251164  1
  Hf  Hf4  1  0.689176  0.438877  0.750511  1
  Hf  Hf5  1  0.689176  0.938664  0.250300  1
  Hf  Hf6  1  0.312883  0.061719  0.751601  1
  Hf  Hf7  1  0.671256  0.435305  0.235952  1
  Hf  Hf8  1  0.327601  0.564766  0.762834  1
  Hf  Hf9  1  0.196114  0.935133  0.260982  1
  Hf  Hf10  1  0.803228  0.064883  0.738344  1
  Sc  Sc11  1  0.967375  0.356102  0.611273  1
  Pb  Pb12  1  0.596712  0.290643  0.306069  1
  Pb  Pb13  1  0.410657  0.710714  0.699943  1
  Pb  Pb14  1  0.989298  0.789721  0.199577  1
  Pb  Pb15  1  0.010790  0.211957  0.798834  1
  Pb  Pb16  1  0.999611  0.249877  0.251514  1
  Pb  Pb17  1  0.999611  0.748097  0.749735  1
  Pb  Pb18  1  0.464776  0.067304  0.397472  1
  Pb  Pb19  1  0.535386  0.932737  0.602649  1
  Pb  Pb20  1  0.668736  0.567114  0.101621  1
  Pb  Pb21  1  0.320645  0.430784  0.889862  1
