# generated using pymatgen
data_K2SrB2Pt7
_symmetry_space_group_name_H-M   'P 1'
_cell_length_a   8.47979540
_cell_length_b   8.47979502
_cell_length_c   8.47979649
_cell_angle_alpha   38.85514362
_cell_angle_beta   38.85514702
_cell_angle_gamma   38.85513712
_symmetry_Int_Tables_number   1
_chemical_formula_structural   K2SrB2Pt7
_chemical_formula_sum   'K2 Sr1 B2 Pt7'
_cell_volume   215.76200233
_cell_formula_units_Z   1
loop_
 _symmetry_equiv_pos_site_id
 _symmetry_equiv_pos_as_xyz
  1  'x, y, z'
loop_
 _atom_site_type_symbol
 _atom_site_label
 _atom_site_symmetry_multiplicity
 _atom_site_fract_x
 _atom_site_fract_y
 _atom_site_fract_z
 _atom_site_occupancy
  K  K0  1  0.854149  0.854149  0.854149  1
  K  K1  1  0.145851  0.145851  0.145851  1
  Sr  Sr2  1  0.000000  0.000000  0.000000  1
  B  B3  1  0.668961  0.668961  0.668961  1
  B  B4  1  0.331039  0.331039  0.331039  1
  Pt  Pt5  1  0.439520  0.930590  0.439520  1
  Pt  Pt6  1  0.439520  0.439520  0.930590  1
  Pt  Pt7  1  0.930590  0.439520  0.439520  1
  Pt  Pt8  1  0.560480  0.069410  0.560480  1
  Pt  Pt9  1  0.560480  0.560480  0.069410  1
  Pt  Pt10  1  0.069410  0.560480  0.560480  1
  Pt  Pt11  1  0.500000  0.500000  0.500000  1
