# generated using pymatgen
data_Sm3Y2(CoB3)2
_symmetry_space_group_name_H-M   'P 1'
_cell_length_a   5.44991790
_cell_length_b   5.44991852
_cell_length_c   8.57692737
_cell_angle_alpha   71.47562997
_cell_angle_beta   71.47562805
_cell_angle_gamma   59.99998490
_symmetry_Int_Tables_number   1
_chemical_formula_structural   Sm3Y2(CoB3)2
_chemical_formula_sum   'Sm3 Y2 Co2 B6'
_cell_volume   205.23650363
_cell_formula_units_Z   1
loop_
 _symmetry_equiv_pos_site_id
 _symmetry_equiv_pos_as_xyz
  1  'x, y, z'
loop_
 _atom_site_type_symbol
 _atom_site_label
 _atom_site_symmetry_multiplicity
 _atom_site_fract_x
 _atom_site_fract_y
 _atom_site_fract_z
 _atom_site_occupancy
  Sm  Sm0  1  0.000000  0.000000  0.000000  1
  Sm  Sm1  1  0.252007  0.252007  0.243980  1
  Sm  Sm2  1  0.747993  0.747993  0.756020  1
  Y  Y3  1  0.419063  0.419063  0.742811  1
  Y  Y4  1  0.580937  0.580937  0.257189  1
  Co  Co5  1  0.121280  0.121280  0.636161  1
  Co  Co6  1  0.878720  0.878720  0.363839  1
  B  B7  1  0.167741  0.832259  0.500000  1
  B  B8  1  0.832259  0.500000  0.500000  1
  B  B9  1  0.500000  0.167741  0.500000  1
  B  B10  1  0.167741  0.500000  0.500000  1
  B  B11  1  0.500000  0.832259  0.500000  1
  B  B12  1  0.832259  0.167741  0.500000  1
