# generated using pymatgen
data_Ho3Lu17(Bi2Rh)4
_symmetry_space_group_name_H-M   'P 1'
_cell_length_a   7.84040249
_cell_length_b   8.94257600
_cell_length_c   12.30062676
_cell_angle_alpha   90.00000000
_cell_angle_beta   90.04040679
_cell_angle_gamma   90.00000000
_symmetry_Int_Tables_number   1
_chemical_formula_structural   Ho3Lu17(Bi2Rh)4
_chemical_formula_sum   'Ho3 Lu17 Bi8 Rh4'
_cell_volume   862.43849004
_cell_formula_units_Z   1
loop_
 _symmetry_equiv_pos_site_id
 _symmetry_equiv_pos_as_xyz
  1  'x, y, z'
loop_
 _atom_site_type_symbol
 _atom_site_label
 _atom_site_symmetry_multiplicity
 _atom_site_fract_x
 _atom_site_fract_y
 _atom_site_fract_z
 _atom_site_occupancy
  Ho  Ho0  1  0.051466  0.250000  0.498881  1
  Ho  Ho1  1  0.449799  0.250000  0.999146  1
  Ho  Ho2  1  0.551113  0.750000  0.000874  1
  Lu  Lu3  1  0.839498  0.750000  0.792100  1
  Lu  Lu4  1  0.160345  0.250000  0.207499  1
  Lu  Lu5  1  0.339760  0.250000  0.707070  1
  Lu  Lu6  1  0.660785  0.750000  0.293346  1
  Lu  Lu7  1  0.376947  0.750000  0.689124  1
  Lu  Lu8  1  0.623384  0.250000  0.310657  1
  Lu  Lu9  1  0.876811  0.250000  0.810186  1
  Lu  Lu10  1  0.123154  0.750000  0.189574  1
  Lu  Lu11  1  0.947364  0.750000  0.501478  1
  Lu  Lu12  1  0.673523  0.042761  0.566152  1
  Lu  Lu13  1  0.325935  0.955291  0.433906  1
  Lu  Lu14  1  0.172942  0.956644  0.933335  1
  Lu  Lu15  1  0.325935  0.544709  0.433906  1
  Lu  Lu16  1  0.826784  0.043782  0.066820  1
  Lu  Lu17  1  0.673523  0.457239  0.566152  1
  Lu  Lu18  1  0.826784  0.456218  0.066820  1
  Lu  Lu19  1  0.172942  0.543356  0.933335  1
  Bi  Bi20  1  0.565849  0.491312  0.825645  1
  Bi  Bi21  1  0.433921  0.509153  0.174413  1
  Bi  Bi22  1  0.065778  0.509482  0.673234  1
  Bi  Bi23  1  0.433921  0.990847  0.174413  1
  Bi  Bi24  1  0.934046  0.491751  0.326703  1
  Bi  Bi25  1  0.565849  0.008688  0.825645  1
  Bi  Bi26  1  0.934046  0.008249  0.326703  1
  Bi  Bi27  1  0.065778  0.990518  0.673234  1
  Rh  Rh28  1  0.574323  0.750000  0.508755  1
  Rh  Rh29  1  0.427486  0.250000  0.491108  1
  Rh  Rh30  1  0.072551  0.250000  0.991295  1
  Rh  Rh31  1  0.927656  0.750000  0.008493  1
