# generated using pymatgen
data_Zr3B2Ir2Ru3
_symmetry_space_group_name_H-M   'P 1'
_cell_length_a   9.63637800
_cell_length_b   9.64492300
_cell_length_c   3.13698900
_cell_angle_alpha   90.00000000
_cell_angle_beta   90.00000000
_cell_angle_gamma   89.99658270
_symmetry_Int_Tables_number   1
_chemical_formula_structural   Zr3B2Ir2Ru3
_chemical_formula_sum   'Zr6 B4 Ir4 Ru6'
_cell_volume   291.55841977
_cell_formula_units_Z   2
loop_
 _symmetry_equiv_pos_site_id
 _symmetry_equiv_pos_as_xyz
  1  'x, y, z'
loop_
 _atom_site_type_symbol
 _atom_site_label
 _atom_site_symmetry_multiplicity
 _atom_site_fract_x
 _atom_site_fract_y
 _atom_site_fract_z
 _atom_site_occupancy
  Zr  Zr0  1  0.672256  0.175197  0.000000  1
  Zr  Zr1  1  0.330141  0.821810  0.000000  1
  Zr  Zr2  1  0.175627  0.328643  0.000000  1
  Zr  Zr3  1  0.823349  0.672480  0.000000  1
  Zr  Zr4  1  0.999399  0.004375  0.000000  1
  Zr  Zr5  1  0.495725  0.500525  0.000000  1
  B  B6  1  0.123081  0.617188  0.000000  1
  B  B7  1  0.881741  0.377437  0.000000  1
  B  B8  1  0.616438  0.875062  0.000000  1
  B  B9  1  0.384129  0.124246  0.000000  1
  Ir  Ir10  1  0.224439  0.070666  0.500000  1
  Ir  Ir11  1  0.777001  0.928540  0.500000  1
  Ir  Ir12  1  0.070237  0.778689  0.500000  1
  Ir  Ir13  1  0.721612  0.427765  0.500000  1
  Ru  Ru14  1  0.928212  0.223981  0.500000  1
  Ru  Ru15  1  0.275717  0.573714  0.500000  1
  Ru  Ru16  1  0.573798  0.721393  0.500000  1
  Ru  Ru17  1  0.428420  0.277012  0.500000  1
  Ru  Ru18  1  0.500736  0.999273  0.500000  1
  Ru  Ru19  1  0.997944  0.502004  0.500000  1
