# generated using pymatgen
data_ErTm9Ir4
_symmetry_space_group_name_H-M   'P 1'
_cell_length_a   6.42992899
_cell_length_b   7.15854043
_cell_length_c   8.36788035
_cell_angle_alpha   96.47022907
_cell_angle_beta   112.51612691
_cell_angle_gamma   89.97169008
_symmetry_Int_Tables_number   1
_chemical_formula_structural   ErTm9Ir4
_chemical_formula_sum   'Er1 Tm9 Ir4'
_cell_volume   353.15570038
_cell_formula_units_Z   1
loop_
 _symmetry_equiv_pos_site_id
 _symmetry_equiv_pos_as_xyz
  1  'x, y, z'
loop_
 _atom_site_type_symbol
 _atom_site_label
 _atom_site_symmetry_multiplicity
 _atom_site_fract_x
 _atom_site_fract_y
 _atom_site_fract_z
 _atom_site_occupancy
  Er  Er0  1  0.969952  0.919305  0.181783  1
  Tm  Tm1  1  0.788490  0.581183  0.818019  1
  Tm  Tm2  1  0.029867  0.081055  0.818215  1
  Tm  Tm3  1  0.211472  0.418689  0.181753  1
  Tm  Tm4  1  0.653827  0.817829  0.442432  1
  Tm  Tm5  1  0.211995  0.681476  0.557594  1
  Tm  Tm6  1  0.346237  0.182222  0.557921  1
  Tm  Tm7  1  0.788087  0.318409  0.442587  1
  Tm  Tm8  1  0.427398  0.750002  0.999953  1
  Tm  Tm9  1  0.572295  0.250026  0.999846  1
  Ir  Ir10  1  0.826802  0.573034  0.218605  1
  Ir  Ir11  1  0.607968  0.926507  0.781474  1
  Ir  Ir12  1  0.173027  0.426532  0.781464  1
  Ir  Ir13  1  0.392584  0.073731  0.218352  1
