# generated using pymatgen
data_Tb2HoZr(NiAs)4
_symmetry_space_group_name_H-M   'P 1'
_cell_length_a   4.02781900
_cell_length_b   4.02782012
_cell_length_c   15.26503200
_cell_angle_alpha   90.00000000
_cell_angle_beta   90.00000000
_cell_angle_gamma   120.00001546
_symmetry_Int_Tables_number   1
_chemical_formula_structural   Tb2HoZr(NiAs)4
_chemical_formula_sum   'Tb2 Ho1 Zr1 Ni4 As4'
_cell_volume   214.47086136
_cell_formula_units_Z   1
loop_
 _symmetry_equiv_pos_site_id
 _symmetry_equiv_pos_as_xyz
  1  'x, y, z'
loop_
 _atom_site_type_symbol
 _atom_site_label
 _atom_site_symmetry_multiplicity
 _atom_site_fract_x
 _atom_site_fract_y
 _atom_site_fract_z
 _atom_site_occupancy
  Tb  Tb0  1  0.000000  0.000000  0.006192  1
  Tb  Tb1  1  0.000000  0.000000  0.493808  1
  Ho  Ho2  1  0.000000  0.000000  0.750000  1
  Zr  Zr3  1  0.000000  0.000000  0.250000  1
  Ni  Ni4  1  0.333333  0.666667  0.158103  1
  Ni  Ni5  1  0.666667  0.333333  0.870683  1
  Ni  Ni6  1  0.666667  0.333333  0.629317  1
  Ni  Ni7  1  0.333333  0.666667  0.341897  1
  As  As8  1  0.333333  0.666667  0.619324  1
  As  As9  1  0.666667  0.333333  0.375471  1
  As  As10  1  0.666667  0.333333  0.124529  1
  As  As11  1  0.333333  0.666667  0.880676  1
