# generated using pymatgen
data_Tm4Cu3Pt
_symmetry_space_group_name_H-M   'P 1'
_cell_length_a   4.45557300
_cell_length_b   5.38356538
_cell_length_c   6.96013465
_cell_angle_alpha   89.66673859
_cell_angle_beta   90.00000000
_cell_angle_gamma   90.00000000
_symmetry_Int_Tables_number   1
_chemical_formula_structural   Tm4Cu3Pt
_chemical_formula_sum   'Tm4 Cu3 Pt1'
_cell_volume   166.94901087
_cell_formula_units_Z   1
loop_
 _symmetry_equiv_pos_site_id
 _symmetry_equiv_pos_as_xyz
  1  'x, y, z'
loop_
 _atom_site_type_symbol
 _atom_site_label
 _atom_site_symmetry_multiplicity
 _atom_site_fract_x
 _atom_site_fract_y
 _atom_site_fract_z
 _atom_site_occupancy
  Tm  Tm0  1  0.250000  0.636242  0.182124  1
  Tm  Tm1  1  0.750000  0.358356  0.812635  1
  Tm  Tm2  1  0.750000  0.144865  0.321218  1
  Tm  Tm3  1  0.250000  0.860693  0.682382  1
  Cu  Cu4  1  0.250000  0.125691  0.033324  1
  Cu  Cu5  1  0.750000  0.869726  0.972293  1
  Cu  Cu6  1  0.750000  0.645042  0.459763  1
  Pt  Pt7  1  0.250000  0.359385  0.536261  1
