# generated using pymatgen
data_Ho3Tl2ZnAg2Ir
_symmetry_space_group_name_H-M   'P 1'
_cell_length_a   7.93558960
_cell_length_b   7.98592400
_cell_length_c   3.73292600
_cell_angle_alpha   90.00000000
_cell_angle_beta   90.00000000
_cell_angle_gamma   120.26212357
_symmetry_Int_Tables_number   1
_chemical_formula_structural   Ho3Tl2ZnAg2Ir
_chemical_formula_sum   'Ho3 Tl2 Zn1 Ag2 Ir1'
_cell_volume   204.32955944
_cell_formula_units_Z   1
loop_
 _symmetry_equiv_pos_site_id
 _symmetry_equiv_pos_as_xyz
  1  'x, y, z'
loop_
 _atom_site_type_symbol
 _atom_site_label
 _atom_site_symmetry_multiplicity
 _atom_site_fract_x
 _atom_site_fract_y
 _atom_site_fract_z
 _atom_site_occupancy
  Ho  Ho0  1  0.583338  0.623712  0.000000  1
  Ho  Ho1  1  0.396174  0.965656  0.000000  1
  Ho  Ho2  1  0.038137  0.421691  0.000000  1
  Tl  Tl3  1  0.987498  0.725340  0.500000  1
  Tl  Tl4  1  0.281093  0.263836  0.500000  1
  Zn  Zn5  1  0.721639  0.002377  0.500000  1
  Ag  Ag6  1  0.976884  0.004920  0.000000  1
  Ag  Ag7  1  0.672318  0.319480  0.500000  1
  Ir  Ir8  1  0.342920  0.672986  0.500000  1
