# generated using pymatgen
data_Si2Ni4Mo6CN
_symmetry_space_group_name_H-M   'P 1'
_cell_length_a   7.83413129
_cell_length_b   7.83413114
_cell_length_c   7.84594600
_cell_angle_alpha   59.95009901
_cell_angle_beta   59.95009965
_cell_angle_gamma   59.90114392
_symmetry_Int_Tables_number   1
_chemical_formula_structural   Si2Ni4Mo6CN
_chemical_formula_sum   'Si4 Ni8 Mo12 C2 N2'
_cell_volume   339.98440504
_cell_formula_units_Z   2
loop_
 _symmetry_equiv_pos_site_id
 _symmetry_equiv_pos_as_xyz
  1  'x, y, z'
loop_
 _atom_site_type_symbol
 _atom_site_label
 _atom_site_symmetry_multiplicity
 _atom_site_fract_x
 _atom_site_fract_y
 _atom_site_fract_z
 _atom_site_occupancy
  Si  Si0  1  0.125000  0.125000  0.125000  1
  Si  Si1  1  0.625000  0.125000  0.125000  1
  Si  Si2  1  0.125000  0.125000  0.625000  1
  Si  Si3  1  0.125000  0.625000  0.125000  1
  Ni  Ni4  1  0.918053  0.918053  0.246080  1
  Ni  Ni5  1  0.331947  0.331947  0.332185  1
  Ni  Ni6  1  0.245946  0.918248  0.917903  1
  Ni  Ni7  1  0.331752  0.004054  0.332097  1
  Ni  Ni8  1  0.004054  0.331752  0.332097  1
  Ni  Ni9  1  0.331947  0.331947  0.003920  1
  Ni  Ni10  1  0.918053  0.918053  0.917815  1
  Ni  Ni11  1  0.918248  0.245946  0.917903  1
  Mo  Mo12  1  0.693567  0.307385  0.307338  1
  Mo  Mo13  1  0.941862  0.941862  0.558138  1
  Mo  Mo14  1  0.693365  0.693365  0.306635  1
  Mo  Mo15  1  0.693567  0.307385  0.691709  1
  Mo  Mo16  1  0.307385  0.693567  0.307338  1
  Mo  Mo17  1  0.556433  0.942615  0.558291  1
  Mo  Mo18  1  0.556433  0.942615  0.942662  1
  Mo  Mo19  1  0.942615  0.556433  0.558291  1
  Mo  Mo20  1  0.942615  0.556433  0.942662  1
  Mo  Mo21  1  0.308138  0.308138  0.691862  1
  Mo  Mo22  1  0.556635  0.556635  0.943365  1
  Mo  Mo23  1  0.307385  0.693567  0.691709  1
  C  C24  1  0.625000  0.625000  0.625000  1
  C  C25  1  0.625000  0.625000  0.125000  1
  N  N26  1  0.125000  0.625000  0.625000  1
  N  N27  1  0.625000  0.125000  0.625000  1
