# generated using pymatgen
data_SrLi3Ca2(NiN)4
_symmetry_space_group_name_H-M   'P 1'
_cell_length_a   3.92125577
_cell_length_b   7.05658327
_cell_length_c   8.97542213
_cell_angle_alpha   113.14789486
_cell_angle_beta   102.61766649
_cell_angle_gamma   89.99999728
_symmetry_Int_Tables_number   1
_chemical_formula_structural   SrLi3Ca2(NiN)4
_chemical_formula_sum   'Sr1 Li3 Ca2 Ni4 N4'
_cell_volume   221.82368375
_cell_formula_units_Z   1
loop_
 _symmetry_equiv_pos_site_id
 _symmetry_equiv_pos_as_xyz
  1  'x, y, z'
loop_
 _atom_site_type_symbol
 _atom_site_label
 _atom_site_symmetry_multiplicity
 _atom_site_fract_x
 _atom_site_fract_y
 _atom_site_fract_z
 _atom_site_occupancy
  Sr  Sr0  1  0.000000  0.000000  0.000000  1
  Li  Li1  1  0.500001  0.500000  0.000000  1
  Li  Li2  1  0.120633  0.620632  0.241265  1
  Li  Li3  1  0.879369  0.379368  0.758735  1
  Ca  Ca4  1  0.218887  0.218887  0.437775  1
  Ca  Ca5  1  0.781114  0.781113  0.562225  1
  Ni  Ni6  1  0.625284  0.374999  0.250565  1
  Ni  Ni7  1  0.625284  0.875567  0.250565  1
  Ni  Ni8  1  0.374717  0.124433  0.749435  1
  Ni  Ni9  1  0.374717  0.625002  0.749435  1
  N  N10  1  0.624344  0.124343  0.248687  1
  N  N11  1  0.625307  0.625306  0.250614  1
  N  N12  1  0.374693  0.374693  0.749385  1
  N  N13  1  0.375657  0.875656  0.751313  1
