# generated using pymatgen
data_Dy6Mn(CrC4)3
_symmetry_space_group_name_H-M   'P 1'
_cell_length_a   8.11736200
_cell_length_b   8.11736312
_cell_length_c   4.99942900
_cell_angle_alpha   90.00000000
_cell_angle_beta   90.00000000
_cell_angle_gamma   119.99999543
_symmetry_Int_Tables_number   1
_chemical_formula_structural   Dy6Mn(CrC4)3
_chemical_formula_sum   'Dy6 Mn1 Cr3 C12'
_cell_volume   285.28631875
_cell_formula_units_Z   1
loop_
 _symmetry_equiv_pos_site_id
 _symmetry_equiv_pos_as_xyz
  1  'x, y, z'
loop_
 _atom_site_type_symbol
 _atom_site_label
 _atom_site_symmetry_multiplicity
 _atom_site_fract_x
 _atom_site_fract_y
 _atom_site_fract_z
 _atom_site_occupancy
  Dy  Dy0  1  0.622076  0.685933  0.750000  1
  Dy  Dy1  1  0.934959  0.619826  0.250000  1
  Dy  Dy2  1  0.684865  0.065041  0.250000  1
  Dy  Dy3  1  0.314067  0.936144  0.750000  1
  Dy  Dy4  1  0.063856  0.377924  0.750000  1
  Dy  Dy5  1  0.380174  0.315135  0.250000  1
  Mn  Mn6  1  0.333333  0.666667  0.250000  1
  Cr  Cr7  1  0.000000  0.000000  0.501562  1
  Cr  Cr8  1  0.000000  0.000000  0.998438  1
  Cr  Cr9  1  0.666667  0.333333  0.750000  1
  C  C10  1  0.963778  0.775742  0.750000  1
  C  C11  1  0.191847  0.962687  0.250000  1
  C  C12  1  0.770841  0.808153  0.250000  1
  C  C13  1  0.224258  0.188037  0.750000  1
  C  C14  1  0.811963  0.036222  0.750000  1
  C  C15  1  0.037313  0.229159  0.250000  1
  C  C16  1  0.865255  0.579647  0.750000  1
  C  C17  1  0.287061  0.863354  0.250000  1
  C  C18  1  0.576291  0.712939  0.250000  1
  C  C19  1  0.420353  0.285608  0.750000  1
  C  C20  1  0.136646  0.423709  0.250000  1
  C  C21  1  0.714392  0.134745  0.750000  1
