# generated using pymatgen
data_Sr2HoCu6Ni7B2
_symmetry_space_group_name_H-M   'P 1'
_cell_length_a   5.12426030
_cell_length_b   5.13412763
_cell_length_c   10.96009300
_cell_angle_alpha   90.00000000
_cell_angle_beta   90.00000000
_cell_angle_gamma   120.06371228
_symmetry_Int_Tables_number   1
_chemical_formula_structural   Sr2HoCu6Ni7B2
_chemical_formula_sum   'Sr2 Ho1 Cu6 Ni7 B2'
_cell_volume   249.55342544
_cell_formula_units_Z   1
loop_
 _symmetry_equiv_pos_site_id
 _symmetry_equiv_pos_as_xyz
  1  'x, y, z'
loop_
 _atom_site_type_symbol
 _atom_site_label
 _atom_site_symmetry_multiplicity
 _atom_site_fract_x
 _atom_site_fract_y
 _atom_site_fract_z
 _atom_site_occupancy
  Sr  Sr0  1  0.000000  0.000000  0.677789  1
  Sr  Sr1  1  0.000000  0.000000  0.322211  1
  Ho  Ho2  1  0.000000  0.000000  0.000000  1
  Cu  Cu3  1  0.500000  0.500000  0.500000  1
  Cu  Cu4  1  0.500000  0.000000  0.500000  1
  Cu  Cu5  1  0.672462  0.336230  0.686110  1
  Cu  Cu6  1  0.327538  0.663770  0.686110  1
  Cu  Cu7  1  0.327538  0.663770  0.313890  1
  Cu  Cu8  1  0.672462  0.336230  0.313890  1
  Ni  Ni9  1  0.000000  0.500000  0.500000  1
  Ni  Ni10  1  0.500000  0.500000  0.874600  1
  Ni  Ni11  1  0.500000  0.000000  0.874600  1
  Ni  Ni12  1  0.000000  0.500000  0.874801  1
  Ni  Ni13  1  0.500000  0.500000  0.125400  1
  Ni  Ni14  1  0.500000  0.000000  0.125400  1
  Ni  Ni15  1  0.000000  0.500000  0.125199  1
  B  B16  1  0.665860  0.332930  0.000000  1
  B  B17  1  0.334140  0.667070  0.000000  1
