# generated using pymatgen
data_Ca18YbTl2In6N7
_symmetry_space_group_name_H-M   'P 1'
_cell_length_a   10.44164842
_cell_length_b   10.45508948
_cell_length_c   10.45308985
_cell_angle_alpha   60.04926651
_cell_angle_beta   60.02781542
_cell_angle_gamma   60.04376480
_symmetry_Int_Tables_number   1
_chemical_formula_structural   Ca18YbTl2In6N7
_chemical_formula_sum   'Ca18 Yb1 Tl2 In6 N7'
_cell_volume   807.64932021
_cell_formula_units_Z   1
loop_
 _symmetry_equiv_pos_site_id
 _symmetry_equiv_pos_as_xyz
  1  'x, y, z'
loop_
 _atom_site_type_symbol
 _atom_site_label
 _atom_site_symmetry_multiplicity
 _atom_site_fract_x
 _atom_site_fract_y
 _atom_site_fract_z
 _atom_site_occupancy
  Ca  Ca0  1  0.173430  0.500424  0.826149  1
  Ca  Ca1  1  0.499967  0.826857  0.173154  1
  Ca  Ca2  1  0.826462  0.173947  0.499605  1
  Ca  Ca3  1  0.166545  0.833763  0.166267  1
  Ca  Ca4  1  0.826628  0.500200  0.173466  1
  Ca  Ca5  1  0.173484  0.826436  0.499767  1
  Ca  Ca6  1  0.167431  0.165442  0.834620  1
  Ca  Ca7  1  0.173957  0.500486  0.499480  1
  Ca  Ca8  1  0.833543  0.833790  0.166146  1
  Ca  Ca9  1  0.832494  0.165474  0.834491  1
  Ca  Ca10  1  0.500298  0.826435  0.499817  1
  Ca  Ca11  1  0.499663  0.500219  0.173587  1
  Ca  Ca12  1  0.166334  0.832752  0.834499  1
  Ca  Ca13  1  0.500032  0.173587  0.826401  1
  Ca  Ca14  1  0.500006  0.173946  0.499556  1
  Ca  Ca15  1  0.826046  0.500446  0.499585  1
  Ca  Ca16  1  0.833673  0.165516  0.167226  1
  Ca  Ca17  1  0.500028  0.500412  0.826028  1
  Yb  Yb18  1  0.500000  0.500091  0.499908  1
  Tl  Tl19  1  0.172644  0.172738  0.481985  1
  Tl  Tl20  1  0.827363  0.517990  0.827300  1
  In  In21  1  0.476947  0.175000  0.173161  1
  In  In22  1  0.175057  0.476574  0.173297  1
  In  In23  1  0.523040  0.826832  0.825019  1
  In  In24  1  0.174816  0.174988  0.173136  1
  In  In25  1  0.825173  0.826842  0.825046  1
  In  In26  1  0.824931  0.826681  0.523439  1
  N  N27  1  0.673345  0.327247  0.672748  1
  N  N28  1  0.673075  0.327178  0.326665  1
  N  N29  1  0.326930  0.673357  0.672798  1
  N  N30  1  0.326911  0.673057  0.326952  1
  N  N31  1  0.326640  0.327211  0.672767  1
  N  N32  1  0.673111  0.673089  0.326926  1
  N  N33  1  0.999997  0.000990  0.999010  1
