# generated using pymatgen
data_Hf2Zr3Re17Tc7
_symmetry_space_group_name_H-M   'P 1'
_cell_length_a   8.48286758
_cell_length_b   8.48286804
_cell_length_c   8.47453405
_cell_angle_alpha   109.47744015
_cell_angle_beta   109.47744613
_cell_angle_gamma   109.57083528
_symmetry_Int_Tables_number   1
_chemical_formula_structural   Hf2Zr3Re17Tc7
_chemical_formula_sum   'Hf2 Zr3 Re17 Tc7'
_cell_volume   468.78852947
_cell_formula_units_Z   1
loop_
 _symmetry_equiv_pos_site_id
 _symmetry_equiv_pos_as_xyz
  1  'x, y, z'
loop_
 _atom_site_type_symbol
 _atom_site_label
 _atom_site_symmetry_multiplicity
 _atom_site_fract_x
 _atom_site_fract_y
 _atom_site_fract_z
 _atom_site_occupancy
  Hf  Hf0  1  0.001480  0.001480  0.627989  1
  Hf  Hf1  1  0.372110  0.372110  0.372704  1
  Zr  Zr2  1  0.999542  0.999542  0.999629  1
  Zr  Zr3  1  0.625485  0.999593  0.999642  1
  Zr  Zr4  1  0.999593  0.625485  0.999642  1
  Re  Re5  1  0.000987  0.676454  0.396484  1
  Re  Re6  1  0.676454  0.000987  0.396484  1
  Re  Re7  1  0.603639  0.603639  0.278892  1
  Re  Re8  1  0.279325  0.604817  0.603703  1
  Re  Re9  1  0.604817  0.279325  0.603703  1
  Re  Re10  1  0.376670  0.195437  0.000934  1
  Re  Re11  1  0.180012  0.805818  0.804670  1
  Re  Re12  1  0.375556  0.001117  0.195169  1
  Re  Re13  1  0.195437  0.376670  0.000934  1
  Re  Re14  1  0.001117  0.375556  0.195169  1
  Re  Re15  1  0.805818  0.180012  0.804670  1
  Re  Re16  1  0.805616  0.805616  0.181481  1
  Re  Re17  1  0.001095  0.194467  0.377708  1
  Re  Re18  1  0.194467  0.001095  0.377708  1
  Re  Re19  1  0.622155  0.622155  0.816035  1
  Re  Re20  1  0.816087  0.622961  0.621881  1
  Re  Re21  1  0.622961  0.816087  0.621881  1
  Tc  Tc22  1  0.396314  0.677714  0.000570  1
  Tc  Tc23  1  0.719791  0.323153  0.322573  1
  Tc  Tc24  1  0.397238  0.002016  0.678232  1
  Tc  Tc25  1  0.677714  0.396314  0.000570  1
  Tc  Tc26  1  0.002016  0.397238  0.678232  1
  Tc  Tc27  1  0.323153  0.719791  0.322573  1
  Tc  Tc28  1  0.323352  0.323352  0.720142  1
