# generated using pymatgen
data_RbNd6RuI12
_symmetry_space_group_name_H-M   'P 1'
_cell_length_a   10.10227948
_cell_length_b   10.10227870
_cell_length_c   10.10227830
_cell_angle_alpha   104.84405675
_cell_angle_beta   104.84405409
_cell_angle_gamma   104.84405193
_symmetry_Int_Tables_number   1
_chemical_formula_structural   RbNd6RuI12
_chemical_formula_sum   'Rb1 Nd6 Ru1 I12'
_cell_volume   904.38770517
_cell_formula_units_Z   1
loop_
 _symmetry_equiv_pos_site_id
 _symmetry_equiv_pos_as_xyz
  1  'x, y, z'
loop_
 _atom_site_type_symbol
 _atom_site_label
 _atom_site_symmetry_multiplicity
 _atom_site_fract_x
 _atom_site_fract_y
 _atom_site_fract_z
 _atom_site_occupancy
  Rb  Rb0  1  0.500000  0.500000  0.500000  1
  Nd  Nd1  1  0.908782  0.705942  0.986749  1
  Nd  Nd2  1  0.986749  0.908782  0.705942  1
  Nd  Nd3  1  0.705942  0.986749  0.908782  1
  Nd  Nd4  1  0.091218  0.294058  0.013251  1
  Nd  Nd5  1  0.013251  0.091218  0.294058  1
  Nd  Nd6  1  0.294058  0.013251  0.091218  1
  Ru  Ru7  1  0.000000  0.000000  0.000000  1
  I  I8  1  0.657167  0.891213  0.573852  1
  I  I9  1  0.573852  0.657167  0.891213  1
  I  I10  1  0.891213  0.573852  0.657167  1
  I  I11  1  0.342833  0.108787  0.426148  1
  I  I12  1  0.426148  0.342833  0.108787  1
  I  I13  1  0.108787  0.426148  0.342833  1
  I  I14  1  0.675997  0.077080  0.223912  1
  I  I15  1  0.223912  0.675997  0.077080  1
  I  I16  1  0.077080  0.223912  0.675997  1
  I  I17  1  0.324003  0.922920  0.776088  1
  I  I18  1  0.776088  0.324003  0.922920  1
  I  I19  1  0.922920  0.776088  0.324003  1
