# generated using pymatgen
data_Y2FeSi5RuRh
_symmetry_space_group_name_H-M   'P 1'
_cell_length_a   8.11086384
_cell_length_b   8.11086399
_cell_length_c   5.58237528
_cell_angle_alpha   70.62911202
_cell_angle_beta   70.62910896
_cell_angle_gamma   94.15596354
_symmetry_Int_Tables_number   1
_chemical_formula_structural   Y2FeSi5RuRh
_chemical_formula_sum   'Y4 Fe2 Si10 Ru2 Rh2'
_cell_volume   319.89702298
_cell_formula_units_Z   2
loop_
 _symmetry_equiv_pos_site_id
 _symmetry_equiv_pos_as_xyz
  1  'x, y, z'
loop_
 _atom_site_type_symbol
 _atom_site_label
 _atom_site_symmetry_multiplicity
 _atom_site_fract_x
 _atom_site_fract_y
 _atom_site_fract_z
 _atom_site_occupancy
  Y  Y0  1  0.863482  0.594332  0.766071  1
  Y  Y1  1  0.129425  0.402044  0.234961  1
  Y  Y2  1  0.405668  0.136518  0.733929  1
  Y  Y3  1  0.597956  0.870575  0.265039  1
  Fe  Fe4  1  0.545741  0.255212  0.128927  1
  Fe  Fe5  1  0.744788  0.454259  0.371073  1
  Si  Si6  1  0.768539  0.231461  0.750000  1
  Si  Si7  1  0.213555  0.786445  0.250000  1
  Si  Si8  1  0.518306  0.481694  0.750000  1
  Si  Si9  1  0.505301  0.494699  0.250000  1
  Si  Si10  1  0.209916  0.790084  0.750000  1
  Si  Si11  1  0.785210  0.214790  0.250000  1
  Si  Si12  1  0.275691  0.074039  0.328971  1
  Si  Si13  1  0.729184  0.936340  0.672306  1
  Si  Si14  1  0.925961  0.724309  0.171029  1
  Si  Si15  1  0.063660  0.270816  0.827694  1
  Ru  Ru16  1  0.451658  0.734073  0.899852  1
  Ru  Ru17  1  0.265927  0.548342  0.600148  1
  Rh  Rh18  1  0.998829  0.001171  0.250000  1
  Rh  Rh19  1  0.001204  0.998796  0.750000  1
