# generated using pymatgen
data_Nd4Pa(BN3)2
_symmetry_space_group_name_H-M   'P 1'
_cell_length_a   6.39433842
_cell_length_b   6.39433775
_cell_length_c   8.79092922
_cell_angle_alpha   74.22957909
_cell_angle_beta   74.22958004
_cell_angle_gamma   32.47962121
_symmetry_Int_Tables_number   1
_chemical_formula_structural   Nd4Pa(BN3)2
_chemical_formula_sum   'Nd4 Pa1 B2 N6'
_cell_volume   185.12384643
_cell_formula_units_Z   1
loop_
 _symmetry_equiv_pos_site_id
 _symmetry_equiv_pos_as_xyz
  1  'x, y, z'
loop_
 _atom_site_type_symbol
 _atom_site_label
 _atom_site_symmetry_multiplicity
 _atom_site_fract_x
 _atom_site_fract_y
 _atom_site_fract_z
 _atom_site_occupancy
  Nd  Nd0  1  0.623002  0.623002  0.622401  1
  Nd  Nd1  1  0.309820  0.309820  0.813261  1
  Nd  Nd2  1  0.690180  0.690180  0.186739  1
  Nd  Nd3  1  0.376998  0.376998  0.377599  1
  Pa  Pa4  1  0.000000  0.000000  0.000000  1
  B  B5  1  0.054596  0.054596  0.408933  1
  B  B6  1  0.945404  0.945404  0.591067  1
  N  N7  1  0.027042  0.027042  0.251234  1
  N  N8  1  0.366045  0.366045  0.074331  1
  N  N9  1  0.824156  0.824156  0.594406  1
  N  N10  1  0.972958  0.972958  0.748766  1
  N  N11  1  0.633955  0.633955  0.925669  1
  N  N12  1  0.175844  0.175844  0.405594  1
