# generated using pymatgen
data_TbFeH5
_symmetry_space_group_name_H-M   'P 1'
_cell_length_a   4.23505400
_cell_length_b   4.58081300
_cell_length_c   11.25087000
_cell_angle_alpha   90.00000000
_cell_angle_beta   90.00000000
_cell_angle_gamma   90.00000000
_symmetry_Int_Tables_number   1
_chemical_formula_structural   TbFeH5
_chemical_formula_sum   'Tb4 Fe4 H20'
_cell_volume   218.26677020
_cell_formula_units_Z   4
loop_
 _symmetry_equiv_pos_site_id
 _symmetry_equiv_pos_as_xyz
  1  'x, y, z'
loop_
 _atom_site_type_symbol
 _atom_site_label
 _atom_site_symmetry_multiplicity
 _atom_site_fract_x
 _atom_site_fract_y
 _atom_site_fract_z
 _atom_site_occupancy
  Tb  Tb0  1  0.275754  0.162457  0.649378  1
  Tb  Tb1  1  0.775754  0.337543  0.350622  1
  Tb  Tb2  1  0.224246  0.837543  0.149378  1
  Tb  Tb3  1  0.724246  0.662457  0.850622  1
  Fe  Fe4  1  0.319291  0.163137  0.912142  1
  Fe  Fe5  1  0.819291  0.336863  0.087858  1
  Fe  Fe6  1  0.180709  0.836863  0.412142  1
  Fe  Fe7  1  0.680709  0.663137  0.587858  1
  H  H8  1  0.536237  0.404764  0.517203  1
  H  H9  1  0.036237  0.095236  0.482797  1
  H  H10  1  0.963763  0.595236  0.017203  1
  H  H11  1  0.463763  0.904764  0.982797  1
  H  H12  1  0.167573  0.934151  0.824215  1
  H  H13  1  0.667573  0.565849  0.175785  1
  H  H14  1  0.332427  0.065849  0.324215  1
  H  H15  1  0.832427  0.434151  0.675785  1
  H  H16  1  0.208487  0.434722  0.831723  1
  H  H17  1  0.708487  0.065278  0.168277  1
  H  H18  1  0.291513  0.565278  0.331723  1
  H  H19  1  0.791513  0.934722  0.668277  1
  H  H20  1  0.613217  0.156882  0.827907  1
  H  H21  1  0.113217  0.343118  0.172093  1
  H  H22  1  0.886783  0.843118  0.327907  1
  H  H23  1  0.386783  0.656882  0.672093  1
  H  H24  1  0.993547  0.097632  0.995895  1
  H  H25  1  0.493547  0.402368  0.004105  1
  H  H26  1  0.506453  0.902368  0.495895  1
  H  H27  1  0.006453  0.597632  0.504105  1
