# generated using pymatgen
data_Ti3SiTc3BP
_symmetry_space_group_name_H-M   'P 1'
_cell_length_a   6.60289000
_cell_length_b   6.60289009
_cell_length_c   3.17265900
_cell_angle_alpha   90.00000000
_cell_angle_beta   90.00000000
_cell_angle_gamma   120.00000959
_symmetry_Int_Tables_number   1
_chemical_formula_structural   Ti3SiTc3BP
_chemical_formula_sum   'Ti3 Si1 Tc3 B1 P1'
_cell_volume   119.79042788
_cell_formula_units_Z   1
loop_
 _symmetry_equiv_pos_site_id
 _symmetry_equiv_pos_as_xyz
  1  'x, y, z'
loop_
 _atom_site_type_symbol
 _atom_site_label
 _atom_site_symmetry_multiplicity
 _atom_site_fract_x
 _atom_site_fract_y
 _atom_site_fract_z
 _atom_site_occupancy
  Ti  Ti0  1  0.604052  0.991976  0.000000  1
  Ti  Ti1  1  0.387924  0.395948  0.000000  1
  Ti  Ti2  1  0.008024  0.612076  0.000000  1
  Si  Si3  1  0.666667  0.333333  0.500000  1
  Tc  Tc4  1  0.245430  0.997973  0.500000  1
  Tc  Tc5  1  0.752543  0.754570  0.500000  1
  Tc  Tc6  1  0.002027  0.247457  0.500000  1
  B  B7  1  0.000000  0.000000  0.000000  1
  P  P8  1  0.333333  0.666667  0.500000  1
