# generated using pymatgen
data_PrYHo3(In2Pd)2
_symmetry_space_group_name_H-M   'P 1'
_cell_length_a   3.64277600
_cell_length_b   8.21551086
_cell_length_c   18.40034478
_cell_angle_alpha   89.79728365
_cell_angle_beta   90.00000000
_cell_angle_gamma   90.00000000
_symmetry_Int_Tables_number   1
_chemical_formula_structural   PrYHo3(In2Pd)2
_chemical_formula_sum   'Pr2 Y2 Ho6 In8 Pd4'
_cell_volume   550.66856223
_cell_formula_units_Z   2
loop_
 _symmetry_equiv_pos_site_id
 _symmetry_equiv_pos_as_xyz
  1  'x, y, z'
loop_
 _atom_site_type_symbol
 _atom_site_label
 _atom_site_symmetry_multiplicity
 _atom_site_fract_x
 _atom_site_fract_y
 _atom_site_fract_z
 _atom_site_occupancy
  Pr  Pr0  1  0.000000  0.500000  0.500000  1
  Pr  Pr1  1  0.000000  0.000000  0.000000  1
  Y  Y2  1  0.000000  0.738480  0.282695  1
  Y  Y3  1  0.000000  0.261520  0.717305  1
  Ho  Ho4  1  0.000000  0.761048  0.782310  1
  Ho  Ho5  1  0.000000  0.238952  0.217690  1
  Ho  Ho6  1  0.000000  0.621284  0.084547  1
  Ho  Ho7  1  0.000000  0.378716  0.915453  1
  Ho  Ho8  1  0.000000  0.878558  0.584627  1
  Ho  Ho9  1  0.000000  0.121442  0.415373  1
  In  In10  1  0.500000  0.698387  0.931969  1
  In  In11  1  0.500000  0.301613  0.068031  1
  In  In12  1  0.500000  0.801834  0.432144  1
  In  In13  1  0.500000  0.198166  0.567856  1
  In  In14  1  0.500000  0.583612  0.654005  1
  In  In15  1  0.500000  0.416388  0.345995  1
  In  In16  1  0.500000  0.917065  0.153898  1
  In  In17  1  0.500000  0.082935  0.846102  1
  Pd  Pd18  1  0.500000  0.523317  0.195261  1
  Pd  Pd19  1  0.500000  0.476683  0.804739  1
  Pd  Pd20  1  0.500000  0.973327  0.695712  1
  Pd  Pd21  1  0.500000  0.026673  0.304288  1
