# generated using pymatgen
data_Eu3Cd3HgRh2
_symmetry_space_group_name_H-M   'P 1'
_cell_length_a   7.67581600
_cell_length_b   7.67581630
_cell_length_c   4.30760500
_cell_angle_alpha   90.00000000
_cell_angle_beta   90.00000000
_cell_angle_gamma   119.99999870
_symmetry_Int_Tables_number   1
_chemical_formula_structural   Eu3Cd3HgRh2
_chemical_formula_sum   'Eu3 Cd3 Hg1 Rh2'
_cell_volume   219.79390143
_cell_formula_units_Z   1
loop_
 _symmetry_equiv_pos_site_id
 _symmetry_equiv_pos_as_xyz
  1  'x, y, z'
loop_
 _atom_site_type_symbol
 _atom_site_label
 _atom_site_symmetry_multiplicity
 _atom_site_fract_x
 _atom_site_fract_y
 _atom_site_fract_z
 _atom_site_occupancy
  Eu  Eu0  1  0.419929  0.025469  0.000000  1
  Eu  Eu1  1  0.974531  0.394460  0.000000  1
  Eu  Eu2  1  0.605540  0.580071  0.000000  1
  Cd  Cd3  1  0.766235  0.009155  0.500000  1
  Cd  Cd4  1  0.242920  0.233765  0.500000  1
  Cd  Cd5  1  0.990845  0.757080  0.500000  1
  Hg  Hg6  1  0.333333  0.666666  0.500000  1
  Rh  Rh7  1  0.000000  0.000000  0.000000  1
  Rh  Rh8  1  0.666667  0.333333  0.500000  1
