# generated using pymatgen
data_Dy4HgPb11
_symmetry_space_group_name_H-M   'P 1'
_cell_length_a   9.72982500
_cell_length_b   6.89073276
_cell_length_c   6.89387000
_cell_angle_alpha   89.09543458
_cell_angle_beta   90.00000000
_cell_angle_gamma   90.00000000
_symmetry_Int_Tables_number   1
_chemical_formula_structural   Dy4HgPb11
_chemical_formula_sum   'Dy4 Hg1 Pb11'
_cell_volume   462.14621387
_cell_formula_units_Z   1
loop_
 _symmetry_equiv_pos_site_id
 _symmetry_equiv_pos_as_xyz
  1  'x, y, z'
loop_
 _atom_site_type_symbol
 _atom_site_label
 _atom_site_symmetry_multiplicity
 _atom_site_fract_x
 _atom_site_fract_y
 _atom_site_fract_z
 _atom_site_occupancy
  Dy  Dy0  1  0.250000  0.007078  0.002103  1
  Dy  Dy1  1  0.250000  0.494763  0.504545  1
  Dy  Dy2  1  0.750000  0.995202  0.996935  1
  Dy  Dy3  1  0.750000  0.505677  0.498493  1
  Hg  Hg4  1  0.750000  0.492829  0.995700  1
  Pb  Pb5  1  0.995900  0.247118  0.747597  1
  Pb  Pb6  1  0.504511  0.254880  0.245577  1
  Pb  Pb7  1  0.503097  0.751724  0.251623  1
  Pb  Pb8  1  0.996323  0.744894  0.754906  1
  Pb  Pb9  1  0.996903  0.751724  0.251623  1
  Pb  Pb10  1  0.503677  0.744894  0.754906  1
  Pb  Pb11  1  0.504100  0.247118  0.747597  1
  Pb  Pb12  1  0.995489  0.254880  0.245577  1
  Pb  Pb13  1  0.250000  0.997560  0.500586  1
  Pb  Pb14  1  0.250000  0.505756  0.004017  1
  Pb  Pb15  1  0.750000  0.003902  0.498214  1
