# generated using pymatgen
data_Pr4Mn4FeAg3O20
_symmetry_space_group_name_H-M   'P 1'
_cell_length_a   5.86364900
_cell_length_b   7.86008376
_cell_length_c   8.91298703
_cell_angle_alpha   88.94357071
_cell_angle_beta   90.00000000
_cell_angle_gamma   90.00000000
_symmetry_Int_Tables_number   1
_chemical_formula_structural   Pr4Mn4FeAg3O20
_chemical_formula_sum   'Pr4 Mn4 Fe1 Ag3 O20'
_cell_volume   410.71880452
_cell_formula_units_Z   1
loop_
 _symmetry_equiv_pos_site_id
 _symmetry_equiv_pos_as_xyz
  1  'x, y, z'
loop_
 _atom_site_type_symbol
 _atom_site_label
 _atom_site_symmetry_multiplicity
 _atom_site_fract_x
 _atom_site_fract_y
 _atom_site_fract_z
 _atom_site_occupancy
  Pr  Pr0  1  0.000000  0.358918  0.676806  1
  Pr  Pr1  1  0.000000  0.641572  0.324208  1
  Pr  Pr2  1  0.000000  0.849081  0.827469  1
  Pr  Pr3  1  0.000000  0.156293  0.171814  1
  Mn  Mn4  1  0.260009  0.498958  0.003460  1
  Mn  Mn5  1  0.746110  0.004246  0.498163  1
  Mn  Mn6  1  0.739991  0.498958  0.003460  1
  Mn  Mn7  1  0.253890  0.004246  0.498163  1
  Fe  Fe8  1  0.500000  0.388046  0.353482  1
  Ag  Ag9  1  0.500000  0.067313  0.841070  1
  Ag  Ag10  1  0.500000  0.933284  0.157034  1
  Ag  Ag11  1  0.500000  0.566771  0.653650  1
  O  O12  1  0.233417  0.909839  0.299430  1
  O  O13  1  0.234878  0.096808  0.698307  1
  O  O14  1  0.752584  0.404749  0.209208  1
  O  O15  1  0.764741  0.593981  0.798531  1
  O  O16  1  0.765122  0.096808  0.698307  1
  O  O17  1  0.766583  0.909839  0.299430  1
  O  O18  1  0.235259  0.593981  0.798531  1
  O  O19  1  0.247416  0.404749  0.209208  1
  O  O20  1  0.500000  0.356537  0.945798  1
  O  O21  1  0.500000  0.642961  0.057967  1
  O  O22  1  0.500000  0.866161  0.556591  1
  O  O23  1  0.500000  0.156386  0.431926  1
  O  O24  1  0.257137  0.999768  0.998809  1
  O  O25  1  0.731422  0.495697  0.494554  1
  O  O26  1  0.742863  0.999768  0.998809  1
  O  O27  1  0.268578  0.495697  0.494554  1
  O  O28  1  0.000000  0.160355  0.448820  1
  O  O29  1  0.000000  0.849598  0.548922  1
  O  O30  1  0.000000  0.653727  0.052411  1
  O  O31  1  0.000000  0.344904  0.951108  1
