# generated using pymatgen
data_Dy10Y2Co5Sn
_symmetry_space_group_name_H-M   'P 1'
_cell_length_a   8.30739587
_cell_length_b   8.30739647
_cell_length_c   8.30739587
_cell_angle_alpha   106.99136238
_cell_angle_beta   110.74841331
_cell_angle_gamma   110.70198861
_symmetry_Int_Tables_number   1
_chemical_formula_structural   Dy10Y2Co5Sn
_chemical_formula_sum   'Dy10 Y2 Co5 Sn1'
_cell_volume   440.72278612
_cell_formula_units_Z   1
loop_
 _symmetry_equiv_pos_site_id
 _symmetry_equiv_pos_as_xyz
  1  'x, y, z'
loop_
 _atom_site_type_symbol
 _atom_site_label
 _atom_site_symmetry_multiplicity
 _atom_site_fract_x
 _atom_site_fract_y
 _atom_site_fract_z
 _atom_site_occupancy
  Dy  Dy0  1  0.893146  0.707357  0.185789  1
  Dy  Dy1  1  0.521569  0.707357  0.814211  1
  Dy  Dy2  1  0.306669  0.620655  0.313987  1
  Dy  Dy3  1  0.306669  0.992683  0.686013  1
  Dy  Dy4  1  0.693293  0.379937  0.686643  1
  Dy  Dy5  1  0.693293  0.006649  0.313357  1
  Dy  Dy6  1  0.192467  0.207071  0.399772  1
  Dy  Dy7  1  0.807299  0.792695  0.600228  1
  Dy  Dy8  1  0.192467  0.792695  0.985395  1
  Dy  Dy9  1  0.807299  0.207071  0.014605  1
  Y  Y10  1  0.479622  0.292742  0.186880  1
  Y  Y11  1  0.105863  0.292742  0.813120  1
  Co  Co12  1  0.501066  0.613088  0.112022  1
  Co  Co13  1  0.501066  0.389044  0.887978  1
  Co  Co14  1  0.378208  0.000008  0.378200  1
  Co  Co15  1  0.621809  0.000008  0.621800  1
  Co  Co16  1  0.998600  0.998600  0.000000  1
  Sn  Sn17  1  0.999596  0.499596  0.500000  1
