# generated using pymatgen
data_Er4Co9P12Ir3Rh8
_symmetry_space_group_name_H-M   'P 1'
_cell_length_a   3.78870200
_cell_length_b   10.57725718
_cell_length_c   12.18017767
_cell_angle_alpha   89.79177147
_cell_angle_beta   90.00000000
_cell_angle_gamma   90.00000000
_symmetry_Int_Tables_number   1
_chemical_formula_structural   Er4Co9P12Ir3Rh8
_chemical_formula_sum   'Er4 Co9 P12 Ir3 Rh8'
_cell_volume   488.10613528
_cell_formula_units_Z   1
loop_
 _symmetry_equiv_pos_site_id
 _symmetry_equiv_pos_as_xyz
  1  'x, y, z'
loop_
 _atom_site_type_symbol
 _atom_site_label
 _atom_site_symmetry_multiplicity
 _atom_site_fract_x
 _atom_site_fract_y
 _atom_site_fract_z
 _atom_site_occupancy
  Er  Er0  1  0.250000  0.583653  0.709091  1
  Er  Er1  1  0.250000  0.912235  0.213823  1
  Er  Er2  1  0.750000  0.420819  0.290946  1
  Er  Er3  1  0.750000  0.082257  0.790329  1
  Co  Co4  1  0.750000  0.722829  0.321715  1
  Co  Co5  1  0.250000  0.882927  0.695695  1
  Co  Co6  1  0.250000  0.621267  0.196867  1
  Co  Co7  1  0.750000  0.112980  0.303536  1
  Co  Co8  1  0.750000  0.383661  0.802690  1
  Co  Co9  1  0.250000  0.462287  0.932582  1
  Co  Co10  1  0.250000  0.036253  0.431828  1
  Co  Co11  1  0.750000  0.537707  0.068439  1
  Co  Co12  1  0.750000  0.964707  0.566390  1
  P  P13  1  0.250000  0.431654  0.111460  1
  P  P14  1  0.250000  0.069886  0.610211  1
  P  P15  1  0.750000  0.569158  0.889848  1
  P  P16  1  0.750000  0.922069  0.388529  1
  P  P17  1  0.250000  0.272230  0.870603  1
  P  P18  1  0.250000  0.226926  0.370729  1
  P  P19  1  0.750000  0.725362  0.139222  1
  P  P20  1  0.750000  0.774108  0.628656  1
  P  P21  1  0.250000  0.606610  0.376844  1
  P  P22  1  0.250000  0.899860  0.880333  1
  P  P23  1  0.750000  0.403378  0.618449  1
  P  P24  1  0.750000  0.096885  0.120946  1
  Ir  Ir25  1  0.250000  0.225103  0.180052  1
  Ir  Ir26  1  0.250000  0.275300  0.678710  1
  Ir  Ir27  1  0.750000  0.774740  0.820698  1
  Rh  Rh28  1  0.250000  0.715019  0.989264  1
  Rh  Rh29  1  0.250000  0.786556  0.485919  1
  Rh  Rh30  1  0.750000  0.281119  0.009127  1
  Rh  Rh31  1  0.750000  0.220147  0.506928  1
  Rh  Rh32  1  0.250000  0.412274  0.475611  1
  Rh  Rh33  1  0.250000  0.088352  0.978133  1
  Rh  Rh34  1  0.750000  0.594237  0.519363  1
  Rh  Rh35  1  0.750000  0.905446  0.026434  1
