# generated using pymatgen
data_Lu4Ti3GaIr4
_symmetry_space_group_name_H-M   'P 1'
_cell_length_a   4.28636100
_cell_length_b   6.84191079
_cell_length_c   7.90826232
_cell_angle_alpha   87.35114848
_cell_angle_beta   90.00000000
_cell_angle_gamma   90.00000000
_symmetry_Int_Tables_number   1
_chemical_formula_structural   Lu4Ti3GaIr4
_chemical_formula_sum   'Lu4 Ti3 Ga1 Ir4'
_cell_volume   231.67701011
_cell_formula_units_Z   1
loop_
 _symmetry_equiv_pos_site_id
 _symmetry_equiv_pos_as_xyz
  1  'x, y, z'
loop_
 _atom_site_type_symbol
 _atom_site_label
 _atom_site_symmetry_multiplicity
 _atom_site_fract_x
 _atom_site_fract_y
 _atom_site_fract_z
 _atom_site_occupancy
  Lu  Lu0  1  0.750000  0.486637  0.826880  1
  Lu  Lu1  1  0.250000  0.020753  0.316890  1
  Lu  Lu2  1  0.750000  0.971438  0.685903  1
  Lu  Lu3  1  0.250000  0.530356  0.171813  1
  Ti  Ti4  1  0.250000  0.636862  0.569286  1
  Ti  Ti5  1  0.250000  0.136713  0.940295  1
  Ti  Ti6  1  0.750000  0.363136  0.430458  1
  Ga  Ga7  1  0.750000  0.851933  0.068370  1
  Ir  Ir8  1  0.250000  0.773821  0.873297  1
  Ir  Ir9  1  0.250000  0.272042  0.605525  1
  Ir  Ir10  1  0.750000  0.726309  0.395685  1
  Ir  Ir11  1  0.750000  0.230001  0.115599  1
