# generated using pymatgen
data_HfMg(NbRe8)3
_symmetry_space_group_name_H-M   'P 1'
_cell_length_a   8.43039542
_cell_length_b   8.43039496
_cell_length_c   8.43039499
_cell_angle_alpha   109.51055355
_cell_angle_beta   109.51055256
_cell_angle_gamma   109.51056102
_symmetry_Int_Tables_number   1
_chemical_formula_structural   HfMg(NbRe8)3
_chemical_formula_sum   'Hf1 Mg1 Nb3 Re24'
_cell_volume   460.56168155
_cell_formula_units_Z   1
loop_
 _symmetry_equiv_pos_site_id
 _symmetry_equiv_pos_as_xyz
  1  'x, y, z'
loop_
 _atom_site_type_symbol
 _atom_site_label
 _atom_site_symmetry_multiplicity
 _atom_site_fract_x
 _atom_site_fract_y
 _atom_site_fract_z
 _atom_site_occupancy
  Hf  Hf0  1  0.366785  0.366785  0.366785  1
  Mg  Mg1  1  0.999230  0.999230  0.999230  1
  Nb  Nb2  1  0.633776  0.000300  0.000300  1
  Nb  Nb3  1  0.000300  0.633776  0.000300  1
  Nb  Nb4  1  0.000300  0.000300  0.633776  1
  Re  Re5  1  0.397914  0.680648  0.000731  1
  Re  Re6  1  0.717701  0.320328  0.320328  1
  Re  Re7  1  0.397914  0.000731  0.680648  1
  Re  Re8  1  0.680648  0.397914  0.000731  1
  Re  Re9  1  0.000731  0.397914  0.680648  1
  Re  Re10  1  0.320328  0.717701  0.320328  1
  Re  Re11  1  0.320328  0.320328  0.717701  1
  Re  Re12  1  0.000731  0.680648  0.397914  1
  Re  Re13  1  0.680648  0.000731  0.397914  1
  Re  Re14  1  0.605084  0.605084  0.281053  1
  Re  Re15  1  0.281053  0.605084  0.605084  1
  Re  Re16  1  0.605084  0.281053  0.605084  1
  Re  Re17  1  0.374682  0.192820  0.998818  1
  Re  Re18  1  0.180373  0.805045  0.805045  1
  Re  Re19  1  0.374682  0.998818  0.192820  1
  Re  Re20  1  0.192820  0.374682  0.998818  1
  Re  Re21  1  0.998818  0.374682  0.192820  1
  Re  Re22  1  0.805045  0.180373  0.805045  1
  Re  Re23  1  0.805045  0.805045  0.180373  1
  Re  Re24  1  0.998818  0.192820  0.374682  1
  Re  Re25  1  0.192820  0.998818  0.374682  1
  Re  Re26  1  0.624872  0.624872  0.818595  1
  Re  Re27  1  0.818595  0.624872  0.624872  1
  Re  Re28  1  0.624872  0.818595  0.624872  1
