# generated using pymatgen
data_Cs17Tm5O16
_symmetry_space_group_name_H-M   'P 1'
_cell_length_a   20.79236981
_cell_length_b   20.79237032
_cell_length_c   7.64819900
_cell_angle_alpha   84.81621767
_cell_angle_beta   84.81620924
_cell_angle_gamma   158.90472742
_symmetry_Int_Tables_number   1
_chemical_formula_structural   Cs17Tm5O16
_chemical_formula_sum   'Cs17 Tm5 O16'
_cell_volume   1035.00729009
_cell_formula_units_Z   1
loop_
 _symmetry_equiv_pos_site_id
 _symmetry_equiv_pos_as_xyz
  1  'x, y, z'
loop_
 _atom_site_type_symbol
 _atom_site_label
 _atom_site_symmetry_multiplicity
 _atom_site_fract_x
 _atom_site_fract_y
 _atom_site_fract_z
 _atom_site_occupancy
  Cs  Cs0  1  0.387344  0.665036  0.060276  1
  Cs  Cs1  1  0.476012  0.567931  0.080885  1
  Cs  Cs2  1  0.317386  0.780655  0.069325  1
  Cs  Cs3  1  0.085779  0.914099  0.196185  1
  Cs  Cs4  1  0.169157  0.826772  0.471089  1
  Cs  Cs5  1  0.334381  0.606783  0.587055  1
  Cs  Cs6  1  0.224442  0.678136  0.610587  1
  Cs  Cs7  1  0.426019  0.517317  0.606425  1
  Cs  Cs8  1  0.665036  0.387344  0.060276  1
  Cs  Cs9  1  0.567931  0.476012  0.080885  1
  Cs  Cs10  1  0.780655  0.317386  0.069325  1
  Cs  Cs11  1  0.914099  0.085779  0.196185  1
  Cs  Cs12  1  0.826772  0.169157  0.471089  1
  Cs  Cs13  1  0.606783  0.334381  0.587055  1
  Cs  Cs14  1  0.678136  0.224442  0.610587  1
  Cs  Cs15  1  0.517317  0.426019  0.606425  1
  Cs  Cs16  1  0.994614  0.994614  0.482705  1
  Tm  Tm17  1  0.997258  0.997258  0.988486  1
  Tm  Tm18  1  0.084799  0.906885  0.691014  1
  Tm  Tm19  1  0.177535  0.821976  0.983919  1
  Tm  Tm20  1  0.906885  0.084799  0.691014  1
  Tm  Tm21  1  0.821976  0.177535  0.983919  1
  O  O22  1  0.081300  0.452516  0.000462  1
  O  O23  1  0.163931  0.347978  0.407580  1
  O  O24  1  0.452516  0.081300  0.000462  1
  O  O25  1  0.257726  0.257726  0.017059  1
  O  O26  1  0.550951  0.919482  0.264086  1
  O  O27  1  0.209386  0.783709  0.783047  1
  O  O28  1  0.039882  0.953607  0.829203  1
  O  O29  1  0.128600  0.870535  0.869707  1
  O  O30  1  0.347978  0.163931  0.407580  1
  O  O31  1  0.644008  0.827643  0.662264  1
  O  O32  1  0.919482  0.550951  0.264086  1
  O  O33  1  0.736430  0.736430  0.272027  1
  O  O34  1  0.783709  0.209386  0.783047  1
  O  O35  1  0.953607  0.039882  0.829203  1
  O  O36  1  0.870535  0.128600  0.869707  1
  O  O37  1  0.827643  0.644008  0.662264  1
