# generated using pymatgen
data_Er4ScIn4AgPt
_symmetry_space_group_name_H-M   'P 1'
_cell_length_a   3.63751700
_cell_length_b   8.04139447
_cell_length_c   18.07859102
_cell_angle_alpha   89.91140580
_cell_angle_beta   90.00000000
_cell_angle_gamma   90.00000000
_symmetry_Int_Tables_number   1
_chemical_formula_structural   Er4ScIn4AgPt
_chemical_formula_sum   'Er8 Sc2 In8 Ag2 Pt2'
_cell_volume   528.81097437
_cell_formula_units_Z   2
loop_
 _symmetry_equiv_pos_site_id
 _symmetry_equiv_pos_as_xyz
  1  'x, y, z'
loop_
 _atom_site_type_symbol
 _atom_site_label
 _atom_site_symmetry_multiplicity
 _atom_site_fract_x
 _atom_site_fract_y
 _atom_site_fract_z
 _atom_site_occupancy
  Er  Er0  1  0.000000  0.381447  0.914636  1
  Er  Er1  1  0.000000  0.618553  0.085364  1
  Er  Er2  1  0.000000  0.253953  0.215378  1
  Er  Er3  1  0.000000  0.746047  0.784622  1
  Er  Er4  1  0.000000  0.278751  0.716199  1
  Er  Er5  1  0.000000  0.721249  0.283801  1
  Er  Er6  1  0.000000  0.000000  0.000000  1
  Er  Er7  1  0.000000  0.500000  0.500000  1
  Sc  Sc8  1  0.000000  0.121030  0.422402  1
  Sc  Sc9  1  0.000000  0.878970  0.577598  1
  In  In10  1  0.500000  0.405341  0.354426  1
  In  In11  1  0.500000  0.594659  0.645574  1
  In  In12  1  0.500000  0.077374  0.847928  1
  In  In13  1  0.500000  0.922626  0.152072  1
  In  In14  1  0.500000  0.292408  0.064657  1
  In  In15  1  0.500000  0.707592  0.935343  1
  In  In16  1  0.500000  0.197658  0.562763  1
  In  In17  1  0.500000  0.802342  0.437237  1
  Ag  Ag18  1  0.500000  0.027941  0.307198  1
  Ag  Ag19  1  0.500000  0.972059  0.692802  1
  Pt  Pt20  1  0.500000  0.473120  0.802122  1
  Pt  Pt21  1  0.500000  0.526880  0.197878  1
