# generated using pymatgen
data_Cs6CaIn2PbBr12
_symmetry_space_group_name_H-M   'P 1'
_cell_length_a   9.80490503
_cell_length_b   9.80490512
_cell_length_c   9.80490538
_cell_angle_alpha   91.60365399
_cell_angle_beta   91.60365674
_cell_angle_gamma   91.60365736
_symmetry_Int_Tables_number   1
_chemical_formula_structural   Cs6CaIn2PbBr12
_chemical_formula_sum   'Cs6 Ca1 In2 Pb1 Br12'
_cell_volume   941.47730077
_cell_formula_units_Z   1
loop_
 _symmetry_equiv_pos_site_id
 _symmetry_equiv_pos_as_xyz
  1  'x, y, z'
loop_
 _atom_site_type_symbol
 _atom_site_label
 _atom_site_symmetry_multiplicity
 _atom_site_fract_x
 _atom_site_fract_y
 _atom_site_fract_z
 _atom_site_occupancy
  Cs  Cs0  1  0.249116  0.625775  0.873828  1
  Cs  Cs1  1  0.873828  0.249116  0.625775  1
  Cs  Cs2  1  0.625775  0.873828  0.249116  1
  Cs  Cs3  1  0.750884  0.374225  0.126172  1
  Cs  Cs4  1  0.126172  0.750884  0.374225  1
  Cs  Cs5  1  0.374225  0.126172  0.750884  1
  Ca  Ca6  1  0.000000  0.000000  0.000000  1
  In  In7  1  0.249411  0.249411  0.249411  1
  In  In8  1  0.750589  0.750589  0.750589  1
  Pb  Pb9  1  0.500000  0.500000  0.500000  1
  Br  Br10  1  0.549268  0.203561  0.417749  1
  Br  Br11  1  0.417749  0.549268  0.203561  1
  Br  Br12  1  0.203561  0.417749  0.549268  1
  Br  Br13  1  0.952817  0.079311  0.285144  1
  Br  Br14  1  0.285144  0.952817  0.079311  1
  Br  Br15  1  0.079311  0.285144  0.952817  1
  Br  Br16  1  0.450732  0.796439  0.582251  1
  Br  Br17  1  0.582251  0.450732  0.796439  1
  Br  Br18  1  0.796439  0.582251  0.450732  1
  Br  Br19  1  0.047183  0.920689  0.714856  1
  Br  Br20  1  0.920689  0.714856  0.047183  1
  Br  Br21  1  0.714856  0.047183  0.920689  1
