# generated using pymatgen
data_Tb4Ga18Ni2IrRu3
_symmetry_space_group_name_H-M   'P 1'
_cell_length_a   7.55997734
_cell_length_b   7.55998110
_cell_length_c   9.57992750
_cell_angle_alpha   90.04228175
_cell_angle_beta   90.04221964
_cell_angle_gamma   120.46566909
_symmetry_Int_Tables_number   1
_chemical_formula_structural   Tb4Ga18Ni2IrRu3
_chemical_formula_sum   'Tb4 Ga18 Ni2 Ir1 Ru3'
_cell_volume   471.92883533
_cell_formula_units_Z   1
loop_
 _symmetry_equiv_pos_site_id
 _symmetry_equiv_pos_as_xyz
  1  'x, y, z'
loop_
 _atom_site_type_symbol
 _atom_site_label
 _atom_site_symmetry_multiplicity
 _atom_site_fract_x
 _atom_site_fract_y
 _atom_site_fract_z
 _atom_site_occupancy
  Tb  Tb0  1  0.995110  0.659422  0.250241  1
  Tb  Tb1  1  0.004593  0.340237  0.749818  1
  Tb  Tb2  1  0.659763  0.995408  0.250182  1
  Tb  Tb3  1  0.340578  0.004890  0.749758  1
  Ga  Ga4  1  0.112847  0.111868  0.250984  1
  Ga  Ga5  1  0.888132  0.887153  0.749017  1
  Ga  Ga6  1  0.001387  0.327009  0.076317  1
  Ga  Ga7  1  0.999839  0.672850  0.924525  1
  Ga  Ga8  1  0.001830  0.673717  0.575525  1
  Ga  Ga9  1  0.326284  0.998170  0.424475  1
  Ga  Ga10  1  0.001506  0.327998  0.424461  1
  Ga  Ga11  1  0.672002  0.998494  0.575538  1
  Ga  Ga12  1  0.672991  0.998613  0.923683  1
  Ga  Ga13  1  0.327150  0.000161  0.075475  1
  Ga  Ga14  1  0.330601  0.332955  0.560896  1
  Ga  Ga15  1  0.667044  0.669399  0.439103  1
  Ga  Ga16  1  0.665730  0.665707  0.060454  1
  Ga  Ga17  1  0.334293  0.334270  0.939546  1
  Ga  Ga18  1  0.335407  0.543447  0.250710  1
  Ga  Ga19  1  0.665234  0.459100  0.751114  1
  Ga  Ga20  1  0.540899  0.334766  0.248886  1
  Ga  Ga21  1  0.456553  0.664593  0.749290  1
  Ni  Ni22  1  0.000047  0.999952  0.000001  1
  Ni  Ni23  1  0.999930  0.000072  0.500000  1
  Ir  Ir24  1  0.672160  0.327841  0.500000  1
  Ru  Ru25  1  0.673408  0.326592  0.000000  1
  Ru  Ru26  1  0.327188  0.672812  0.000000  1
  Ru  Ru27  1  0.327493  0.672504  0.500001  1
