# generated using pymatgen
data_Zr10AlGePb4
_symmetry_space_group_name_H-M   'P 1'
_cell_length_a   8.39750923
_cell_length_b   8.39753861
_cell_length_c   8.39750800
_cell_angle_alpha   96.20542350
_cell_angle_beta   96.21167022
_cell_angle_gamma   141.60074107
_symmetry_Int_Tables_number   1
_chemical_formula_structural   Zr10AlGePb4
_chemical_formula_sum   'Zr10 Al1 Ge1 Pb4'
_cell_volume   347.36626968
_cell_formula_units_Z   1
loop_
 _symmetry_equiv_pos_site_id
 _symmetry_equiv_pos_as_xyz
  1  'x, y, z'
loop_
 _atom_site_type_symbol
 _atom_site_label
 _atom_site_symmetry_multiplicity
 _atom_site_fract_x
 _atom_site_fract_y
 _atom_site_fract_z
 _atom_site_occupancy
  Zr  Zr0  1  0.424550  0.288317  0.714405  1
  Zr  Zr1  1  0.211910  0.075855  0.285780  1
  Zr  Zr2  1  0.573466  0.709645  0.285703  1
  Zr  Zr3  1  0.250153  0.750000  0.500153  1
  Zr  Zr4  1  0.287868  0.573801  0.863835  1
  Zr  Zr5  1  0.709923  0.424145  0.136053  1
  Zr  Zr6  1  0.749897  0.250000  0.499897  1
  Zr  Zr7  1  0.926090  0.211683  0.136233  1
  Zr  Zr8  1  0.790033  0.926199  0.714066  1
  Zr  Zr9  1  0.076058  0.790355  0.863821  1
  Al  Al10  1  0.249982  0.250000  0.999982  1
  Ge  Ge11  1  0.749881  0.750000  0.999881  1
  Pb  Pb12  1  0.165319  0.334726  0.500193  1
  Pb  Pb13  1  0.665466  0.165274  0.830593  1
  Pb  Pb14  1  0.834662  0.665216  0.499959  1
  Pb  Pb15  1  0.334742  0.834784  0.169444  1
