# generated using pymatgen
data_Cr20Co(WC3)2
_symmetry_space_group_name_H-M   'P 1'
_cell_length_a   7.51936733
_cell_length_b   7.51958667
_cell_length_c   7.51948200
_cell_angle_alpha   60.00088272
_cell_angle_beta   60.00028767
_cell_angle_gamma   59.99886528
_symmetry_Int_Tables_number   1
_chemical_formula_structural   Cr20Co(WC3)2
_chemical_formula_sum   'Cr20 Co1 W2 C6'
_cell_volume   300.64107346
_cell_formula_units_Z   1
loop_
 _symmetry_equiv_pos_site_id
 _symmetry_equiv_pos_as_xyz
  1  'x, y, z'
loop_
 _atom_site_type_symbol
 _atom_site_label
 _atom_site_symmetry_multiplicity
 _atom_site_fract_x
 _atom_site_fract_y
 _atom_site_fract_z
 _atom_site_occupancy
  Cr  Cr0  1  0.615653  0.615643  0.153019  1
  Cr  Cr1  1  0.615695  0.153019  0.615641  1
  Cr  Cr2  1  0.153012  0.615695  0.615635  1
  Cr  Cr3  1  0.615659  0.615646  0.615682  1
  Cr  Cr4  1  0.384350  0.384369  0.846986  1
  Cr  Cr5  1  0.384312  0.846977  0.384360  1
  Cr  Cr6  1  0.846992  0.384330  0.384344  1
  Cr  Cr7  1  0.384331  0.384371  0.384302  1
  Cr  Cr8  1  0.000002  0.999982  0.331628  1
  Cr  Cr9  1  0.668430  0.999997  0.331600  1
  Cr  Cr10  1  0.000027  0.668403  0.331591  1
  Cr  Cr11  1  0.668384  0.331641  0.999980  1
  Cr  Cr12  1  0.999966  0.331598  0.000020  1
  Cr  Cr13  1  0.999969  0.331601  0.668405  1
  Cr  Cr14  1  0.331605  0.668359  0.000018  1
  Cr  Cr15  1  0.331576  0.999982  0.668400  1
  Cr  Cr16  1  0.331581  0.999979  0.000037  1
  Cr  Cr17  1  0.000009  0.000003  0.668372  1
  Cr  Cr18  1  0.000028  0.668402  0.999998  1
  Cr  Cr19  1  0.668419  0.000015  0.999976  1
  Co  Co20  1  0.000000  0.000001  0.999998  1
  W  W21  1  0.749994  0.749990  0.750005  1
  W  W22  1  0.250006  0.249993  0.250001  1
  C  C23  1  0.724024  0.724009  0.275987  1
  C  C24  1  0.275965  0.724023  0.275981  1
  C  C25  1  0.724030  0.275978  0.275971  1
  C  C26  1  0.275975  0.275989  0.724014  1
  C  C27  1  0.724030  0.275980  0.724024  1
  C  C28  1  0.275977  0.724024  0.724024  1
