# generated using pymatgen
data_Dy4Ho2GaNiOs
_symmetry_space_group_name_H-M   'P 1'
_cell_length_a   8.33410549
_cell_length_b   8.33410599
_cell_length_c   8.33410608
_cell_angle_alpha   113.10816228
_cell_angle_beta   110.21943865
_cell_angle_gamma   105.18373619
_symmetry_Int_Tables_number   1
_chemical_formula_structural   Dy4Ho2GaNiOs
_chemical_formula_sum   'Dy8 Ho4 Ga2 Ni2 Os2'
_cell_volume   443.45118815
_cell_formula_units_Z   2
loop_
 _symmetry_equiv_pos_site_id
 _symmetry_equiv_pos_as_xyz
  1  'x, y, z'
loop_
 _atom_site_type_symbol
 _atom_site_label
 _atom_site_symmetry_multiplicity
 _atom_site_fract_x
 _atom_site_fract_y
 _atom_site_fract_z
 _atom_site_occupancy
  Dy  Dy0  1  0.435141  0.242118  0.193023  1
  Dy  Dy1  1  0.564859  0.757882  0.806977  1
  Dy  Dy2  1  0.049095  0.242118  0.806977  1
  Dy  Dy3  1  0.950905  0.757882  0.193023  1
  Dy  Dy4  1  0.180359  0.278498  0.458856  1
  Dy  Dy5  1  0.819641  0.721502  0.541144  1
  Dy  Dy6  1  0.180359  0.721502  0.901861  1
  Dy  Dy7  1  0.819641  0.278498  0.098139  1
  Ho  Ho8  1  0.330551  0.643056  0.312507  1
  Ho  Ho9  1  0.669449  0.356944  0.687493  1
  Ho  Ho10  1  0.330551  0.018043  0.687493  1
  Ho  Ho11  1  0.669449  0.981957  0.312507  1
  Ga  Ga12  1  0.500000  0.500000  0.000000  1
  Ga  Ga13  1  0.000000  0.000000  0.000000  1
  Ni  Ni14  1  0.117306  0.617306  0.500000  1
  Ni  Ni15  1  0.882694  0.382694  0.500000  1
  Os  Os16  1  0.329993  0.000000  0.329993  1
  Os  Os17  1  0.670007  0.000000  0.670007  1
