# generated using pymatgen
data_NaHf2CuS5
_symmetry_space_group_name_H-M   'P 1'
_cell_length_a   6.89241422
_cell_length_b   6.89241473
_cell_length_c   15.66080500
_cell_angle_alpha   90.00000000
_cell_angle_beta   90.00000000
_cell_angle_gamma   149.06504792
_symmetry_Int_Tables_number   1
_chemical_formula_structural   NaHf2CuS5
_chemical_formula_sum   'Na2 Hf4 Cu2 S10'
_cell_volume   382.44990059
_cell_formula_units_Z   2
loop_
 _symmetry_equiv_pos_site_id
 _symmetry_equiv_pos_as_xyz
  1  'x, y, z'
loop_
 _atom_site_type_symbol
 _atom_site_label
 _atom_site_symmetry_multiplicity
 _atom_site_fract_x
 _atom_site_fract_y
 _atom_site_fract_z
 _atom_site_occupancy
  Na  Na0  1  0.036611  0.963389  0.250000  1
  Na  Na1  1  0.963389  0.036611  0.750000  1
  Hf  Hf2  1  0.209517  0.790483  0.902273  1
  Hf  Hf3  1  0.790483  0.209517  0.402273  1
  Hf  Hf4  1  0.209517  0.790483  0.597727  1
  Hf  Hf5  1  0.790483  0.209517  0.097727  1
  Cu  Cu6  1  0.321640  0.678360  0.250000  1
  Cu  Cu7  1  0.678360  0.321640  0.750000  1
  S  S8  1  0.162649  0.837351  0.440358  1
  S  S9  1  0.837351  0.162649  0.940358  1
  S  S10  1  0.288572  0.711428  0.750000  1
  S  S11  1  0.418525  0.581475  0.370732  1
  S  S12  1  0.162649  0.837351  0.059642  1
  S  S13  1  0.581475  0.418525  0.870732  1
  S  S14  1  0.581475  0.418525  0.629268  1
  S  S15  1  0.418525  0.581475  0.129268  1
  S  S16  1  0.837351  0.162649  0.559642  1
  S  S17  1  0.711428  0.288572  0.250000  1
