# generated using pymatgen
data_Li8Nd7HoBi8
_symmetry_space_group_name_H-M   'P 1'
_cell_length_a   9.87520700
_cell_length_b   9.87520664
_cell_length_c   7.32862000
_cell_angle_alpha   90.00000000
_cell_angle_beta   90.00000000
_cell_angle_gamma   119.99999786
_symmetry_Int_Tables_number   1
_chemical_formula_structural   Li8Nd7HoBi8
_chemical_formula_sum   'Li8 Nd7 Ho1 Bi8'
_cell_volume   618.93528811
_cell_formula_units_Z   1
loop_
 _symmetry_equiv_pos_site_id
 _symmetry_equiv_pos_as_xyz
  1  'x, y, z'
loop_
 _atom_site_type_symbol
 _atom_site_label
 _atom_site_symmetry_multiplicity
 _atom_site_fract_x
 _atom_site_fract_y
 _atom_site_fract_z
 _atom_site_occupancy
  Li  Li0  1  0.166787  0.833213  0.288027  1
  Li  Li1  1  0.666424  0.833213  0.288027  1
  Li  Li2  1  0.166787  0.333576  0.288027  1
  Li  Li3  1  0.833718  0.166282  0.798099  1
  Li  Li4  1  0.332564  0.166282  0.798099  1
  Li  Li5  1  0.833718  0.667436  0.798099  1
  Li  Li6  1  0.333333  0.666667  0.699058  1
  Li  Li7  1  0.666667  0.333333  0.202407  1
  Nd  Nd8  1  0.509749  0.490251  0.508645  1
  Nd  Nd9  1  0.980503  0.490251  0.508645  1
  Nd  Nd10  1  0.509749  0.019497  0.508645  1
  Nd  Nd11  1  0.490289  0.509711  0.008636  1
  Nd  Nd12  1  0.019423  0.509711  0.008636  1
  Nd  Nd13  1  0.490289  0.980577  0.008636  1
  Nd  Nd14  1  0.000000  0.000000  0.517633  1
  Ho  Ho15  1  0.000000  0.000000  0.017879  1
  Bi  Bi16  1  0.165672  0.834328  0.755419  1
  Bi  Bi17  1  0.668657  0.834328  0.755419  1
  Bi  Bi18  1  0.165672  0.331343  0.755419  1
  Bi  Bi19  1  0.834997  0.165003  0.247270  1
  Bi  Bi20  1  0.330007  0.165003  0.247270  1
  Bi  Bi21  1  0.834997  0.669993  0.247270  1
  Bi  Bi22  1  0.333333  0.666667  0.278253  1
  Bi  Bi23  1  0.666667  0.333333  0.776470  1
