# generated using pymatgen
data_Ca8Mn2RhN8
_symmetry_space_group_name_H-M   'P 1'
_cell_length_a   9.30823510
_cell_length_b   4.98510163
_cell_length_c   7.17372483
_cell_angle_alpha   90.00001263
_cell_angle_beta   74.63148938
_cell_angle_gamma   74.46784087
_symmetry_Int_Tables_number   1
_chemical_formula_structural   Ca8Mn2RhN8
_chemical_formula_sum   'Ca8 Mn2 Rh1 N8'
_cell_volume   308.34984303
_cell_formula_units_Z   1
loop_
 _symmetry_equiv_pos_site_id
 _symmetry_equiv_pos_as_xyz
  1  'x, y, z'
loop_
 _atom_site_type_symbol
 _atom_site_label
 _atom_site_symmetry_multiplicity
 _atom_site_fract_x
 _atom_site_fract_y
 _atom_site_fract_z
 _atom_site_occupancy
  Ca  Ca0  1  0.057147  0.971427  0.745320  1
  Ca  Ca1  1  0.942853  0.028573  0.254680  1
  Ca  Ca2  1  0.667687  0.666156  0.468725  1
  Ca  Ca3  1  0.332313  0.333844  0.531275  1
  Ca  Ca4  1  0.812246  0.593878  0.968355  1
  Ca  Ca5  1  0.187754  0.406122  0.031645  1
  Ca  Ca6  1  0.398466  0.800767  0.194008  1
  Ca  Ca7  1  0.601534  0.199233  0.805992  1
  Mn  Mn8  1  0.375250  0.812374  0.793924  1
  Mn  Mn9  1  0.624750  0.187626  0.206076  1
  Rh  Rh10  1  0.000000  0.500000  0.500000  1
  N  N11  1  0.210424  0.894787  0.996716  1
  N  N12  1  0.789576  0.105213  0.003284  1
  N  N13  1  0.352940  0.823530  0.561721  1
  N  N14  1  0.647060  0.176470  0.438279  1
  N  N15  1  0.560447  0.719777  0.826175  1
  N  N16  1  0.439553  0.280223  0.173825  1
  N  N17  1  0.938522  0.530738  0.258894  1
  N  N18  1  0.061478  0.469262  0.741106  1
