# generated using pymatgen
data_RbMn8O16
_symmetry_space_group_name_H-M   'P 1'
_cell_length_a   5.88255540
_cell_length_b   7.23823198
_cell_length_c   7.23704205
_cell_angle_alpha   87.63156990
_cell_angle_beta   78.29353161
_cell_angle_gamma   78.26711409
_symmetry_Int_Tables_number   1
_chemical_formula_structural   RbMn8O16
_chemical_formula_sum   'Rb1 Mn8 O16'
_cell_volume   295.43422775
_cell_formula_units_Z   1
loop_
 _symmetry_equiv_pos_site_id
 _symmetry_equiv_pos_as_xyz
  1  'x, y, z'
loop_
 _atom_site_type_symbol
 _atom_site_label
 _atom_site_symmetry_multiplicity
 _atom_site_fract_x
 _atom_site_fract_y
 _atom_site_fract_z
 _atom_site_occupancy
  Rb  Rb0  1  0.500000  0.000000  0.000000  1
  Mn  Mn1  1  0.924803  0.484272  0.817015  1
  Mn  Mn2  1  0.423979  0.487665  0.816703  1
  Mn  Mn3  1  0.576021  0.512335  0.183297  1
  Mn  Mn4  1  0.075197  0.515728  0.182985  1
  Mn  Mn5  1  0.331991  0.183286  0.487711  1
  Mn  Mn6  1  0.833352  0.182980  0.484261  1
  Mn  Mn7  1  0.166648  0.817020  0.515739  1
  Mn  Mn8  1  0.668009  0.816714  0.512289  1
  O  O9  1  0.521555  0.291628  0.624921  1
  O  O10  1  0.020492  0.292704  0.622792  1
  O  O11  1  0.979508  0.707296  0.377208  1
  O  O12  1  0.478445  0.708372  0.375079  1
  O  O13  1  0.832918  0.377372  0.292843  1
  O  O14  1  0.332688  0.375005  0.291610  1
  O  O15  1  0.667312  0.624995  0.708390  1
  O  O16  1  0.167082  0.622628  0.707157  1
  O  O17  1  0.826870  0.638441  0.048877  1
  O  O18  1  0.329253  0.639374  0.049076  1
  O  O19  1  0.670747  0.360626  0.950924  1
  O  O20  1  0.173130  0.361559  0.951123  1
  O  O21  1  0.851369  0.951249  0.638372  1
  O  O22  1  0.353926  0.950703  0.639433  1
  O  O23  1  0.646074  0.049297  0.360567  1
  O  O24  1  0.148631  0.048751  0.361628  1
