# generated using pymatgen
data_Mg2AlCo5B2
_symmetry_space_group_name_H-M   'P 1'
_cell_length_a   8.82867100
_cell_length_b   8.82867100
_cell_length_c   2.78331400
_cell_angle_alpha   90.00000000
_cell_angle_beta   90.00000000
_cell_angle_gamma   90.00000000
_symmetry_Int_Tables_number   1
_chemical_formula_structural   Mg2AlCo5B2
_chemical_formula_sum   'Mg4 Al2 Co10 B4'
_cell_volume   216.94661108
_cell_formula_units_Z   2
loop_
 _symmetry_equiv_pos_site_id
 _symmetry_equiv_pos_as_xyz
  1  'x, y, z'
loop_
 _atom_site_type_symbol
 _atom_site_label
 _atom_site_symmetry_multiplicity
 _atom_site_fract_x
 _atom_site_fract_y
 _atom_site_fract_z
 _atom_site_occupancy
  Mg  Mg0  1  0.177251  0.677251  0.000000  1
  Mg  Mg1  1  0.322749  0.177251  0.000000  1
  Mg  Mg2  1  0.677251  0.822749  0.000000  1
  Mg  Mg3  1  0.822749  0.322749  0.000000  1
  Al  Al4  1  0.000000  0.000000  0.000000  1
  Al  Al5  1  0.500000  0.500000  0.000000  1
  Co  Co6  1  0.000000  0.500000  0.500000  1
  Co  Co7  1  0.068180  0.221003  0.500000  1
  Co  Co8  1  0.221003  0.931820  0.500000  1
  Co  Co9  1  0.278997  0.431820  0.500000  1
  Co  Co10  1  0.431820  0.721003  0.500000  1
  Co  Co11  1  0.500000  0.000000  0.500000  1
  Co  Co12  1  0.568180  0.278997  0.500000  1
  Co  Co13  1  0.721003  0.568180  0.500000  1
  Co  Co14  1  0.778997  0.068180  0.500000  1
  Co  Co15  1  0.931820  0.778997  0.500000  1
  B  B16  1  0.122152  0.377848  0.000000  1
  B  B17  1  0.377848  0.877848  0.000000  1
  B  B18  1  0.622152  0.122152  0.000000  1
  B  B19  1  0.877848  0.622152  0.000000  1
