# generated using pymatgen
data_CaTmRh2O7
_symmetry_space_group_name_H-M   'P 1'
_cell_length_a   7.21827613
_cell_length_b   7.21827507
_cell_length_c   7.21827734
_cell_angle_alpha   120.25637345
_cell_angle_beta   119.92278970
_cell_angle_gamma   89.84514811
_symmetry_Int_Tables_number   1
_chemical_formula_structural   CaTmRh2O7
_chemical_formula_sum   'Ca2 Tm2 Rh4 O14'
_cell_volume   265.57716357
_cell_formula_units_Z   2
loop_
 _symmetry_equiv_pos_site_id
 _symmetry_equiv_pos_as_xyz
  1  'x, y, z'
loop_
 _atom_site_type_symbol
 _atom_site_label
 _atom_site_symmetry_multiplicity
 _atom_site_fract_x
 _atom_site_fract_y
 _atom_site_fract_z
 _atom_site_occupancy
  Ca  Ca0  1  0.500000  0.500000  0.500000  1
  Ca  Ca1  1  0.500000  0.000000  0.000000  1
  Tm  Tm2  1  0.500000  0.500000  0.000000  1
  Tm  Tm3  1  0.000000  0.500000  0.500000  1
  Rh  Rh4  1  0.000000  0.000000  0.500000  1
  Rh  Rh5  1  0.000000  0.500000  0.000000  1
  Rh  Rh6  1  0.000000  0.000000  0.000000  1
  Rh  Rh7  1  0.500000  0.000000  0.500000  1
  O  O8  1  0.365943  0.615943  0.750000  1
  O  O9  1  0.634057  0.384057  0.250000  1
  O  O10  1  0.326785  0.076785  0.250000  1
  O  O11  1  0.916519  0.666519  0.250000  1
  O  O12  1  0.329798  0.667393  0.239817  1
  O  O13  1  0.927576  0.089981  0.260183  1
  O  O14  1  0.329798  0.089981  0.662406  1
  O  O15  1  0.927576  0.667393  0.837594  1
  O  O16  1  0.673215  0.923215  0.750000  1
  O  O17  1  0.083481  0.333481  0.750000  1
  O  O18  1  0.670202  0.332607  0.760183  1
  O  O19  1  0.072424  0.910019  0.739817  1
  O  O20  1  0.670202  0.910019  0.337594  1
  O  O21  1  0.072424  0.332607  0.162406  1
