# generated using pymatgen
data_Sc2Al9ZnOs3
_symmetry_space_group_name_H-M   'P 1'
_cell_length_a   8.89245100
_cell_length_b   8.89245100
_cell_length_c   6.15638700
_cell_angle_alpha   90.00000000
_cell_angle_beta   90.00000000
_cell_angle_gamma   90.00000000
_symmetry_Int_Tables_number   1
_chemical_formula_structural   Sc2Al9ZnOs3
_chemical_formula_sum   'Sc4 Al18 Zn2 Os6'
_cell_volume   486.82051784
_cell_formula_units_Z   2
loop_
 _symmetry_equiv_pos_site_id
 _symmetry_equiv_pos_as_xyz
  1  'x, y, z'
loop_
 _atom_site_type_symbol
 _atom_site_label
 _atom_site_symmetry_multiplicity
 _atom_site_fract_x
 _atom_site_fract_y
 _atom_site_fract_z
 _atom_site_occupancy
  Sc  Sc0  1  0.681833  0.181833  0.997713  1
  Sc  Sc1  1  0.318167  0.818167  0.997713  1
  Sc  Sc2  1  0.818167  0.681833  0.002287  1
  Sc  Sc3  1  0.181833  0.318167  0.002287  1
  Al  Al4  1  0.940263  0.203053  0.286004  1
  Al  Al5  1  0.703053  0.440263  0.286004  1
  Al  Al6  1  0.559737  0.703053  0.713996  1
  Al  Al7  1  0.289737  0.559226  0.715845  1
  Al  Al8  1  0.789737  0.940774  0.284155  1
  Al  Al9  1  0.940774  0.210263  0.715845  1
  Al  Al10  1  0.296947  0.559737  0.286004  1
  Al  Al11  1  0.059737  0.796947  0.286004  1
  Al  Al12  1  0.710263  0.440774  0.715845  1
  Al  Al13  1  0.440263  0.296947  0.713996  1
  Al  Al14  1  0.059226  0.789737  0.715845  1
  Al  Al15  1  0.203053  0.059737  0.713996  1
  Al  Al16  1  0.796947  0.940263  0.713996  1
  Al  Al17  1  0.210263  0.059226  0.284155  1
  Al  Al18  1  0.000000  0.500000  0.305667  1
  Al  Al19  1  0.559226  0.710263  0.284155  1
  Al  Al20  1  0.440774  0.289737  0.284155  1
  Al  Al21  1  0.500000  0.000000  0.694333  1
  Zn  Zn22  1  0.500000  0.000000  0.258507  1
  Zn  Zn23  1  0.000000  0.500000  0.741493  1
  Os  Os24  1  0.681521  0.181521  0.502826  1
  Os  Os25  1  0.818479  0.681521  0.497174  1
  Os  Os26  1  0.181521  0.318479  0.497174  1
  Os  Os27  1  0.000000  0.000000  0.000000  1
  Os  Os28  1  0.318479  0.818479  0.502826  1
  Os  Os29  1  0.500000  0.500000  0.000000  1
