# generated using pymatgen
data_HoNiPH
_symmetry_space_group_name_H-M   'P 1'
_cell_length_a   3.86641300
_cell_length_b   8.01644300
_cell_length_c   6.70888900
_cell_angle_alpha   90.00000000
_cell_angle_beta   90.00000000
_cell_angle_gamma   90.00000000
_symmetry_Int_Tables_number   1
_chemical_formula_structural   HoNiPH
_chemical_formula_sum   'Ho4 Ni4 P4 H4'
_cell_volume   207.94120566
_cell_formula_units_Z   4
loop_
 _symmetry_equiv_pos_site_id
 _symmetry_equiv_pos_as_xyz
  1  'x, y, z'
loop_
 _atom_site_type_symbol
 _atom_site_label
 _atom_site_symmetry_multiplicity
 _atom_site_fract_x
 _atom_site_fract_y
 _atom_site_fract_z
 _atom_site_occupancy
  Ho  Ho0  1  0.750000  0.504714  0.749597  1
  Ho  Ho1  1  0.250000  0.495286  0.250403  1
  Ho  Ho2  1  0.250000  0.995286  0.249597  1
  Ho  Ho3  1  0.750000  0.004714  0.750403  1
  Ni  Ni4  1  0.750000  0.238006  0.414040  1
  Ni  Ni5  1  0.250000  0.761994  0.585960  1
  Ni  Ni6  1  0.250000  0.261994  0.914040  1
  Ni  Ni7  1  0.750000  0.738006  0.085960  1
  P  P8  1  0.750000  0.236608  0.079887  1
  P  P9  1  0.250000  0.763392  0.920113  1
  P  P10  1  0.250000  0.263392  0.579887  1
  P  P11  1  0.750000  0.736608  0.420113  1
  H  H12  1  0.250000  0.960156  0.582882  1
  H  H13  1  0.750000  0.039844  0.417118  1
  H  H14  1  0.750000  0.539844  0.082882  1
  H  H15  1  0.250000  0.460156  0.917118  1
