# generated using pymatgen
data_Gd3(Hg2Pd)2
_symmetry_space_group_name_H-M   'P 1'
_cell_length_a   7.92545600
_cell_length_b   7.92545716
_cell_length_c   3.92193900
_cell_angle_alpha   90.00000000
_cell_angle_beta   90.00000000
_cell_angle_gamma   120.00000349
_symmetry_Int_Tables_number   1
_chemical_formula_structural   Gd3(Hg2Pd)2
_chemical_formula_sum   'Gd3 Hg4 Pd2'
_cell_volume   213.34380342
_cell_formula_units_Z   1
loop_
 _symmetry_equiv_pos_site_id
 _symmetry_equiv_pos_as_xyz
  1  'x, y, z'
loop_
 _atom_site_type_symbol
 _atom_site_label
 _atom_site_symmetry_multiplicity
 _atom_site_fract_x
 _atom_site_fract_y
 _atom_site_fract_z
 _atom_site_occupancy
  Gd  Gd0  1  0.406520  0.406520  0.500000  1
  Gd  Gd1  1  0.593480  0.000000  0.500000  1
  Gd  Gd2  1  0.000000  0.593480  0.500000  1
  Hg  Hg3  1  0.000000  0.000000  0.500000  1
  Hg  Hg4  1  0.717643  0.717643  0.000000  1
  Hg  Hg5  1  0.282357  0.000000  0.000000  1
  Hg  Hg6  1  0.000000  0.282357  0.000000  1
  Pd  Pd7  1  0.666667  0.333333  0.000000  1
  Pd  Pd8  1  0.333333  0.666667  0.000000  1
