# generated using pymatgen
data_Li2ZnPbO4
_symmetry_space_group_name_H-M   'P 1'
_cell_length_a   6.65463997
_cell_length_b   5.80752700
_cell_length_c   5.30985354
_cell_angle_alpha   90.00017488
_cell_angle_beta   90.01199536
_cell_angle_gamma   90.00046931
_symmetry_Int_Tables_number   1
_chemical_formula_structural   Li2ZnPbO4
_chemical_formula_sum   'Li4 Zn2 Pb2 O8'
_cell_volume   205.20991228
_cell_formula_units_Z   2
loop_
 _symmetry_equiv_pos_site_id
 _symmetry_equiv_pos_as_xyz
  1  'x, y, z'
loop_
 _atom_site_type_symbol
 _atom_site_label
 _atom_site_symmetry_multiplicity
 _atom_site_fract_x
 _atom_site_fract_y
 _atom_site_fract_z
 _atom_site_occupancy
  Li  Li0  1  0.500095  0.178863  0.000786  1
  Li  Li1  1  0.249876  0.660156  0.999634  1
  Li  Li2  1  0.000100  0.821140  0.500784  1
  Li  Li3  1  0.749879  0.339846  0.499633  1
  Zn  Zn4  1  0.749722  0.657495  0.999522  1
  Zn  Zn5  1  0.249723  0.342506  0.499525  1
  Pb  Pb6  1  0.999414  0.158299  0.000275  1
  Pb  Pb7  1  0.499415  0.841697  0.500282  1
  O  O8  1  0.002300  0.165381  0.400848  1
  O  O9  1  0.242946  0.663070  0.374506  1
  O  O10  1  0.498803  0.183682  0.375370  1
  O  O11  1  0.755847  0.664034  0.376060  1
  O  O12  1  0.502301  0.834620  0.900847  1
  O  O13  1  0.742938  0.336931  0.874503  1
  O  O14  1  0.998801  0.816318  0.875366  1
  O  O15  1  0.255836  0.335959  0.876063  1
