# generated using pymatgen
data_Ho10Al2SnBi3
_symmetry_space_group_name_H-M   'P 1'
_cell_length_a   8.93977500
_cell_length_b   8.94888359
_cell_length_c   6.45509000
_cell_angle_alpha   90.00000000
_cell_angle_beta   90.00000000
_cell_angle_gamma   119.73496646
_symmetry_Int_Tables_number   1
_chemical_formula_structural   Ho10Al2SnBi3
_chemical_formula_sum   'Ho10 Al2 Sn1 Bi3'
_cell_volume   448.41697719
_cell_formula_units_Z   1
loop_
 _symmetry_equiv_pos_site_id
 _symmetry_equiv_pos_as_xyz
  1  'x, y, z'
loop_
 _atom_site_type_symbol
 _atom_site_label
 _atom_site_symmetry_multiplicity
 _atom_site_fract_x
 _atom_site_fract_y
 _atom_site_fract_z
 _atom_site_occupancy
  Ho  Ho0  1  0.338820  0.673248  0.001799  1
  Ho  Ho1  1  0.648340  0.320193  0.498352  1
  Ho  Ho2  1  0.648340  0.320193  0.001648  1
  Ho  Ho3  1  0.338820  0.673248  0.498201  1
  Ho  Ho4  1  0.755431  0.999057  0.750000  1
  Ho  Ho5  1  0.754187  0.760684  0.250000  1
  Ho  Ho6  1  0.008192  0.237668  0.250000  1
  Ho  Ho7  1  0.014199  0.772260  0.750000  1
  Ho  Ho8  1  0.242759  0.228508  0.750000  1
  Ho  Ho9  1  0.245390  0.012933  0.250000  1
  Al  Al10  1  0.398460  0.995982  0.750000  1
  Al  Al11  1  0.396135  0.400758  0.250000  1
  Sn  Sn12  1  0.607184  0.001150  0.250000  1
  Bi  Bi13  1  0.995803  0.606018  0.250000  1
  Bi  Bi14  1  0.998962  0.392012  0.750000  1
  Bi  Bi15  1  0.608982  0.606086  0.750000  1
