# generated using pymatgen
data_Dy8Ho4CuNi4Sn
_symmetry_space_group_name_H-M   'P 1'
_cell_length_a   8.32682332
_cell_length_b   8.31250881
_cell_length_c   8.32682253
_cell_angle_alpha   112.14428408
_cell_angle_beta   109.54031807
_cell_angle_gamma   106.84214523
_symmetry_Int_Tables_number   1
_chemical_formula_structural   Dy8Ho4CuNi4Sn
_chemical_formula_sum   'Dy8 Ho4 Cu1 Ni4 Sn1'
_cell_volume   442.34778021
_cell_formula_units_Z   1
loop_
 _symmetry_equiv_pos_site_id
 _symmetry_equiv_pos_as_xyz
  1  'x, y, z'
loop_
 _atom_site_type_symbol
 _atom_site_label
 _atom_site_symmetry_multiplicity
 _atom_site_fract_x
 _atom_site_fract_y
 _atom_site_fract_z
 _atom_site_occupancy
  Dy  Dy0  1  0.413467  0.219204  0.194300  1
  Dy  Dy1  1  0.586533  0.780796  0.805700  1
  Dy  Dy2  1  0.024903  0.219204  0.805737  1
  Dy  Dy3  1  0.975097  0.780796  0.194263  1
  Dy  Dy4  1  0.180365  0.293291  0.473712  1
  Dy  Dy5  1  0.819635  0.706709  0.526288  1
  Dy  Dy6  1  0.180421  0.706709  0.887074  1
  Dy  Dy7  1  0.819579  0.293291  0.112926  1
  Ho  Ho8  1  0.323691  0.631406  0.307715  1
  Ho  Ho9  1  0.676309  0.368594  0.692285  1
  Ho  Ho10  1  0.323523  0.015951  0.692428  1
  Ho  Ho11  1  0.676477  0.984049  0.307572  1
  Cu  Cu12  1  0.000000  0.000000  0.000000  1
  Ni  Ni13  1  0.359371  0.000000  0.359371  1
  Ni  Ni14  1  0.640629  0.000000  0.640629  1
  Ni  Ni15  1  0.125625  0.625200  0.499575  1
  Ni  Ni16  1  0.874375  0.374800  0.500425  1
  Sn  Sn17  1  0.500000  0.500000  0.000000  1
