# generated using pymatgen
data_HoSc2(Rh2Pb)3
_symmetry_space_group_name_H-M   'P 1'
_cell_length_a   4.49746800
_cell_length_b   7.21379700
_cell_length_c   13.37878800
_cell_angle_alpha   90.00047382
_cell_angle_beta   89.99960779
_cell_angle_gamma   90.00109583
_symmetry_Int_Tables_number   1
_chemical_formula_structural   HoSc2(Rh2Pb)3
_chemical_formula_sum   'Ho2 Sc4 Rh12 Pb6'
_cell_volume   434.05900527
_cell_formula_units_Z   2
loop_
 _symmetry_equiv_pos_site_id
 _symmetry_equiv_pos_as_xyz
  1  'x, y, z'
loop_
 _atom_site_type_symbol
 _atom_site_label
 _atom_site_symmetry_multiplicity
 _atom_site_fract_x
 _atom_site_fract_y
 _atom_site_fract_z
 _atom_site_occupancy
  Ho  Ho0  1  0.999992  0.999987  0.998933  1
  Ho  Ho1  1  0.500029  0.499994  0.167935  1
  Sc  Sc2  1  0.000025  0.999998  0.335559  1
  Sc  Sc3  1  0.499998  0.500005  0.500849  1
  Sc  Sc4  1  0.999975  0.999994  0.665599  1
  Sc  Sc5  1  0.499968  0.500009  0.831124  1
  Rh  Rh6  1  0.499987  0.254238  0.996384  1
  Rh  Rh7  1  0.500020  0.745767  0.996387  1
  Rh  Rh8  1  0.000020  0.245754  0.170464  1
  Rh  Rh9  1  0.000051  0.754243  0.170475  1
  Rh  Rh10  1  0.500031  0.246542  0.337477  1
  Rh  Rh11  1  0.500032  0.753464  0.337467  1
  Rh  Rh12  1  0.999990  0.248339  0.500740  1
  Rh  Rh13  1  0.000002  0.751653  0.500741  1
  Rh  Rh14  1  0.499956  0.251688  0.665748  1
  Rh  Rh15  1  0.499972  0.748304  0.665748  1
  Rh  Rh16  1  0.999970  0.253416  0.829199  1
  Rh  Rh17  1  0.999973  0.746589  0.829201  1
  Pb  Pb18  1  0.000007  0.499999  0.996837  1
  Pb  Pb19  1  0.500035  0.000010  0.169965  1
  Pb  Pb20  1  0.000037  0.499991  0.337709  1
  Pb  Pb21  1  0.499996  0.999997  0.501564  1
  Pb  Pb22  1  0.999969  0.500001  0.665008  1
  Pb  Pb23  1  0.499958  0.000019  0.828888  1
