# generated using pymatgen
data_Tb6Tm4Si5Te
_symmetry_space_group_name_H-M   'P 1'
_cell_length_a   8.53733000
_cell_length_b   8.53732822
_cell_length_c   6.35307300
_cell_angle_alpha   90.00000000
_cell_angle_beta   90.00000000
_cell_angle_gamma   120.18052399
_symmetry_Int_Tables_number   1
_chemical_formula_structural   Tb6Tm4Si5Te
_chemical_formula_sum   'Tb6 Tm4 Si5 Te1'
_cell_volume   400.28160326
_cell_formula_units_Z   1
loop_
 _symmetry_equiv_pos_site_id
 _symmetry_equiv_pos_as_xyz
  1  'x, y, z'
loop_
 _atom_site_type_symbol
 _atom_site_label
 _atom_site_symmetry_multiplicity
 _atom_site_fract_x
 _atom_site_fract_y
 _atom_site_fract_z
 _atom_site_occupancy
  Tb  Tb0  1  0.764248  0.764248  0.250000  1
  Tb  Tb1  1  0.242193  0.986137  0.250000  1
  Tb  Tb2  1  0.986137  0.242193  0.250000  1
  Tb  Tb3  1  0.243934  0.243934  0.750000  1
  Tb  Tb4  1  0.753020  0.999567  0.750000  1
  Tb  Tb5  1  0.999567  0.753020  0.750000  1
  Tm  Tm6  1  0.675567  0.330583  0.503615  1
  Tm  Tm7  1  0.330583  0.675567  0.503615  1
  Tm  Tm8  1  0.330583  0.675567  0.996385  1
  Tm  Tm9  1  0.675567  0.330583  0.996385  1
  Si  Si10  1  0.603041  0.998833  0.250000  1
  Si  Si11  1  0.998833  0.603041  0.250000  1
  Si  Si12  1  0.605104  0.605104  0.750000  1
  Si  Si13  1  0.395028  0.002346  0.750000  1
  Si  Si14  1  0.002346  0.395028  0.750000  1
  Te  Te15  1  0.394247  0.394247  0.250000  1
