# generated using pymatgen
data_ThTa4(NbBr9)2
_symmetry_space_group_name_H-M   'P 1'
_cell_length_a   10.84915863
_cell_length_b   10.85190721
_cell_length_c   10.84744000
_cell_angle_alpha   55.85561297
_cell_angle_beta   55.89097753
_cell_angle_gamma   55.85873161
_symmetry_Int_Tables_number   1
_chemical_formula_structural   ThTa4(NbBr9)2
_chemical_formula_sum   'Th1 Ta4 Nb2 Br18'
_cell_volume   816.56717793
_cell_formula_units_Z   1
loop_
 _symmetry_equiv_pos_site_id
 _symmetry_equiv_pos_as_xyz
  1  'x, y, z'
loop_
 _atom_site_type_symbol
 _atom_site_label
 _atom_site_symmetry_multiplicity
 _atom_site_fract_x
 _atom_site_fract_y
 _atom_site_fract_z
 _atom_site_occupancy
  Th  Th0  1  0.000823  0.999075  0.000123  1
  Ta  Ta1  1  0.416390  0.315802  0.637862  1
  Ta  Ta2  1  0.362091  0.583805  0.684104  1
  Ta  Ta3  1  0.684950  0.361540  0.583950  1
  Ta  Ta4  1  0.315307  0.638573  0.415633  1
  Nb  Nb5  1  0.639512  0.415519  0.313685  1
  Nb  Nb6  1  0.584680  0.686156  0.360424  1
  Br  Br7  1  0.566391  0.163830  0.444490  1
  Br  Br8  1  0.225900  0.371938  0.904064  1
  Br  Br9  1  0.905367  0.224886  0.373864  1
  Br  Br10  1  0.369141  0.904714  0.225879  1
  Br  Br11  1  0.775093  0.629133  0.093549  1
  Br  Br12  1  0.095993  0.773972  0.627897  1
  Br  Br13  1  0.702513  0.959753  0.159965  1
  Br  Br14  1  0.955836  0.160450  0.702926  1
  Br  Br15  1  0.161449  0.701196  0.956137  1
  Br  Br16  1  0.297622  0.044799  0.838935  1
  Br  Br17  1  0.042741  0.838205  0.299202  1
  Br  Br18  1  0.841016  0.296739  0.040590  1
  Br  Br19  1  0.558073  0.431846  0.834656  1
  Br  Br20  1  0.165427  0.442309  0.567770  1
  Br  Br21  1  0.439276  0.569870  0.165412  1
  Br  Br22  1  0.430224  0.834519  0.560599  1
  Br  Br23  1  0.836134  0.555328  0.433897  1
  Br  Br24  1  0.628050  0.096040  0.774389  1
