# generated using pymatgen
data_Nd4BeCo(SiBr)2
_symmetry_space_group_name_H-M   'P 1'
_cell_length_a   4.04252000
_cell_length_b   4.04251875
_cell_length_c   16.76062600
_cell_angle_alpha   90.00000000
_cell_angle_beta   90.00000000
_cell_angle_gamma   120.00002656
_symmetry_Int_Tables_number   1
_chemical_formula_structural   Nd4BeCo(SiBr)2
_chemical_formula_sum   'Nd4 Be1 Co1 Si2 Br2'
_cell_volume   237.20561838
_cell_formula_units_Z   1
loop_
 _symmetry_equiv_pos_site_id
 _symmetry_equiv_pos_as_xyz
  1  'x, y, z'
loop_
 _atom_site_type_symbol
 _atom_site_label
 _atom_site_symmetry_multiplicity
 _atom_site_fract_x
 _atom_site_fract_y
 _atom_site_fract_z
 _atom_site_occupancy
  Nd  Nd0  1  0.000000  0.000000  0.108960  1
  Nd  Nd1  1  0.000000  0.000000  0.893121  1
  Nd  Nd2  1  0.000000  0.000000  0.616650  1
  Nd  Nd3  1  0.000000  0.000000  0.381423  1
  Be  Be4  1  0.333333  0.666667  0.503858  1
  Co  Co5  1  0.333333  0.666667  0.997415  1
  Si  Si6  1  0.666667  0.333333  0.496984  1
  Si  Si7  1  0.666667  0.333333  0.002191  1
  Br  Br8  1  0.333333  0.666667  0.250706  1
  Br  Br9  1  0.666667  0.333333  0.748693  1
