# generated using pymatgen
data_Ba2P2PtRh
_symmetry_space_group_name_H-M   'P 1'
_cell_length_a   6.56795300
_cell_length_b   6.57662525
_cell_length_c   6.57471136
_cell_angle_alpha   89.48153934
_cell_angle_beta   90.00000000
_cell_angle_gamma   90.00000000
_symmetry_Int_Tables_number   1
_chemical_formula_structural   Ba2P2PtRh
_chemical_formula_sum   'Ba4 P4 Pt2 Rh2'
_cell_volume   283.98280360
_cell_formula_units_Z   2
loop_
 _symmetry_equiv_pos_site_id
 _symmetry_equiv_pos_as_xyz
  1  'x, y, z'
loop_
 _atom_site_type_symbol
 _atom_site_label
 _atom_site_symmetry_multiplicity
 _atom_site_fract_x
 _atom_site_fract_y
 _atom_site_fract_z
 _atom_site_occupancy
  Ba  Ba0  1  0.631825  0.366062  0.869113  1
  Ba  Ba1  1  0.368746  0.871148  0.632140  1
  Ba  Ba2  1  0.131825  0.133938  0.130887  1
  Ba  Ba3  1  0.868746  0.628852  0.367860  1
  P  P4  1  0.590287  0.915601  0.095046  1
  P  P5  1  0.090287  0.584399  0.904954  1
  P  P6  1  0.908851  0.096637  0.586257  1
  P  P7  1  0.408851  0.403363  0.413743  1
  Pt  Pt8  1  0.846458  0.847272  0.846665  1
  Pt  Pt9  1  0.346458  0.652728  0.153335  1
  Rh  Rh10  1  0.153834  0.344602  0.653766  1
  Rh  Rh11  1  0.653834  0.155398  0.346234  1
