# generated using pymatgen
data_Tm5Ga2SnO
_symmetry_space_group_name_H-M   'P 1'
_cell_length_a   8.77271245
_cell_length_b   8.77271217
_cell_length_c   8.77271400
_cell_angle_alpha   126.98804507
_cell_angle_beta   126.98803553
_cell_angle_gamma   78.27019786
_symmetry_Int_Tables_number   1
_chemical_formula_structural   Tm5Ga2SnO
_chemical_formula_sum   'Tm10 Ga4 Sn2 O2'
_cell_volume   417.22445701
_cell_formula_units_Z   2
loop_
 _symmetry_equiv_pos_site_id
 _symmetry_equiv_pos_as_xyz
  1  'x, y, z'
loop_
 _atom_site_type_symbol
 _atom_site_label
 _atom_site_symmetry_multiplicity
 _atom_site_fract_x
 _atom_site_fract_y
 _atom_site_fract_z
 _atom_site_occupancy
  Tm  Tm0  1  0.495623  0.300502  0.499999  1
  Tm  Tm1  1  0.800502  0.995623  0.499999  1
  Tm  Tm2  1  0.995623  0.495623  0.195121  1
  Tm  Tm3  1  0.300506  0.800506  0.804885  1
  Tm  Tm4  1  0.506960  0.702067  0.500002  1
  Tm  Tm5  1  0.202067  0.006960  0.500002  1
  Tm  Tm6  1  0.006960  0.506960  0.804894  1
  Tm  Tm7  1  0.702063  0.202063  0.195101  1
  Tm  Tm8  1  0.501175  0.501175  0.000000  1
  Tm  Tm9  1  0.001175  0.001175  0.000000  1
  Ga  Ga10  1  0.133298  0.369279  0.500000  1
  Ga  Ga11  1  0.869279  0.633298  0.500000  1
  Ga  Ga12  1  0.633299  0.133299  0.764021  1
  Ga  Ga13  1  0.369279  0.869279  0.235980  1
  Sn  Sn14  1  0.751235  0.751223  0.999996  1
  Sn  Sn15  1  0.251223  0.251235  0.999996  1
  O  O16  1  0.751280  0.251280  0.499995  1
  O  O17  1  0.251298  0.751298  0.500006  1
