# generated using pymatgen
data_Pa6Mn3Sb8Pt3
_symmetry_space_group_name_H-M   'P 1'
_cell_length_a   8.30434344
_cell_length_b   8.32027632
_cell_length_c   8.32027780
_cell_angle_alpha   109.30211657
_cell_angle_beta   109.53021767
_cell_angle_gamma   109.65959935
_symmetry_Int_Tables_number   1
_chemical_formula_structural   Pa6Mn3Sb8Pt3
_chemical_formula_sum   'Pa6 Mn3 Sb8 Pt3'
_cell_volume   442.11526567
_cell_formula_units_Z   1
loop_
 _symmetry_equiv_pos_site_id
 _symmetry_equiv_pos_as_xyz
  1  'x, y, z'
loop_
 _atom_site_type_symbol
 _atom_site_label
 _atom_site_symmetry_multiplicity
 _atom_site_fract_x
 _atom_site_fract_y
 _atom_site_fract_z
 _atom_site_occupancy
  Pa  Pa0  1  0.888654  0.265947  0.135743  1
  Pa  Pa1  1  0.611346  0.747088  0.377292  1
  Pa  Pa2  1  0.250000  0.118595  0.868595  1
  Pa  Pa3  1  0.750000  0.382586  0.632586  1
  Pa  Pa4  1  0.133370  0.873413  0.251115  1
  Pa  Pa5  1  0.366630  0.617745  0.740043  1
  Mn  Mn6  1  0.378778  0.248787  0.626212  1
  Mn  Mn7  1  0.121222  0.747433  0.870009  1
  Mn  Mn8  1  0.250000  0.617725  0.367725  1
  Sb  Sb9  1  0.664817  0.495000  0.990461  1
  Sb  Sb10  1  0.486680  0.991956  0.663117  1
  Sb  Sb11  1  0.013320  0.676437  0.505276  1
  Sb  Sb12  1  0.835183  0.825644  0.830183  1
  Sb  Sb13  1  0.488605  0.993498  0.163710  1
  Sb  Sb14  1  0.175466  0.511147  0.005285  1
  Sb  Sb15  1  0.011395  0.175105  0.504893  1
  Sb  Sb16  1  0.324534  0.329819  0.335681  1
  Pt  Pt17  1  0.750000  0.877450  0.127450  1
  Pt  Pt18  1  0.626681  0.378357  0.252947  1
  Pt  Pt19  1  0.873319  0.126267  0.751677  1
