# generated using pymatgen
data_Dy10Y2Tc3Ni
_symmetry_space_group_name_H-M   'P 1'
_cell_length_a   6.29111122
_cell_length_b   7.33753490
_cell_length_c   9.21475400
_cell_angle_alpha   90.00000000
_cell_angle_beta   90.00000000
_cell_angle_gamma   90.19736779
_symmetry_Int_Tables_number   1
_chemical_formula_structural   Dy10Y2Tc3Ni
_chemical_formula_sum   'Dy10 Y2 Tc3 Ni1'
_cell_volume   425.36202184
_cell_formula_units_Z   1
loop_
 _symmetry_equiv_pos_site_id
 _symmetry_equiv_pos_as_xyz
  1  'x, y, z'
loop_
 _atom_site_type_symbol
 _atom_site_label
 _atom_site_symmetry_multiplicity
 _atom_site_fract_x
 _atom_site_fract_y
 _atom_site_fract_z
 _atom_site_occupancy
  Dy  Dy0  1  0.328750  0.677413  0.067792  1
  Dy  Dy1  1  0.163802  0.176803  0.436382  1
  Dy  Dy2  1  0.667048  0.322921  0.562643  1
  Dy  Dy3  1  0.834244  0.823682  0.938608  1
  Dy  Dy4  1  0.667048  0.322921  0.937357  1
  Dy  Dy5  1  0.834244  0.823682  0.561392  1
  Dy  Dy6  1  0.328750  0.677413  0.432208  1
  Dy  Dy7  1  0.163802  0.176803  0.063618  1
  Dy  Dy8  1  0.870385  0.542384  0.250000  1
  Dy  Dy9  1  0.625563  0.041748  0.250000  1
  Y  Y10  1  0.139832  0.456714  0.750000  1
  Y  Y11  1  0.371863  0.957055  0.750000  1
  Tc  Tc12  1  0.036967  0.886513  0.250000  1
  Tc  Tc13  1  0.462154  0.389119  0.250000  1
  Tc  Tc14  1  0.955242  0.111446  0.750000  1
  Ni  Ni15  1  0.550305  0.613385  0.750000  1
