# generated using pymatgen
data_H5IrPb
_symmetry_space_group_name_H-M   'P 1'
_cell_length_a   4.68714700
_cell_length_b   5.20129800
_cell_length_c   13.27827100
_cell_angle_alpha   90.00000000
_cell_angle_beta   90.00000000
_cell_angle_gamma   90.00000000
_symmetry_Int_Tables_number   1
_chemical_formula_structural   H5IrPb
_chemical_formula_sum   'H20 Ir4 Pb4'
_cell_volume   323.71426593
_cell_formula_units_Z   4
loop_
 _symmetry_equiv_pos_site_id
 _symmetry_equiv_pos_as_xyz
  1  'x, y, z'
loop_
 _atom_site_type_symbol
 _atom_site_label
 _atom_site_symmetry_multiplicity
 _atom_site_fract_x
 _atom_site_fract_y
 _atom_site_fract_z
 _atom_site_occupancy
  H  H0  1  0.677130  0.369603  0.557503  1
  H  H1  1  0.177130  0.130397  0.442497  1
  H  H2  1  0.822870  0.630397  0.057503  1
  H  H3  1  0.322870  0.869603  0.942497  1
  H  H4  1  0.073433  0.076354  0.829159  1
  H  H5  1  0.573433  0.423646  0.170841  1
  H  H6  1  0.426567  0.923646  0.329159  1
  H  H7  1  0.926567  0.576354  0.670841  1
  H  H8  1  0.227713  0.467266  0.864657  1
  H  H9  1  0.727713  0.032734  0.135343  1
  H  H10  1  0.272287  0.532734  0.364657  1
  H  H11  1  0.772287  0.967266  0.635343  1
  H  H12  1  0.525645  0.133432  0.841642  1
  H  H13  1  0.025645  0.366568  0.158358  1
  H  H14  1  0.974355  0.866568  0.341642  1
  H  H15  1  0.474355  0.633432  0.658358  1
  H  H16  1  0.920008  0.139488  0.974595  1
  H  H17  1  0.420008  0.360512  0.025405  1
  H  H18  1  0.579992  0.860512  0.474595  1
  H  H19  1  0.079992  0.639488  0.525405  1
  Ir  Ir20  1  0.267418  0.182776  0.920836  1
  Ir  Ir21  1  0.767418  0.317224  0.079164  1
  Ir  Ir22  1  0.232582  0.817224  0.420836  1
  Ir  Ir23  1  0.732582  0.682776  0.579164  1
  Pb  Pb24  1  0.255123  0.080034  0.616847  1
  Pb  Pb25  1  0.755123  0.419966  0.383153  1
  Pb  Pb26  1  0.244877  0.919966  0.116847  1
  Pb  Pb27  1  0.744877  0.580034  0.883153  1
