# generated using pymatgen
data_Ho4Hf3ReF28
_symmetry_space_group_name_H-M   'P 1'
_cell_length_a   5.66863631
_cell_length_b   8.98434154
_cell_length_c   12.07916952
_cell_angle_alpha   62.44778476
_cell_angle_beta   89.94463957
_cell_angle_gamma   89.97236180
_symmetry_Int_Tables_number   1
_chemical_formula_structural   Ho4Hf3ReF28
_chemical_formula_sum   'Ho4 Hf3 Re1 F28'
_cell_volume   545.41161577
_cell_formula_units_Z   1
loop_
 _symmetry_equiv_pos_site_id
 _symmetry_equiv_pos_as_xyz
  1  'x, y, z'
loop_
 _atom_site_type_symbol
 _atom_site_label
 _atom_site_symmetry_multiplicity
 _atom_site_fract_x
 _atom_site_fract_y
 _atom_site_fract_z
 _atom_site_occupancy
  Ho  Ho0  1  0.757523  0.815324  0.765403  1
  Ho  Ho1  1  0.256547  0.185359  0.732176  1
  Ho  Ho2  1  0.241900  0.184649  0.237359  1
  Ho  Ho3  1  0.743471  0.814370  0.267021  1
  Hf  Hf4  1  0.756009  0.273415  0.956163  1
  Hf  Hf5  1  0.256504  0.725305  0.544613  1
  Hf  Hf6  1  0.244693  0.725676  0.045135  1
  Re  Re7  1  0.740902  0.273192  0.455251  1
  F  F8  1  0.463754  0.709540  0.921181  1
  F  F9  1  0.940193  0.293930  0.581986  1
  F  F10  1  0.533596  0.289268  0.078860  1
  F  F11  1  0.038747  0.710603  0.420073  1
  F  F12  1  0.445880  0.279443  0.543070  1
  F  F13  1  0.952737  0.722480  0.950483  1
  F  F14  1  0.549779  0.718304  0.452419  1
  F  F15  1  0.046036  0.277711  0.051593  1
  F  F16  1  0.772240  0.523931  0.859728  1
  F  F17  1  0.267787  0.474359  0.639751  1
  F  F18  1  0.227022  0.475165  0.142667  1
  F  F19  1  0.730814  0.521049  0.356907  1
  F  F20  1  0.758705  0.023368  0.058327  1
  F  F21  1  0.260937  0.975482  0.444256  1
  F  F22  1  0.243209  0.975407  0.941090  1
  F  F23  1  0.741764  0.025247  0.550926  1
  F  F24  1  0.983763  0.731991  0.647973  1
  F  F25  1  0.487548  0.266890  0.850234  1
  F  F26  1  0.026044  0.270572  0.360638  1
  F  F27  1  0.516499  0.733236  0.148284  1
  F  F28  1  0.036795  0.748307  0.172356  1
  F  F29  1  0.547103  0.255852  0.324080  1
  F  F30  1  0.968983  0.252621  0.829561  1
  F  F31  1  0.465496  0.744509  0.672982  1
  F  F32  1  0.425379  0.972596  0.235915  1
  F  F33  1  0.924525  0.027714  0.268401  1
  F  F34  1  0.573570  0.028699  0.762627  1
  F  F35  1  0.073546  0.974436  0.730509  1
