# generated using pymatgen
data_Nb3Br7
_symmetry_space_group_name_H-M   'P 1'
_cell_length_a   10.32343600
_cell_length_b   10.32343557
_cell_length_c   11.94127100
_cell_angle_alpha   90.00000000
_cell_angle_beta   90.00000000
_cell_angle_gamma   92.97386878
_symmetry_Int_Tables_number   1
_chemical_formula_structural   Nb3Br7
_chemical_formula_sum   'Nb12 Br28'
_cell_volume   1270.90713342
_cell_formula_units_Z   4
loop_
 _symmetry_equiv_pos_site_id
 _symmetry_equiv_pos_as_xyz
  1  'x, y, z'
loop_
 _atom_site_type_symbol
 _atom_site_label
 _atom_site_symmetry_multiplicity
 _atom_site_fract_x
 _atom_site_fract_y
 _atom_site_fract_z
 _atom_site_occupancy
  Nb  Nb0  1  0.611576  0.388424  0.920341  1
  Nb  Nb1  1  0.888424  0.111576  0.420341  1
  Nb  Nb2  1  0.111576  0.888424  0.579659  1
  Nb  Nb3  1  0.388424  0.611576  0.079659  1
  Nb  Nb4  1  0.442845  0.342788  0.110489  1
  Nb  Nb5  1  0.057155  0.157212  0.610489  1
  Nb  Nb6  1  0.157212  0.057155  0.389511  1
  Nb  Nb7  1  0.342788  0.442845  0.889511  1
  Nb  Nb8  1  0.557155  0.657212  0.889511  1
  Nb  Nb9  1  0.942845  0.842788  0.389511  1
  Nb  Nb10  1  0.842788  0.942845  0.610489  1
  Nb  Nb11  1  0.657212  0.557155  0.110489  1
  Br  Br12  1  0.373685  0.126315  0.250000  1
  Br  Br13  1  0.126315  0.373685  0.750000  1
  Br  Br14  1  0.626315  0.873685  0.750000  1
  Br  Br15  1  0.873685  0.626315  0.250000  1
  Br  Br16  1  0.585644  0.164260  0.020965  1
  Br  Br17  1  0.914356  0.335740  0.520965  1
  Br  Br18  1  0.335740  0.914356  0.479035  1
  Br  Br19  1  0.164260  0.585644  0.979035  1
  Br  Br20  1  0.414356  0.835740  0.979035  1
  Br  Br21  1  0.085644  0.664260  0.479035  1
  Br  Br22  1  0.664260  0.085644  0.520965  1
  Br  Br23  1  0.835740  0.414356  0.020965  1
  Br  Br24  1  0.620899  0.379101  0.265599  1
  Br  Br25  1  0.879101  0.120899  0.765599  1
  Br  Br26  1  0.120899  0.879101  0.234401  1
  Br  Br27  1  0.379101  0.620899  0.734401  1
  Br  Br28  1  0.756191  0.756191  0.000000  1
  Br  Br29  1  0.743809  0.743809  0.500000  1
  Br  Br30  1  0.243809  0.243809  0.000000  1
  Br  Br31  1  0.256191  0.256191  0.500000  1
  Br  Br32  1  0.531736  0.715689  0.238716  1
  Br  Br33  1  0.968264  0.784311  0.738716  1
  Br  Br34  1  0.784311  0.968264  0.261284  1
  Br  Br35  1  0.715689  0.531736  0.761284  1
  Br  Br36  1  0.468264  0.284311  0.761284  1
  Br  Br37  1  0.031736  0.215689  0.261284  1
  Br  Br38  1  0.215689  0.031736  0.738716  1
  Br  Br39  1  0.284311  0.468264  0.238716  1
