# generated using pymatgen
data_La5CeNd4(Sn5Rh2)4
_symmetry_space_group_name_H-M   'P 1'
_cell_length_a   14.29243200
_cell_length_b   14.29243200
_cell_length_c   4.65959700
_cell_angle_alpha   90.00000000
_cell_angle_beta   90.00000000
_cell_angle_gamma   90.00000000
_symmetry_Int_Tables_number   1
_chemical_formula_structural   La5CeNd4(Sn5Rh2)4
_chemical_formula_sum   'La5 Ce1 Nd4 Sn20 Rh8'
_cell_volume   951.83271187
_cell_formula_units_Z   1
loop_
 _symmetry_equiv_pos_site_id
 _symmetry_equiv_pos_as_xyz
  1  'x, y, z'
loop_
 _atom_site_type_symbol
 _atom_site_label
 _atom_site_symmetry_multiplicity
 _atom_site_fract_x
 _atom_site_fract_y
 _atom_site_fract_z
 _atom_site_occupancy
  La  La0  1  0.500000  0.500000  0.000000  1
  La  La1  1  0.889546  0.389377  0.500000  1
  La  La2  1  0.110454  0.610623  0.500000  1
  La  La3  1  0.389377  0.110454  0.500000  1
  La  La4  1  0.610623  0.889546  0.500000  1
  Ce  Ce5  1  0.000000  0.000000  0.000000  1
  Nd  Nd6  1  0.678909  0.178890  0.500000  1
  Nd  Nd7  1  0.321091  0.821110  0.500000  1
  Nd  Nd8  1  0.178890  0.321091  0.500000  1
  Nd  Nd9  1  0.821110  0.678909  0.500000  1
  Sn  Sn10  1  0.570784  0.069794  0.000000  1
  Sn  Sn11  1  0.429216  0.930206  0.000000  1
  Sn  Sn12  1  0.069794  0.429216  0.000000  1
  Sn  Sn13  1  0.930206  0.570784  0.000000  1
  Sn  Sn14  1  0.652364  0.698836  0.000000  1
  Sn  Sn15  1  0.347636  0.301164  0.000000  1
  Sn  Sn16  1  0.151790  0.801381  0.000000  1
  Sn  Sn17  1  0.848210  0.198619  0.000000  1
  Sn  Sn18  1  0.301164  0.652364  0.000000  1
  Sn  Sn19  1  0.698836  0.347636  0.000000  1
  Sn  Sn20  1  0.198619  0.151790  0.000000  1
  Sn  Sn21  1  0.801381  0.848210  0.000000  1
  Sn  Sn22  1  0.664410  0.502958  0.500000  1
  Sn  Sn23  1  0.335590  0.497042  0.500000  1
  Sn  Sn24  1  0.161931  0.996103  0.500000  1
  Sn  Sn25  1  0.838069  0.003897  0.500000  1
  Sn  Sn26  1  0.497042  0.664410  0.500000  1
  Sn  Sn27  1  0.502958  0.335590  0.500000  1
  Sn  Sn28  1  0.003897  0.161931  0.500000  1
  Sn  Sn29  1  0.996103  0.838069  0.500000  1
  Rh  Rh30  1  0.746133  0.530472  0.000000  1
  Rh  Rh31  1  0.253867  0.469528  0.000000  1
  Rh  Rh32  1  0.243930  0.969267  0.000000  1
  Rh  Rh33  1  0.756070  0.030733  0.000000  1
  Rh  Rh34  1  0.469528  0.746133  0.000000  1
  Rh  Rh35  1  0.530472  0.253867  0.000000  1
  Rh  Rh36  1  0.030733  0.243930  0.000000  1
  Rh  Rh37  1  0.969267  0.756070  0.000000  1
