# generated using pymatgen
data_Dy6CrFeB14
_symmetry_space_group_name_H-M   'P 1'
_cell_length_a   8.06192400
_cell_length_b   8.06192434
_cell_length_c   9.31986000
_cell_angle_alpha   90.00000000
_cell_angle_beta   90.00000000
_cell_angle_gamma   155.40489333
_symmetry_Int_Tables_number   1
_chemical_formula_structural   Dy6CrFeB14
_chemical_formula_sum   'Dy6 Cr1 Fe1 B14'
_cell_volume   252.11120988
_cell_formula_units_Z   1
loop_
 _symmetry_equiv_pos_site_id
 _symmetry_equiv_pos_as_xyz
  1  'x, y, z'
loop_
 _atom_site_type_symbol
 _atom_site_label
 _atom_site_symmetry_multiplicity
 _atom_site_fract_x
 _atom_site_fract_y
 _atom_site_fract_z
 _atom_site_occupancy
  Dy  Dy0  1  0.894624  0.105376  0.440226  1
  Dy  Dy1  1  0.104824  0.895176  0.561305  1
  Dy  Dy2  1  0.894624  0.105376  0.059774  1
  Dy  Dy3  1  0.104824  0.895176  0.938695  1
  Dy  Dy4  1  0.242861  0.757139  0.250000  1
  Dy  Dy5  1  0.758202  0.241798  0.750000  1
  Cr  Cr6  1  0.053291  0.946709  0.250000  1
  Fe  Fe7  1  0.945544  0.054456  0.750000  1
  B  B8  1  0.727714  0.272286  0.468175  1
  B  B9  1  0.272989  0.727011  0.533902  1
  B  B10  1  0.727714  0.272286  0.031825  1
  B  B11  1  0.272989  0.727011  0.966098  1
  B  B12  1  0.631496  0.368504  0.151244  1
  B  B13  1  0.370345  0.629655  0.846698  1
  B  B14  1  0.631496  0.368504  0.348756  1
  B  B15  1  0.370345  0.629655  0.653302  1
  B  B16  1  0.521280  0.478720  0.096206  1
  B  B17  1  0.478086  0.521914  0.901941  1
  B  B18  1  0.521280  0.478720  0.403794  1
  B  B19  1  0.478086  0.521914  0.598059  1
  B  B20  1  0.458686  0.541314  0.250000  1
  B  B21  1  0.538699  0.461301  0.750000  1
