# generated using pymatgen
data_SrPt4Pb
_symmetry_space_group_name_H-M   'P 1'
_cell_length_a   5.53309316
_cell_length_b   5.53309354
_cell_length_c   5.53309400
_cell_angle_alpha   59.99999724
_cell_angle_beta   59.99999500
_cell_angle_gamma   60.00000236
_symmetry_Int_Tables_number   1
_chemical_formula_structural   SrPt4Pb
_chemical_formula_sum   'Sr1 Pt4 Pb1'
_cell_volume   119.78130153
_cell_formula_units_Z   1
loop_
 _symmetry_equiv_pos_site_id
 _symmetry_equiv_pos_as_xyz
  1  'x, y, z'
loop_
 _atom_site_type_symbol
 _atom_site_label
 _atom_site_symmetry_multiplicity
 _atom_site_fract_x
 _atom_site_fract_y
 _atom_site_fract_z
 _atom_site_occupancy
  Sr  Sr0  1  0.375000  0.375000  0.375000  1
  Pt  Pt1  1  0.999574  0.999574  0.501278  1
  Pt  Pt2  1  0.999574  0.999574  0.999574  1
  Pt  Pt3  1  0.999574  0.501278  0.999574  1
  Pt  Pt4  1  0.501278  0.999574  0.999574  1
  Pb  Pb5  1  0.624999  0.624999  0.624999  1
