# generated using pymatgen
data_NdSmHo3(In2Pd)2
_symmetry_space_group_name_H-M   'P 1'
_cell_length_a   3.66279500
_cell_length_b   8.22324848
_cell_length_c   18.37479874
_cell_angle_alpha   89.71905060
_cell_angle_beta   90.00000000
_cell_angle_gamma   90.00000000
_symmetry_Int_Tables_number   1
_chemical_formula_structural   NdSmHo3(In2Pd)2
_chemical_formula_sum   'Nd2 Sm2 Ho6 In8 Pd4'
_cell_volume   553.44363385
_cell_formula_units_Z   2
loop_
 _symmetry_equiv_pos_site_id
 _symmetry_equiv_pos_as_xyz
  1  'x, y, z'
loop_
 _atom_site_type_symbol
 _atom_site_label
 _atom_site_symmetry_multiplicity
 _atom_site_fract_x
 _atom_site_fract_y
 _atom_site_fract_z
 _atom_site_occupancy
  Nd  Nd0  1  0.000000  0.500000  0.500000  1
  Nd  Nd1  1  0.000000  0.000000  0.000000  1
  Sm  Sm2  1  0.000000  0.738130  0.283636  1
  Sm  Sm3  1  0.000000  0.261870  0.716364  1
  Ho  Ho4  1  0.000000  0.761261  0.782921  1
  Ho  Ho5  1  0.000000  0.238739  0.217079  1
  Ho  Ho6  1  0.000000  0.619610  0.084605  1
  Ho  Ho7  1  0.000000  0.380390  0.915395  1
  Ho  Ho8  1  0.000000  0.879223  0.584719  1
  Ho  Ho9  1  0.000000  0.120777  0.415281  1
  In  In10  1  0.500000  0.700399  0.933187  1
  In  In11  1  0.500000  0.299601  0.066813  1
  In  In12  1  0.500000  0.803482  0.434897  1
  In  In13  1  0.500000  0.196518  0.565103  1
  In  In14  1  0.500000  0.587797  0.653416  1
  In  In15  1  0.500000  0.412203  0.346584  1
  In  In16  1  0.500000  0.919077  0.152395  1
  In  In17  1  0.500000  0.080923  0.847605  1
  Pd  Pd18  1  0.500000  0.519292  0.194295  1
  Pd  Pd19  1  0.500000  0.480708  0.805705  1
  Pd  Pd20  1  0.500000  0.969492  0.695862  1
  Pd  Pd21  1  0.500000  0.030508  0.304138  1
