# generated using pymatgen
data_Sc4Tc3B8Ru6W
_symmetry_space_group_name_H-M   'P 1'
_cell_length_a   3.04319100
_cell_length_b   8.58798900
_cell_length_c   10.01760388
_cell_angle_alpha   89.82008094
_cell_angle_beta   90.00000000
_cell_angle_gamma   90.00000000
_symmetry_Int_Tables_number   1
_chemical_formula_structural   Sc4Tc3B8Ru6W
_chemical_formula_sum   'Sc4 Tc3 B8 Ru6 W1'
_cell_volume   261.80769290
_cell_formula_units_Z   1
loop_
 _symmetry_equiv_pos_site_id
 _symmetry_equiv_pos_as_xyz
  1  'x, y, z'
loop_
 _atom_site_type_symbol
 _atom_site_label
 _atom_site_symmetry_multiplicity
 _atom_site_fract_x
 _atom_site_fract_y
 _atom_site_fract_z
 _atom_site_occupancy
  Sc  Sc0  1  0.500000  0.841959  0.181856  1
  Sc  Sc1  1  0.500000  0.159350  0.820184  1
  Sc  Sc2  1  0.500000  0.659351  0.681584  1
  Sc  Sc3  1  0.500000  0.342868  0.316996  1
  Tc  Tc4  1  0.000000  0.659804  0.953049  1
  Tc  Tc5  1  0.000000  0.340703  0.047239  1
  Tc  Tc6  1  0.000000  0.837995  0.451817  1
  B  B7  1  0.500000  0.959811  0.586154  1
  B  B8  1  0.500000  0.030192  0.410822  1
  B  B9  1  0.500000  0.848694  0.901030  1
  B  B10  1  0.500000  0.150510  0.099290  1
  B  B11  1  0.500000  0.649772  0.399751  1
  B  B12  1  0.500000  0.352438  0.600862  1
  B  B13  1  0.500000  0.465636  0.912849  1
  B  B14  1  0.500000  0.534493  0.087781  1
  Ru  Ru15  1  0.000000  0.000258  0.000138  1
  Ru  Ru16  1  0.000000  0.405709  0.761667  1
  Ru  Ru17  1  0.000000  0.596266  0.239033  1
  Ru  Ru18  1  0.000000  0.501516  0.499873  1
  Ru  Ru19  1  0.000000  0.905483  0.740090  1
  Ru  Ru20  1  0.000000  0.096324  0.260584  1
  W  W21  1  0.000000  0.160868  0.547351  1
