# generated using pymatgen
data_B12CSe
_symmetry_space_group_name_H-M   'P 1'
_cell_length_a   5.18752597
_cell_length_b   5.18752658
_cell_length_c   5.18752666
_cell_angle_alpha   68.03196601
_cell_angle_beta   68.03196143
_cell_angle_gamma   68.03196557
_symmetry_Int_Tables_number   1
_chemical_formula_structural   B12CSe
_chemical_formula_sum   'B12 C1 Se1'
_cell_volume   115.52773201
_cell_formula_units_Z   1
loop_
 _symmetry_equiv_pos_site_id
 _symmetry_equiv_pos_as_xyz
  1  'x, y, z'
loop_
 _atom_site_type_symbol
 _atom_site_label
 _atom_site_symmetry_multiplicity
 _atom_site_fract_x
 _atom_site_fract_y
 _atom_site_fract_z
 _atom_site_occupancy
  B  B0  1  0.007369  0.007369  0.326292  1
  B  B1  1  0.326292  0.007369  0.007369  1
  B  B2  1  0.310810  0.797363  0.797363  1
  B  B3  1  0.797363  0.797363  0.310810  1
  B  B4  1  0.797363  0.310810  0.797363  1
  B  B5  1  0.178914  0.717160  0.178914  1
  B  B6  1  0.717160  0.178914  0.178914  1
  B  B7  1  0.178914  0.178914  0.717160  1
  B  B8  1  0.668705  0.989640  0.989640  1
  B  B9  1  0.989640  0.989640  0.668705  1
  B  B10  1  0.989640  0.668705  0.989640  1
  B  B11  1  0.007369  0.326292  0.007369  1
  C  C12  1  0.607850  0.607850  0.607850  1
  Se  Se13  1  0.422611  0.422611  0.422611  1
