# generated using pymatgen
data_LiPr16Hg3Pt4
_symmetry_space_group_name_H-M   'P 1'
_cell_length_a   10.10912291
_cell_length_b   10.11449061
_cell_length_c   10.11449100
_cell_angle_alpha   59.99999544
_cell_angle_beta   59.98242935
_cell_angle_gamma   59.98242841
_symmetry_Int_Tables_number   1
_chemical_formula_structural   LiPr16Hg3Pt4
_chemical_formula_sum   'Li1 Pr16 Hg3 Pt4'
_cell_volume   731.09046102
_cell_formula_units_Z   1
loop_
 _symmetry_equiv_pos_site_id
 _symmetry_equiv_pos_as_xyz
  1  'x, y, z'
loop_
 _atom_site_type_symbol
 _atom_site_label
 _atom_site_symmetry_multiplicity
 _atom_site_fract_x
 _atom_site_fract_y
 _atom_site_fract_z
 _atom_site_occupancy
  Li  Li0  1  0.308135  0.563955  0.563955  1
  Pr  Pr1  1  0.348604  0.349273  0.349273  1
  Pr  Pr2  1  0.348604  0.349273  0.952849  1
  Pr  Pr3  1  0.348604  0.952849  0.349273  1
  Pr  Pr4  1  0.939852  0.353382  0.353382  1
  Pr  Pr5  1  0.804525  0.194691  0.194691  1
  Pr  Pr6  1  0.188523  0.811688  0.811688  1
  Pr  Pr7  1  0.188523  0.811688  0.188102  1
  Pr  Pr8  1  0.804525  0.194691  0.806093  1
  Pr  Pr9  1  0.188523  0.188102  0.811688  1
  Pr  Pr10  1  0.804525  0.806093  0.194691  1
  Pr  Pr11  1  0.936628  0.565405  0.565405  1
  Pr  Pr12  1  0.564233  0.936125  0.936125  1
  Pr  Pr13  1  0.564233  0.936125  0.563515  1
  Pr  Pr14  1  0.936628  0.565405  0.932560  1
  Pr  Pr15  1  0.564233  0.563515  0.936125  1
  Pr  Pr16  1  0.936628  0.932560  0.565405  1
  Hg  Hg17  1  0.578258  0.587671  0.587671  1
  Hg  Hg18  1  0.578258  0.587671  0.246398  1
  Hg  Hg19  1  0.578258  0.246398  0.587671  1
  Pt  Pt20  1  0.139480  0.144171  0.144171  1
  Pt  Pt21  1  0.139480  0.144171  0.572178  1
  Pt  Pt22  1  0.139480  0.572178  0.144171  1
  Pt  Pt23  1  0.571261  0.142913  0.142913  1
