# generated using pymatgen
data_Pr2Ga9TcRu4
_symmetry_space_group_name_H-M   'P 1'
_cell_length_a   8.15867881
_cell_length_b   8.15867801
_cell_length_c   8.15867932
_cell_angle_alpha   134.89087544
_cell_angle_beta   134.89087527
_cell_angle_gamma   65.69980221
_symmetry_Int_Tables_number   1
_chemical_formula_structural   Pr2Ga9TcRu4
_chemical_formula_sum   'Pr2 Ga9 Tc1 Ru4'
_cell_volume   268.48570937
_cell_formula_units_Z   1
loop_
 _symmetry_equiv_pos_site_id
 _symmetry_equiv_pos_as_xyz
  1  'x, y, z'
loop_
 _atom_site_type_symbol
 _atom_site_label
 _atom_site_symmetry_multiplicity
 _atom_site_fract_x
 _atom_site_fract_y
 _atom_site_fract_z
 _atom_site_occupancy
  Pr  Pr0  1  0.000012  0.500012  0.500000  1
  Pr  Pr1  1  0.500012  0.000012  0.500000  1
  Ga  Ga2  1  0.441570  0.860437  0.000000  1
  Ga  Ga3  1  0.139505  0.139505  0.582705  1
  Ga  Ga4  1  0.860437  0.441570  0.000000  1
  Ga  Ga5  1  0.860437  0.860437  0.418865  1
  Ga  Ga6  1  0.556799  0.139505  0.000000  1
  Ga  Ga7  1  0.139505  0.556799  0.000000  1
  Ga  Ga8  1  0.556799  0.556799  0.417295  1
  Ga  Ga9  1  0.000700  0.000700  0.000000  1
  Ga  Ga10  1  0.441570  0.441570  0.581135  1
  Tc  Tc11  1  0.180642  0.180642  0.000000  1
  Ru  Ru12  1  0.821169  0.821169  0.000000  1
  Ru  Ru13  1  0.250259  0.750259  0.500000  1
  Ru  Ru14  1  0.750259  0.250259  0.500000  1
  Ru  Ru15  1  0.500327  0.500327  0.000000  1
