# generated using pymatgen
data_Ce3Ho7(GaPb3)2
_symmetry_space_group_name_H-M   'P 1'
_cell_length_a   6.38647301
_cell_length_b   9.47540627
_cell_length_c   9.47540800
_cell_angle_alpha   119.96238592
_cell_angle_beta   90.00265554
_cell_angle_gamma   90.00265253
_symmetry_Int_Tables_number   1
_chemical_formula_structural   Ce3Ho7(GaPb3)2
_chemical_formula_sum   'Ce3 Ho7 Ga2 Pb6'
_cell_volume   496.76610249
_cell_formula_units_Z   1
loop_
 _symmetry_equiv_pos_site_id
 _symmetry_equiv_pos_as_xyz
  1  'x, y, z'
loop_
 _atom_site_type_symbol
 _atom_site_label
 _atom_site_symmetry_multiplicity
 _atom_site_fract_x
 _atom_site_fract_y
 _atom_site_fract_z
 _atom_site_occupancy
  Ce  Ce0  1  0.000000  0.333346  0.666654  1
  Ce  Ce1  1  0.500000  0.333386  0.666614  1
  Ce  Ce2  1  0.500000  0.666624  0.333376  1
  Ho  Ho3  1  0.750216  0.739213  0.740883  1
  Ho  Ho4  1  0.750239  0.259173  0.998330  1
  Ho  Ho5  1  0.750211  0.001687  0.260871  1
  Ho  Ho6  1  0.249784  0.259117  0.260787  1
  Ho  Ho7  1  0.249789  0.739129  0.998313  1
  Ho  Ho8  1  0.249761  0.001670  0.740827  1
  Ho  Ho9  1  0.000000  0.666655  0.333345  1
  Ga  Ga10  1  0.000000  0.999978  0.000022  1
  Ga  Ga11  1  0.500000  0.000007  0.999993  1
  Pb  Pb12  1  0.751638  0.384016  0.380808  1
  Pb  Pb13  1  0.751584  0.619157  0.003214  1
  Pb  Pb14  1  0.751533  0.996840  0.615979  1
  Pb  Pb15  1  0.248362  0.619192  0.615984  1
  Pb  Pb16  1  0.248467  0.384021  0.003160  1
  Pb  Pb17  1  0.248416  0.996786  0.380843  1
