# generated using pymatgen
data_DyLuCr2(TeO6)2
_symmetry_space_group_name_H-M   'P 1'
_cell_length_a   5.17191714
_cell_length_b   5.17187933
_cell_length_c   9.68319901
_cell_angle_alpha   89.99973153
_cell_angle_beta   89.99932571
_cell_angle_gamma   120.00359383
_symmetry_Int_Tables_number   1
_chemical_formula_structural   DyLuCr2(TeO6)2
_chemical_formula_sum   'Dy1 Lu1 Cr2 Te2 O12'
_cell_volume   224.30228748
_cell_formula_units_Z   1
loop_
 _symmetry_equiv_pos_site_id
 _symmetry_equiv_pos_as_xyz
  1  'x, y, z'
loop_
 _atom_site_type_symbol
 _atom_site_label
 _atom_site_symmetry_multiplicity
 _atom_site_fract_x
 _atom_site_fract_y
 _atom_site_fract_z
 _atom_site_occupancy
  Dy  Dy0  1  0.000000  0.000000  0.000000  1
  Lu  Lu1  1  0.000001  0.000000  0.500000  1
  Cr  Cr2  1  0.333352  0.666650  0.252635  1
  Cr  Cr3  1  0.666648  0.333350  0.747365  1
  Te  Te4  1  0.666673  0.333322  0.253001  1
  Te  Te5  1  0.333329  0.666679  0.746999  1
  O  O6  1  0.633667  0.991210  0.859724  1
  O  O7  1  0.357513  0.366356  0.859725  1
  O  O8  1  0.008827  0.642515  0.859717  1
  O  O9  1  0.366333  0.008791  0.140276  1
  O  O10  1  0.642487  0.633644  0.140275  1
  O  O11  1  0.991175  0.357485  0.140283  1
  O  O12  1  0.347739  0.989932  0.636275  1
  O  O13  1  0.642148  0.652236  0.636269  1
  O  O14  1  0.652261  0.010068  0.363725  1
  O  O15  1  0.010051  0.357835  0.636273  1
  O  O16  1  0.357854  0.347765  0.363731  1
  O  O17  1  0.989949  0.642165  0.363725  1
