# generated using pymatgen
data_Nd6OsBr10
_symmetry_space_group_name_H-M   'P 1'
_cell_length_a   7.67604024
_cell_length_b   9.38683674
_cell_length_c   9.69940205
_cell_angle_alpha   108.35354117
_cell_angle_beta   97.22617715
_cell_angle_gamma   105.43975954
_symmetry_Int_Tables_number   1
_chemical_formula_structural   Nd6OsBr10
_chemical_formula_sum   'Nd6 Os1 Br10'
_cell_volume   622.37985570
_cell_formula_units_Z   1
loop_
 _symmetry_equiv_pos_site_id
 _symmetry_equiv_pos_as_xyz
  1  'x, y, z'
loop_
 _atom_site_type_symbol
 _atom_site_label
 _atom_site_symmetry_multiplicity
 _atom_site_fract_x
 _atom_site_fract_y
 _atom_site_fract_z
 _atom_site_occupancy
  Nd  Nd0  1  0.532484  0.212183  0.413727  1
  Nd  Nd1  1  0.467516  0.787817  0.586273  1
  Nd  Nd2  1  0.127738  0.355746  0.313578  1
  Nd  Nd3  1  0.872262  0.644254  0.686422  1
  Nd  Nd4  1  0.628579  0.550234  0.248646  1
  Nd  Nd5  1  0.371421  0.449766  0.751354  1
  Os  Os6  1  0.500000  0.500000  0.500000  1
  Br  Br7  1  0.150318  0.042442  0.227713  1
  Br  Br8  1  0.849682  0.957558  0.772287  1
  Br  Br9  1  0.246363  0.414263  0.047133  1
  Br  Br10  1  0.753637  0.585737  0.952867  1
  Br  Br11  1  0.702503  0.242502  0.153416  1
  Br  Br12  1  0.297497  0.757498  0.846584  1
  Br  Br13  1  0.047020  0.676229  0.417899  1
  Br  Br14  1  0.952980  0.323771  0.582101  1
  Br  Br15  1  0.414532  0.131486  0.673079  1
  Br  Br16  1  0.585468  0.868514  0.326921  1
