# generated using pymatgen
data_TbHoAl20FeRh3
_symmetry_space_group_name_H-M   'P 1'
_cell_length_a   6.83391927
_cell_length_b   6.82964244
_cell_length_c   9.12410653
_cell_angle_alpha   90.04215390
_cell_angle_beta   90.14259224
_cell_angle_gamma   97.25096633
_symmetry_Int_Tables_number   1
_chemical_formula_structural   TbHoAl20FeRh3
_chemical_formula_sum   'Tb1 Ho1 Al20 Fe1 Rh3'
_cell_volume   422.44432225
_cell_formula_units_Z   1
loop_
 _symmetry_equiv_pos_site_id
 _symmetry_equiv_pos_as_xyz
  1  'x, y, z'
loop_
 _atom_site_type_symbol
 _atom_site_label
 _atom_site_symmetry_multiplicity
 _atom_site_fract_x
 _atom_site_fract_y
 _atom_site_fract_z
 _atom_site_occupancy
  Tb  Tb0  1  0.872335  0.130520  0.751300  1
  Ho  Ho1  1  0.127807  0.869238  0.248652  1
  Al  Al2  1  0.622473  0.378907  0.550466  1
  Al  Al3  1  0.377392  0.621227  0.449396  1
  Al  Al4  1  0.371450  0.619657  0.046975  1
  Al  Al5  1  0.628409  0.380496  0.953178  1
  Al  Al6  1  0.222121  0.223030  0.498510  1
  Al  Al7  1  0.777956  0.776873  0.501210  1
  Al  Al8  1  0.782297  0.773505  0.002859  1
  Al  Al9  1  0.217822  0.226435  0.997432  1
  Al  Al10  1  0.848244  0.159514  0.100506  1
  Al  Al11  1  0.151946  0.840315  0.899743  1
  Al  Al12  1  0.154879  0.845580  0.603911  1
  Al  Al13  1  0.845316  0.154214  0.395862  1
  Al  Al14  1  0.860399  0.587583  0.755041  1
  Al  Al15  1  0.139672  0.412808  0.244969  1
  Al  Al16  1  0.409466  0.143080  0.751046  1
  Al  Al17  1  0.590171  0.856829  0.248955  1
  Al  Al18  1  0.222669  0.481224  0.756509  1
  Al  Al19  1  0.777546  0.519000  0.243497  1
  Al  Al20  1  0.520697  0.773768  0.751149  1
  Al  Al21  1  0.479084  0.226027  0.248857  1
  Fe  Fe22  1  0.999997  0.500095  0.000154  1
  Rh  Rh23  1  0.000013  0.500081  0.499815  1
  Rh  Rh24  1  0.499907  0.999996  0.000160  1
  Rh  Rh25  1  0.499932  0.000000  0.499849  1
