# generated using pymatgen
data_Zr3Ga2PdC
_symmetry_space_group_name_H-M   'P 1'
_cell_length_a   8.67407418
_cell_length_b   8.67405736
_cell_length_c   8.67405200
_cell_angle_alpha   60.00002045
_cell_angle_beta   60.00008460
_cell_angle_gamma   60.00005422
_symmetry_Int_Tables_number   1
_chemical_formula_structural   Zr3Ga2PdC
_chemical_formula_sum   'Zr12 Ga8 Pd4 C4'
_cell_volume   461.48008946
_cell_formula_units_Z   4
loop_
 _symmetry_equiv_pos_site_id
 _symmetry_equiv_pos_as_xyz
  1  'x, y, z'
loop_
 _atom_site_type_symbol
 _atom_site_label
 _atom_site_symmetry_multiplicity
 _atom_site_fract_x
 _atom_site_fract_y
 _atom_site_fract_z
 _atom_site_occupancy
  Zr  Zr0  1  0.441199  0.441203  0.058796  1
  Zr  Zr1  1  0.058799  0.441201  0.058799  1
  Zr  Zr2  1  0.441198  0.058801  0.058801  1
  Zr  Zr3  1  0.058799  0.058797  0.441200  1
  Zr  Zr4  1  0.441197  0.058799  0.441203  1
  Zr  Zr5  1  0.058799  0.441200  0.441199  1
  Zr  Zr6  1  0.808801  0.808797  0.191204  1
  Zr  Zr7  1  0.191201  0.808799  0.191201  1
  Zr  Zr8  1  0.808802  0.191199  0.191199  1
  Zr  Zr9  1  0.191201  0.191203  0.808800  1
  Zr  Zr10  1  0.808803  0.191201  0.808797  1
  Zr  Zr11  1  0.191201  0.808800  0.808801  1
  Ga  Ga12  1  0.832929  0.832932  0.501207  1
  Ga  Ga13  1  0.832930  0.501208  0.832933  1
  Ga  Ga14  1  0.501204  0.832931  0.832933  1
  Ga  Ga15  1  0.832930  0.832931  0.832931  1
  Ga  Ga16  1  0.417071  0.417068  0.748793  1
  Ga  Ga17  1  0.417070  0.748792  0.417067  1
  Ga  Ga18  1  0.748796  0.417069  0.417067  1
  Ga  Ga19  1  0.417070  0.417069  0.417069  1
  Pd  Pd20  1  0.625000  0.625000  0.125000  1
  Pd  Pd21  1  0.625000  0.125000  0.625000  1
  Pd  Pd22  1  0.125000  0.625000  0.625000  1
  Pd  Pd23  1  0.625000  0.625000  0.625000  1
  C  C24  1  0.125000  0.125000  0.625000  1
  C  C25  1  0.125000  0.625000  0.125000  1
  C  C26  1  0.625000  0.125000  0.125000  1
  C  C27  1  0.125000  0.125000  0.125000  1
