# generated using pymatgen
data_Ti3SeS3
_symmetry_space_group_name_H-M   'P 1'
_cell_length_a   9.55453627
_cell_length_b   9.62548648
_cell_length_c   3.41150100
_cell_angle_alpha   90.00000000
_cell_angle_beta   90.00000000
_cell_angle_gamma   119.29062796
_symmetry_Int_Tables_number   1
_chemical_formula_structural   Ti3SeS3
_chemical_formula_sum   'Ti6 Se2 S6'
_cell_volume   273.63310982
_cell_formula_units_Z   2
loop_
 _symmetry_equiv_pos_site_id
 _symmetry_equiv_pos_as_xyz
  1  'x, y, z'
loop_
 _atom_site_type_symbol
 _atom_site_label
 _atom_site_symmetry_multiplicity
 _atom_site_fract_x
 _atom_site_fract_y
 _atom_site_fract_z
 _atom_site_occupancy
  Ti  Ti0  1  0.649639  0.138659  0.249999  1
  Ti  Ti1  1  0.482231  0.350973  0.249999  1
  Ti  Ti2  1  0.859198  0.507754  0.249999  1
  Ti  Ti3  1  0.132833  0.489027  0.750001  1
  Ti  Ti4  1  0.505795  0.635787  0.750001  1
  Ti  Ti5  1  0.362822  0.871385  0.750001  1
  Se  Se6  1  0.047661  0.705554  0.750001  1
  Se  Se7  1  0.661367  0.950131  0.750001  1
  S  S8  1  0.363347  0.051255  0.249999  1
  S  S9  1  0.952036  0.312992  0.249999  1
  S  S10  1  0.682988  0.631891  0.249999  1
  S  S11  1  0.332966  0.667570  0.249999  1
  S  S12  1  0.663498  0.331868  0.750001  1
  S  S13  1  0.303620  0.355156  0.750001  1
