# generated using pymatgen
data_AcLa(CoSi)2
_symmetry_space_group_name_H-M   'P 1'
_cell_length_a   4.07878100
_cell_length_b   4.07878100
_cell_length_c   7.44471000
_cell_angle_alpha   90.00000000
_cell_angle_beta   90.00000000
_cell_angle_gamma   90.00000000
_symmetry_Int_Tables_number   1
_chemical_formula_structural   AcLa(CoSi)2
_chemical_formula_sum   'Ac1 La1 Co2 Si2'
_cell_volume   123.85357878
_cell_formula_units_Z   1
loop_
 _symmetry_equiv_pos_site_id
 _symmetry_equiv_pos_as_xyz
  1  'x, y, z'
loop_
 _atom_site_type_symbol
 _atom_site_label
 _atom_site_symmetry_multiplicity
 _atom_site_fract_x
 _atom_site_fract_y
 _atom_site_fract_z
 _atom_site_occupancy
  Ac  Ac0  1  0.000000  0.500000  0.318992  1
  La  La1  1  0.500000  0.000000  0.697261  1
  Co  Co2  1  0.000000  0.000000  0.996557  1
  Co  Co3  1  0.500000  0.500000  0.996557  1
  Si  Si4  1  0.000000  0.500000  0.842736  1
  Si  Si5  1  0.500000  0.000000  0.147897  1
