# generated using pymatgen
data_Er4Mg4IrRh3
_symmetry_space_group_name_H-M   'P 1'
_cell_length_a   4.08957300
_cell_length_b   7.05705192
_cell_length_c   8.47436839
_cell_angle_alpha   90.57973954
_cell_angle_beta   90.00000000
_cell_angle_gamma   90.00000000
_symmetry_Int_Tables_number   1
_chemical_formula_structural   Er4Mg4IrRh3
_chemical_formula_sum   'Er4 Mg4 Ir1 Rh3'
_cell_volume   244.56054008
_cell_formula_units_Z   1
loop_
 _symmetry_equiv_pos_site_id
 _symmetry_equiv_pos_as_xyz
  1  'x, y, z'
loop_
 _atom_site_type_symbol
 _atom_site_label
 _atom_site_symmetry_multiplicity
 _atom_site_fract_x
 _atom_site_fract_y
 _atom_site_fract_z
 _atom_site_occupancy
  Er  Er0  1  0.250000  0.540449  0.178150  1
  Er  Er1  1  0.750000  0.463076  0.824474  1
  Er  Er2  1  0.250000  0.033229  0.324508  1
  Er  Er3  1  0.750000  0.961517  0.674322  1
  Mg  Mg4  1  0.250000  0.137767  0.938258  1
  Mg  Mg5  1  0.750000  0.863785  0.061797  1
  Mg  Mg6  1  0.250000  0.636534  0.562155  1
  Mg  Mg7  1  0.750000  0.362680  0.438287  1
  Ir  Ir8  1  0.750000  0.748467  0.372465  1
  Rh  Rh9  1  0.250000  0.250254  0.627299  1
  Rh  Rh10  1  0.750000  0.251494  0.124734  1
  Rh  Rh11  1  0.250000  0.750749  0.873554  1
