# generated using pymatgen
data_Tb2Pr2Al15(GaIr2)3
_symmetry_space_group_name_H-M   'P 1'
_cell_length_a   7.57443622
_cell_length_b   7.57362321
_cell_length_c   9.61832900
_cell_angle_alpha   90.00000000
_cell_angle_beta   90.00000000
_cell_angle_gamma   119.28432622
_symmetry_Int_Tables_number   1
_chemical_formula_structural   Tb2Pr2Al15(GaIr2)3
_chemical_formula_sum   'Tb2 Pr2 Al15 Ga3 Ir6'
_cell_volume   481.25058355
_cell_formula_units_Z   1
loop_
 _symmetry_equiv_pos_site_id
 _symmetry_equiv_pos_as_xyz
  1  'x, y, z'
loop_
 _atom_site_type_symbol
 _atom_site_label
 _atom_site_symmetry_multiplicity
 _atom_site_fract_x
 _atom_site_fract_y
 _atom_site_fract_z
 _atom_site_occupancy
  Tb  Tb0  1  0.004833  0.323905  0.750000  1
  Tb  Tb1  1  0.323283  0.003348  0.750000  1
  Pr  Pr2  1  0.997951  0.674854  0.250000  1
  Pr  Pr3  1  0.670093  0.990630  0.250000  1
  Al  Al4  1  0.003938  0.335663  0.067952  1
  Al  Al5  1  0.998741  0.662935  0.923115  1
  Al  Al6  1  0.998741  0.662935  0.576885  1
  Al  Al7  1  0.336805  0.006243  0.431523  1
  Al  Al8  1  0.003938  0.335663  0.432048  1
  Al  Al9  1  0.663138  0.999296  0.576692  1
  Al  Al10  1  0.663138  0.999296  0.923308  1
  Al  Al11  1  0.336805  0.006243  0.068477  1
  Al  Al12  1  0.334020  0.334319  0.558404  1
  Al  Al13  1  0.665655  0.665161  0.458521  1
  Al  Al14  1  0.665655  0.665161  0.041479  1
  Al  Al15  1  0.334020  0.334319  0.941596  1
  Al  Al16  1  0.661871  0.448661  0.750000  1
  Al  Al17  1  0.547321  0.339218  0.250000  1
  Al  Al18  1  0.448853  0.661574  0.750000  1
  Ga  Ga19  1  0.134653  0.135368  0.250000  1
  Ga  Ga20  1  0.865318  0.865154  0.750000  1
  Ga  Ga21  1  0.338109  0.542471  0.250000  1
  Ir  Ir22  1  0.670944  0.329399  0.998102  1
  Ir  Ir23  1  0.328856  0.672358  0.995876  1
  Ir  Ir24  1  0.328856  0.672358  0.504124  1
  Ir  Ir25  1  0.670944  0.329399  0.501898  1
  Ir  Ir26  1  0.001759  0.002033  0.996716  1
  Ir  Ir27  1  0.001759  0.002033  0.503284  1
