# generated using pymatgen
data_Tb8Dy11TmPb16
_symmetry_space_group_name_H-M   'P 1'
_cell_length_a   8.22195400
_cell_length_b   8.30746905
_cell_length_c   15.67762600
_cell_angle_alpha   90.00000000
_cell_angle_beta   90.00000000
_cell_angle_gamma   90.00644170
_symmetry_Int_Tables_number   1
_chemical_formula_structural   Tb8Dy11TmPb16
_chemical_formula_sum   'Tb8 Dy11 Tm1 Pb16'
_cell_volume   1070.83873383
_cell_formula_units_Z   1
loop_
 _symmetry_equiv_pos_site_id
 _symmetry_equiv_pos_as_xyz
  1  'x, y, z'
loop_
 _atom_site_type_symbol
 _atom_site_label
 _atom_site_symmetry_multiplicity
 _atom_site_fract_x
 _atom_site_fract_y
 _atom_site_fract_z
 _atom_site_occupancy
  Tb  Tb0  1  0.534128  0.323188  0.899944  1
  Tb  Tb1  1  0.034115  0.176797  0.600004  1
  Tb  Tb2  1  0.465776  0.676990  0.399895  1
  Tb  Tb3  1  0.966040  0.823335  0.100149  1
  Tb  Tb4  1  0.465776  0.676990  0.100105  1
  Tb  Tb5  1  0.966040  0.823335  0.399851  1
  Tb  Tb6  1  0.534128  0.323188  0.600056  1
  Tb  Tb7  1  0.034115  0.176797  0.899996  1
  Dy  Dy8  1  0.376595  0.840892  0.879482  1
  Dy  Dy9  1  0.876604  0.659058  0.620592  1
  Dy  Dy10  1  0.623096  0.158893  0.379253  1
  Dy  Dy11  1  0.123570  0.340795  0.120727  1
  Dy  Dy12  1  0.623096  0.158893  0.120747  1
  Dy  Dy13  1  0.123570  0.340795  0.379273  1
  Dy  Dy14  1  0.376595  0.840892  0.620518  1
  Dy  Dy15  1  0.876604  0.659058  0.879408  1
  Dy  Dy16  1  0.208472  0.504040  0.750000  1
  Dy  Dy17  1  0.708466  0.996019  0.750000  1
  Dy  Dy18  1  0.791599  0.496061  0.250000  1
  Tm  Tm19  1  0.291333  0.004147  0.250000  1
  Pb  Pb20  1  0.281868  0.033646  0.043133  1
  Pb  Pb21  1  0.781877  0.466267  0.457163  1
  Pb  Pb22  1  0.718145  0.966237  0.542637  1
  Pb  Pb23  1  0.218090  0.533691  0.957396  1
  Pb  Pb24  1  0.718145  0.966237  0.957363  1
  Pb  Pb25  1  0.218090  0.533691  0.542604  1
  Pb  Pb26  1  0.281868  0.033646  0.456867  1
  Pb  Pb27  1  0.781877  0.466267  0.042837  1
  Pb  Pb28  1  0.572160  0.626572  0.750000  1
  Pb  Pb29  1  0.072207  0.873463  0.750000  1
  Pb  Pb30  1  0.427800  0.372941  0.250000  1
  Pb  Pb31  1  0.928512  0.126400  0.250000  1
  Pb  Pb32  1  0.345128  0.151982  0.750000  1
  Pb  Pb33  1  0.845180  0.347830  0.750000  1
  Pb  Pb34  1  0.654390  0.848075  0.250000  1
  Pb  Pb35  1  0.154942  0.652889  0.250000  1
