# generated using pymatgen
data_K2NdPu3O12
_symmetry_space_group_name_H-M   'P 1'
_cell_length_a   7.49096489
_cell_length_b   8.01094052
_cell_length_c   10.75597600
_cell_angle_alpha   89.90988950
_cell_angle_beta   85.20658397
_cell_angle_gamma   89.49783760
_symmetry_Int_Tables_number   1
_chemical_formula_structural   K2NdPu3O12
_chemical_formula_sum   'K4 Nd2 Pu6 O24'
_cell_volume   643.18015704
_cell_formula_units_Z   2
loop_
 _symmetry_equiv_pos_site_id
 _symmetry_equiv_pos_as_xyz
  1  'x, y, z'
loop_
 _atom_site_type_symbol
 _atom_site_label
 _atom_site_symmetry_multiplicity
 _atom_site_fract_x
 _atom_site_fract_y
 _atom_site_fract_z
 _atom_site_occupancy
  K  K0  1  0.562262  0.746345  0.600591  1
  K  K1  1  0.437738  0.253655  0.399409  1
  K  K2  1  0.029495  0.276831  0.147625  1
  K  K3  1  0.970505  0.723169  0.852375  1
  Nd  Nd4  1  0.726232  0.227292  0.749486  1
  Nd  Nd5  1  0.273768  0.772708  0.250514  1
  Pu  Pu6  1  0.812237  0.742870  0.209374  1
  Pu  Pu7  1  0.187763  0.257130  0.790626  1
  Pu  Pu8  1  0.000000  0.500000  0.500000  1
  Pu  Pu9  1  0.000000  0.000000  0.500000  1
  Pu  Pu10  1  0.500000  0.000000  0.000000  1
  Pu  Pu11  1  0.500000  0.500000  0.000000  1
  O  O12  1  0.033667  0.713958  0.114915  1
  O  O13  1  0.966333  0.286042  0.885085  1
  O  O14  1  0.590069  0.766298  0.305845  1
  O  O15  1  0.409931  0.233702  0.694155  1
  O  O16  1  0.770023  0.427733  0.573670  1
  O  O17  1  0.229977  0.572267  0.426330  1
  O  O18  1  0.755437  0.056265  0.536472  1
  O  O19  1  0.244563  0.943735  0.463528  1
  O  O20  1  0.621788  0.959804  0.834739  1
  O  O21  1  0.378212  0.040196  0.165261  1
  O  O22  1  0.628042  0.528214  0.841386  1
  O  O23  1  0.371958  0.471786  0.158614  1
  O  O24  1  0.592846  0.239861  0.967040  1
  O  O25  1  0.407154  0.760139  0.032960  1
  O  O26  1  0.275358  0.447422  0.913027  1
  O  O27  1  0.724642  0.552578  0.086973  1
  O  O28  1  0.270926  0.059787  0.921750  1
  O  O29  1  0.729074  0.940213  0.078250  1
  O  O30  1  0.018430  0.088305  0.689988  1
  O  O31  1  0.981570  0.911695  0.310012  1
  O  O32  1  0.939539  0.745764  0.563489  1
  O  O33  1  0.060461  0.254236  0.436511  1
  O  O34  1  0.102869  0.453769  0.669318  1
  O  O35  1  0.897131  0.546231  0.330682  1
