# generated using pymatgen
data_U4Mn5(ReGe3)2
_symmetry_space_group_name_H-M   'P 1'
_cell_length_a   7.07988938
_cell_length_b   7.07664760
_cell_length_c   7.07988745
_cell_angle_alpha   109.29436951
_cell_angle_beta   109.84391880
_cell_angle_gamma   109.29438060
_symmetry_Int_Tables_number   1
_chemical_formula_structural   U4Mn5(ReGe3)2
_chemical_formula_sum   'U4 Mn5 Re2 Ge6'
_cell_volume   272.98990422
_cell_formula_units_Z   1
loop_
 _symmetry_equiv_pos_site_id
 _symmetry_equiv_pos_as_xyz
  1  'x, y, z'
loop_
 _atom_site_type_symbol
 _atom_site_label
 _atom_site_symmetry_multiplicity
 _atom_site_fract_x
 _atom_site_fract_y
 _atom_site_fract_z
 _atom_site_occupancy
  U  U0  1  0.000569  0.001137  0.500569  1
  U  U1  1  0.999396  0.499388  0.999396  1
  U  U2  1  0.500569  0.001137  0.000569  1
  U  U3  1  0.499992  0.499388  0.499992  1
  Mn  Mn4  1  0.749550  0.250565  0.501015  1
  Mn  Mn5  1  0.748705  0.497410  0.248705  1
  Mn  Mn6  1  0.501015  0.250565  0.749550  1
  Mn  Mn7  1  0.248705  0.497410  0.748705  1
  Mn  Mn8  1  0.000186  0.000371  0.000186  1
  Re  Re9  1  0.249746  0.751228  0.501482  1
  Re  Re10  1  0.501482  0.751228  0.249746  1
  Ge  Ge11  1  0.688378  0.682418  0.994039  1
  Ge  Ge12  1  0.311825  0.010759  0.311825  1
  Ge  Ge13  1  0.994969  0.306909  0.311941  1
  Ge  Ge14  1  0.311941  0.306909  0.994969  1
  Ge  Ge15  1  0.698934  0.010759  0.698934  1
  Ge  Ge16  1  0.994039  0.682418  0.688378  1
