# generated using pymatgen
data_Er5InRu2
_symmetry_space_group_name_H-M   'P 1'
_cell_length_a   8.69483038
_cell_length_b   8.69483005
_cell_length_c   8.69482981
_cell_angle_alpha   127.82781878
_cell_angle_beta   127.82781912
_cell_angle_gamma   76.90412056
_symmetry_Int_Tables_number   1
_chemical_formula_structural   Er5InRu2
_chemical_formula_sum   'Er10 In2 Ru4'
_cell_volume   398.13573215
_cell_formula_units_Z   2
loop_
 _symmetry_equiv_pos_site_id
 _symmetry_equiv_pos_as_xyz
  1  'x, y, z'
loop_
 _atom_site_type_symbol
 _atom_site_label
 _atom_site_symmetry_multiplicity
 _atom_site_fract_x
 _atom_site_fract_y
 _atom_site_fract_z
 _atom_site_occupancy
  Er  Er0  1  0.000000  0.000000  0.000000  1
  Er  Er1  1  0.500000  0.500000  0.000000  1
  Er  Er2  1  0.793653  0.293653  0.823640  1
  Er  Er3  1  0.206347  0.706347  0.176360  1
  Er  Er4  1  0.470012  0.970012  0.176360  1
  Er  Er5  1  0.293653  0.470012  0.500000  1
  Er  Er6  1  0.029988  0.206347  0.500000  1
  Er  Er7  1  0.529988  0.029988  0.823640  1
  Er  Er8  1  0.706347  0.529988  0.500000  1
  Er  Er9  1  0.970012  0.793653  0.500000  1
  In  In10  1  0.250000  0.250000  0.000000  1
  In  In11  1  0.750000  0.750000  0.000000  1
  Ru  Ru12  1  0.139277  0.639277  0.778554  1
  Ru  Ru13  1  0.860723  0.360723  0.221446  1
  Ru  Ru14  1  0.639277  0.860723  0.500000  1
  Ru  Ru15  1  0.360723  0.139277  0.500000  1
