# generated using pymatgen
data_Ti3Ga(SiRh5)2
_symmetry_space_group_name_H-M   'P 1'
_cell_length_a   3.99475100
_cell_length_b   5.38601291
_cell_length_c   10.44261583
_cell_angle_alpha   88.73498880
_cell_angle_beta   90.00000000
_cell_angle_gamma   90.00000000
_symmetry_Int_Tables_number   1
_chemical_formula_structural   Ti3Ga(SiRh5)2
_chemical_formula_sum   'Ti3 Ga1 Si2 Rh10'
_cell_volume   224.62626952
_cell_formula_units_Z   1
loop_
 _symmetry_equiv_pos_site_id
 _symmetry_equiv_pos_as_xyz
  1  'x, y, z'
loop_
 _atom_site_type_symbol
 _atom_site_label
 _atom_site_symmetry_multiplicity
 _atom_site_fract_x
 _atom_site_fract_y
 _atom_site_fract_z
 _atom_site_occupancy
  Ti  Ti0  1  0.500000  0.338548  0.356731  1
  Ti  Ti1  1  0.500000  0.670228  0.640533  1
  Ti  Ti2  1  0.500000  0.160777  0.861126  1
  Ga  Ga3  1  0.500000  0.844908  0.146063  1
  Si  Si4  1  0.000000  0.000605  0.501939  1
  Si  Si5  1  0.000000  0.474927  0.994986  1
  Rh  Rh6  1  0.500000  0.317817  0.104067  1
  Rh  Rh7  1  0.500000  0.673740  0.893772  1
  Rh  Rh8  1  0.500000  0.824640  0.398611  1
  Rh  Rh9  1  0.500000  0.183365  0.606005  1
  Rh  Rh10  1  0.000000  0.920591  0.741628  1
  Rh  Rh11  1  0.000000  0.097207  0.267994  1
  Rh  Rh12  1  0.000000  0.419308  0.758220  1
  Rh  Rh13  1  0.000000  0.592381  0.228341  1
  Rh  Rh14  1  0.000000  0.500374  0.496422  1
  Rh  Rh15  1  0.000000  0.980583  0.003560  1
