# generated using pymatgen
data_Er2Tm6Sc11Si16Tc
_symmetry_space_group_name_H-M   'P 1'
_cell_length_a   6.97358735
_cell_length_b   7.30980777
_cell_length_c   13.81216516
_cell_angle_alpha   90.01677026
_cell_angle_beta   90.00546813
_cell_angle_gamma   90.15848937
_symmetry_Int_Tables_number   1
_chemical_formula_structural   Er2Tm6Sc11Si16Tc
_chemical_formula_sum   'Er2 Tm6 Sc11 Si16 Tc1'
_cell_volume   704.08044533
_cell_formula_units_Z   1
loop_
 _symmetry_equiv_pos_site_id
 _symmetry_equiv_pos_as_xyz
  1  'x, y, z'
loop_
 _atom_site_type_symbol
 _atom_site_label
 _atom_site_symmetry_multiplicity
 _atom_site_fract_x
 _atom_site_fract_y
 _atom_site_fract_z
 _atom_site_occupancy
  Er  Er0  1  0.011943  0.178561  0.093126  1
  Er  Er1  1  0.992877  0.817543  0.900928  1
  Tm  Tm2  1  0.487864  0.673242  0.902706  1
  Tm  Tm3  1  0.992921  0.817352  0.599120  1
  Tm  Tm4  1  0.511245  0.322591  0.095018  1
  Tm  Tm5  1  0.011896  0.178645  0.406829  1
  Tm  Tm6  1  0.511286  0.322543  0.405004  1
  Tm  Tm7  1  0.487851  0.673253  0.597276  1
  Sc  Sc8  1  0.841322  0.495979  0.250028  1
  Sc  Sc9  1  0.341990  0.004306  0.250025  1
  Sc  Sc10  1  0.656917  0.994254  0.749976  1
  Sc  Sc11  1  0.326235  0.178439  0.627620  1
  Sc  Sc12  1  0.672006  0.824264  0.374467  1
  Sc  Sc13  1  0.172193  0.674291  0.376669  1
  Sc  Sc14  1  0.671980  0.824223  0.125566  1
  Sc  Sc15  1  0.827621  0.330884  0.628661  1
  Sc  Sc16  1  0.326263  0.178458  0.872341  1
  Sc  Sc17  1  0.827578  0.330942  0.871323  1
  Sc  Sc18  1  0.172239  0.674211  0.123367  1
  Si  Si19  1  0.028685  0.115986  0.749955  1
  Si  Si20  1  0.973022  0.887937  0.250041  1
  Si  Si21  1  0.469267  0.613669  0.250004  1
  Si  Si22  1  0.518289  0.397375  0.749984  1
  Si  Si23  1  0.284735  0.858937  0.749929  1
  Si  Si24  1  0.717203  0.131813  0.250070  1
  Si  Si25  1  0.214863  0.368943  0.250070  1
  Si  Si26  1  0.794105  0.631171  0.749922  1
  Si  Si27  1  0.157086  0.466749  0.547467  1
  Si  Si28  1  0.841380  0.535286  0.463392  1
  Si  Si29  1  0.344298  0.965362  0.463186  1
  Si  Si30  1  0.841296  0.535276  0.036620  1
  Si  Si31  1  0.659317  0.034216  0.539786  1
  Si  Si32  1  0.157179  0.466681  0.952527  1
  Si  Si33  1  0.659077  0.034280  0.960228  1
  Si  Si34  1  0.344541  0.965294  0.036806  1
  Tc  Tc35  1  0.151424  0.497037  0.749963  1
