# generated using pymatgen
data_Y7HoSc12(SiGe)8
_symmetry_space_group_name_H-M   'P 1'
_cell_length_a   7.16900114
_cell_length_b   7.42329964
_cell_length_c   14.09021099
_cell_angle_alpha   89.99750162
_cell_angle_beta   90.07471302
_cell_angle_gamma   90.04748667
_symmetry_Int_Tables_number   1
_chemical_formula_structural   Y7HoSc12(SiGe)8
_chemical_formula_sum   'Y7 Ho1 Sc12 Si8 Ge8'
_cell_volume   749.84693099
_cell_formula_units_Z   1
loop_
 _symmetry_equiv_pos_site_id
 _symmetry_equiv_pos_as_xyz
  1  'x, y, z'
loop_
 _atom_site_type_symbol
 _atom_site_label
 _atom_site_symmetry_multiplicity
 _atom_site_fract_x
 _atom_site_fract_y
 _atom_site_fract_z
 _atom_site_occupancy
  Y  Y0  1  0.006172  0.176650  0.098755  1
  Y  Y1  1  0.993872  0.823329  0.901083  1
  Y  Y2  1  0.493859  0.676578  0.901246  1
  Y  Y3  1  0.993777  0.823215  0.598638  1
  Y  Y4  1  0.506177  0.323353  0.098730  1
  Y  Y5  1  0.006459  0.176738  0.401410  1
  Y  Y6  1  0.506104  0.323568  0.401514  1
  Ho  Ho7  1  0.493504  0.676883  0.599136  1
  Sc  Sc8  1  0.166915  0.500551  0.749815  1
  Sc  Sc9  1  0.833343  0.499684  0.250060  1
  Sc  Sc10  1  0.333425  0.000240  0.250035  1
  Sc  Sc11  1  0.666763  0.999362  0.749856  1
  Sc  Sc12  1  0.337307  0.172948  0.626581  1
  Sc  Sc13  1  0.662584  0.826964  0.373548  1
  Sc  Sc14  1  0.162627  0.672640  0.373500  1
  Sc  Sc15  1  0.662561  0.827203  0.126618  1
  Sc  Sc16  1  0.837100  0.327385  0.626278  1
  Sc  Sc17  1  0.337421  0.172781  0.873300  1
  Sc  Sc18  1  0.837203  0.327298  0.873370  1
  Sc  Sc19  1  0.162527  0.672778  0.126555  1
  Si  Si20  1  0.038737  0.118230  0.749838  1
  Si  Si21  1  0.961226  0.881731  0.250083  1
  Si  Si22  1  0.461064  0.618275  0.250019  1
  Si  Si23  1  0.538818  0.382336  0.749790  1
  Si  Si24  1  0.291621  0.872121  0.749667  1
  Si  Si25  1  0.708786  0.127477  0.250118  1
  Si  Si26  1  0.208775  0.372546  0.250043  1
  Si  Si27  1  0.790750  0.627588  0.749680  1
  Ge  Ge28  1  0.172680  0.460996  0.541038  1
  Ge  Ge29  1  0.828266  0.539877  0.459301  1
  Ge  Ge30  1  0.329073  0.959771  0.459591  1
  Ge  Ge31  1  0.828633  0.539710  0.040763  1
  Ge  Ge32  1  0.670636  0.038898  0.540959  1
  Ge  Ge33  1  0.171243  0.460211  0.959128  1
  Ge  Ge34  1  0.671325  0.039696  0.959195  1
  Ge  Ge35  1  0.328666  0.960388  0.040761  1
