# generated using pymatgen
data_RbZr2CrSe6
_symmetry_space_group_name_H-M   'P 1'
_cell_length_a   9.53963080
_cell_length_b   9.53962919
_cell_length_c   9.53963083
_cell_angle_alpha   39.94380305
_cell_angle_beta   39.94381415
_cell_angle_gamma   39.94381145
_symmetry_Int_Tables_number   1
_chemical_formula_structural   RbZr2CrSe6
_chemical_formula_sum   'Rb1 Zr2 Cr1 Se6'
_cell_volume   322.40696155
_cell_formula_units_Z   1
loop_
 _symmetry_equiv_pos_site_id
 _symmetry_equiv_pos_as_xyz
  1  'x, y, z'
loop_
 _atom_site_type_symbol
 _atom_site_label
 _atom_site_symmetry_multiplicity
 _atom_site_fract_x
 _atom_site_fract_y
 _atom_site_fract_z
 _atom_site_occupancy
  Rb  Rb0  1  0.999302  0.999302  0.999302  1
  Zr  Zr1  1  0.501023  0.501023  0.501023  1
  Zr  Zr2  1  0.832612  0.832612  0.832612  1
  Cr  Cr3  1  0.166555  0.166555  0.166555  1
  Se  Se4  1  0.544007  0.224812  0.907528  1
  Se  Se5  1  0.907528  0.544007  0.224812  1
  Se  Se6  1  0.224812  0.907528  0.544007  1
  Se  Se7  1  0.787466  0.109783  0.426913  1
  Se  Se8  1  0.109783  0.426913  0.787466  1
  Se  Se9  1  0.426913  0.787466  0.109783  1
