# generated using pymatgen
data_Nd2ThGa3NiRh2
_symmetry_space_group_name_H-M   'P 1'
_cell_length_a   7.34736300
_cell_length_b   7.28278160
_cell_length_c   3.94280400
_cell_angle_alpha   90.00000000
_cell_angle_beta   90.00000000
_cell_angle_gamma   120.29378126
_symmetry_Int_Tables_number   1
_chemical_formula_structural   Nd2ThGa3NiRh2
_chemical_formula_sum   'Nd2 Th1 Ga3 Ni1 Rh2'
_cell_volume   182.16767662
_cell_formula_units_Z   1
loop_
 _symmetry_equiv_pos_site_id
 _symmetry_equiv_pos_as_xyz
  1  'x, y, z'
loop_
 _atom_site_type_symbol
 _atom_site_label
 _atom_site_symmetry_multiplicity
 _atom_site_fract_x
 _atom_site_fract_y
 _atom_site_fract_z
 _atom_site_occupancy
  Nd  Nd0  1  0.999053  0.410028  0.500000  1
  Nd  Nd1  1  0.589026  0.589972  0.500000  1
  Th  Th2  1  0.413905  0.000000  0.500000  1
  Ga  Ga3  1  0.994225  0.759528  0.000000  1
  Ga  Ga4  1  0.234697  0.240472  0.000000  1
  Ga  Ga5  1  0.774126  0.000000  0.000000  1
  Ni  Ni6  1  0.010192  0.000000  0.500000  1
  Rh  Rh7  1  0.336958  0.689140  0.000000  1
  Rh  Rh8  1  0.647819  0.310860  0.000000  1
