# generated using pymatgen
data_Er20TcBi8Pt3
_symmetry_space_group_name_H-M   'P 1'
_cell_length_a   7.97601435
_cell_length_b   9.02417800
_cell_length_c   12.33168544
_cell_angle_alpha   90.00000000
_cell_angle_beta   90.34238823
_cell_angle_gamma   90.00000000
_symmetry_Int_Tables_number   1
_chemical_formula_structural   Er20TcBi8Pt3
_chemical_formula_sum   'Er20 Tc1 Bi8 Pt3'
_cell_volume   887.58154454
_cell_formula_units_Z   1
loop_
 _symmetry_equiv_pos_site_id
 _symmetry_equiv_pos_as_xyz
  1  'x, y, z'
loop_
 _atom_site_type_symbol
 _atom_site_label
 _atom_site_symmetry_multiplicity
 _atom_site_fract_x
 _atom_site_fract_y
 _atom_site_fract_z
 _atom_site_occupancy
  Er  Er0  1  0.672063  0.750000  0.718237  1
  Er  Er1  1  0.333948  0.250000  0.287746  1
  Er  Er2  1  0.161168  0.250000  0.791506  1
  Er  Er3  1  0.841894  0.750000  0.204558  1
  Er  Er4  1  0.122643  0.750000  0.802991  1
  Er  Er5  1  0.874624  0.250000  0.197884  1
  Er  Er6  1  0.625721  0.250000  0.695534  1
  Er  Er7  1  0.374669  0.750000  0.305620  1
  Er  Er8  1  0.551161  0.750000  0.998678  1
  Er  Er9  1  0.447898  0.250000  0.001646  1
  Er  Er10  1  0.051021  0.250000  0.497873  1
  Er  Er11  1  0.948219  0.750000  0.500001  1
  Er  Er12  1  0.823614  0.459843  0.935880  1
  Er  Er13  1  0.175570  0.550100  0.063574  1
  Er  Er14  1  0.323189  0.545306  0.568671  1
  Er  Er15  1  0.175570  0.949900  0.063574  1
  Er  Er16  1  0.676855  0.453735  0.433312  1
  Er  Er17  1  0.823614  0.040157  0.935880  1
  Er  Er18  1  0.676855  0.046265  0.433312  1
  Er  Er19  1  0.323189  0.954694  0.568671  1
  Tc  Tc20  1  0.918954  0.750000  0.982947  1
  Bi  Bi21  1  0.931225  0.012545  0.670418  1
  Bi  Bi22  1  0.068729  0.988865  0.327481  1
  Bi  Bi23  1  0.432041  0.991473  0.826676  1
  Bi  Bi24  1  0.068729  0.511135  0.327481  1
  Bi  Bi25  1  0.566808  0.009001  0.173378  1
  Bi  Bi26  1  0.931225  0.487455  0.670418  1
  Bi  Bi27  1  0.566808  0.490999  0.173378  1
  Bi  Bi28  1  0.432041  0.508527  0.826676  1
  Pt  Pt29  1  0.080302  0.250000  0.013561  1
  Pt  Pt30  1  0.424142  0.250000  0.509482  1
  Pt  Pt31  1  0.575513  0.750000  0.492959  1
