# generated using pymatgen
data_U3CoP2
_symmetry_space_group_name_H-M   'P 1'
_cell_length_a   3.70323400
_cell_length_b   9.31525300
_cell_length_c   11.29070000
_cell_angle_alpha   90.00000000
_cell_angle_beta   90.00000000
_cell_angle_gamma   90.00000000
_symmetry_Int_Tables_number   1
_chemical_formula_structural   U3CoP2
_chemical_formula_sum   'U12 Co4 P8'
_cell_volume   389.49032838
_cell_formula_units_Z   4
loop_
 _symmetry_equiv_pos_site_id
 _symmetry_equiv_pos_as_xyz
  1  'x, y, z'
loop_
 _atom_site_type_symbol
 _atom_site_label
 _atom_site_symmetry_multiplicity
 _atom_site_fract_x
 _atom_site_fract_y
 _atom_site_fract_z
 _atom_site_occupancy
  U  U0  1  0.250000  0.087780  0.867397  1
  U  U1  1  0.250000  0.412220  0.367397  1
  U  U2  1  0.750000  0.912220  0.132603  1
  U  U3  1  0.750000  0.587780  0.632603  1
  U  U4  1  0.250000  0.086293  0.534709  1
  U  U5  1  0.250000  0.413707  0.034709  1
  U  U6  1  0.750000  0.913707  0.465291  1
  U  U7  1  0.750000  0.586293  0.965291  1
  U  U8  1  0.250000  0.765247  0.699334  1
  U  U9  1  0.250000  0.734753  0.199334  1
  U  U10  1  0.750000  0.234753  0.300666  1
  U  U11  1  0.750000  0.265247  0.800666  1
  Co  Co12  1  0.250000  0.347027  0.639021  1
  Co  Co13  1  0.250000  0.152973  0.139021  1
  Co  Co14  1  0.750000  0.652973  0.360979  1
  Co  Co15  1  0.750000  0.847027  0.860979  1
  P  P16  1  0.250000  0.811557  0.964252  1
  P  P17  1  0.250000  0.688443  0.464252  1
  P  P18  1  0.750000  0.188443  0.035748  1
  P  P19  1  0.750000  0.311557  0.535748  1
  P  P20  1  0.250000  0.490767  0.798880  1
  P  P21  1  0.250000  0.009233  0.298880  1
  P  P22  1  0.750000  0.509233  0.201120  1
  P  P23  1  0.750000  0.990767  0.701120  1
