# generated using pymatgen
data_Sc2U3NbCo16Si7
_symmetry_space_group_name_H-M   'P 1'
_cell_length_a   8.06707558
_cell_length_b   8.06707448
_cell_length_c   8.06612161
_cell_angle_alpha   60.19943467
_cell_angle_beta   60.19944388
_cell_angle_gamma   59.87768297
_symmetry_Int_Tables_number   1
_chemical_formula_structural   Sc2U3NbCo16Si7
_chemical_formula_sum   'Sc2 U3 Nb1 Co16 Si7'
_cell_volume   371.94534183
_cell_formula_units_Z   1
loop_
 _symmetry_equiv_pos_site_id
 _symmetry_equiv_pos_as_xyz
  1  'x, y, z'
loop_
 _atom_site_type_symbol
 _atom_site_label
 _atom_site_symmetry_multiplicity
 _atom_site_fract_x
 _atom_site_fract_y
 _atom_site_fract_z
 _atom_site_occupancy
  Sc  Sc0  1  0.699957  0.292759  0.713330  1
  Sc  Sc1  1  0.292759  0.699957  0.713330  1
  U  U2  1  0.715042  0.715042  0.291312  1
  U  U3  1  0.281258  0.711454  0.294597  1
  U  U4  1  0.711454  0.281258  0.294597  1
  Nb  Nb5  1  0.290926  0.290926  0.716566  1
  Co  Co6  1  0.882660  0.882660  0.356618  1
  Co  Co7  1  0.881427  0.358776  0.882466  1
  Co  Co8  1  0.358776  0.881427  0.882466  1
  Co  Co9  1  0.877313  0.877313  0.881909  1
  Co  Co10  1  0.120463  0.120463  0.640677  1
  Co  Co11  1  0.119952  0.638417  0.123548  1
  Co  Co12  1  0.638417  0.119952  0.123548  1
  Co  Co13  1  0.119567  0.119567  0.118199  1
  Co  Co14  1  0.661596  0.661596  0.015068  1
  Co  Co15  1  0.671509  0.001429  0.653700  1
  Co  Co16  1  0.001429  0.671509  0.653700  1
  Co  Co17  1  0.675441  0.675441  0.652195  1
  Co  Co18  1  0.327066  0.327066  0.018111  1
  Co  Co19  1  0.340511  0.991649  0.327237  1
  Co  Co20  1  0.991649  0.340511  0.327237  1
  Co  Co21  1  0.340473  0.340473  0.328856  1
  Si  Si22  1  0.000190  0.000190  0.994244  1
  Si  Si23  1  0.003381  0.003381  0.516947  1
  Si  Si24  1  0.474260  0.004301  0.518252  1
  Si  Si25  1  0.004301  0.474260  0.518252  1
  Si  Si26  1  0.504630  0.504630  0.980762  1
  Si  Si27  1  0.010241  0.503351  0.981141  1
  Si  Si28  1  0.503351  0.010241  0.981141  1
