# generated using pymatgen
data_Ho6Co14P12Ru3W
_symmetry_space_group_name_H-M   'P 1'
_cell_length_a   3.73888700
_cell_length_b   10.53865600
_cell_length_c   12.29322200
_cell_angle_alpha   90.00000000
_cell_angle_beta   90.00000000
_cell_angle_gamma   90.00000000
_symmetry_Int_Tables_number   1
_chemical_formula_structural   Ho6Co14P12Ru3W
_chemical_formula_sum   'Ho6 Co14 P12 Ru3 W1'
_cell_volume   484.38790769
_cell_formula_units_Z   1
loop_
 _symmetry_equiv_pos_site_id
 _symmetry_equiv_pos_as_xyz
  1  'x, y, z'
loop_
 _atom_site_type_symbol
 _atom_site_label
 _atom_site_symmetry_multiplicity
 _atom_site_fract_x
 _atom_site_fract_y
 _atom_site_fract_z
 _atom_site_occupancy
  Ho  Ho0  1  0.000000  0.500000  0.527877  1
  Ho  Ho1  1  0.500000  0.000000  0.477842  1
  Ho  Ho2  1  0.500000  0.818413  0.201174  1
  Ho  Ho3  1  0.500000  0.181587  0.201174  1
  Ho  Ho4  1  0.000000  0.681152  0.795846  1
  Ho  Ho5  1  0.000000  0.318848  0.795846  1
  Co  Co6  1  0.000000  0.500000  0.984766  1
  Co  Co7  1  0.500000  0.000000  0.013271  1
  Co  Co8  1  0.000000  0.201657  0.572399  1
  Co  Co9  1  0.000000  0.798343  0.572399  1
  Co  Co10  1  0.500000  0.878457  0.710865  1
  Co  Co11  1  0.500000  0.121543  0.710865  1
  Co  Co12  1  0.000000  0.620505  0.287138  1
  Co  Co13  1  0.000000  0.379495  0.287138  1
  Co  Co14  1  0.500000  0.333105  0.989291  1
  Co  Co15  1  0.500000  0.666895  0.989291  1
  Co  Co16  1  0.000000  0.167781  0.009827  1
  Co  Co17  1  0.000000  0.832219  0.009827  1
  Co  Co18  1  0.500000  0.500000  0.703520  1
  Co  Co19  1  0.000000  0.000000  0.297280  1
  P  P20  1  0.500000  0.309418  0.620821  1
  P  P21  1  0.500000  0.690582  0.620821  1
  P  P22  1  0.000000  0.184060  0.381722  1
  P  P23  1  0.000000  0.815940  0.381722  1
  P  P24  1  0.500000  0.500000  0.881064  1
  P  P25  1  0.000000  0.000000  0.118809  1
  P  P26  1  0.500000  0.843967  0.893939  1
  P  P27  1  0.500000  0.156033  0.893939  1
  P  P28  1  0.000000  0.652702  0.105568  1
  P  P29  1  0.000000  0.347298  0.105568  1
  P  P30  1  0.500000  0.500000  0.344827  1
  P  P31  1  0.000000  0.000000  0.651557  1
  Ru  Ru32  1  0.500000  0.296229  0.429863  1
  Ru  Ru33  1  0.500000  0.703771  0.429863  1
  Ru  Ru34  1  0.500000  0.500000  0.157022  1
  W  W35  1  0.000000  0.000000  0.845266  1
