# generated using pymatgen
data_Tb3Tm9ZnCo4Bi
_symmetry_space_group_name_H-M   'P 1'
_cell_length_a   8.32156486
_cell_length_b   8.32156508
_cell_length_c   8.31804069
_cell_angle_alpha   109.84764940
_cell_angle_beta   111.22002097
_cell_angle_gamma   107.38712774
_symmetry_Int_Tables_number   1
_chemical_formula_structural   Tb3Tm9ZnCo4Bi
_chemical_formula_sum   'Tb3 Tm9 Zn1 Co4 Bi1'
_cell_volume   442.80833658
_cell_formula_units_Z   1
loop_
 _symmetry_equiv_pos_site_id
 _symmetry_equiv_pos_as_xyz
  1  'x, y, z'
loop_
 _atom_site_type_symbol
 _atom_site_label
 _atom_site_symmetry_multiplicity
 _atom_site_fract_x
 _atom_site_fract_y
 _atom_site_fract_z
 _atom_site_occupancy
  Tb  Tb0  1  0.285099  0.184305  0.469404  1
  Tb  Tb1  1  0.715480  0.816631  0.532111  1
  Tb  Tb2  1  0.284787  0.816032  0.100820  1
  Tm  Tm3  1  0.714898  0.183049  0.897947  1
  Tm  Tm4  1  0.623120  0.313746  0.308203  1
  Tm  Tm5  1  0.377827  0.687023  0.691354  1
  Tm  Tm6  1  0.004331  0.313527  0.691354  1
  Tm  Tm7  1  0.994457  0.685083  0.308203  1
  Tm  Tm8  1  0.217687  0.424962  0.205976  1
  Tm  Tm9  1  0.781095  0.573417  0.793320  1
  Tm  Tm10  1  0.219903  0.012226  0.793320  1
  Tm  Tm11  1  0.781014  0.988289  0.205976  1
  Zn  Zn12  1  0.999003  0.000221  0.999224  1
  Co  Co13  1  0.998933  0.376806  0.375739  1
  Co  Co14  1  0.000394  0.622915  0.623308  1
  Co  Co15  1  0.387885  0.887765  0.501826  1
  Co  Co16  1  0.614061  0.113940  0.501826  1
  Bi  Bi17  1  0.500027  0.500064  0.000091  1
