# generated using pymatgen
data_Mg2TcSn8Ir
_symmetry_space_group_name_H-M   'P 1'
_cell_length_a   7.47871826
_cell_length_b   7.47871900
_cell_length_c   7.47871837
_cell_angle_alpha   125.18715482
_cell_angle_beta   125.18716298
_cell_angle_gamma   81.22826887
_symmetry_Int_Tables_number   1
_chemical_formula_structural   Mg2TcSn8Ir
_chemical_formula_sum   'Mg2 Tc1 Sn8 Ir1'
_cell_volume   269.10840950
_cell_formula_units_Z   1
loop_
 _symmetry_equiv_pos_site_id
 _symmetry_equiv_pos_as_xyz
  1  'x, y, z'
loop_
 _atom_site_type_symbol
 _atom_site_label
 _atom_site_symmetry_multiplicity
 _atom_site_fract_x
 _atom_site_fract_y
 _atom_site_fract_z
 _atom_site_occupancy
  Mg  Mg0  1  0.496916  0.496916  0.000000  1
  Mg  Mg1  1  0.003084  0.003084  0.000000  1
  Tc  Tc2  1  0.750000  0.750000  0.000000  1
  Sn  Sn3  1  0.709491  0.518243  0.506262  1
  Sn  Sn4  1  0.518243  0.011981  0.808751  1
  Sn  Sn5  1  0.203230  0.709491  0.191249  1
  Sn  Sn6  1  0.790509  0.296770  0.808751  1
  Sn  Sn7  1  0.488019  0.981757  0.191249  1
  Sn  Sn8  1  0.296770  0.488019  0.506262  1
  Sn  Sn9  1  0.981757  0.790509  0.493738  1
  Sn  Sn10  1  0.011981  0.203230  0.493738  1
  Ir  Ir11  1  0.250000  0.250000  0.000000  1
