# generated using pymatgen
data_Rb3In(AsS2)6
_symmetry_space_group_name_H-M   'P 1'
_cell_length_a   9.53052300
_cell_length_b   9.53052322
_cell_length_c   8.12702100
_cell_angle_alpha   90.00000000
_cell_angle_beta   90.00000000
_cell_angle_gamma   120.00000269
_symmetry_Int_Tables_number   1
_chemical_formula_structural   Rb3In(AsS2)6
_chemical_formula_sum   'Rb3 In1 As6 S12'
_cell_volume   639.28642088
_cell_formula_units_Z   1
loop_
 _symmetry_equiv_pos_site_id
 _symmetry_equiv_pos_as_xyz
  1  'x, y, z'
loop_
 _atom_site_type_symbol
 _atom_site_label
 _atom_site_symmetry_multiplicity
 _atom_site_fract_x
 _atom_site_fract_y
 _atom_site_fract_z
 _atom_site_occupancy
  Rb  Rb0  1  0.333333  0.666667  0.851420  1
  Rb  Rb1  1  0.000000  0.000000  0.999405  1
  Rb  Rb2  1  0.666667  0.333333  0.142024  1
  In  In3  1  0.000000  0.000000  0.497752  1
  As  As4  1  0.282410  0.832520  0.389532  1
  As  As5  1  0.167480  0.449892  0.389532  1
  As  As6  1  0.550108  0.717590  0.389532  1
  As  As7  1  0.718197  0.168187  0.612331  1
  As  As8  1  0.831813  0.550009  0.612331  1
  As  As9  1  0.449991  0.281803  0.612331  1
  S  S10  1  0.244002  0.032544  0.304746  1
  S  S11  1  0.967456  0.211459  0.304746  1
  S  S12  1  0.788541  0.755998  0.304746  1
  S  S13  1  0.757408  0.967984  0.693980  1
  S  S14  1  0.032016  0.789422  0.693980  1
  S  S15  1  0.210578  0.242592  0.693980  1
  S  S16  1  0.515546  0.905048  0.235109  1
  S  S17  1  0.094952  0.610498  0.235109  1
  S  S18  1  0.389502  0.484454  0.235109  1
  S  S19  1  0.484980  0.094483  0.767436  1
  S  S20  1  0.905517  0.390496  0.767436  1
  S  S21  1  0.609504  0.515020  0.767436  1
