# generated using pymatgen
data_Dy8Ti11Si16Ag
_symmetry_space_group_name_H-M   'P 1'
_cell_length_a   7.07697011
_cell_length_b   7.07697011
_cell_length_c   12.92918273
_cell_angle_alpha   89.93875510
_cell_angle_beta   90.06124490
_cell_angle_gamma   89.62897194
_symmetry_Int_Tables_number   1
_chemical_formula_structural   Dy8Ti11Si16Ag
_chemical_formula_sum   'Dy8 Ti11 Si16 Ag1'
_cell_volume   647.52447773
_cell_formula_units_Z   1
loop_
 _symmetry_equiv_pos_site_id
 _symmetry_equiv_pos_as_xyz
  1  'x, y, z'
loop_
 _atom_site_type_symbol
 _atom_site_label
 _atom_site_symmetry_multiplicity
 _atom_site_fract_x
 _atom_site_fract_y
 _atom_site_fract_z
 _atom_site_occupancy
  Dy  Dy0  1  0.997576  0.659245  0.033416  1
  Dy  Dy1  1  0.999188  0.343637  0.531788  1
  Dy  Dy2  1  0.659245  0.997576  0.966584  1
  Dy  Dy3  1  0.159729  0.502400  0.783341  1
  Dy  Dy4  1  0.841700  0.499087  0.285477  1
  Dy  Dy5  1  0.502400  0.159729  0.216659  1
  Dy  Dy6  1  0.499087  0.841700  0.714523  1
  Dy  Dy7  1  0.343637  0.999188  0.468212  1
  Ti  Ti8  1  0.349088  0.505567  0.376097  1
  Ti  Ti9  1  0.851704  0.991903  0.377163  1
  Ti  Ti10  1  0.008169  0.150696  0.125269  1
  Ti  Ti11  1  0.991903  0.851704  0.622837  1
  Ti  Ti12  1  0.505567  0.349088  0.623903  1
  Ti  Ti13  1  0.150696  0.008169  0.874731  1
  Ti  Ti14  1  0.825824  0.173415  0.749927  1
  Ti  Ti15  1  0.173415  0.825824  0.250073  1
  Ti  Ti16  1  0.327345  0.327345  0.000000  1
  Ti  Ti17  1  0.491260  0.649968  0.125674  1
  Ti  Ti18  1  0.649968  0.491260  0.874326  1
  Si  Si19  1  0.062046  0.713941  0.433654  1
  Si  Si20  1  0.952202  0.291042  0.935564  1
  Si  Si21  1  0.713941  0.062046  0.566346  1
  Si  Si22  1  0.208869  0.453678  0.185551  1
  Si  Si23  1  0.792075  0.544374  0.691237  1
  Si  Si24  1  0.453678  0.208869  0.814449  1
  Si  Si25  1  0.544374  0.792075  0.308763  1
  Si  Si26  1  0.291042  0.952202  0.064436  1
  Si  Si27  1  0.798024  0.868043  0.184731  1
  Si  Si28  1  0.281475  0.626061  0.570449  1
  Si  Si29  1  0.705033  0.369587  0.066859  1
  Si  Si30  1  0.626061  0.281475  0.429551  1
  Si  Si31  1  0.369587  0.705033  0.933141  1
  Si  Si32  1  0.132075  0.202126  0.317195  1
  Si  Si33  1  0.202126  0.132075  0.682805  1
  Si  Si34  1  0.868043  0.798024  0.815269  1
  Ag  Ag35  1  0.671846  0.671846  0.500000  1
