# generated using pymatgen
data_YSc2UAs6Ru7
_symmetry_space_group_name_H-M   'P 1'
_cell_length_a   7.14471031
_cell_length_b   7.14470978
_cell_length_c   7.18384036
_cell_angle_alpha   109.66413642
_cell_angle_beta   109.66413818
_cell_angle_gamma   109.52278065
_symmetry_Int_Tables_number   1
_chemical_formula_structural   YSc2UAs6Ru7
_chemical_formula_sum   'Y1 Sc2 U1 As6 Ru7'
_cell_volume   280.76092830
_cell_formula_units_Z   1
loop_
 _symmetry_equiv_pos_site_id
 _symmetry_equiv_pos_as_xyz
  1  'x, y, z'
loop_
 _atom_site_type_symbol
 _atom_site_label
 _atom_site_symmetry_multiplicity
 _atom_site_fract_x
 _atom_site_fract_y
 _atom_site_fract_z
 _atom_site_occupancy
  Y  Y0  1  0.500000  0.500000  0.500000  1
  Sc  Sc1  1  0.500000  0.000000  0.000000  1
  Sc  Sc2  1  0.000000  0.500000  0.000000  1
  U  U3  1  0.000000  0.000000  0.500000  1
  As  As4  1  0.314195  0.994965  0.307172  1
  As  As5  1  0.994965  0.314195  0.307172  1
  As  As6  1  0.005035  0.685805  0.692828  1
  As  As7  1  0.314047  0.314047  0.001872  1
  As  As8  1  0.685953  0.685953  0.998128  1
  As  As9  1  0.685805  0.005035  0.692828  1
  Ru  Ru10  1  0.753615  0.501817  0.246716  1
  Ru  Ru11  1  0.501817  0.753615  0.246716  1
  Ru  Ru12  1  0.498183  0.246385  0.753284  1
  Ru  Ru13  1  0.754245  0.245755  0.500000  1
  Ru  Ru14  1  0.245755  0.754245  0.500000  1
  Ru  Ru15  1  0.246385  0.498183  0.753284  1
  Ru  Ru16  1  0.000000  0.000000  0.000000  1
