# generated using pymatgen
data_MgV(GaCl4)4
_symmetry_space_group_name_H-M   'P 1'
_cell_length_a   9.82554830
_cell_length_b   9.82554873
_cell_length_c   11.91277142
_cell_angle_alpha   54.69632057
_cell_angle_beta   54.69631905
_cell_angle_gamma   49.41648207
_symmetry_Int_Tables_number   1
_chemical_formula_structural   MgV(GaCl4)4
_chemical_formula_sum   'Mg1 V1 Ga4 Cl16'
_cell_volume   673.91137895
_cell_formula_units_Z   1
loop_
 _symmetry_equiv_pos_site_id
 _symmetry_equiv_pos_as_xyz
  1  'x, y, z'
loop_
 _atom_site_type_symbol
 _atom_site_label
 _atom_site_symmetry_multiplicity
 _atom_site_fract_x
 _atom_site_fract_y
 _atom_site_fract_z
 _atom_site_occupancy
  Mg  Mg0  1  0.000061  0.999939  0.750000  1
  V  V1  1  0.000588  0.999412  0.250000  1
  Ga  Ga2  1  0.672846  0.159510  0.032400  1
  Ga  Ga3  1  0.328152  0.840414  0.967491  1
  Ga  Ga4  1  0.840490  0.327154  0.467600  1
  Ga  Ga5  1  0.159586  0.671848  0.532509  1
  Cl  Cl6  1  0.872397  0.834143  0.511417  1
  Cl  Cl7  1  0.128848  0.168661  0.485249  1
  Cl  Cl8  1  0.691054  0.621264  0.443238  1
  Cl  Cl9  1  0.621824  0.690694  0.943684  1
  Cl  Cl10  1  0.831339  0.871152  0.014751  1
  Cl  Cl11  1  0.856983  0.304917  0.282525  1
  Cl  Cl12  1  0.150609  0.719796  0.183922  1
  Cl  Cl13  1  0.280204  0.849391  0.316078  1
  Cl  Cl14  1  0.145097  0.690478  0.718095  1
  Cl  Cl15  1  0.309306  0.378176  0.556316  1
  Cl  Cl16  1  0.695083  0.143017  0.217475  1
  Cl  Cl17  1  0.165857  0.127603  0.988583  1
  Cl  Cl18  1  0.378736  0.308946  0.056762  1
  Cl  Cl19  1  0.309522  0.854903  0.781905  1
  Cl  Cl20  1  0.715004  0.153584  0.682346  1
  Cl  Cl21  1  0.846416  0.284996  0.817654  1
