# generated using pymatgen
data_Li8SiSb3Pt4
_symmetry_space_group_name_H-M   'P 1'
_cell_length_a   6.16618904
_cell_length_b   6.16610500
_cell_length_c   6.16630400
_cell_angle_alpha   89.99896858
_cell_angle_beta   89.99352353
_cell_angle_gamma   90.00201626
_symmetry_Int_Tables_number   1
_chemical_formula_structural   Li8SiSb3Pt4
_chemical_formula_sum   'Li8 Si1 Sb3 Pt4'
_cell_volume   234.45131866
_cell_formula_units_Z   1
loop_
 _symmetry_equiv_pos_site_id
 _symmetry_equiv_pos_as_xyz
  1  'x, y, z'
loop_
 _atom_site_type_symbol
 _atom_site_label
 _atom_site_symmetry_multiplicity
 _atom_site_fract_x
 _atom_site_fract_y
 _atom_site_fract_z
 _atom_site_occupancy
  Li  Li0  1  0.265144  0.734905  0.265084  1
  Li  Li1  1  0.734905  0.265171  0.265093  1
  Li  Li2  1  0.265048  0.265067  0.734928  1
  Li  Li3  1  0.999973  0.000040  0.999962  1
  Li  Li4  1  0.999984  0.499975  0.500023  1
  Li  Li5  1  0.734896  0.734904  0.734834  1
  Li  Li6  1  0.500006  0.000025  0.500029  1
  Li  Li7  1  0.500008  0.499971  0.999992  1
  Si  Si8  1  0.499992  0.499850  0.500131  1
  Sb  Sb9  1  0.000093  0.000067  0.500236  1
  Sb  Sb10  1  0.000076  0.499773  0.999933  1
  Sb  Sb11  1  0.499785  0.000071  0.999923  1
  Pt  Pt12  1  0.270126  0.270138  0.270013  1
  Pt  Pt13  1  0.729967  0.270136  0.729861  1
  Pt  Pt14  1  0.729887  0.729907  0.270085  1
  Pt  Pt15  1  0.270111  0.730002  0.729869  1
