# generated using pymatgen
data_Tb2YHo3CoCl10
_symmetry_space_group_name_H-M   'P 1'
_cell_length_a   7.07615380
_cell_length_b   8.81071760
_cell_length_c   8.76648027
_cell_angle_alpha   108.99144674
_cell_angle_beta   96.35231760
_cell_angle_gamma   106.72867431
_symmetry_Int_Tables_number   1
_chemical_formula_structural   Tb2YHo3CoCl10
_chemical_formula_sum   'Tb2 Y1 Ho3 Co1 Cl10'
_cell_volume   482.17049799
_cell_formula_units_Z   1
loop_
 _symmetry_equiv_pos_site_id
 _symmetry_equiv_pos_as_xyz
  1  'x, y, z'
loop_
 _atom_site_type_symbol
 _atom_site_label
 _atom_site_symmetry_multiplicity
 _atom_site_fract_x
 _atom_site_fract_y
 _atom_site_fract_z
 _atom_site_occupancy
  Tb  Tb0  1  0.628918  0.049510  0.759778  1
  Tb  Tb1  1  0.370227  0.949900  0.239694  1
  Y  Y2  1  0.867311  0.143579  0.190017  1
  Ho  Ho3  1  0.134866  0.856596  0.810652  1
  Ho  Ho4  1  0.522812  0.693461  0.896681  1
  Ho  Ho5  1  0.477096  0.306631  0.103019  1
  Co  Co6  1  0.498935  0.999487  0.999485  1
  Cl  Cl7  1  0.744870  0.081377  0.455822  1
  Cl  Cl8  1  0.253954  0.918146  0.545633  1
  Cl  Cl9  1  0.950205  0.826426  0.076156  1
  Cl  Cl10  1  0.050285  0.172393  0.922149  1
  Cl  Cl11  1  0.292262  0.257164  0.348474  1
  Cl  Cl12  1  0.709002  0.743215  0.652124  1
  Cl  Cl13  1  0.589630  0.372176  0.837725  1
  Cl  Cl14  1  0.410484  0.627803  0.162291  1
  Cl  Cl15  1  0.856097  0.460092  0.278239  1
  Cl  Cl16  1  0.143047  0.542045  0.722060  1
