# generated using pymatgen
data_Lu4Re6TcW
_symmetry_space_group_name_H-M   'P 1'
_cell_length_a   5.39231039
_cell_length_b   5.39208112
_cell_length_c   8.79060504
_cell_angle_alpha   89.99697364
_cell_angle_beta   90.00386940
_cell_angle_gamma   120.00332193
_symmetry_Int_Tables_number   1
_chemical_formula_structural   Lu4Re6TcW
_chemical_formula_sum   'Lu4 Re6 Tc1 W1'
_cell_volume   221.34318763
_cell_formula_units_Z   1
loop_
 _symmetry_equiv_pos_site_id
 _symmetry_equiv_pos_as_xyz
  1  'x, y, z'
loop_
 _atom_site_type_symbol
 _atom_site_label
 _atom_site_symmetry_multiplicity
 _atom_site_fract_x
 _atom_site_fract_y
 _atom_site_fract_z
 _atom_site_occupancy
  Lu  Lu0  1  0.666674  0.333335  0.564399  1
  Lu  Lu1  1  0.333326  0.666665  0.435601  1
  Lu  Lu2  1  0.333323  0.666657  0.062114  1
  Lu  Lu3  1  0.666677  0.333343  0.937886  1
  Re  Re4  1  0.171954  0.343873  0.750018  1
  Re  Re5  1  0.171946  0.828062  0.749949  1
  Re  Re6  1  0.656137  0.828049  0.749989  1
  Re  Re7  1  0.828046  0.656127  0.249982  1
  Re  Re8  1  0.828054  0.171938  0.250051  1
  Re  Re9  1  0.343863  0.171951  0.250011  1
  Tc  Tc10  1  0.000000  0.000000  0.000000  1
  W  W11  1  0.000000  0.000000  0.500000  1
