# generated using pymatgen
data_DyY(ZrPt)2
_symmetry_space_group_name_H-M   'P 1'
_cell_length_a   4.68274500
_cell_length_b   7.16899900
_cell_length_c   8.26302000
_cell_angle_alpha   90.00000000
_cell_angle_beta   90.00000000
_cell_angle_gamma   90.00000000
_symmetry_Int_Tables_number   1
_chemical_formula_structural   DyY(ZrPt)2
_chemical_formula_sum   'Dy2 Y2 Zr4 Pt4'
_cell_volume   277.39449147
_cell_formula_units_Z   2
loop_
 _symmetry_equiv_pos_site_id
 _symmetry_equiv_pos_as_xyz
  1  'x, y, z'
loop_
 _atom_site_type_symbol
 _atom_site_label
 _atom_site_symmetry_multiplicity
 _atom_site_fract_x
 _atom_site_fract_y
 _atom_site_fract_z
 _atom_site_occupancy
  Dy  Dy0  1  0.250000  0.983857  0.322251  1
  Dy  Dy1  1  0.250000  0.483857  0.177749  1
  Y  Y2  1  0.750000  0.015803  0.678835  1
  Y  Y3  1  0.750000  0.515803  0.821165  1
  Zr  Zr4  1  0.250000  0.352242  0.579130  1
  Zr  Zr5  1  0.250000  0.852242  0.920870  1
  Zr  Zr6  1  0.750000  0.647916  0.420048  1
  Zr  Zr7  1  0.750000  0.147916  0.079952  1
  Pt  Pt8  1  0.250000  0.227543  0.906632  1
  Pt  Pt9  1  0.250000  0.727543  0.593368  1
  Pt  Pt10  1  0.750000  0.772637  0.094093  1
  Pt  Pt11  1  0.750000  0.272637  0.405907  1
