# generated using pymatgen
data_Er20IrPdRh10
_symmetry_space_group_name_H-M   'P 1'
_cell_length_a   10.84726469
_cell_length_b   10.84660983
_cell_length_c   6.29430933
_cell_angle_alpha   89.97771354
_cell_angle_beta   89.98213416
_cell_angle_gamma   90.39256328
_symmetry_Int_Tables_number   1
_chemical_formula_structural   Er20IrPdRh10
_chemical_formula_sum   'Er20 Ir1 Pd1 Rh10'
_cell_volume   740.54608440
_cell_formula_units_Z   1
loop_
 _symmetry_equiv_pos_site_id
 _symmetry_equiv_pos_as_xyz
  1  'x, y, z'
loop_
 _atom_site_type_symbol
 _atom_site_label
 _atom_site_symmetry_multiplicity
 _atom_site_fract_x
 _atom_site_fract_y
 _atom_site_fract_z
 _atom_site_occupancy
  Er  Er0  1  0.290362  0.084331  0.378444  1
  Er  Er1  1  0.291062  0.908961  0.878491  1
  Er  Er2  1  0.709167  0.088408  0.878211  1
  Er  Er3  1  0.708827  0.910894  0.377657  1
  Er  Er4  1  0.586950  0.790756  0.876898  1
  Er  Er5  1  0.592050  0.207930  0.379940  1
  Er  Er6  1  0.410296  0.789417  0.378762  1
  Er  Er7  1  0.412874  0.206438  0.872241  1
  Er  Er8  1  0.207399  0.415128  0.627663  1
  Er  Er9  1  0.208674  0.592466  0.119583  1
  Er  Er10  1  0.790095  0.410752  0.122022  1
  Er  Er11  1  0.791748  0.589266  0.623364  1
  Er  Er12  1  0.911321  0.709269  0.121878  1
  Er  Er13  1  0.911006  0.290966  0.622017  1
  Er  Er14  1  0.090547  0.709081  0.621441  1
  Er  Er15  1  0.084626  0.290836  0.121960  1
  Er  Er16  1  0.999393  0.999880  0.500470  1
  Er  Er17  1  0.000251  0.000090  0.999300  1
  Er  Er18  1  0.501577  0.501747  0.999464  1
  Er  Er19  1  0.502179  0.502159  0.500331  1
  Ir  Ir20  1  0.346202  0.653085  0.750464  1
  Pd  Pd21  1  0.344941  0.344201  0.249989  1
  Rh  Rh22  1  0.846004  0.154148  0.249746  1
  Rh  Rh23  1  0.845375  0.845963  0.750270  1
  Rh  Rh24  1  0.154785  0.155466  0.749631  1
  Rh  Rh25  1  0.153317  0.846851  0.250210  1
  Rh  Rh26  1  0.653915  0.345686  0.749714  1
  Rh  Rh27  1  0.655830  0.654991  0.250012  1
  Rh  Rh28  1  0.500192  0.000639  0.124743  1
  Rh  Rh29  1  0.499983  0.000824  0.623189  1
  Rh  Rh30  1  0.999404  0.499504  0.876754  1
  Rh  Rh31  1  0.999653  0.499868  0.375142  1
