# generated using pymatgen
data_Nd2ZrIr3
_symmetry_space_group_name_H-M   'P 1'
_cell_length_a   5.82602336
_cell_length_b   5.39309951
_cell_length_c   5.82602303
_cell_angle_alpha   57.29903153
_cell_angle_beta   60.00542426
_cell_angle_gamma   57.29902218
_symmetry_Int_Tables_number   1
_chemical_formula_structural   Nd2ZrIr3
_chemical_formula_sum   'Nd2 Zr1 Ir3'
_cell_volume   123.90561835
_cell_formula_units_Z   1
loop_
 _symmetry_equiv_pos_site_id
 _symmetry_equiv_pos_as_xyz
  1  'x, y, z'
loop_
 _atom_site_type_symbol
 _atom_site_label
 _atom_site_symmetry_multiplicity
 _atom_site_fract_x
 _atom_site_fract_y
 _atom_site_fract_z
 _atom_site_occupancy
  Nd  Nd0  1  0.750045  0.749959  0.750045  1
  Nd  Nd1  1  0.499955  0.500041  0.499955  1
  Zr  Zr2  1  0.125000  0.625000  0.125000  1
  Ir  Ir3  1  0.125000  0.125000  0.625000  1
  Ir  Ir4  1  0.625000  0.125000  0.125000  1
  Ir  Ir5  1  0.125000  0.125000  0.125000  1
