# generated using pymatgen
data_Ti6CdSn3Bi
_symmetry_space_group_name_H-M   'P 1'
_cell_length_a   9.33074497
_cell_length_b   9.32023278
_cell_length_c   5.74758900
_cell_angle_alpha   90.00000000
_cell_angle_beta   90.00000000
_cell_angle_gamma   119.96274357
_symmetry_Int_Tables_number   1
_chemical_formula_structural   Ti6CdSn3Bi
_chemical_formula_sum   'Ti12 Cd2 Sn6 Bi2'
_cell_volume   433.03433831
_cell_formula_units_Z   2
loop_
 _symmetry_equiv_pos_site_id
 _symmetry_equiv_pos_as_xyz
  1  'x, y, z'
loop_
 _atom_site_type_symbol
 _atom_site_label
 _atom_site_symmetry_multiplicity
 _atom_site_fract_x
 _atom_site_fract_y
 _atom_site_fract_z
 _atom_site_occupancy
  Ti  Ti0  1  0.841217  0.682646  0.750000  1
  Ti  Ti1  1  0.158783  0.841429  0.250000  1
  Ti  Ti2  1  0.682802  0.838812  0.250000  1
  Ti  Ti3  1  0.317198  0.156009  0.750000  1
  Ti  Ti4  1  0.840341  0.154733  0.750000  1
  Ti  Ti5  1  0.159659  0.314391  0.250000  1
  Ti  Ti6  1  0.497242  0.998649  0.501856  1
  Ti  Ti7  1  0.502758  0.501406  0.001856  1
  Ti  Ti8  1  0.000000  0.504100  0.000000  1
  Ti  Ti9  1  0.000000  0.504100  0.500000  1
  Ti  Ti10  1  0.497242  0.998649  0.998144  1
  Ti  Ti11  1  0.502758  0.501406  0.498144  1
  Cd  Cd12  1  0.000000  0.996074  0.500000  1
  Cd  Cd13  1  0.000000  0.996074  0.000000  1
  Sn  Sn14  1  0.392821  0.196742  0.250000  1
  Sn  Sn15  1  0.607179  0.803921  0.750000  1
  Sn  Sn16  1  0.196490  0.804199  0.750000  1
  Sn  Sn17  1  0.803510  0.607710  0.250000  1
  Sn  Sn18  1  0.665343  0.334091  0.750000  1
  Sn  Sn19  1  0.334657  0.668749  0.250000  1
  Bi  Bi20  1  0.198848  0.397478  0.750000  1
  Bi  Bi21  1  0.801152  0.198631  0.250000  1
