# generated using pymatgen
data_Tb5Er5In8IrPd3
_symmetry_space_group_name_H-M   'P 1'
_cell_length_a   3.63314700
_cell_length_b   8.14523136
_cell_length_c   18.23797310
_cell_angle_alpha   89.98897171
_cell_angle_beta   90.00000000
_cell_angle_gamma   90.00000000
_symmetry_Int_Tables_number   1
_chemical_formula_structural   Tb5Er5In8IrPd3
_chemical_formula_sum   'Tb5 Er5 In8 Ir1 Pd3'
_cell_volume   539.71309803
_cell_formula_units_Z   1
loop_
 _symmetry_equiv_pos_site_id
 _symmetry_equiv_pos_as_xyz
  1  'x, y, z'
loop_
 _atom_site_type_symbol
 _atom_site_label
 _atom_site_symmetry_multiplicity
 _atom_site_fract_x
 _atom_site_fract_y
 _atom_site_fract_z
 _atom_site_occupancy
  Tb  Tb0  1  0.000000  0.500466  0.499595  1
  Tb  Tb1  1  0.000000  0.000378  0.000912  1
  Tb  Tb2  1  0.000000  0.729793  0.278016  1
  Tb  Tb3  1  0.000000  0.259957  0.718646  1
  Tb  Tb4  1  0.000000  0.759468  0.780505  1
  Er  Er5  1  0.000000  0.255176  0.219956  1
  Er  Er6  1  0.000000  0.614805  0.087612  1
  Er  Er7  1  0.000000  0.382566  0.916428  1
  Er  Er8  1  0.000000  0.882226  0.583219  1
  Er  Er9  1  0.000000  0.117398  0.414798  1
  In  In10  1  0.500000  0.706185  0.933349  1
  In  In11  1  0.500000  0.294024  0.068264  1
  In  In12  1  0.500000  0.794532  0.432341  1
  In  In13  1  0.500000  0.204752  0.566154  1
  In  In14  1  0.500000  0.580105  0.649421  1
  In  In15  1  0.500000  0.420913  0.351223  1
  In  In16  1  0.500000  0.924477  0.150387  1
  In  In17  1  0.500000  0.079440  0.850326  1
  Ir  Ir18  1  0.500000  0.518624  0.195407  1
  Pd  Pd19  1  0.500000  0.475251  0.804854  1
  Pd  Pd20  1  0.500000  0.975581  0.694720  1
  Pd  Pd21  1  0.500000  0.023884  0.303866  1
