# generated using pymatgen
data_Ta7B8(OsRu2)2
_symmetry_space_group_name_H-M   'P 1'
_cell_length_a   9.60831737
_cell_length_b   9.59956030
_cell_length_c   3.11330100
_cell_angle_alpha   90.00000000
_cell_angle_beta   90.00000000
_cell_angle_gamma   119.85371651
_symmetry_Int_Tables_number   1
_chemical_formula_structural   Ta7B8(OsRu2)2
_chemical_formula_sum   'Ta7 B8 Os2 Ru4'
_cell_volume   249.05124094
_cell_formula_units_Z   1
loop_
 _symmetry_equiv_pos_site_id
 _symmetry_equiv_pos_as_xyz
  1  'x, y, z'
loop_
 _atom_site_type_symbol
 _atom_site_label
 _atom_site_symmetry_multiplicity
 _atom_site_fract_x
 _atom_site_fract_y
 _atom_site_fract_z
 _atom_site_occupancy
  Ta  Ta0  1  0.000120  0.000365  0.000000  1
  Ta  Ta1  1  0.725004  0.638809  0.000000  1
  Ta  Ta2  1  0.361573  0.087581  0.000000  1
  Ta  Ta3  1  0.912969  0.274597  0.000000  1
  Ta  Ta4  1  0.275295  0.360015  0.000000  1
  Ta  Ta5  1  0.638941  0.913126  0.000000  1
  Ta  Ta6  1  0.084750  0.724782  0.000000  1
  B  B7  1  0.666470  0.333649  0.000000  1
  B  B8  1  0.333449  0.666698  0.000000  1
  B  B9  1  0.153957  0.935442  0.500000  1
  B  B10  1  0.065729  0.218348  0.500000  1
  B  B11  1  0.783835  0.847621  0.500000  1
  B  B12  1  0.845893  0.064639  0.500000  1
  B  B13  1  0.933947  0.782580  0.500000  1
  B  B14  1  0.217032  0.152581  0.500000  1
  Os  Os15  1  0.360154  0.846982  0.500000  1
  Os  Os16  1  0.152710  0.512470  0.500000  1
  Ru  Ru17  1  0.486522  0.639740  0.500000  1
  Ru  Ru18  1  0.638425  0.152286  0.500000  1
  Ru  Ru19  1  0.847830  0.485238  0.500000  1
  Ru  Ru20  1  0.515393  0.362452  0.500000  1
