# generated using pymatgen
data_Nd2Fe3B8Os5
_symmetry_space_group_name_H-M   'P 1'
_cell_length_a   7.43463012
_cell_length_b   7.37805863
_cell_length_c   3.97051214
_cell_angle_alpha   90.23777779
_cell_angle_beta   90.27337929
_cell_angle_gamma   90.80846384
_symmetry_Int_Tables_number   1
_chemical_formula_structural   Nd2Fe3B8Os5
_chemical_formula_sum   'Nd2 Fe3 B8 Os5'
_cell_volume   217.76894846
_cell_formula_units_Z   1
loop_
 _symmetry_equiv_pos_site_id
 _symmetry_equiv_pos_as_xyz
  1  'x, y, z'
loop_
 _atom_site_type_symbol
 _atom_site_label
 _atom_site_symmetry_multiplicity
 _atom_site_fract_x
 _atom_site_fract_y
 _atom_site_fract_z
 _atom_site_occupancy
  Nd  Nd0  1  0.997454  0.002260  0.929608  1
  Nd  Nd1  1  0.507695  0.498335  0.407121  1
  Fe  Fe2  1  0.881717  0.626603  0.625266  1
  Fe  Fe3  1  0.116424  0.620643  0.124675  1
  Fe  Fe4  1  0.871641  0.391297  0.122555  1
  B  B5  1  0.815093  0.662311  0.121813  1
  B  B6  1  0.197038  0.335133  0.120003  1
  B  B7  1  0.835622  0.316896  0.621082  1
  B  B8  1  0.156276  0.686209  0.623976  1
  B  B9  1  0.729453  0.825686  0.401067  1
  B  B10  1  0.275897  0.167258  0.397211  1
  B  B11  1  0.674541  0.230445  0.902663  1
  B  B12  1  0.322797  0.773429  0.898895  1
  Os  Os13  1  0.397361  0.149948  0.896169  1
  Os  Os14  1  0.606527  0.841834  0.895588  1
  Os  Os15  1  0.343813  0.887298  0.394480  1
  Os  Os16  1  0.655495  0.104645  0.397017  1
  Os  Os17  1  0.115156  0.379770  0.620809  1
