# generated using pymatgen
data_Sm8Tm11Si16Mo
_symmetry_space_group_name_H-M   'P 1'
_cell_length_a   7.34653265
_cell_length_b   7.60614358
_cell_length_c   14.48057636
_cell_angle_alpha   90.30881101
_cell_angle_beta   89.40850027
_cell_angle_gamma   89.62159621
_symmetry_Int_Tables_number   1
_chemical_formula_structural   Sm8Tm11Si16Mo
_chemical_formula_sum   'Sm8 Tm11 Si16 Mo1'
_cell_volume   809.08415478
_cell_formula_units_Z   1
loop_
 _symmetry_equiv_pos_site_id
 _symmetry_equiv_pos_as_xyz
  1  'x, y, z'
loop_
 _atom_site_type_symbol
 _atom_site_label
 _atom_site_symmetry_multiplicity
 _atom_site_fract_x
 _atom_site_fract_y
 _atom_site_fract_z
 _atom_site_occupancy
  Sm  Sm0  1  0.016602  0.176659  0.097639  1
  Sm  Sm1  1  0.985354  0.824002  0.897273  1
  Sm  Sm2  1  0.482986  0.679161  0.897196  1
  Sm  Sm3  1  0.991251  0.830698  0.596353  1
  Sm  Sm4  1  0.517825  0.322019  0.096283  1
  Sm  Sm5  1  0.015214  0.178340  0.402959  1
  Sm  Sm6  1  0.507127  0.322598  0.411892  1
  Sm  Sm7  1  0.483216  0.677787  0.597757  1
  Tm  Tm8  1  0.163749  0.498941  0.743443  1
  Tm  Tm9  1  0.837869  0.491099  0.253257  1
  Tm  Tm10  1  0.337356  0.009994  0.251935  1
  Tm  Tm11  1  0.657863  0.996867  0.746550  1
  Tm  Tm12  1  0.665823  0.826649  0.381785  1
  Tm  Tm13  1  0.171253  0.677934  0.382463  1
  Tm  Tm14  1  0.672626  0.821696  0.122651  1
  Tm  Tm15  1  0.833658  0.322571  0.620396  1
  Tm  Tm16  1  0.329387  0.179337  0.876385  1
  Tm  Tm17  1  0.824318  0.322892  0.872557  1
  Tm  Tm18  1  0.173602  0.677832  0.123788  1
  Si  Si19  1  0.047188  0.118554  0.742385  1
  Si  Si20  1  0.963552  0.888765  0.252090  1
  Si  Si21  1  0.465801  0.616670  0.250937  1
  Si  Si22  1  0.528832  0.370551  0.742845  1
  Si  Si23  1  0.281290  0.884981  0.744627  1
  Si  Si24  1  0.718117  0.123195  0.250900  1
  Si  Si25  1  0.221595  0.377116  0.250924  1
  Si  Si26  1  0.779579  0.622935  0.746267  1
  Si  Si27  1  0.186321  0.441993  0.541420  1
  Si  Si28  1  0.840788  0.530886  0.459611  1
  Si  Si29  1  0.332343  0.974493  0.477086  1
  Si  Si30  1  0.850184  0.531819  0.038171  1
  Si  Si31  1  0.634172  0.036373  0.546436  1
  Si  Si32  1  0.148942  0.469811  0.958862  1
  Si  Si33  1  0.657419  0.032248  0.958723  1
  Si  Si34  1  0.346615  0.965611  0.037952  1
  Mo  Mo35  1  0.330185  0.176922  0.628202  1
