# generated using pymatgen
data_DyErPa2(InNi2)2
_symmetry_space_group_name_H-M   'P 1'
_cell_length_a   7.47157704
_cell_length_b   7.47157696
_cell_length_c   3.54104500
_cell_angle_alpha   90.00000000
_cell_angle_beta   90.00000000
_cell_angle_gamma   93.69963540
_symmetry_Int_Tables_number   1
_chemical_formula_structural   DyErPa2(InNi2)2
_chemical_formula_sum   'Dy1 Er1 Pa2 In2 Ni4'
_cell_volume   197.26498204
_cell_formula_units_Z   1
loop_
 _symmetry_equiv_pos_site_id
 _symmetry_equiv_pos_as_xyz
  1  'x, y, z'
loop_
 _atom_site_type_symbol
 _atom_site_label
 _atom_site_symmetry_multiplicity
 _atom_site_fract_x
 _atom_site_fract_y
 _atom_site_fract_z
 _atom_site_occupancy
  Dy  Dy0  1  0.170789  0.329211  0.500000  1
  Er  Er1  1  0.829631  0.670369  0.500000  1
  Pa  Pa2  1  0.672348  0.172332  0.500000  1
  Pa  Pa3  1  0.327668  0.827652  0.500000  1
  In  In4  1  0.501609  0.501365  0.000000  1
  In  In5  1  0.998635  0.998391  0.000000  1
  Ni  Ni6  1  0.133750  0.634961  0.000000  1
  Ni  Ni7  1  0.865039  0.366250  0.000000  1
  Ni  Ni8  1  0.616912  0.883088  0.000000  1
  Ni  Ni9  1  0.383618  0.116382  0.000000  1
