# generated using pymatgen
data_LaPr7Pd24Pb
_symmetry_space_group_name_H-M   'P 1'
_cell_length_a   8.59651610
_cell_length_b   8.59651621
_cell_length_c   8.59651600
_cell_angle_alpha   89.99112222
_cell_angle_beta   90.00887778
_cell_angle_gamma   90.00887916
_symmetry_Int_Tables_number   1
_chemical_formula_structural   LaPr7Pd24Pb
_chemical_formula_sum   'La1 Pr7 Pd24 Pb1'
_cell_volume   635.28328320
_cell_formula_units_Z   1
loop_
 _symmetry_equiv_pos_site_id
 _symmetry_equiv_pos_as_xyz
  1  'x, y, z'
loop_
 _atom_site_type_symbol
 _atom_site_label
 _atom_site_symmetry_multiplicity
 _atom_site_fract_x
 _atom_site_fract_y
 _atom_site_fract_z
 _atom_site_occupancy
  La  La0  1  0.747592  0.252408  0.252408  1
  Pr  Pr1  1  0.251713  0.251811  0.251811  1
  Pr  Pr2  1  0.748133  0.748088  0.748088  1
  Pr  Pr3  1  0.748189  0.748287  0.251811  1
  Pr  Pr4  1  0.748189  0.251811  0.748287  1
  Pr  Pr5  1  0.251912  0.251867  0.748088  1
  Pr  Pr6  1  0.251912  0.748088  0.251867  1
  Pr  Pr7  1  0.251854  0.748146  0.748146  1
  Pd  Pd8  1  0.268835  0.500057  0.999919  1
  Pd  Pd9  1  0.731213  0.500013  0.000043  1
  Pd  Pd10  1  0.999957  0.268787  0.500013  1
  Pd  Pd11  1  0.499987  0.268787  0.000043  1
  Pd  Pd12  1  0.000081  0.731165  0.500057  1
  Pd  Pd13  1  0.499943  0.731165  0.999919  1
  Pd  Pd14  1  0.499987  0.000043  0.268787  1
  Pd  Pd15  1  0.268835  0.999919  0.500057  1
  Pd  Pd16  1  0.499943  0.999919  0.731165  1
  Pd  Pd17  1  0.731213  0.000043  0.500013  1
  Pd  Pd18  1  0.999957  0.500013  0.268787  1
  Pd  Pd19  1  0.000081  0.500057  0.731165  1
  Pd  Pd20  1  0.255739  0.500028  0.500028  1
  Pd  Pd21  1  0.744211  0.500066  0.500066  1
  Pd  Pd22  1  0.499934  0.255789  0.500066  1
  Pd  Pd23  1  0.499972  0.744261  0.500028  1
  Pd  Pd24  1  0.499934  0.500066  0.255789  1
  Pd  Pd25  1  0.499972  0.500028  0.744261  1
  Pd  Pd26  1  0.321002  0.999973  0.999973  1
  Pd  Pd27  1  0.679072  0.999788  0.999788  1
  Pd  Pd28  1  0.000212  0.320928  0.999788  1
  Pd  Pd29  1  0.000027  0.678998  0.999973  1
  Pd  Pd30  1  0.000212  0.999788  0.320928  1
  Pd  Pd31  1  0.000027  0.999973  0.678998  1
  Pb  Pb32  1  0.000159  0.999841  0.999841  1
