# generated using pymatgen
data_Pr2Th(InPd)3
_symmetry_space_group_name_H-M   'P 1'
_cell_length_a   7.80576045
_cell_length_b   7.80576015
_cell_length_c   4.08125700
_cell_angle_alpha   90.00000000
_cell_angle_beta   90.00000000
_cell_angle_gamma   120.03913336
_symmetry_Int_Tables_number   1
_chemical_formula_structural   Pr2Th(InPd)3
_chemical_formula_sum   'Pr2 Th1 In3 Pd3'
_cell_volume   215.27004667
_cell_formula_units_Z   1
loop_
 _symmetry_equiv_pos_site_id
 _symmetry_equiv_pos_as_xyz
  1  'x, y, z'
loop_
 _atom_site_type_symbol
 _atom_site_label
 _atom_site_symmetry_multiplicity
 _atom_site_fract_x
 _atom_site_fract_y
 _atom_site_fract_z
 _atom_site_occupancy
  Pr  Pr0  1  0.588802  0.997507  0.500000  1
  Pr  Pr1  1  0.997507  0.588802  0.500000  1
  Th  Th2  1  0.411282  0.411282  0.500000  1
  In  In3  1  0.757150  0.757150  0.000000  1
  In  In4  1  0.251216  0.991958  0.000000  1
  In  In5  1  0.991958  0.251216  0.000000  1
  Pd  Pd6  1  0.652244  0.336282  0.000000  1
  Pd  Pd7  1  0.336282  0.652244  0.000000  1
  Pd  Pd8  1  0.013559  0.013559  0.500000  1
