# generated using pymatgen
data_Ce3Lu(AlIr)4
_symmetry_space_group_name_H-M   'P 1'
_cell_length_a   6.83513954
_cell_length_b   4.32193600
_cell_length_c   7.91910603
_cell_angle_alpha   90.00000000
_cell_angle_beta   89.23519214
_cell_angle_gamma   90.00000000
_symmetry_Int_Tables_number   1
_chemical_formula_structural   Ce3Lu(AlIr)4
_chemical_formula_sum   'Ce3 Lu1 Al4 Ir4'
_cell_volume   233.91775205
_cell_formula_units_Z   1
loop_
 _symmetry_equiv_pos_site_id
 _symmetry_equiv_pos_as_xyz
  1  'x, y, z'
loop_
 _atom_site_type_symbol
 _atom_site_label
 _atom_site_symmetry_multiplicity
 _atom_site_fract_x
 _atom_site_fract_y
 _atom_site_fract_z
 _atom_site_occupancy
  Ce  Ce0  1  0.464463  0.250000  0.315787  1
  Ce  Ce1  1  0.033599  0.750000  0.822312  1
  Ce  Ce2  1  0.536533  0.750000  0.683051  1
  Lu  Lu3  1  0.962980  0.250000  0.183007  1
  Al  Al4  1  0.865610  0.250000  0.557024  1
  Al  Al5  1  0.359974  0.250000  0.941496  1
  Al  Al6  1  0.132805  0.750000  0.435018  1
  Al  Al7  1  0.642528  0.750000  0.064757  1
  Ir  Ir8  1  0.738548  0.250000  0.880591  1
  Ir  Ir9  1  0.239368  0.250000  0.619046  1
  Ir  Ir10  1  0.261145  0.750000  0.116811  1
  Ir  Ir11  1  0.762449  0.750000  0.381099  1
