# generated using pymatgen
data_Mn5HgPd10
_symmetry_space_group_name_H-M   'P 1'
_cell_length_a   4.12043800
_cell_length_b   5.52100959
_cell_length_c   10.93993431
_cell_angle_alpha   91.83992922
_cell_angle_beta   90.00000000
_cell_angle_gamma   90.00000000
_symmetry_Int_Tables_number   1
_chemical_formula_structural   Mn5HgPd10
_chemical_formula_sum   'Mn5 Hg1 Pd10'
_cell_volume   248.74401040
_cell_formula_units_Z   1
loop_
 _symmetry_equiv_pos_site_id
 _symmetry_equiv_pos_as_xyz
  1  'x, y, z'
loop_
 _atom_site_type_symbol
 _atom_site_label
 _atom_site_symmetry_multiplicity
 _atom_site_fract_x
 _atom_site_fract_y
 _atom_site_fract_z
 _atom_site_occupancy
  Mn  Mn0  1  0.000000  0.000000  0.000000  1
  Mn  Mn1  1  0.500000  0.198853  0.361945  1
  Mn  Mn2  1  0.500000  0.801147  0.638055  1
  Mn  Mn3  1  0.500000  0.687936  0.131951  1
  Mn  Mn4  1  0.500000  0.312064  0.868049  1
  Hg  Hg5  1  0.000000  0.500000  0.500000  1
  Pd  Pd6  1  0.500000  0.194732  0.111015  1
  Pd  Pd7  1  0.500000  0.805268  0.888985  1
  Pd  Pd8  1  0.500000  0.717452  0.374049  1
  Pd  Pd9  1  0.500000  0.282548  0.625951  1
  Pd  Pd10  1  0.000000  0.000000  0.500000  1
  Pd  Pd11  1  0.000000  0.500000  0.000000  1
  Pd  Pd12  1  0.000000  0.935524  0.239885  1
  Pd  Pd13  1  0.000000  0.064476  0.760115  1
  Pd  Pd14  1  0.000000  0.434745  0.247491  1
  Pd  Pd15  1  0.000000  0.565255  0.752509  1
