# generated using pymatgen
data_Rb8Li4Er3TmAs8
_symmetry_space_group_name_H-M   'P 1'
_cell_length_a   10.60326603
_cell_length_b   10.60326655
_cell_length_c   6.82766404
_cell_angle_alpha   90.00917811
_cell_angle_beta   89.99082158
_cell_angle_gamma   99.81544858
_symmetry_Int_Tables_number   1
_chemical_formula_structural   Rb8Li4Er3TmAs8
_chemical_formula_sum   'Rb8 Li4 Er3 Tm1 As8'
_cell_volume   756.39259205
_cell_formula_units_Z   1
loop_
 _symmetry_equiv_pos_site_id
 _symmetry_equiv_pos_as_xyz
  1  'x, y, z'
loop_
 _atom_site_type_symbol
 _atom_site_label
 _atom_site_symmetry_multiplicity
 _atom_site_fract_x
 _atom_site_fract_y
 _atom_site_fract_z
 _atom_site_occupancy
  Rb  Rb0  1  0.568175  0.932072  0.750118  1
  Rb  Rb1  1  0.932072  0.568175  0.249882  1
  Rb  Rb2  1  0.432114  0.067820  0.249881  1
  Rb  Rb3  1  0.067820  0.432114  0.750119  1
  Rb  Rb4  1  0.678079  0.321994  0.789161  1
  Rb  Rb5  1  0.821959  0.177836  0.289129  1
  Rb  Rb6  1  0.321994  0.678079  0.210839  1
  Rb  Rb7  1  0.177836  0.821959  0.710871  1
  Li  Li8  1  0.618735  0.618735  0.000000  1
  Li  Li9  1  0.881456  0.881456  0.500000  1
  Li  Li10  1  0.381503  0.381503  0.000000  1
  Li  Li11  1  0.118312  0.118312  0.500000  1
  Er  Er12  1  0.632354  0.632354  0.500000  1
  Er  Er13  1  0.131644  0.131644  0.000000  1
  Er  Er14  1  0.367965  0.367965  0.500000  1
  Tm  Tm15  1  0.868269  0.868269  0.000000  1
  As  As16  1  0.342118  0.157690  0.749997  1
  As  As17  1  0.157690  0.342118  0.250003  1
  As  As18  1  0.658717  0.842110  0.249117  1
  As  As19  1  0.842110  0.658717  0.750883  1
  As  As20  1  0.909942  0.088895  0.767049  1
  As  As21  1  0.589793  0.410449  0.266630  1
  As  As22  1  0.088895  0.909942  0.232951  1
  As  As23  1  0.410449  0.589793  0.733370  1
