# generated using pymatgen
data_Ce9Dy(OsPb3)2
_symmetry_space_group_name_H-M   'P 1'
_cell_length_a   9.63328596
_cell_length_b   9.63328579
_cell_length_c   6.35227700
_cell_angle_alpha   90.00000000
_cell_angle_beta   90.00000000
_cell_angle_gamma   119.43774248
_symmetry_Int_Tables_number   1
_chemical_formula_structural   Ce9Dy(OsPb3)2
_chemical_formula_sum   'Ce9 Dy1 Os2 Pb6'
_cell_volume   513.38331833
_cell_formula_units_Z   1
loop_
 _symmetry_equiv_pos_site_id
 _symmetry_equiv_pos_as_xyz
  1  'x, y, z'
loop_
 _atom_site_type_symbol
 _atom_site_label
 _atom_site_symmetry_multiplicity
 _atom_site_fract_x
 _atom_site_fract_y
 _atom_site_fract_z
 _atom_site_occupancy
  Ce  Ce0  1  0.756259  0.756259  0.250000  1
  Ce  Ce1  1  0.239375  0.999241  0.250000  1
  Ce  Ce2  1  0.761592  0.998187  0.750000  1
  Ce  Ce3  1  0.332615  0.668216  0.500679  1
  Ce  Ce4  1  0.668216  0.332615  0.500679  1
  Ce  Ce5  1  0.999241  0.239375  0.250000  1
  Ce  Ce6  1  0.998187  0.761592  0.750000  1
  Ce  Ce7  1  0.332615  0.668216  0.999321  1
  Ce  Ce8  1  0.668216  0.332615  0.999321  1
  Dy  Dy9  1  0.247570  0.247570  0.750000  1
  Os  Os10  1  0.000211  0.000211  0.001739  1
  Os  Os11  1  0.000211  0.000211  0.498261  1
  Pb  Pb12  1  0.394868  0.394868  0.250000  1
  Pb  Pb13  1  0.600769  0.600769  0.750000  1
  Pb  Pb14  1  0.002898  0.395186  0.750000  1
  Pb  Pb15  1  0.602215  0.999756  0.250000  1
  Pb  Pb16  1  0.395186  0.002898  0.750000  1
  Pb  Pb17  1  0.999756  0.602215  0.250000  1
