# generated using pymatgen
data_HfSc2SnC2
_symmetry_space_group_name_H-M   'P 1'
_cell_length_a   3.33275800
_cell_length_b   3.33275879
_cell_length_c   20.40999700
_cell_angle_alpha   90.00000000
_cell_angle_beta   90.00000000
_cell_angle_gamma   119.99999220
_symmetry_Int_Tables_number   1
_chemical_formula_structural   HfSc2SnC2
_chemical_formula_sum   'Hf2 Sc4 Sn2 C4'
_cell_volume   196.32755962
_cell_formula_units_Z   2
loop_
 _symmetry_equiv_pos_site_id
 _symmetry_equiv_pos_as_xyz
  1  'x, y, z'
loop_
 _atom_site_type_symbol
 _atom_site_label
 _atom_site_symmetry_multiplicity
 _atom_site_fract_x
 _atom_site_fract_y
 _atom_site_fract_z
 _atom_site_occupancy
  Hf  Hf0  1  0.000000  0.000000  0.000000  1
  Hf  Hf1  1  0.000000  0.000000  0.500000  1
  Sc  Sc2  1  0.333333  0.666667  0.124982  1
  Sc  Sc3  1  0.333333  0.666667  0.375018  1
  Sc  Sc4  1  0.666667  0.333333  0.624982  1
  Sc  Sc5  1  0.666667  0.333333  0.875018  1
  Sn  Sn6  1  0.000000  0.000000  0.250000  1
  Sn  Sn7  1  0.000000  0.000000  0.750000  1
  C  C8  1  0.333333  0.666667  0.933061  1
  C  C9  1  0.666667  0.333333  0.066939  1
  C  C10  1  0.666667  0.333333  0.433061  1
  C  C11  1  0.333333  0.666667  0.566939  1
