# generated using pymatgen
data_TbCdSnSbO7
_symmetry_space_group_name_H-M   'P 1'
_cell_length_a   7.43436500
_cell_length_b   7.43436500
_cell_length_c   10.47920800
_cell_angle_alpha   90.00000000
_cell_angle_beta   90.00000000
_cell_angle_gamma   90.00000000
_symmetry_Int_Tables_number   1
_chemical_formula_structural   TbCdSnSbO7
_chemical_formula_sum   'Tb4 Cd4 Sn4 Sb4 O28'
_cell_volume   579.18355168
_cell_formula_units_Z   4
loop_
 _symmetry_equiv_pos_site_id
 _symmetry_equiv_pos_as_xyz
  1  'x, y, z'
loop_
 _atom_site_type_symbol
 _atom_site_label
 _atom_site_symmetry_multiplicity
 _atom_site_fract_x
 _atom_site_fract_y
 _atom_site_fract_z
 _atom_site_occupancy
  Tb  Tb0  1  0.000000  0.741917  0.000000  1
  Tb  Tb1  1  0.000000  0.258083  0.500000  1
  Tb  Tb2  1  0.258083  0.000000  0.250000  1
  Tb  Tb3  1  0.741917  0.000000  0.750000  1
  Cd  Cd4  1  0.500000  0.739500  0.000000  1
  Cd  Cd5  1  0.260500  0.500000  0.250000  1
  Cd  Cd6  1  0.500000  0.260500  0.500000  1
  Cd  Cd7  1  0.739500  0.500000  0.750000  1
  Sn  Sn8  1  0.757718  0.000000  0.250000  1
  Sn  Sn9  1  0.000000  0.757718  0.500000  1
  Sn  Sn10  1  0.242282  0.000000  0.750000  1
  Sn  Sn11  1  0.000000  0.242282  0.000000  1
  Sb  Sb12  1  0.244600  0.500000  0.750000  1
  Sb  Sb13  1  0.500000  0.755400  0.500000  1
  Sb  Sb14  1  0.500000  0.244600  0.000000  1
  Sb  Sb15  1  0.755400  0.500000  0.250000  1
  O  O16  1  0.253955  0.746045  0.125000  1
  O  O17  1  0.543828  0.949616  0.371299  1
  O  O18  1  0.764051  0.743235  0.171143  1
  O  O19  1  0.746045  0.253955  0.625000  1
  O  O20  1  0.970201  0.970201  0.375000  1
  O  O21  1  0.029799  0.029799  0.875000  1
  O  O22  1  0.050384  0.456172  0.878701  1
  O  O23  1  0.029799  0.970201  0.625000  1
  O  O24  1  0.256765  0.235949  0.078857  1
  O  O25  1  0.235949  0.256765  0.671143  1
  O  O26  1  0.256765  0.764051  0.421143  1
  O  O27  1  0.456172  0.949616  0.628701  1
  O  O28  1  0.456172  0.050384  0.871299  1
  O  O29  1  0.445019  0.445019  0.875000  1
  O  O30  1  0.554981  0.554981  0.375000  1
  O  O31  1  0.543828  0.050384  0.128701  1
  O  O32  1  0.554981  0.445019  0.125000  1
  O  O33  1  0.743235  0.764051  0.578857  1
  O  O34  1  0.764051  0.256765  0.328857  1
  O  O35  1  0.746045  0.746045  0.875000  1
  O  O36  1  0.743235  0.235949  0.921143  1
  O  O37  1  0.949616  0.543828  0.378701  1
  O  O38  1  0.970201  0.029799  0.125000  1
  O  O39  1  0.949616  0.456172  0.121299  1
  O  O40  1  0.050384  0.543828  0.621299  1
  O  O41  1  0.235949  0.743235  0.828857  1
  O  O42  1  0.253955  0.253955  0.375000  1
  O  O43  1  0.445019  0.554981  0.625000  1
