# generated using pymatgen
data_Cs4Na2ScInP4
_symmetry_space_group_name_H-M   'P 1'
_cell_length_a   9.61861893
_cell_length_b   9.61861930
_cell_length_c   9.61861922
_cell_angle_alpha   139.65415711
_cell_angle_beta   137.92118229
_cell_angle_gamma   59.71017684
_symmetry_Int_Tables_number   1
_chemical_formula_structural   Cs4Na2ScInP4
_chemical_formula_sum   'Cs4 Na2 Sc1 In1 P4'
_cell_volume   382.21146912
_cell_formula_units_Z   1
loop_
 _symmetry_equiv_pos_site_id
 _symmetry_equiv_pos_as_xyz
  1  'x, y, z'
loop_
 _atom_site_type_symbol
 _atom_site_label
 _atom_site_symmetry_multiplicity
 _atom_site_fract_x
 _atom_site_fract_y
 _atom_site_fract_z
 _atom_site_occupancy
  Cs  Cs0  1  0.549745  0.319504  0.221700  1
  Cs  Cs1  1  0.450255  0.671956  0.769761  1
  Cs  Cs2  1  0.097806  0.828044  0.278300  1
  Cs  Cs3  1  0.902194  0.180496  0.730239  1
  Na  Na4  1  0.500000  0.250000  0.750000  1
  Na  Na5  1  0.500000  0.750000  0.250000  1
  Sc  Sc6  1  0.000000  0.750000  0.750000  1
  In  In7  1  0.000000  0.250000  0.250000  1
  P  P8  1  0.297628  0.082140  0.205564  1
  P  P9  1  0.702372  0.907936  0.784512  1
  P  P10  1  0.876576  0.592064  0.294436  1
  P  P11  1  0.123424  0.417860  0.715488  1
