# generated using pymatgen
data_Hf12Ti8(Si3P)3
_symmetry_space_group_name_H-M   'P 1'
_cell_length_a   5.24065100
_cell_length_b   7.69030952
_cell_length_c   13.37954212
_cell_angle_alpha   89.94543383
_cell_angle_beta   90.00000000
_cell_angle_gamma   90.00000000
_symmetry_Int_Tables_number   1
_chemical_formula_structural   Hf12Ti8(Si3P)3
_chemical_formula_sum   'Hf12 Ti8 Si9 P3'
_cell_volume   539.22511616
_cell_formula_units_Z   1
loop_
 _symmetry_equiv_pos_site_id
 _symmetry_equiv_pos_as_xyz
  1  'x, y, z'
loop_
 _atom_site_type_symbol
 _atom_site_label
 _atom_site_symmetry_multiplicity
 _atom_site_fract_x
 _atom_site_fract_y
 _atom_site_fract_z
 _atom_site_occupancy
  Hf  Hf0  1  0.500000  0.246305  0.500408  1
  Hf  Hf1  1  0.500000  0.746264  0.999117  1
  Hf  Hf2  1  0.500000  0.628711  0.628458  1
  Hf  Hf3  1  0.500000  0.126575  0.125256  1
  Hf  Hf4  1  0.500000  0.125526  0.874271  1
  Hf  Hf5  1  0.500000  0.626090  0.374620  1
  Hf  Hf6  1  0.000000  0.753199  0.499549  1
  Hf  Hf7  1  0.000000  0.253647  0.999700  1
  Hf  Hf8  1  0.000000  0.873283  0.871267  1
  Hf  Hf9  1  0.000000  0.375332  0.374246  1
  Hf  Hf10  1  0.000000  0.374827  0.625875  1
  Hf  Hf11  1  0.000000  0.875721  0.125243  1
  Ti  Ti12  1  0.749480  0.997509  0.666905  1
  Ti  Ti13  1  0.749880  0.499155  0.164655  1
  Ti  Ti14  1  0.749478  0.502032  0.834341  1
  Ti  Ti15  1  0.749888  0.998502  0.335007  1
  Ti  Ti16  1  0.250522  0.502032  0.834341  1
  Ti  Ti17  1  0.250112  0.998502  0.335007  1
  Ti  Ti18  1  0.250520  0.997509  0.666905  1
  Ti  Ti19  1  0.250120  0.499155  0.164655  1
  Si  Si20  1  0.500000  0.301012  0.301258  1
  Si  Si21  1  0.500000  0.300757  0.698988  1
  Si  Si22  1  0.500000  0.800969  0.198311  1
  Si  Si23  1  0.000000  0.606643  0.999815  1
  Si  Si24  1  0.000000  0.106055  0.500692  1
  Si  Si25  1  0.000000  0.696803  0.696581  1
  Si  Si26  1  0.000000  0.198593  0.199105  1
  Si  Si27  1  0.000000  0.199827  0.801288  1
  Si  Si28  1  0.000000  0.698425  0.300572  1
  P  P29  1  0.500000  0.393626  0.999576  1
  P  P30  1  0.500000  0.893777  0.500276  1
  P  P31  1  0.500000  0.803626  0.803703  1
