# generated using pymatgen
data_Y10Si5Sn
_symmetry_space_group_name_H-M   'P 1'
_cell_length_a   8.53382000
_cell_length_b   8.56074332
_cell_length_c   6.42829400
_cell_angle_alpha   90.00000000
_cell_angle_beta   90.00000000
_cell_angle_gamma   119.89601951
_symmetry_Int_Tables_number   1
_chemical_formula_structural   Y10Si5Sn
_chemical_formula_sum   'Y10 Si5 Sn1'
_cell_volume   407.13215788
_cell_formula_units_Z   1
loop_
 _symmetry_equiv_pos_site_id
 _symmetry_equiv_pos_as_xyz
  1  'x, y, z'
loop_
 _atom_site_type_symbol
 _atom_site_label
 _atom_site_symmetry_multiplicity
 _atom_site_fract_x
 _atom_site_fract_y
 _atom_site_fract_z
 _atom_site_occupancy
  Y  Y0  1  0.989213  0.748509  0.750000  1
  Y  Y1  1  0.999311  0.243411  0.250000  1
  Y  Y2  1  0.755899  0.756589  0.250000  1
  Y  Y3  1  0.764741  0.000000  0.750000  1
  Y  Y4  1  0.240704  0.251491  0.750000  1
  Y  Y5  1  0.241468  0.000000  0.250000  1
  Y  Y6  1  0.331803  0.658656  0.496781  1
  Y  Y7  1  0.673147  0.341344  0.003219  1
  Y  Y8  1  0.673147  0.341344  0.496781  1
  Y  Y9  1  0.331803  0.658656  0.003219  1
  Si  Si10  1  0.393725  0.392870  0.250000  1
  Si  Si11  1  0.000855  0.607130  0.250000  1
  Si  Si12  1  0.999031  0.394284  0.750000  1
  Si  Si13  1  0.604747  0.605716  0.750000  1
  Si  Si14  1  0.606081  0.000000  0.250000  1
  Sn  Sn15  1  0.394326  0.000000  0.750000  1
