# generated using pymatgen
data_ErCoP3Ir3Ru
_symmetry_space_group_name_H-M   'P 1'
_cell_length_a   3.89626400
_cell_length_b   10.75301400
_cell_length_c   12.32912300
_cell_angle_alpha   90.00000000
_cell_angle_beta   90.00000000
_cell_angle_gamma   90.00000000
_symmetry_Int_Tables_number   1
_chemical_formula_structural   ErCoP3Ir3Ru
_chemical_formula_sum   'Er4 Co4 P12 Ir12 Ru4'
_cell_volume   516.54810462
_cell_formula_units_Z   4
loop_
 _symmetry_equiv_pos_site_id
 _symmetry_equiv_pos_as_xyz
  1  'x, y, z'
loop_
 _atom_site_type_symbol
 _atom_site_label
 _atom_site_symmetry_multiplicity
 _atom_site_fract_x
 _atom_site_fract_y
 _atom_site_fract_z
 _atom_site_occupancy
  Er  Er0  1  0.250000  0.585554  0.709311  1
  Er  Er1  1  0.250000  0.914446  0.209311  1
  Er  Er2  1  0.750000  0.414446  0.290689  1
  Er  Er3  1  0.750000  0.085554  0.790689  1
  Co  Co4  1  0.250000  0.459197  0.932706  1
  Co  Co5  1  0.250000  0.040803  0.432706  1
  Co  Co6  1  0.750000  0.540803  0.067294  1
  Co  Co7  1  0.750000  0.959197  0.567294  1
  P  P8  1  0.250000  0.425351  0.104807  1
  P  P9  1  0.250000  0.074649  0.604807  1
  P  P10  1  0.750000  0.574649  0.895193  1
  P  P11  1  0.750000  0.925351  0.395193  1
  P  P12  1  0.250000  0.269268  0.873645  1
  P  P13  1  0.250000  0.230732  0.373645  1
  P  P14  1  0.750000  0.730732  0.126355  1
  P  P15  1  0.750000  0.769268  0.626355  1
  P  P16  1  0.250000  0.597287  0.387851  1
  P  P17  1  0.250000  0.902713  0.887851  1
  P  P18  1  0.750000  0.402713  0.612149  1
  P  P19  1  0.750000  0.097287  0.112149  1
  Ir  Ir20  1  0.250000  0.407669  0.482174  1
  Ir  Ir21  1  0.250000  0.092331  0.982174  1
  Ir  Ir22  1  0.750000  0.592331  0.517826  1
  Ir  Ir23  1  0.750000  0.907669  0.017826  1
  Ir  Ir24  1  0.250000  0.233404  0.181171  1
  Ir  Ir25  1  0.250000  0.266596  0.681171  1
  Ir  Ir26  1  0.750000  0.766596  0.818829  1
  Ir  Ir27  1  0.750000  0.733404  0.318829  1
  Ir  Ir28  1  0.250000  0.889507  0.700556  1
  Ir  Ir29  1  0.250000  0.610493  0.200556  1
  Ir  Ir30  1  0.750000  0.110493  0.299444  1
  Ir  Ir31  1  0.750000  0.389507  0.799444  1
  Ru  Ru32  1  0.250000  0.719695  0.985991  1
  Ru  Ru33  1  0.250000  0.780305  0.485991  1
  Ru  Ru34  1  0.750000  0.280305  0.014009  1
  Ru  Ru35  1  0.750000  0.219695  0.514009  1
