# generated using pymatgen
data_Ta11NbCo8(WC)4
_symmetry_space_group_name_H-M   'P 1'
_cell_length_a   8.18594247
_cell_length_b   8.18603323
_cell_length_c   8.18594133
_cell_angle_alpha   59.99962735
_cell_angle_beta   60.03032269
_cell_angle_gamma   59.99963132
_symmetry_Int_Tables_number   1
_chemical_formula_structural   Ta11NbCo8(WC)4
_chemical_formula_sum   'Ta11 Nb1 Co8 W4 C4'
_cell_volume   387.96523672
_cell_formula_units_Z   1
loop_
 _symmetry_equiv_pos_site_id
 _symmetry_equiv_pos_as_xyz
  1  'x, y, z'
loop_
 _atom_site_type_symbol
 _atom_site_label
 _atom_site_symmetry_multiplicity
 _atom_site_fract_x
 _atom_site_fract_y
 _atom_site_fract_z
 _atom_site_occupancy
  Ta  Ta0  1  0.690821  0.309179  0.690821  1
  Ta  Ta1  1  0.941087  0.559218  0.558972  1
  Ta  Ta2  1  0.558972  0.940723  0.941087  1
  Ta  Ta3  1  0.940948  0.559052  0.940948  1
  Ta  Ta4  1  0.558972  0.559218  0.941087  1
  Ta  Ta5  1  0.941087  0.940723  0.558972  1
  Ta  Ta6  1  0.691138  0.690940  0.308854  1
  Ta  Ta7  1  0.308854  0.690940  0.691138  1
  Ta  Ta8  1  0.691138  0.309069  0.308854  1
  Ta  Ta9  1  0.308854  0.309069  0.691138  1
  Ta  Ta10  1  0.559119  0.940881  0.559119  1
  Nb  Nb11  1  0.309178  0.690822  0.309178  1
  Co  Co12  1  0.327713  0.326710  0.327713  1
  Co  Co13  1  0.232907  0.922661  0.921770  1
  Co  Co14  1  0.922366  0.232819  0.922366  1
  Co  Co15  1  0.921770  0.922661  0.232907  1
  Co  Co16  1  0.327713  0.017864  0.327713  1
  Co  Co17  1  0.327619  0.327720  0.016941  1
  Co  Co18  1  0.016941  0.327720  0.327619  1
  Co  Co19  1  0.922366  0.922449  0.922366  1
  W  W20  1  0.124983  0.124992  0.124983  1
  W  W21  1  0.624682  0.125124  0.125069  1
  W  W22  1  0.124983  0.625043  0.124983  1
  W  W23  1  0.125069  0.125124  0.624682  1
  C  C24  1  0.625019  0.624905  0.625019  1
  C  C25  1  0.124157  0.624660  0.626524  1
  C  C26  1  0.625019  0.125056  0.625019  1
  C  C27  1  0.626524  0.624660  0.124157  1
