# generated using pymatgen
data_Er(BrO3)3
_symmetry_space_group_name_H-M   'P 1'
_cell_length_a   5.69412990
_cell_length_b   9.74857414
_cell_length_c   9.74531717
_cell_angle_alpha   60.01845131
_cell_angle_beta   89.98576917
_cell_angle_gamma   89.98479381
_symmetry_Int_Tables_number   1
_chemical_formula_structural   Er(BrO3)3
_chemical_formula_sum   'Er2 Br6 O18'
_cell_volume   468.57140012
_cell_formula_units_Z   2
loop_
 _symmetry_equiv_pos_site_id
 _symmetry_equiv_pos_as_xyz
  1  'x, y, z'
loop_
 _atom_site_type_symbol
 _atom_site_label
 _atom_site_symmetry_multiplicity
 _atom_site_fract_x
 _atom_site_fract_y
 _atom_site_fract_z
 _atom_site_occupancy
  Er  Er0  1  0.216657  0.333474  0.333160  1
  Er  Er1  1  0.716627  0.666618  0.666820  1
  Br  Br2  1  0.860031  0.658847  0.025010  1
  Br  Br3  1  0.859870  0.024936  0.316293  1
  Br  Br4  1  0.359940  0.683699  0.341246  1
  Br  Br5  1  0.859967  0.316221  0.658858  1
  Br  Br6  1  0.359838  0.975114  0.683723  1
  Br  Br7  1  0.360083  0.341269  0.974890  1
  O  O8  1  0.021170  0.770995  0.067929  1
  O  O9  1  0.979907  0.471978  0.124618  1
  O  O10  1  0.021034  0.067775  0.161241  1
  O  O11  1  0.433075  0.287983  0.167208  1
  O  O12  1  0.521034  0.838680  0.229088  1
  O  O13  1  0.432995  0.544636  0.287989  1
  O  O14  1  0.979736  0.124589  0.403540  1
  O  O15  1  0.932937  0.832756  0.455356  1
  O  O16  1  0.979789  0.403347  0.471957  1
  O  O17  1  0.479899  0.596587  0.528092  1
  O  O18  1  0.432985  0.167262  0.544677  1
  O  O19  1  0.479727  0.875453  0.596444  1
  O  O20  1  0.933090  0.455270  0.712097  1
  O  O21  1  0.021093  0.161179  0.770942  1
  O  O22  1  0.933056  0.712060  0.832723  1
  O  O23  1  0.520978  0.932210  0.838781  1
  O  O24  1  0.479941  0.528093  0.875332  1
  O  O25  1  0.521175  0.229092  0.931912  1
