# generated using pymatgen
data_Tb2Yb2As6Rh7
_symmetry_space_group_name_H-M   'P 1'
_cell_length_a   7.28927719
_cell_length_b   7.27414326
_cell_length_c   7.27414360
_cell_angle_alpha   109.35727595
_cell_angle_beta   109.48604191
_cell_angle_gamma   109.48603997
_symmetry_Int_Tables_number   1
_chemical_formula_structural   Tb2Yb2As6Rh7
_chemical_formula_sum   'Tb2 Yb2 As6 Rh7'
_cell_volume   297.21914184
_cell_formula_units_Z   1
loop_
 _symmetry_equiv_pos_site_id
 _symmetry_equiv_pos_as_xyz
  1  'x, y, z'
loop_
 _atom_site_type_symbol
 _atom_site_label
 _atom_site_symmetry_multiplicity
 _atom_site_fract_x
 _atom_site_fract_y
 _atom_site_fract_z
 _atom_site_occupancy
  Tb  Tb0  1  0.000000  0.500000  0.000000  1
  Tb  Tb1  1  0.000000  0.000000  0.500000  1
  Yb  Yb2  1  0.500000  0.500000  0.500000  1
  Yb  Yb3  1  0.500000  0.000000  0.000000  1
  As  As4  1  0.677324  0.997732  0.679592  1
  As  As5  1  0.677324  0.679592  0.997732  1
  As  As6  1  0.322676  0.320408  0.002268  1
  As  As7  1  0.000000  0.679502  0.679502  1
  As  As8  1  0.000000  0.320498  0.320498  1
  As  As9  1  0.322676  0.002268  0.320408  1
  Rh  Rh10  1  0.500000  0.750000  0.250000  1
  Rh  Rh11  1  0.749985  0.249959  0.500026  1
  Rh  Rh12  1  0.250015  0.750041  0.499974  1
  Rh  Rh13  1  0.250015  0.499974  0.750041  1
  Rh  Rh14  1  0.000000  0.000000  0.000000  1
  Rh  Rh15  1  0.500000  0.250000  0.750000  1
  Rh  Rh16  1  0.749985  0.500026  0.249959  1
