# generated using pymatgen
data_Li2V9MoAs8
_symmetry_space_group_name_H-M   'P 1'
_cell_length_a   9.55371400
_cell_length_b   9.55371400
_cell_length_c   3.31304000
_cell_angle_alpha   90.00000000
_cell_angle_beta   90.00000000
_cell_angle_gamma   90.00000000
_symmetry_Int_Tables_number   1
_chemical_formula_structural   Li2V9MoAs8
_chemical_formula_sum   'Li2 V9 Mo1 As8'
_cell_volume   302.39259474
_cell_formula_units_Z   1
loop_
 _symmetry_equiv_pos_site_id
 _symmetry_equiv_pos_as_xyz
  1  'x, y, z'
loop_
 _atom_site_type_symbol
 _atom_site_label
 _atom_site_symmetry_multiplicity
 _atom_site_fract_x
 _atom_site_fract_y
 _atom_site_fract_z
 _atom_site_occupancy
  Li  Li0  1  0.500000  0.000000  0.500000  1
  Li  Li1  1  0.000000  0.500000  0.500000  1
  V  V2  1  0.187288  0.127436  0.500000  1
  V  V3  1  0.127436  0.812712  0.500000  1
  V  V4  1  0.872564  0.187288  0.500000  1
  V  V5  1  0.812712  0.872564  0.500000  1
  V  V6  1  0.298718  0.388711  0.000000  1
  V  V7  1  0.388711  0.701282  0.000000  1
  V  V8  1  0.611289  0.298718  0.000000  1
  V  V9  1  0.701282  0.611289  0.000000  1
  V  V10  1  0.500000  0.500000  0.500000  1
  Mo  Mo11  1  0.000000  0.000000  0.000000  1
  As  As12  1  0.422983  0.239869  0.500000  1
  As  As13  1  0.239869  0.577017  0.500000  1
  As  As14  1  0.760131  0.422983  0.500000  1
  As  As15  1  0.577017  0.760131  0.500000  1
  As  As16  1  0.053467  0.280042  0.000000  1
  As  As17  1  0.280042  0.946533  0.000000  1
  As  As18  1  0.719958  0.053467  0.000000  1
  As  As19  1  0.946533  0.719958  0.000000  1
