# generated using pymatgen
data_Dy2Th4Al19Si5Os8
_symmetry_space_group_name_H-M   'P 1'
_cell_length_a   8.83191817
_cell_length_b   8.81521220
_cell_length_c   9.56937000
_cell_angle_alpha   90.00000000
_cell_angle_beta   90.00000000
_cell_angle_gamma   119.95151599
_symmetry_Int_Tables_number   1
_chemical_formula_structural   Dy2Th4Al19Si5Os8
_chemical_formula_sum   'Dy2 Th4 Al19 Si5 Os8'
_cell_volume   645.52602585
_cell_formula_units_Z   1
loop_
 _symmetry_equiv_pos_site_id
 _symmetry_equiv_pos_as_xyz
  1  'x, y, z'
loop_
 _atom_site_type_symbol
 _atom_site_label
 _atom_site_symmetry_multiplicity
 _atom_site_fract_x
 _atom_site_fract_y
 _atom_site_fract_z
 _atom_site_occupancy
  Dy  Dy0  1  0.199113  0.803768  0.250000  1
  Dy  Dy1  1  0.803072  0.196811  0.750000  1
  Th  Th2  1  0.192947  0.384825  0.250000  1
  Th  Th3  1  0.807964  0.616948  0.750000  1
  Th  Th4  1  0.613798  0.807396  0.250000  1
  Th  Th5  1  0.384732  0.193493  0.750000  1
  Al  Al6  1  0.162127  0.326746  0.578740  1
  Al  Al7  1  0.837462  0.672537  0.420794  1
  Al  Al8  1  0.673251  0.838138  0.577746  1
  Al  Al9  1  0.837462  0.672537  0.079206  1
  Al  Al10  1  0.326184  0.162533  0.421329  1
  Al  Al11  1  0.162127  0.326746  0.921260  1
  Al  Al12  1  0.165036  0.835683  0.574729  1
  Al  Al13  1  0.326184  0.162533  0.078671  1
  Al  Al14  1  0.836676  0.165304  0.424291  1
  Al  Al15  1  0.673251  0.838138  0.922254  1
  Al  Al16  1  0.836676  0.165304  0.075709  1
  Al  Al17  1  0.165036  0.835683  0.925271  1
  Al  Al18  1  0.436596  0.872857  0.750000  1
  Al  Al19  1  0.870634  0.432632  0.250000  1
  Al  Al20  1  0.129018  0.564587  0.750000  1
  Al  Al21  1  0.563706  0.429375  0.250000  1
  Al  Al22  1  0.433715  0.566987  0.750000  1
  Al  Al23  1  0.004767  0.994202  0.250000  1
  Al  Al24  1  0.995355  0.006553  0.750000  1
  Si  Si25  1  0.330577  0.667827  0.029509  1
  Si  Si26  1  0.669816  0.332826  0.968345  1
  Si  Si27  1  0.669816  0.332826  0.531655  1
  Si  Si28  1  0.330577  0.667827  0.470491  1
  Si  Si29  1  0.562712  0.127379  0.250000  1
  Os  Os30  1  0.500845  0.001569  0.005975  1
  Os  Os31  1  0.998883  0.499155  0.000420  1
  Os  Os32  1  0.500845  0.001569  0.494025  1
  Os  Os33  1  0.500271  0.499038  0.000491  1
  Os  Os34  1  0.998883  0.499155  0.499580  1
  Os  Os35  1  0.500271  0.499038  0.499509  1
  Os  Os36  1  0.999810  0.999735  0.999961  1
  Os  Os37  1  0.999810  0.999735  0.500039  1
