# generated using pymatgen
data_Th10Tl3Bi3S2
_symmetry_space_group_name_H-M   'P 1'
_cell_length_a   9.54432700
_cell_length_b   9.54432756
_cell_length_c   6.67093300
_cell_angle_alpha   90.00000000
_cell_angle_beta   90.00000000
_cell_angle_gamma   120.00000153
_symmetry_Int_Tables_number   1
_chemical_formula_structural   Th10Tl3Bi3S2
_chemical_formula_sum   'Th10 Tl3 Bi3 S2'
_cell_volume   526.26907438
_cell_formula_units_Z   1
loop_
 _symmetry_equiv_pos_site_id
 _symmetry_equiv_pos_as_xyz
  1  'x, y, z'
loop_
 _atom_site_type_symbol
 _atom_site_label
 _atom_site_symmetry_multiplicity
 _atom_site_fract_x
 _atom_site_fract_y
 _atom_site_fract_z
 _atom_site_occupancy
  Th  Th0  1  0.751193  0.751193  0.750000  1
  Th  Th1  1  0.248807  0.000000  0.750000  1
  Th  Th2  1  0.000000  0.248807  0.750000  1
  Th  Th3  1  0.247696  0.247696  0.250000  1
  Th  Th4  1  0.752304  0.000000  0.250000  1
  Th  Th5  1  0.000000  0.752304  0.250000  1
  Th  Th6  1  0.666667  0.333333  0.003080  1
  Th  Th7  1  0.333333  0.666667  0.003080  1
  Th  Th8  1  0.333333  0.666667  0.496920  1
  Th  Th9  1  0.666667  0.333333  0.496920  1
  Tl  Tl10  1  0.607637  0.607637  0.250000  1
  Tl  Tl11  1  0.392363  0.000000  0.250000  1
  Tl  Tl12  1  0.000000  0.392363  0.250000  1
  Bi  Bi13  1  0.394914  0.394914  0.750000  1
  Bi  Bi14  1  0.605086  0.000000  0.750000  1
  Bi  Bi15  1  0.000000  0.605086  0.750000  1
  S  S16  1  0.000000  0.000000  0.999836  1
  S  S17  1  0.000000  0.000000  0.500164  1
