# generated using pymatgen
data_TmScSb5
_symmetry_space_group_name_H-M   'P 1'
_cell_length_a   4.19238800
_cell_length_b   12.99043435
_cell_length_c   14.18551400
_cell_angle_alpha   78.83861331
_cell_angle_beta   90.00000000
_cell_angle_gamma   90.00000000
_symmetry_Int_Tables_number   1
_chemical_formula_structural   TmScSb5
_chemical_formula_sum   'Tm4 Sc4 Sb20'
_cell_volume   757.94418038
_cell_formula_units_Z   4
loop_
 _symmetry_equiv_pos_site_id
 _symmetry_equiv_pos_as_xyz
  1  'x, y, z'
loop_
 _atom_site_type_symbol
 _atom_site_label
 _atom_site_symmetry_multiplicity
 _atom_site_fract_x
 _atom_site_fract_y
 _atom_site_fract_z
 _atom_site_occupancy
  Tm  Tm0  1  0.250000  0.669469  0.576333  1
  Tm  Tm1  1  0.750000  0.330531  0.423667  1
  Tm  Tm2  1  0.250000  0.953665  0.355405  1
  Tm  Tm3  1  0.750000  0.046335  0.644595  1
  Sc  Sc4  1  0.250000  0.396963  0.772300  1
  Sc  Sc5  1  0.750000  0.603037  0.227700  1
  Sc  Sc6  1  0.250000  0.657514  0.858502  1
  Sc  Sc7  1  0.750000  0.342486  0.141498  1
  Sb  Sb8  1  0.250000  0.147032  0.779517  1
  Sb  Sb9  1  0.750000  0.852968  0.220483  1
  Sb  Sb10  1  0.250000  0.142989  0.483845  1
  Sb  Sb11  1  0.750000  0.857011  0.516155  1
  Sb  Sb12  1  0.250000  0.162810  0.161317  1
  Sb  Sb13  1  0.750000  0.837190  0.838683  1
  Sb  Sb14  1  0.250000  0.422225  0.975049  1
  Sb  Sb15  1  0.750000  0.577775  0.024951  1
  Sb  Sb16  1  0.750000  0.028545  0.913911  1
  Sb  Sb17  1  0.250000  0.971455  0.086089  1
  Sb  Sb18  1  0.750000  0.142204  0.316591  1
  Sb  Sb19  1  0.250000  0.857796  0.683409  1
  Sb  Sb20  1  0.750000  0.279546  0.936341  1
  Sb  Sb21  1  0.250000  0.720454  0.063659  1
  Sb  Sb22  1  0.750000  0.288787  0.658502  1
  Sb  Sb23  1  0.250000  0.711213  0.341498  1
  Sb  Sb24  1  0.750000  0.573839  0.740355  1
  Sb  Sb25  1  0.250000  0.426161  0.259645  1
  Sb  Sb26  1  0.750000  0.570121  0.444362  1
  Sb  Sb27  1  0.250000  0.429879  0.555638  1
