# generated using pymatgen
data_Na3RhO4
_symmetry_space_group_name_H-M   'P 1'
_cell_length_a   8.55166210
_cell_length_b   8.55166179
_cell_length_c   5.74866749
_cell_angle_alpha   77.13132693
_cell_angle_beta   77.13132479
_cell_angle_gamma   98.50998996
_symmetry_Int_Tables_number   1
_chemical_formula_structural   Na3RhO4
_chemical_formula_sum   'Na12 Rh4 O16'
_cell_volume   390.82208898
_cell_formula_units_Z   4
loop_
 _symmetry_equiv_pos_site_id
 _symmetry_equiv_pos_as_xyz
  1  'x, y, z'
loop_
 _atom_site_type_symbol
 _atom_site_label
 _atom_site_symmetry_multiplicity
 _atom_site_fract_x
 _atom_site_fract_y
 _atom_site_fract_z
 _atom_site_occupancy
  Na  Na0  1  0.500000  0.000000  0.000000  1
  Na  Na1  1  0.258115  0.741885  0.500000  1
  Na  Na2  1  0.741885  0.258115  0.500000  1
  Na  Na3  1  0.000000  0.000000  0.500000  1
  Na  Na4  1  0.370766  0.119681  0.482362  1
  Na  Na5  1  0.880319  0.629234  0.517638  1
  Na  Na6  1  0.629234  0.880319  0.517638  1
  Na  Na7  1  0.119681  0.370766  0.482362  1
  Na  Na8  1  0.624252  0.375748  0.000000  1
  Na  Na9  1  0.000000  0.500000  0.000000  1
  Na  Na10  1  0.375748  0.624252  0.000000  1
  Na  Na11  1  0.500000  0.500000  0.500000  1
  Rh  Rh12  1  0.748127  0.748127  0.022252  1
  Rh  Rh13  1  0.251873  0.251873  0.977748  1
  Rh  Rh14  1  0.125959  0.874041  0.000000  1
  Rh  Rh15  1  0.874041  0.125959  0.000000  1
  O  O16  1  0.537240  0.752914  0.233771  1
  O  O17  1  0.247086  0.462760  0.766229  1
  O  O18  1  0.462760  0.247086  0.766229  1
  O  O19  1  0.752914  0.537240  0.233771  1
  O  O20  1  0.233600  0.013130  0.186503  1
  O  O21  1  0.986870  0.766400  0.813497  1
  O  O22  1  0.766400  0.986870  0.813497  1
  O  O23  1  0.013130  0.233600  0.186503  1
  O  O24  1  0.345391  0.345391  0.204229  1
  O  O25  1  0.654609  0.654609  0.795771  1
  O  O26  1  0.332644  0.875013  0.773970  1
  O  O27  1  0.124987  0.667356  0.226030  1
  O  O28  1  0.667356  0.124987  0.226030  1
  O  O29  1  0.111871  0.111871  0.802004  1
  O  O30  1  0.888129  0.888129  0.197996  1
  O  O31  1  0.875013  0.332644  0.773970  1
