# generated using pymatgen
data_TbEr7(Si4W3)4
_symmetry_space_group_name_H-M   'P 1'
_cell_length_a   6.75056239
_cell_length_b   6.91925778
_cell_length_c   12.87263031
_cell_angle_alpha   89.96880448
_cell_angle_beta   90.00290577
_cell_angle_gamma   89.97771558
_symmetry_Int_Tables_number   1
_chemical_formula_structural   TbEr7(Si4W3)4
_chemical_formula_sum   'Tb1 Er7 Si16 W12'
_cell_volume   601.26602591
_cell_formula_units_Z   1
loop_
 _symmetry_equiv_pos_site_id
 _symmetry_equiv_pos_as_xyz
  1  'x, y, z'
loop_
 _atom_site_type_symbol
 _atom_site_label
 _atom_site_symmetry_multiplicity
 _atom_site_fract_x
 _atom_site_fract_y
 _atom_site_fract_z
 _atom_site_occupancy
  Tb  Tb0  1  0.995548  0.832173  0.592809  1
  Er  Er1  1  0.495134  0.667899  0.593266  1
  Er  Er2  1  0.995381  0.831965  0.906728  1
  Er  Er3  1  0.504980  0.331880  0.093404  1
  Er  Er4  1  0.004911  0.168335  0.406454  1
  Er  Er5  1  0.504792  0.332175  0.406705  1
  Er  Er6  1  0.004701  0.168141  0.093355  1
  Er  Er7  1  0.495194  0.668084  0.906832  1
  Si  Si8  1  0.661917  0.958607  0.452929  1
  Si  Si9  1  0.162544  0.541546  0.046788  1
  Si  Si10  1  0.337812  0.041731  0.953354  1
  Si  Si11  1  0.837118  0.457069  0.546586  1
  Si  Si12  1  0.338679  0.042237  0.546494  1
  Si  Si13  1  0.837619  0.458480  0.953305  1
  Si  Si14  1  0.662336  0.958253  0.046889  1
  Si  Si15  1  0.162546  0.541300  0.452838  1
  Si  Si16  1  0.463903  0.371720  0.750349  1
  Si  Si17  1  0.963960  0.128938  0.750163  1
  Si  Si18  1  0.535741  0.628418  0.249732  1
  Si  Si19  1  0.035786  0.871664  0.250076  1
  Si  Si20  1  0.696668  0.865270  0.750344  1
  Si  Si21  1  0.197652  0.634023  0.750359  1
  Si  Si22  1  0.302890  0.134932  0.249983  1
  Si  Si23  1  0.802651  0.365182  0.249949  1
  W  W24  1  0.667426  0.163821  0.625704  1
  W  W25  1  0.168068  0.336410  0.874758  1
  W  W26  1  0.331506  0.836683  0.125230  1
  W  W27  1  0.831363  0.663055  0.374494  1
  W  W28  1  0.332124  0.836464  0.374374  1
  W  W29  1  0.831983  0.663394  0.125390  1
  W  W30  1  0.668481  0.163359  0.874952  1
  W  W31  1  0.168414  0.336619  0.625235  1
  W  W32  1  0.833486  0.500199  0.750119  1
  W  W33  1  0.333698  0.999836  0.750077  1
  W  W34  1  0.166430  0.499516  0.249918  1
  W  W35  1  0.666559  0.000623  0.250058  1
