# generated using pymatgen
data_Fe4Ir7PdO24
_symmetry_space_group_name_H-M   'P 1'
_cell_length_a   4.57450548
_cell_length_b   9.14697596
_cell_length_c   9.41890100
_cell_angle_alpha   90.00000000
_cell_angle_beta   90.00000000
_cell_angle_gamma   89.90776174
_symmetry_Int_Tables_number   1
_chemical_formula_structural   Fe4Ir7PdO24
_chemical_formula_sum   'Fe4 Ir7 Pd1 O24'
_cell_volume   394.11354365
_cell_formula_units_Z   1
loop_
 _symmetry_equiv_pos_site_id
 _symmetry_equiv_pos_as_xyz
  1  'x, y, z'
loop_
 _atom_site_type_symbol
 _atom_site_label
 _atom_site_symmetry_multiplicity
 _atom_site_fract_x
 _atom_site_fract_y
 _atom_site_fract_z
 _atom_site_occupancy
  Fe  Fe0  1  0.000000  0.500000  0.999311  1
  Fe  Fe1  1  0.500413  0.751212  0.499567  1
  Fe  Fe2  1  0.000000  0.000000  0.001325  1
  Fe  Fe3  1  0.499587  0.248788  0.499567  1
  Ir  Ir4  1  0.000000  0.500000  0.331408  1
  Ir  Ir5  1  0.500264  0.249927  0.831657  1
  Ir  Ir6  1  0.499736  0.750073  0.831657  1
  Ir  Ir7  1  0.500748  0.250115  0.168589  1
  Ir  Ir8  1  0.499252  0.749885  0.168589  1
  Ir  Ir9  1  0.000000  0.000000  0.668258  1
  Ir  Ir10  1  0.000000  0.500000  0.668172  1
  Pd  Pd11  1  0.000000  0.000000  0.331469  1
  O  O12  1  0.310178  0.155740  0.999401  1
  O  O13  1  0.310461  0.654252  0.999516  1
  O  O14  1  0.190120  0.405977  0.500119  1
  O  O15  1  0.191697  0.902868  0.504616  1
  O  O16  1  0.808303  0.097132  0.504616  1
  O  O17  1  0.809880  0.594023  0.500119  1
  O  O18  1  0.689539  0.345748  0.999516  1
  O  O19  1  0.689822  0.844260  0.999401  1
  O  O20  1  0.311544  0.156059  0.333538  1
  O  O21  1  0.303098  0.651339  0.333098  1
  O  O22  1  0.196673  0.401900  0.833049  1
  O  O23  1  0.195920  0.901840  0.833172  1
  O  O24  1  0.804080  0.098160  0.833172  1
  O  O25  1  0.803327  0.598100  0.833049  1
  O  O26  1  0.799169  0.100088  0.162243  1
  O  O27  1  0.803706  0.598782  0.166766  1
  O  O28  1  0.196294  0.401218  0.166766  1
  O  O29  1  0.200831  0.899912  0.162243  1
  O  O30  1  0.696902  0.348661  0.333098  1
  O  O31  1  0.688456  0.843941  0.333538  1
  O  O32  1  0.302036  0.151577  0.667578  1
  O  O33  1  0.304060  0.651530  0.667119  1
  O  O34  1  0.695940  0.348470  0.667119  1
  O  O35  1  0.697964  0.848423  0.667578  1
