# generated using pymatgen
data_Y4Zn2Ru5W
_symmetry_space_group_name_H-M   'P 1'
_cell_length_a   5.54928900
_cell_length_b   5.18807830
_cell_length_c   8.94425900
_cell_angle_alpha   90.00000000
_cell_angle_beta   90.00000000
_cell_angle_gamma   121.09879593
_symmetry_Int_Tables_number   1
_chemical_formula_structural   Y4Zn2Ru5W
_chemical_formula_sum   'Y4 Zn2 Ru5 W1'
_cell_volume   220.49715342
_cell_formula_units_Z   1
loop_
 _symmetry_equiv_pos_site_id
 _symmetry_equiv_pos_as_xyz
  1  'x, y, z'
loop_
 _atom_site_type_symbol
 _atom_site_label
 _atom_site_symmetry_multiplicity
 _atom_site_fract_x
 _atom_site_fract_y
 _atom_site_fract_z
 _atom_site_occupancy
  Y  Y0  1  0.676388  0.346613  0.565214  1
  Y  Y1  1  0.338297  0.670232  0.439264  1
  Y  Y2  1  0.338297  0.670232  0.060736  1
  Y  Y3  1  0.676388  0.346613  0.934786  1
  Zn  Zn4  1  0.815105  0.654991  0.250000  1
  Zn  Zn5  1  0.820643  0.163052  0.250000  1
  Ru  Ru6  1  0.022926  0.024422  0.497133  1
  Ru  Ru7  1  0.022926  0.024422  0.002867  1
  Ru  Ru8  1  0.170611  0.818470  0.750000  1
  Ru  Ru9  1  0.645318  0.815501  0.750000  1
  Ru  Ru10  1  0.318580  0.153444  0.250000  1
  W  W11  1  0.154523  0.312009  0.750000  1
