# generated using pymatgen
data_Yb2Al16RePt8
_symmetry_space_group_name_H-M   'P 1'
_cell_length_a   11.23257985
_cell_length_b   11.23258048
_cell_length_c   11.23258006
_cell_angle_alpha   158.74921207
_cell_angle_beta   117.34001061
_cell_angle_gamma   66.96627706
_symmetry_Int_Tables_number   1
_chemical_formula_structural   Yb2Al16RePt8
_chemical_formula_sum   'Yb2 Al16 Re1 Pt8'
_cell_volume   453.30991025
_cell_formula_units_Z   1
loop_
 _symmetry_equiv_pos_site_id
 _symmetry_equiv_pos_as_xyz
  1  'x, y, z'
loop_
 _atom_site_type_symbol
 _atom_site_label
 _atom_site_symmetry_multiplicity
 _atom_site_fract_x
 _atom_site_fract_y
 _atom_site_fract_z
 _atom_site_occupancy
  Yb  Yb0  1  0.229826  0.230347  0.999479  1
  Yb  Yb1  1  0.769132  0.769653  0.999479  1
  Al  Al2  1  0.273229  0.391842  0.881388  1
  Al  Al3  1  0.087356  0.923162  0.164193  1
  Al  Al4  1  0.504777  0.201383  0.303395  1
  Al  Al5  1  0.241031  0.076838  0.164193  1
  Al  Al6  1  0.909956  0.416878  0.493078  1
  Al  Al7  1  0.724486  0.598465  0.126020  1
  Al  Al8  1  0.902734  0.209155  0.693579  1
  Al  Al9  1  0.484425  0.790845  0.693579  1
  Al  Al10  1  0.387758  0.000000  0.387758  1
  Al  Al11  1  0.629969  0.000000  0.629969  1
  Al  Al12  1  0.489546  0.608158  0.881388  1
  Al  Al13  1  0.102011  0.798617  0.303395  1
  Al  Al14  1  0.909693  0.087374  0.822320  1
  Al  Al15  1  0.734946  0.912626  0.822320  1
  Al  Al16  1  0.527555  0.401535  0.126020  1
  Al  Al17  1  0.076200  0.583122  0.493078  1
  Re  Re18  1  0.787305  0.500000  0.287305  1
  Pt  Pt19  1  0.022696  0.342862  0.679834  1
  Pt  Pt20  1  0.627315  0.123925  0.503390  1
  Pt  Pt21  1  0.251845  0.500000  0.751845  1
  Pt  Pt22  1  0.379464  0.876075  0.503390  1
  Pt  Pt23  1  0.984044  0.000000  0.984044  1
  Pt  Pt24  1  0.647746  0.334883  0.312863  1
  Pt  Pt25  1  0.336972  0.657138  0.679834  1
  Pt  Pt26  1  0.977980  0.665117  0.312863  1
