# generated using pymatgen
data_Tb9PaPt18
_symmetry_space_group_name_H-M   'P 1'
_cell_length_a   9.84302688
_cell_length_b   9.84302688
_cell_length_c   5.79109700
_cell_angle_alpha   90.00000000
_cell_angle_beta   90.00000000
_cell_angle_gamma   90.36479963
_symmetry_Int_Tables_number   1
_chemical_formula_structural   Tb9PaPt18
_chemical_formula_sum   'Tb9 Pa1 Pt18'
_cell_volume   561.06009192
_cell_formula_units_Z   1
loop_
 _symmetry_equiv_pos_site_id
 _symmetry_equiv_pos_as_xyz
  1  'x, y, z'
loop_
 _atom_site_type_symbol
 _atom_site_label
 _atom_site_symmetry_multiplicity
 _atom_site_fract_x
 _atom_site_fract_y
 _atom_site_fract_z
 _atom_site_occupancy
  Tb  Tb0  1  0.453277  0.809561  0.000000  1
  Tb  Tb1  1  0.546723  0.190439  0.000000  1
  Tb  Tb2  1  0.190439  0.546723  0.000000  1
  Tb  Tb3  1  0.809561  0.453277  0.000000  1
  Tb  Tb4  1  0.305899  0.046209  0.500000  1
  Tb  Tb5  1  0.694101  0.953791  0.500000  1
  Tb  Tb6  1  0.953791  0.694101  0.500000  1
  Tb  Tb7  1  0.046209  0.305899  0.500000  1
  Tb  Tb8  1  0.000000  0.000000  0.000000  1
  Pa  Pa9  1  0.500000  0.500000  0.500000  1
  Pt  Pt10  1  0.193105  0.806895  0.248845  1
  Pt  Pt11  1  0.806895  0.193105  0.751155  1
  Pt  Pt12  1  0.806895  0.193105  0.248845  1
  Pt  Pt13  1  0.193105  0.806895  0.751155  1
  Pt  Pt14  1  0.440147  0.775590  0.500000  1
  Pt  Pt15  1  0.559853  0.224410  0.500000  1
  Pt  Pt16  1  0.224410  0.559853  0.500000  1
  Pt  Pt17  1  0.775590  0.440147  0.500000  1
  Pt  Pt18  1  0.307740  0.307740  0.249931  1
  Pt  Pt19  1  0.692260  0.692260  0.750069  1
  Pt  Pt20  1  0.692260  0.692260  0.249931  1
  Pt  Pt21  1  0.307740  0.307740  0.750069  1
  Pt  Pt22  1  0.281424  0.058980  0.000000  1
  Pt  Pt23  1  0.718576  0.941020  0.000000  1
  Pt  Pt24  1  0.941020  0.718576  0.000000  1
  Pt  Pt25  1  0.058980  0.281424  0.000000  1
  Pt  Pt26  1  0.000000  0.000000  0.500000  1
  Pt  Pt27  1  0.500000  0.500000  0.000000  1
