# generated using pymatgen
data_La2Th2Zn9CdSn2
_symmetry_space_group_name_H-M   'P 1'
_cell_length_a   8.72359079
_cell_length_b   8.72359109
_cell_length_c   9.16286400
_cell_angle_alpha   90.00000000
_cell_angle_beta   90.00000000
_cell_angle_gamma   149.87115046
_symmetry_Int_Tables_number   1
_chemical_formula_structural   La2Th2Zn9CdSn2
_chemical_formula_sum   'La2 Th2 Zn9 Cd1 Sn2'
_cell_volume   350.00889275
_cell_formula_units_Z   1
loop_
 _symmetry_equiv_pos_site_id
 _symmetry_equiv_pos_as_xyz
  1  'x, y, z'
loop_
 _atom_site_type_symbol
 _atom_site_label
 _atom_site_symmetry_multiplicity
 _atom_site_fract_x
 _atom_site_fract_y
 _atom_site_fract_z
 _atom_site_occupancy
  La  La0  1  0.000764  0.999236  0.501649  1
  La  La1  1  0.000764  0.999236  0.998351  1
  Th  Th2  1  0.204499  0.795501  0.250000  1
  Th  Th3  1  0.793646  0.206354  0.750000  1
  Zn  Zn4  1  0.812393  0.187607  0.394069  1
  Zn  Zn5  1  0.185660  0.814340  0.608543  1
  Zn  Zn6  1  0.812393  0.187607  0.105931  1
  Zn  Zn7  1  0.185660  0.814340  0.891457  1
  Zn  Zn8  1  0.659699  0.340301  0.484700  1
  Zn  Zn9  1  0.338519  0.661481  0.523982  1
  Zn  Zn10  1  0.659699  0.340301  0.015300  1
  Zn  Zn11  1  0.338519  0.661481  0.976018  1
  Zn  Zn12  1  0.604744  0.395256  0.750000  1
  Cd  Cd13  1  0.397506  0.602494  0.250000  1
  Sn  Sn14  1  0.562165  0.437835  0.250000  1
  Sn  Sn15  1  0.443370  0.556630  0.750000  1
