# generated using pymatgen
data_SrNdTaCdO6
_symmetry_space_group_name_H-M   'P 1'
_cell_length_a   8.29740211
_cell_length_b   8.29740658
_cell_length_c   9.98829922
_cell_angle_alpha   66.86761840
_cell_angle_beta   66.86761860
_cell_angle_gamma   92.55158586
_symmetry_Int_Tables_number   1
_chemical_formula_structural   SrNdTaCdO6
_chemical_formula_sum   'Sr4 Nd4 Ta4 Cd4 O24'
_cell_volume   565.22570383
_cell_formula_units_Z   4
loop_
 _symmetry_equiv_pos_site_id
 _symmetry_equiv_pos_as_xyz
  1  'x, y, z'
loop_
 _atom_site_type_symbol
 _atom_site_label
 _atom_site_symmetry_multiplicity
 _atom_site_fract_x
 _atom_site_fract_y
 _atom_site_fract_z
 _atom_site_occupancy
  Sr  Sr0  1  0.394880  0.347806  0.247435  1
  Sr  Sr1  1  0.894879  0.847806  0.247434  1
  Sr  Sr2  1  0.097805  0.644879  0.747434  1
  Sr  Sr3  1  0.597805  0.144879  0.747435  1
  Nd  Nd4  1  0.420247  0.855775  0.243106  1
  Nd  Nd5  1  0.920246  0.355775  0.243106  1
  Nd  Nd6  1  0.105775  0.170247  0.743106  1
  Nd  Nd7  1  0.605775  0.670249  0.743107  1
  Ta  Ta8  1  0.749114  0.252699  0.999438  1
  Ta  Ta9  1  0.249114  0.752700  0.999438  1
  Ta  Ta10  1  0.002700  0.999115  0.499438  1
  Ta  Ta11  1  0.502700  0.499115  0.499439  1
  Cd  Cd12  1  0.997655  0.507037  0.497230  1
  Cd  Cd13  1  0.257037  0.247655  0.997231  1
  Cd  Cd14  1  0.497654  0.007037  0.497232  1
  Cd  Cd15  1  0.757038  0.747656  0.997230  1
  O  O16  1  0.343993  0.794880  0.769063  1
  O  O17  1  0.843995  0.294882  0.769063  1
  O  O18  1  0.544883  0.593995  0.269062  1
  O  O19  1  0.044880  0.093994  0.269063  1
  O  O20  1  0.754182  0.990905  0.064562  1
  O  O21  1  0.254180  0.490905  0.064564  1
  O  O22  1  0.240906  0.504182  0.564562  1
  O  O23  1  0.740904  0.004179  0.564565  1
  O  O24  1  0.567259  0.754947  0.455634  1
  O  O25  1  0.067258  0.254946  0.455635  1
  O  O26  1  0.004946  0.317259  0.955635  1
  O  O27  1  0.504947  0.817258  0.955633  1
  O  O28  1  0.489337  0.163888  0.056349  1
  O  O29  1  0.989336  0.663889  0.056349  1
  O  O30  1  0.913889  0.739336  0.556350  1
  O  O31  1  0.413889  0.239337  0.556349  1
  O  O32  1  0.256437  0.962698  0.437452  1
  O  O33  1  0.756437  0.462697  0.437452  1
  O  O34  1  0.712697  0.506436  0.937453  1
  O  O35  1  0.212699  0.006437  0.937452  1
  O  O36  1  0.969306  0.926957  0.729727  1
  O  O37  1  0.469304  0.426958  0.729727  1
  O  O38  1  0.176957  0.719305  0.229726  1
  O  O39  1  0.676956  0.219303  0.229727  1
