# generated using pymatgen
data_Ca13Nd(InN4)2
_symmetry_space_group_name_H-M   'P 1'
_cell_length_a   3.61174600
_cell_length_b   12.11490801
_cell_length_c   11.65497841
_cell_angle_alpha   90.01769894
_cell_angle_beta   90.00000000
_cell_angle_gamma   90.00000000
_symmetry_Int_Tables_number   1
_chemical_formula_structural   Ca13Nd(InN4)2
_chemical_formula_sum   'Ca13 Nd1 In2 N8'
_cell_volume   509.97486774
_cell_formula_units_Z   1
loop_
 _symmetry_equiv_pos_site_id
 _symmetry_equiv_pos_as_xyz
  1  'x, y, z'
loop_
 _atom_site_type_symbol
 _atom_site_label
 _atom_site_symmetry_multiplicity
 _atom_site_fract_x
 _atom_site_fract_y
 _atom_site_fract_z
 _atom_site_occupancy
  Ca  Ca0  1  0.500015  0.671205  0.239850  1
  Ca  Ca1  1  0.500015  0.328795  0.760150  1
  Ca  Ca2  1  0.500310  0.169522  0.265040  1
  Ca  Ca3  1  0.500310  0.830478  0.734960  1
  Ca  Ca4  1  0.500338  0.000000  0.500000  1
  Ca  Ca5  1  0.998993  0.929669  0.265612  1
  Ca  Ca6  1  0.998993  0.070331  0.734388  1
  Ca  Ca7  1  0.001808  0.425274  0.242511  1
  Ca  Ca8  1  0.001808  0.574726  0.757489  1
  Ca  Ca9  1  0.001666  0.766701  0.478795  1
  Ca  Ca10  1  0.001666  0.233299  0.521205  1
  Ca  Ca11  1  0.997490  0.258759  0.022993  1
  Ca  Ca12  1  0.997490  0.741241  0.977007  1
  Nd  Nd13  1  0.499593  0.500000  0.000000  1
  In  In14  1  0.535380  0.500000  0.500000  1
  In  In15  1  0.463149  0.000000  0.000000  1
  N  N16  1  0.999945  0.597919  0.123807  1
  N  N17  1  0.999945  0.402081  0.876193  1
  N  N18  1  0.000337  0.101895  0.370259  1
  N  N19  1  0.000337  0.898105  0.629741  1
  N  N20  1  0.500136  0.831835  0.356694  1
  N  N21  1  0.500136  0.168165  0.643306  1
  N  N22  1  0.500069  0.335355  0.139370  1
  N  N23  1  0.500069  0.664645  0.860630  1
