# generated using pymatgen
data_Tb14Dy5InIr12
_symmetry_space_group_name_H-M   'P 1'
_cell_length_a   10.91194003
_cell_length_b   10.91177101
_cell_length_c   6.33637202
_cell_angle_alpha   90.00065620
_cell_angle_beta   89.99193980
_cell_angle_gamma   89.99627197
_symmetry_Int_Tables_number   1
_chemical_formula_structural   Tb14Dy5InIr12
_chemical_formula_sum   'Tb14 Dy5 In1 Ir12'
_cell_volume   754.46287802
_cell_formula_units_Z   1
loop_
 _symmetry_equiv_pos_site_id
 _symmetry_equiv_pos_as_xyz
  1  'x, y, z'
loop_
 _atom_site_type_symbol
 _atom_site_label
 _atom_site_symmetry_multiplicity
 _atom_site_fract_x
 _atom_site_fract_y
 _atom_site_fract_z
 _atom_site_occupancy
  Tb  Tb0  1  0.283847  0.085278  0.380551  1
  Tb  Tb1  1  0.290650  0.911380  0.880592  1
  Tb  Tb2  1  0.709317  0.088574  0.880696  1
  Tb  Tb3  1  0.716105  0.914776  0.380657  1
  Tb  Tb4  1  0.588456  0.791502  0.881941  1
  Tb  Tb5  1  0.588175  0.208232  0.378312  1
  Tb  Tb6  1  0.411770  0.791760  0.378336  1
  Tb  Tb7  1  0.411498  0.208488  0.881960  1
  Tb  Tb8  1  0.208134  0.411849  0.621682  1
  Tb  Tb9  1  0.208396  0.588401  0.118022  1
  Tb  Tb10  1  0.791619  0.411521  0.118065  1
  Tb  Tb11  1  0.791883  0.588217  0.621696  1
  Tb  Tb12  1  0.911513  0.709288  0.119349  1
  Tb  Tb13  1  0.914846  0.283904  0.619361  1
  Dy  Dy14  1  0.085158  0.715888  0.619198  1
  Dy  Dy15  1  0.088528  0.290949  0.119103  1
  Dy  Dy16  1  0.000066  0.000077  0.000052  1
  Dy  Dy17  1  0.499990  0.499979  0.000010  1
  Dy  Dy18  1  0.499994  0.500014  0.500029  1
  In  In19  1  0.000040  0.999910  0.500036  1
  Ir  Ir20  1  0.846201  0.155439  0.245706  1
  Ir  Ir21  1  0.844766  0.845970  0.754115  1
  Ir  Ir22  1  0.155291  0.154072  0.754600  1
  Ir  Ir23  1  0.153887  0.844530  0.246142  1
  Ir  Ir24  1  0.654268  0.346541  0.747300  1
  Ir  Ir25  1  0.653452  0.654281  0.252681  1
  Ir  Ir26  1  0.346360  0.345679  0.252624  1
  Ir  Ir27  1  0.345545  0.653520  0.747198  1
  Ir  Ir28  1  0.499996  0.999997  0.125843  1
  Ir  Ir29  1  0.499993  0.000004  0.621643  1
  Ir  Ir30  1  0.000129  0.499966  0.874148  1
  Ir  Ir31  1  0.000127  0.500015  0.378352  1
