# generated using pymatgen
data_CeEr7BePt24
_symmetry_space_group_name_H-M   'P 1'
_cell_length_a   8.26828638
_cell_length_b   8.26828576
_cell_length_c   8.26828600
_cell_angle_alpha   89.96686966
_cell_angle_beta   90.03312341
_cell_angle_gamma   90.03312177
_symmetry_Int_Tables_number   1
_chemical_formula_structural   CeEr7BePt24
_chemical_formula_sum   'Ce1 Er7 Be1 Pt24'
_cell_volume   565.25740613
_cell_formula_units_Z   1
loop_
 _symmetry_equiv_pos_site_id
 _symmetry_equiv_pos_as_xyz
  1  'x, y, z'
loop_
 _atom_site_type_symbol
 _atom_site_label
 _atom_site_symmetry_multiplicity
 _atom_site_fract_x
 _atom_site_fract_y
 _atom_site_fract_z
 _atom_site_occupancy
  Ce  Ce0  1  0.747043  0.252957  0.252957  1
  Er  Er1  1  0.250929  0.251239  0.251239  1
  Er  Er2  1  0.748607  0.748830  0.748830  1
  Er  Er3  1  0.748761  0.749071  0.251239  1
  Er  Er4  1  0.748761  0.251239  0.749071  1
  Er  Er5  1  0.251170  0.251393  0.748830  1
  Er  Er6  1  0.251170  0.748830  0.251393  1
  Er  Er7  1  0.251664  0.748336  0.748336  1
  Be  Be8  1  0.001378  0.998622  0.998622  1
  Pt  Pt9  1  0.254015  0.500053  0.999661  1
  Pt  Pt10  1  0.745950  0.500053  0.999967  1
  Pt  Pt11  1  0.000033  0.254050  0.500053  1
  Pt  Pt12  1  0.499947  0.254050  0.999967  1
  Pt  Pt13  1  0.000339  0.745985  0.500053  1
  Pt  Pt14  1  0.499947  0.745985  0.999661  1
  Pt  Pt15  1  0.499947  0.999967  0.254050  1
  Pt  Pt16  1  0.254015  0.999661  0.500053  1
  Pt  Pt17  1  0.499947  0.999661  0.745985  1
  Pt  Pt18  1  0.745950  0.999967  0.500053  1
  Pt  Pt19  1  0.000033  0.500053  0.254050  1
  Pt  Pt20  1  0.000339  0.500053  0.745985  1
  Pt  Pt21  1  0.250890  0.500225  0.500225  1
  Pt  Pt22  1  0.748745  0.500839  0.500839  1
  Pt  Pt23  1  0.499161  0.251255  0.500839  1
  Pt  Pt24  1  0.499775  0.749110  0.500225  1
  Pt  Pt25  1  0.499161  0.500839  0.251255  1
  Pt  Pt26  1  0.499775  0.500225  0.749110  1
  Pt  Pt27  1  0.268974  0.999641  0.999641  1
  Pt  Pt28  1  0.732120  0.999630  0.999630  1
  Pt  Pt29  1  0.000370  0.267880  0.999630  1
  Pt  Pt30  1  0.000359  0.731026  0.999641  1
  Pt  Pt31  1  0.000370  0.999630  0.267880  1
  Pt  Pt32  1  0.000359  0.999641  0.731026  1
