# generated using pymatgen
data_YbLuNbIr3
_symmetry_space_group_name_H-M   'P 1'
_cell_length_a   5.60345730
_cell_length_b   5.60345821
_cell_length_c   5.23434241
_cell_angle_alpha   57.63851494
_cell_angle_beta   57.63852014
_cell_angle_gamma   59.99999955
_symmetry_Int_Tables_number   1
_chemical_formula_structural   YbLuNbIr3
_chemical_formula_sum   'Yb1 Lu1 Nb1 Ir3'
_cell_volume   111.89176846
_cell_formula_units_Z   1
loop_
 _symmetry_equiv_pos_site_id
 _symmetry_equiv_pos_as_xyz
  1  'x, y, z'
loop_
 _atom_site_type_symbol
 _atom_site_label
 _atom_site_symmetry_multiplicity
 _atom_site_fract_x
 _atom_site_fract_y
 _atom_site_fract_z
 _atom_site_occupancy
  Yb  Yb0  1  0.749909  0.749909  0.750273  1
  Lu  Lu1  1  0.499137  0.499137  0.502589  1
  Nb  Nb2  1  0.125742  0.125742  0.622773  1
  Ir  Ir3  1  0.626055  0.124578  0.124788  1
  Ir  Ir4  1  0.124578  0.124578  0.124788  1
  Ir  Ir5  1  0.124578  0.626055  0.124788  1
