# generated using pymatgen
data_ZrScReW3
_symmetry_space_group_name_H-M   'P 1'
_cell_length_a   5.40287455
_cell_length_b   5.40287545
_cell_length_c   5.35940275
_cell_angle_alpha   59.73132289
_cell_angle_beta   59.73131104
_cell_angle_gamma   60.00000753
_symmetry_Int_Tables_number   1
_chemical_formula_structural   ZrScReW3
_chemical_formula_sum   'Zr1 Sc1 Re1 W3'
_cell_volume   110.17309239
_cell_formula_units_Z   1
loop_
 _symmetry_equiv_pos_site_id
 _symmetry_equiv_pos_as_xyz
  1  'x, y, z'
loop_
 _atom_site_type_symbol
 _atom_site_label
 _atom_site_symmetry_multiplicity
 _atom_site_fract_x
 _atom_site_fract_y
 _atom_site_fract_z
 _atom_site_occupancy
  Zr  Zr0  1  0.999040  0.999040  0.002881  1
  Sc  Sc1  1  0.250652  0.250652  0.248044  1
  Re  Re2  1  0.624792  0.624792  0.125624  1
  W  W3  1  0.624924  0.125669  0.624483  1
  W  W4  1  0.125669  0.624924  0.624483  1
  W  W5  1  0.624924  0.624924  0.624483  1
