# generated using pymatgen
data_NdY2SiPd5
_symmetry_space_group_name_H-M   'P 1'
_cell_length_a   8.31366524
_cell_length_b   8.31366471
_cell_length_c   8.31366425
_cell_angle_alpha   127.72857825
_cell_angle_beta   126.07002884
_cell_angle_gamma   78.42237880
_symmetry_Int_Tables_number   1
_chemical_formula_structural   NdY2SiPd5
_chemical_formula_sum   'Nd2 Y4 Si2 Pd10'
_cell_volume   355.72069619
_cell_formula_units_Z   2
loop_
 _symmetry_equiv_pos_site_id
 _symmetry_equiv_pos_as_xyz
  1  'x, y, z'
loop_
 _atom_site_type_symbol
 _atom_site_label
 _atom_site_symmetry_multiplicity
 _atom_site_fract_x
 _atom_site_fract_y
 _atom_site_fract_z
 _atom_site_occupancy
  Nd  Nd0  1  0.383595  0.250000  0.133595  1
  Nd  Nd1  1  0.616405  0.750000  0.866405  1
  Y  Y2  1  0.224542  0.449933  0.774610  1
  Y  Y3  1  0.775458  0.550067  0.225390  1
  Y  Y4  1  0.824677  0.050067  0.774610  1
  Y  Y5  1  0.175323  0.949933  0.225390  1
  Si  Si6  1  0.784011  0.250000  0.534011  1
  Si  Si7  1  0.215989  0.750000  0.465989  1
  Pd  Pd8  1  0.163865  0.401553  0.357043  1
  Pd  Pd9  1  0.836135  0.193178  0.237689  1
  Pd  Pd10  1  0.455489  0.098447  0.762311  1
  Pd  Pd11  1  0.544511  0.306822  0.642957  1
  Pd  Pd12  1  0.000000  0.500000  0.000000  1
  Pd  Pd13  1  0.000000  0.000000  0.500000  1
  Pd  Pd14  1  0.455489  0.693178  0.357043  1
  Pd  Pd15  1  0.544511  0.901553  0.237689  1
  Pd  Pd16  1  0.163865  0.806822  0.762311  1
  Pd  Pd17  1  0.836135  0.598447  0.642957  1
