# generated using pymatgen
data_Ho4Al18FePd5
_symmetry_space_group_name_H-M   'P 1'
_cell_length_a   7.58694300
_cell_length_b   7.58694319
_cell_length_c   9.44972835
_cell_angle_alpha   90.04819972
_cell_angle_beta   90.04820085
_cell_angle_gamma   119.59987758
_symmetry_Int_Tables_number   1
_chemical_formula_structural   Ho4Al18FePd5
_chemical_formula_sum   'Ho4 Al18 Fe1 Pd5'
_cell_volume   472.95514135
_cell_formula_units_Z   1
loop_
 _symmetry_equiv_pos_site_id
 _symmetry_equiv_pos_as_xyz
  1  'x, y, z'
loop_
 _atom_site_type_symbol
 _atom_site_label
 _atom_site_symmetry_multiplicity
 _atom_site_fract_x
 _atom_site_fract_y
 _atom_site_fract_z
 _atom_site_occupancy
  Ho  Ho0  1  0.994130  0.667846  0.248881  1
  Ho  Ho1  1  0.005870  0.332154  0.751119  1
  Ho  Ho2  1  0.667846  0.994130  0.248881  1
  Ho  Ho3  1  0.332154  0.005870  0.751119  1
  Al  Al4  1  0.122494  0.122494  0.241387  1
  Al  Al5  1  0.877506  0.877506  0.758613  1
  Al  Al6  1  0.998348  0.324019  0.073018  1
  Al  Al7  1  0.001652  0.675981  0.926982  1
  Al  Al8  1  0.999077  0.665842  0.578897  1
  Al  Al9  1  0.334158  0.000923  0.421103  1
  Al  Al10  1  0.000923  0.334158  0.421103  1
  Al  Al11  1  0.665842  0.999077  0.578897  1
  Al  Al12  1  0.675981  0.001652  0.926982  1
  Al  Al13  1  0.324019  0.998348  0.073018  1
  Al  Al14  1  0.334077  0.334077  0.559253  1
  Al  Al15  1  0.665923  0.665924  0.440747  1
  Al  Al16  1  0.677892  0.677893  0.052797  1
  Al  Al17  1  0.322108  0.322108  0.947203  1
  Al  Al18  1  0.339817  0.546281  0.248190  1
  Al  Al19  1  0.660183  0.453719  0.751810  1
  Al  Al20  1  0.546281  0.339817  0.248190  1
  Al  Al21  1  0.453719  0.660183  0.751810  1
  Fe  Fe22  1  0.000000  0.000000  0.000000  1
  Pd  Pd23  1  0.672777  0.327223  0.000000  1
  Pd  Pd24  1  0.327223  0.672777  0.000000  1
  Pd  Pd25  1  0.327846  0.672154  0.500000  1
  Pd  Pd26  1  0.672154  0.327846  0.500000  1
  Pd  Pd27  1  0.000000  0.000000  0.500000  1
