# generated using pymatgen
data_LaPrAl2(Cu2Si)2
_symmetry_space_group_name_H-M   'P 1'
_cell_length_a   4.17318300
_cell_length_b   4.17318300
_cell_length_c   10.18896200
_cell_angle_alpha   90.00000000
_cell_angle_beta   90.00000000
_cell_angle_gamma   90.00000000
_symmetry_Int_Tables_number   1
_chemical_formula_structural   LaPrAl2(Cu2Si)2
_chemical_formula_sum   'La1 Pr1 Al2 Cu4 Si2'
_cell_volume   177.44542298
_cell_formula_units_Z   1
loop_
 _symmetry_equiv_pos_site_id
 _symmetry_equiv_pos_as_xyz
  1  'x, y, z'
loop_
 _atom_site_type_symbol
 _atom_site_label
 _atom_site_symmetry_multiplicity
 _atom_site_fract_x
 _atom_site_fract_y
 _atom_site_fract_z
 _atom_site_occupancy
  La  La0  1  0.000000  0.500000  0.236809  1
  Pr  Pr1  1  0.500000  0.000000  0.763879  1
  Al  Al2  1  0.000000  0.000000  0.502034  1
  Al  Al3  1  0.500000  0.500000  0.502034  1
  Cu  Cu4  1  0.000000  0.000000  0.998067  1
  Cu  Cu5  1  0.500000  0.500000  0.998067  1
  Cu  Cu6  1  0.000000  0.500000  0.640602  1
  Cu  Cu7  1  0.500000  0.000000  0.361173  1
  Si  Si8  1  0.000000  0.500000  0.873230  1
  Si  Si9  1  0.500000  0.000000  0.124105  1
