# generated using pymatgen
data_Fe3CoP2
_symmetry_space_group_name_H-M   'P 1'
_cell_length_a   3.55451500
_cell_length_b   5.61755037
_cell_length_c   6.54486900
_cell_angle_alpha   90.35473031
_cell_angle_beta   90.00000000
_cell_angle_gamma   90.00000000
_symmetry_Int_Tables_number   1
_chemical_formula_structural   Fe3CoP2
_chemical_formula_sum   'Fe6 Co2 P4'
_cell_volume   130.68326047
_cell_formula_units_Z   2
loop_
 _symmetry_equiv_pos_site_id
 _symmetry_equiv_pos_as_xyz
  1  'x, y, z'
loop_
 _atom_site_type_symbol
 _atom_site_label
 _atom_site_symmetry_multiplicity
 _atom_site_fract_x
 _atom_site_fract_y
 _atom_site_fract_z
 _atom_site_occupancy
  Fe  Fe0  1  0.750000  0.029608  0.666934  1
  Fe  Fe1  1  0.250000  0.970392  0.333066  1
  Fe  Fe2  1  0.750000  0.528907  0.832851  1
  Fe  Fe3  1  0.250000  0.471093  0.167149  1
  Fe  Fe4  1  0.250000  0.356838  0.566242  1
  Fe  Fe5  1  0.750000  0.643162  0.433758  1
  Co  Co6  1  0.250000  0.857909  0.933737  1
  Co  Co7  1  0.750000  0.142091  0.066263  1
  P  P8  1  0.250000  0.745090  0.617790  1
  P  P9  1  0.750000  0.254910  0.382210  1
  P  P10  1  0.250000  0.245763  0.880214  1
  P  P11  1  0.750000  0.754237  0.119786  1
