# generated using pymatgen
data_Tb16InHg3Pd4
_symmetry_space_group_name_H-M   'P 1'
_cell_length_a   9.71489088
_cell_length_b   9.72972070
_cell_length_c   9.72972100
_cell_angle_alpha   60.00000237
_cell_angle_beta   59.94949317
_cell_angle_gamma   59.94949055
_symmetry_Int_Tables_number   1
_chemical_formula_structural   Tb16InHg3Pd4
_chemical_formula_sum   'Tb16 In1 Hg3 Pd4'
_cell_volume   649.81797639
_cell_formula_units_Z   1
loop_
 _symmetry_equiv_pos_site_id
 _symmetry_equiv_pos_as_xyz
  1  'x, y, z'
loop_
 _atom_site_type_symbol
 _atom_site_label
 _atom_site_symmetry_multiplicity
 _atom_site_fract_x
 _atom_site_fract_y
 _atom_site_fract_z
 _atom_site_occupancy
  Tb  Tb0  1  0.356167  0.355483  0.355483  1
  Tb  Tb1  1  0.356167  0.355483  0.932869  1
  Tb  Tb2  1  0.356167  0.932869  0.355483  1
  Tb  Tb3  1  0.929681  0.356773  0.356773  1
  Tb  Tb4  1  0.811479  0.188622  0.188622  1
  Tb  Tb5  1  0.188332  0.810904  0.810904  1
  Tb  Tb6  1  0.188332  0.810904  0.189860  1
  Tb  Tb7  1  0.811479  0.188622  0.811277  1
  Tb  Tb8  1  0.188332  0.189860  0.810904  1
  Tb  Tb9  1  0.811479  0.811277  0.188622  1
  Tb  Tb10  1  0.932053  0.565605  0.565605  1
  Tb  Tb11  1  0.563624  0.935344  0.935344  1
  Tb  Tb12  1  0.563624  0.935344  0.565688  1
  Tb  Tb13  1  0.932053  0.565605  0.936739  1
  Tb  Tb14  1  0.563624  0.565688  0.935344  1
  Tb  Tb15  1  0.932053  0.936739  0.565605  1
  In  In16  1  0.255438  0.581520  0.581520  1
  Hg  Hg17  1  0.587072  0.587713  0.587713  1
  Hg  Hg18  1  0.587072  0.587713  0.237501  1
  Hg  Hg19  1  0.587072  0.237501  0.587713  1
  Pd  Pd20  1  0.144807  0.145597  0.145597  1
  Pd  Pd21  1  0.144807  0.145597  0.563999  1
  Pd  Pd22  1  0.144807  0.563999  0.145597  1
  Pd  Pd23  1  0.564275  0.145242  0.145242  1
