# generated using pymatgen
data_Cs4Na2ScGaBi4
_symmetry_space_group_name_H-M   'P 1'
_cell_length_a   10.35723800
_cell_length_b   10.35723813
_cell_length_c   10.35734403
_cell_angle_alpha   138.56975809
_cell_angle_beta   136.87286873
_cell_angle_gamma   61.33970773
_symmetry_Int_Tables_number   1
_chemical_formula_structural   Cs4Na2ScGaBi4
_chemical_formula_sum   'Cs4 Na2 Sc1 Ga1 Bi4'
_cell_volume   496.95157738
_cell_formula_units_Z   1
loop_
 _symmetry_equiv_pos_site_id
 _symmetry_equiv_pos_as_xyz
  1  'x, y, z'
loop_
 _atom_site_type_symbol
 _atom_site_label
 _atom_site_symmetry_multiplicity
 _atom_site_fract_x
 _atom_site_fract_y
 _atom_site_fract_z
 _atom_site_occupancy
  Cs  Cs0  1  0.096836  0.331808  0.773356  1
  Cs  Cs1  1  0.441558  0.168191  0.265033  1
  Cs  Cs2  1  0.903158  0.676526  0.234967  1
  Cs  Cs3  1  0.558453  0.823481  0.726644  1
  Na  Na4  1  0.500000  0.750000  0.250000  1
  Na  Na5  1  0.499998  0.249998  0.750000  1
  Sc  Sc6  1  0.999990  0.249990  0.250000  1
  Ga  Ga7  1  0.999990  0.749990  0.750000  1
  Bi  Bi8  1  0.120432  0.901457  0.206392  1
  Bi  Bi9  1  0.879577  0.085961  0.781020  1
  Bi  Bi10  1  0.304941  0.598558  0.718980  1
  Bi  Bi11  1  0.695066  0.414041  0.293608  1
