# generated using pymatgen
data_La8Pr8CdHg3Pt4
_symmetry_space_group_name_H-M   'P 1'
_cell_length_a   10.10403837
_cell_length_b   10.12860127
_cell_length_c   10.15562001
_cell_angle_alpha   59.91184999
_cell_angle_beta   59.83586803
_cell_angle_gamma   60.16936127
_symmetry_Int_Tables_number   1
_chemical_formula_structural   La8Pr8CdHg3Pt4
_chemical_formula_sum   'La8 Pr8 Cd1 Hg3 Pt4'
_cell_volume   734.43862632
_cell_formula_units_Z   1
loop_
 _symmetry_equiv_pos_site_id
 _symmetry_equiv_pos_as_xyz
  1  'x, y, z'
loop_
 _atom_site_type_symbol
 _atom_site_label
 _atom_site_symmetry_multiplicity
 _atom_site_fract_x
 _atom_site_fract_y
 _atom_site_fract_z
 _atom_site_occupancy
  La  La0  1  0.350454  0.350027  0.350854  1
  La  La1  1  0.350455  0.350030  0.948663  1
  La  La2  1  0.353068  0.946680  0.350129  1
  La  La3  1  0.943546  0.353887  0.351287  1
  La  La4  1  0.807430  0.193287  0.192683  1
  La  La5  1  0.191276  0.808463  0.807771  1
  La  La6  1  0.191296  0.808439  0.192489  1
  La  La7  1  0.807400  0.193320  0.806586  1
  Pr  Pr8  1  0.192258  0.194036  0.806852  1
  Pr  Pr9  1  0.804873  0.805086  0.195018  1
  Pr  Pr10  1  0.936165  0.564512  0.566013  1
  Pr  Pr11  1  0.563315  0.936506  0.934108  1
  Pr  Pr12  1  0.563319  0.936507  0.566065  1
  Pr  Pr13  1  0.936167  0.564512  0.933309  1
  Pr  Pr14  1  0.563266  0.564513  0.936110  1
  Pr  Pr15  1  0.935416  0.934603  0.564989  1
  Cd  Cd16  1  0.260799  0.578799  0.580200  1
  Hg  Hg17  1  0.583509  0.586264  0.585516  1
  Hg  Hg18  1  0.583513  0.586261  0.244709  1
  Hg  Hg19  1  0.582256  0.244910  0.586418  1
  Pt  Pt20  1  0.141954  0.141938  0.145302  1
  Pt  Pt21  1  0.141948  0.141953  0.570809  1
  Pt  Pt22  1  0.144375  0.571413  0.142104  1
  Pt  Pt23  1  0.571945  0.144046  0.142011  1
