# generated using pymatgen
data_Ac2Ho3Sn4
_symmetry_space_group_name_H-M   'P 1'
_cell_length_a   8.33710700
_cell_length_b   8.39208500
_cell_length_c   16.11558300
_cell_angle_alpha   90.00000000
_cell_angle_beta   90.00000000
_cell_angle_gamma   90.00000000
_symmetry_Int_Tables_number   1
_chemical_formula_structural   Ac2Ho3Sn4
_chemical_formula_sum   'Ac8 Ho12 Sn16'
_cell_volume   1127.53821630
_cell_formula_units_Z   4
loop_
 _symmetry_equiv_pos_site_id
 _symmetry_equiv_pos_as_xyz
  1  'x, y, z'
loop_
 _atom_site_type_symbol
 _atom_site_label
 _atom_site_symmetry_multiplicity
 _atom_site_fract_x
 _atom_site_fract_y
 _atom_site_fract_z
 _atom_site_occupancy
  Ac  Ac0  1  0.519361  0.320329  0.903006  1
  Ac  Ac1  1  0.019361  0.179671  0.596994  1
  Ac  Ac2  1  0.480639  0.679671  0.403006  1
  Ac  Ac3  1  0.980639  0.820329  0.096994  1
  Ac  Ac4  1  0.480639  0.679671  0.096994  1
  Ac  Ac5  1  0.980639  0.820329  0.403006  1
  Ac  Ac6  1  0.519361  0.320329  0.596994  1
  Ac  Ac7  1  0.019361  0.179671  0.903006  1
  Ho  Ho8  1  0.367259  0.839242  0.878083  1
  Ho  Ho9  1  0.867259  0.660758  0.621917  1
  Ho  Ho10  1  0.632741  0.160758  0.378083  1
  Ho  Ho11  1  0.132741  0.339242  0.121917  1
  Ho  Ho12  1  0.632741  0.160758  0.121917  1
  Ho  Ho13  1  0.132741  0.339242  0.378083  1
  Ho  Ho14  1  0.367259  0.839242  0.621917  1
  Ho  Ho15  1  0.867259  0.660758  0.878083  1
  Ho  Ho16  1  0.200543  0.507927  0.750000  1
  Ho  Ho17  1  0.700543  0.992073  0.750000  1
  Ho  Ho18  1  0.799457  0.492073  0.250000  1
  Ho  Ho19  1  0.299457  0.007927  0.250000  1
  Sn  Sn20  1  0.300385  0.044134  0.044998  1
  Sn  Sn21  1  0.800385  0.455866  0.455002  1
  Sn  Sn22  1  0.699615  0.955866  0.544998  1
  Sn  Sn23  1  0.199615  0.544134  0.955002  1
  Sn  Sn24  1  0.699615  0.955866  0.955002  1
  Sn  Sn25  1  0.199615  0.544134  0.544998  1
  Sn  Sn26  1  0.300385  0.044134  0.455002  1
  Sn  Sn27  1  0.800385  0.455866  0.044998  1
  Sn  Sn28  1  0.566299  0.631640  0.750000  1
  Sn  Sn29  1  0.066299  0.868360  0.750000  1
  Sn  Sn30  1  0.433701  0.368360  0.250000  1
  Sn  Sn31  1  0.933701  0.131640  0.250000  1
  Sn  Sn32  1  0.326531  0.133383  0.750000  1
  Sn  Sn33  1  0.826531  0.366617  0.750000  1
  Sn  Sn34  1  0.673469  0.866617  0.250000  1
  Sn  Sn35  1  0.173469  0.633383  0.250000  1
