# generated using pymatgen
data_Lu3Pa7Mn6
_symmetry_space_group_name_H-M   'P 1'
_cell_length_a   6.55732200
_cell_length_b   7.63171210
_cell_length_c   7.63171100
_cell_angle_alpha   120.00000825
_cell_angle_beta   90.00000000
_cell_angle_gamma   90.00000000
_symmetry_Int_Tables_number   1
_chemical_formula_structural   Lu3Pa7Mn6
_chemical_formula_sum   'Lu3 Pa7 Mn6'
_cell_volume   330.75087393
_cell_formula_units_Z   1
loop_
 _symmetry_equiv_pos_site_id
 _symmetry_equiv_pos_as_xyz
  1  'x, y, z'
loop_
 _atom_site_type_symbol
 _atom_site_label
 _atom_site_symmetry_multiplicity
 _atom_site_fract_x
 _atom_site_fract_y
 _atom_site_fract_z
 _atom_site_occupancy
  Lu  Lu0  1  0.000000  0.666667  0.333333  1
  Lu  Lu1  1  0.000000  0.333333  0.666667  1
  Lu  Lu2  1  0.500000  0.333333  0.666667  1
  Pa  Pa3  1  0.500000  0.666667  0.333333  1
  Pa  Pa4  1  0.748710  0.764437  0.762532  1
  Pa  Pa5  1  0.251290  0.237468  0.235563  1
  Pa  Pa6  1  0.748710  0.998095  0.235563  1
  Pa  Pa7  1  0.251290  0.998095  0.762532  1
  Pa  Pa8  1  0.748710  0.237468  0.001905  1
  Pa  Pa9  1  0.251290  0.764437  0.001905  1
  Mn  Mn10  1  0.743674  0.362333  0.353936  1
  Mn  Mn11  1  0.256326  0.646064  0.637667  1
  Mn  Mn12  1  0.743674  0.991602  0.637667  1
  Mn  Mn13  1  0.256326  0.991602  0.353936  1
  Mn  Mn14  1  0.743674  0.646064  0.008398  1
  Mn  Mn15  1  0.256326  0.362333  0.008398  1
