# generated using pymatgen
data_La12Ni3PtI12
_symmetry_space_group_name_H-M   'P 1'
_cell_length_a   10.96931345
_cell_length_b   10.88174578
_cell_length_c   10.88174613
_cell_angle_alpha   109.30763603
_cell_angle_beta   109.63431931
_cell_angle_gamma   109.63431593
_symmetry_Int_Tables_number   1
_chemical_formula_structural   La12Ni3PtI12
_chemical_formula_sum   'La12 Ni3 Pt1 I12'
_cell_volume   997.87599754
_cell_formula_units_Z   1
loop_
 _symmetry_equiv_pos_site_id
 _symmetry_equiv_pos_as_xyz
  1  'x, y, z'
loop_
 _atom_site_type_symbol
 _atom_site_label
 _atom_site_symmetry_multiplicity
 _atom_site_fract_x
 _atom_site_fract_y
 _atom_site_fract_z
 _atom_site_occupancy
  La  La0  1  0.461617  0.479620  0.233612  1
  La  La1  1  0.750000  0.228883  0.271117  1
  La  La2  1  0.750000  0.021788  0.478212  1
  La  La3  1  0.228212  0.456423  0.478212  1
  La  La4  1  0.271993  0.753991  0.233612  1
  La  La5  1  0.038383  0.266388  0.020380  1
  La  La6  1  0.021117  0.042236  0.271117  1
  La  La7  1  0.481998  0.753991  0.020380  1
  La  La8  1  0.478883  0.228883  0.457764  1
  La  La9  1  0.018002  0.479620  0.746009  1
  La  La10  1  0.271788  0.021788  0.043577  1
  La  La11  1  0.228007  0.266388  0.746009  1
  Ni  Ni12  1  0.250000  0.250057  0.249943  1
  Ni  Ni13  1  0.499943  0.999887  0.249943  1
  Ni  Ni14  1  0.000057  0.250057  0.500113  1
  Pt  Pt15  1  0.250000  0.500000  0.000000  1
  I  I16  1  0.250000  0.761377  0.738623  1
  I  I17  1  0.520983  0.509331  0.759638  1
  I  I18  1  0.979017  0.740362  0.990669  1
  I  I19  1  0.738656  0.250308  0.759638  1
  I  I20  1  0.988623  0.977246  0.738623  1
  I  I21  1  0.250000  0.989188  0.510812  1
  I  I22  1  0.760812  0.521624  0.510812  1
  I  I23  1  0.511652  0.250308  0.990669  1
  I  I24  1  0.761344  0.740362  0.249692  1
  I  I25  1  0.739188  0.989188  0.978376  1
  I  I26  1  0.988348  0.509331  0.249692  1
  I  I27  1  0.511377  0.761377  0.522754  1
