# generated using pymatgen
data_Dy4Ho4B24Ir3Ru
_symmetry_space_group_name_H-M   'P 1'
_cell_length_a   3.64787300
_cell_length_b   9.18333717
_cell_length_c   11.51011022
_cell_angle_alpha   90.02232067
_cell_angle_beta   90.00000000
_cell_angle_gamma   90.00000000
_symmetry_Int_Tables_number   1
_chemical_formula_structural   Dy4Ho4B24Ir3Ru
_chemical_formula_sum   'Dy4 Ho4 B24 Ir3 Ru1'
_cell_volume   385.58460836
_cell_formula_units_Z   1
loop_
 _symmetry_equiv_pos_site_id
 _symmetry_equiv_pos_as_xyz
  1  'x, y, z'
loop_
 _atom_site_type_symbol
 _atom_site_label
 _atom_site_symmetry_multiplicity
 _atom_site_fract_x
 _atom_site_fract_y
 _atom_site_fract_z
 _atom_site_occupancy
  Dy  Dy0  1  0.000000  0.320943  0.413331  1
  Dy  Dy1  1  0.000000  0.680078  0.587941  1
  Dy  Dy2  1  0.000000  0.821197  0.085052  1
  Dy  Dy3  1  0.000000  0.177096  0.913004  1
  Ho  Ho4  1  0.000000  0.944099  0.373890  1
  Ho  Ho5  1  0.000000  0.054277  0.627035  1
  Ho  Ho6  1  0.000000  0.444146  0.125888  1
  Ho  Ho7  1  0.000000  0.557612  0.874091  1
  B  B8  1  0.500000  0.553967  0.434314  1
  B  B9  1  0.500000  0.446164  0.565913  1
  B  B10  1  0.500000  0.053607  0.065947  1
  B  B11  1  0.500000  0.945721  0.933319  1
  B  B12  1  0.500000  0.749648  0.420788  1
  B  B13  1  0.500000  0.250429  0.579357  1
  B  B14  1  0.500000  0.249278  0.079264  1
  B  B15  1  0.500000  0.751908  0.919768  1
  B  B16  1  0.500000  0.792754  0.265141  1
  B  B17  1  0.500000  0.207425  0.734234  1
  B  B18  1  0.500000  0.293158  0.234839  1
  B  B19  1  0.500000  0.708294  0.765983  1
  B  B20  1  0.500000  0.632078  0.184089  1
  B  B21  1  0.500000  0.368027  0.815824  1
  B  B22  1  0.500000  0.132507  0.315812  1
  B  B23  1  0.500000  0.868023  0.685286  1
  B  B24  1  0.500000  0.982210  0.213375  1
  B  B25  1  0.500000  0.016145  0.786479  1
  B  B26  1  0.500000  0.482375  0.286339  1
  B  B27  1  0.500000  0.517577  0.714015  1
  B  B28  1  0.500000  0.610229  0.030483  1
  B  B29  1  0.500000  0.389341  0.969855  1
  B  B30  1  0.500000  0.110327  0.469700  1
  B  B31  1  0.500000  0.889680  0.529905  1
  Ir  Ir32  1  0.000000  0.638200  0.321803  1
  Ir  Ir33  1  0.000000  0.361943  0.678636  1
  Ir  Ir34  1  0.000000  0.137794  0.178101  1
  Ru  Ru35  1  0.000000  0.861743  0.821200  1
