# generated using pymatgen
data_AlAs5(Pb3O10)2
_symmetry_space_group_name_H-M   'P 1'
_cell_length_a   7.35750400
_cell_length_b   7.35750400
_cell_length_c   10.80286600
_cell_angle_alpha   90.00000000
_cell_angle_beta   90.00000000
_cell_angle_gamma   90.00000000
_symmetry_Int_Tables_number   1
_chemical_formula_structural   AlAs5(Pb3O10)2
_chemical_formula_sum   'Al1 As5 Pb6 O20'
_cell_volume   584.79008798
_cell_formula_units_Z   1
loop_
 _symmetry_equiv_pos_site_id
 _symmetry_equiv_pos_as_xyz
  1  'x, y, z'
loop_
 _atom_site_type_symbol
 _atom_site_label
 _atom_site_symmetry_multiplicity
 _atom_site_fract_x
 _atom_site_fract_y
 _atom_site_fract_z
 _atom_site_occupancy
  Al  Al0  1  0.500000  0.500000  0.000000  1
  As  As1  1  0.689445  0.711728  0.231102  1
  As  As2  1  0.310555  0.288272  0.231102  1
  As  As3  1  0.288272  0.689445  0.768898  1
  As  As4  1  0.000000  0.000000  0.500000  1
  As  As5  1  0.711728  0.310555  0.768898  1
  Pb  Pb6  1  0.000000  0.500000  0.500339  1
  Pb  Pb7  1  0.199217  0.200935  0.789051  1
  Pb  Pb8  1  0.800783  0.799065  0.789051  1
  Pb  Pb9  1  0.500000  0.000000  0.499661  1
  Pb  Pb10  1  0.200935  0.800783  0.210949  1
  Pb  Pb11  1  0.799065  0.199217  0.210949  1
  O  O12  1  0.784117  0.518020  0.288483  1
  O  O13  1  0.683316  0.422939  0.910409  1
  O  O14  1  0.150830  0.858331  0.423183  1
  O  O15  1  0.518020  0.215883  0.711517  1
  O  O16  1  0.520254  0.800736  0.322290  1
  O  O17  1  0.140386  0.134088  0.201555  1
  O  O18  1  0.849170  0.141669  0.423183  1
  O  O19  1  0.141669  0.150830  0.576817  1
  O  O20  1  0.800736  0.479746  0.677710  1
  O  O21  1  0.215883  0.481980  0.288483  1
  O  O22  1  0.422939  0.316684  0.089591  1
  O  O23  1  0.577061  0.683316  0.089591  1
  O  O24  1  0.865912  0.140386  0.798445  1
  O  O25  1  0.479746  0.199264  0.322290  1
  O  O26  1  0.199264  0.520254  0.677710  1
  O  O27  1  0.859614  0.865912  0.201555  1
  O  O28  1  0.134088  0.859614  0.798445  1
  O  O29  1  0.316684  0.577061  0.910409  1
  O  O30  1  0.481980  0.784117  0.711517  1
  O  O31  1  0.858331  0.849170  0.576817  1
