# generated using pymatgen
data_Zr3Sc5Ta11Si16Rh
_symmetry_space_group_name_H-M   'P 1'
_cell_length_a   6.87429138
_cell_length_b   6.87894922
_cell_length_c   12.67980500
_cell_angle_alpha   90.14874207
_cell_angle_beta   89.88282110
_cell_angle_gamma   89.99443216
_symmetry_Int_Tables_number   1
_chemical_formula_structural   Zr3Sc5Ta11Si16Rh
_chemical_formula_sum   'Zr3 Sc5 Ta11 Si16 Rh1'
_cell_volume   599.59808944
_cell_formula_units_Z   1
loop_
 _symmetry_equiv_pos_site_id
 _symmetry_equiv_pos_as_xyz
  1  'x, y, z'
loop_
 _atom_site_type_symbol
 _atom_site_label
 _atom_site_symmetry_multiplicity
 _atom_site_fract_x
 _atom_site_fract_y
 _atom_site_fract_z
 _atom_site_occupancy
  Zr  Zr0  1  0.002484  0.658149  0.031423  1
  Zr  Zr1  1  0.843810  0.507481  0.282080  1
  Zr  Zr2  1  0.157782  0.498749  0.780302  1
  Sc  Sc3  1  0.498974  0.838601  0.718408  1
  Sc  Sc4  1  0.497259  0.160661  0.218978  1
  Sc  Sc5  1  0.001514  0.344732  0.531370  1
  Sc  Sc6  1  0.660391  0.999799  0.969988  1
  Sc  Sc7  1  0.339380  0.999234  0.470169  1
  Ta  Ta8  1  0.330238  0.331452  0.000165  1
  Ta  Ta9  1  0.173147  0.827578  0.249587  1
  Ta  Ta10  1  0.831550  0.169920  0.748546  1
  Ta  Ta11  1  0.672544  0.665422  0.499563  1
  Ta  Ta12  1  0.004548  0.152390  0.125909  1
  Ta  Ta13  1  0.347494  0.500181  0.377134  1
  Ta  Ta14  1  0.652664  0.494875  0.876236  1
  Ta  Ta15  1  0.509238  0.342845  0.623674  1
  Ta  Ta16  1  0.497460  0.654911  0.124799  1
  Ta  Ta17  1  0.998061  0.841762  0.629676  1
  Ta  Ta18  1  0.152800  0.004581  0.873777  1
  Si  Si19  1  0.302358  0.957435  0.063659  1
  Si  Si20  1  0.544568  0.801682  0.316563  1
  Si  Si21  1  0.458758  0.196549  0.813694  1
  Si  Si22  1  0.799146  0.543064  0.685879  1
  Si  Si23  1  0.205272  0.453422  0.187899  1
  Si  Si24  1  0.704188  0.035354  0.559680  1
  Si  Si25  1  0.953251  0.297203  0.936206  1
  Si  Si26  1  0.039935  0.713530  0.435963  1
  Si  Si27  1  0.706176  0.362050  0.073033  1
  Si  Si28  1  0.128140  0.198631  0.321903  1
  Si  Si29  1  0.858658  0.796133  0.822623  1
  Si  Si30  1  0.206487  0.136631  0.676183  1
  Si  Si31  1  0.797456  0.865699  0.179882  1
  Si  Si32  1  0.295626  0.633563  0.571204  1
  Si  Si33  1  0.364602  0.707154  0.927795  1
  Si  Si34  1  0.635879  0.291086  0.428000  1
  Rh  Rh35  1  0.828163  0.017492  0.368057  1
