# generated using pymatgen
data_YbRu2PbO7
_symmetry_space_group_name_H-M   'P 1'
_cell_length_a   7.27757687
_cell_length_b   7.27757614
_cell_length_c   7.24120800
_cell_angle_alpha   60.16517171
_cell_angle_beta   60.16517501
_cell_angle_gamma   60.63019904
_symmetry_Int_Tables_number   1
_chemical_formula_structural   YbRu2PbO7
_chemical_formula_sum   'Yb2 Ru4 Pb2 O14'
_cell_volume   273.14015470
_cell_formula_units_Z   2
loop_
 _symmetry_equiv_pos_site_id
 _symmetry_equiv_pos_as_xyz
  1  'x, y, z'
loop_
 _atom_site_type_symbol
 _atom_site_label
 _atom_site_symmetry_multiplicity
 _atom_site_fract_x
 _atom_site_fract_y
 _atom_site_fract_z
 _atom_site_occupancy
  Yb  Yb0  1  0.625000  0.125000  0.125000  1
  Yb  Yb1  1  0.125000  0.625000  0.125000  1
  Ru  Ru2  1  0.625000  0.625000  0.625000  1
  Ru  Ru3  1  0.125000  0.625000  0.625000  1
  Ru  Ru4  1  0.625000  0.625000  0.125000  1
  Ru  Ru5  1  0.625000  0.125000  0.625000  1
  Pb  Pb6  1  0.125000  0.125000  0.125000  1
  Pb  Pb7  1  0.125000  0.125000  0.625000  1
  O  O8  1  0.995746  0.995746  0.004254  1
  O  O9  1  0.254254  0.254254  0.245746  1
  O  O10  1  0.299847  0.299847  0.700153  1
  O  O11  1  0.552800  0.552800  0.947200  1
  O  O12  1  0.702346  0.300632  0.695527  1
  O  O13  1  0.702346  0.300632  0.301495  1
  O  O14  1  0.300632  0.702346  0.695527  1
  O  O15  1  0.300632  0.702346  0.301495  1
  O  O16  1  0.697200  0.697200  0.302800  1
  O  O17  1  0.949368  0.547654  0.554473  1
  O  O18  1  0.547654  0.949368  0.948505  1
  O  O19  1  0.950153  0.950153  0.549847  1
  O  O20  1  0.949368  0.547654  0.948505  1
  O  O21  1  0.547654  0.949368  0.554473  1
