# generated using pymatgen
data_Dy2Al20Os3Rh
_symmetry_space_group_name_H-M   'P 1'
_cell_length_a   6.86094639
_cell_length_b   6.85085678
_cell_length_c   9.15071598
_cell_angle_alpha   90.07208350
_cell_angle_beta   90.20621006
_cell_angle_gamma   96.65378630
_symmetry_Int_Tables_number   1
_chemical_formula_structural   Dy2Al20Os3Rh
_chemical_formula_sum   'Dy2 Al20 Os3 Rh1'
_cell_volume   427.21396717
_cell_formula_units_Z   1
loop_
 _symmetry_equiv_pos_site_id
 _symmetry_equiv_pos_as_xyz
  1  'x, y, z'
loop_
 _atom_site_type_symbol
 _atom_site_label
 _atom_site_symmetry_multiplicity
 _atom_site_fract_x
 _atom_site_fract_y
 _atom_site_fract_z
 _atom_site_occupancy
  Dy  Dy0  1  0.871151  0.131423  0.749374  1
  Dy  Dy1  1  0.128849  0.868577  0.250626  1
  Al  Al2  1  0.517363  0.780660  0.748087  1
  Al  Al3  1  0.782689  0.517229  0.249407  1
  Al  Al4  1  0.482637  0.219340  0.251913  1
  Al  Al5  1  0.217311  0.482771  0.750593  1
  Al  Al6  1  0.624259  0.378637  0.952530  1
  Al  Al7  1  0.375741  0.621363  0.047470  1
  Al  Al8  1  0.623651  0.376839  0.545800  1
  Al  Al9  1  0.376349  0.623161  0.454200  1
  Al  Al10  1  0.416590  0.148280  0.749849  1
  Al  Al11  1  0.147191  0.415447  0.250331  1
  Al  Al12  1  0.583410  0.851720  0.250151  1
  Al  Al13  1  0.852809  0.584553  0.749669  1
  Al  Al14  1  0.844662  0.154546  0.398489  1
  Al  Al15  1  0.155338  0.845454  0.601511  1
  Al  Al16  1  0.845723  0.155992  0.103081  1
  Al  Al17  1  0.154277  0.844008  0.896919  1
  Al  Al18  1  0.775347  0.774996  0.000381  1
  Al  Al19  1  0.776881  0.776498  0.499429  1
  Al  Al20  1  0.224653  0.225004  0.999619  1
  Al  Al21  1  0.223119  0.223502  0.500571  1
  Os  Os22  1  0.000000  0.500000  0.000000  1
  Os  Os23  1  0.500000  0.000000  0.500000  1
  Os  Os24  1  0.000000  0.500000  0.500000  1
  Rh  Rh25  1  0.500000  0.000000  0.000000  1
