# generated using pymatgen
data_Dy6Er10Cd4NiRu3
_symmetry_space_group_name_H-M   'P 1'
_cell_length_a   9.48843393
_cell_length_b   9.62231116
_cell_length_c   9.62231100
_cell_angle_alpha   59.99999712
_cell_angle_beta   59.53214997
_cell_angle_gamma   59.53215557
_symmetry_Int_Tables_number   1
_chemical_formula_structural   Dy6Er10Cd4NiRu3
_chemical_formula_sum   'Dy6 Er10 Cd4 Ni1 Ru3'
_cell_volume   616.78063230
_cell_formula_units_Z   1
loop_
 _symmetry_equiv_pos_site_id
 _symmetry_equiv_pos_as_xyz
  1  'x, y, z'
loop_
 _atom_site_type_symbol
 _atom_site_label
 _atom_site_symmetry_multiplicity
 _atom_site_fract_x
 _atom_site_fract_y
 _atom_site_fract_z
 _atom_site_occupancy
  Dy  Dy0  1  0.187300  0.811604  0.811604  1
  Dy  Dy1  1  0.808089  0.188134  0.188134  1
  Dy  Dy2  1  0.808089  0.188134  0.815642  1
  Dy  Dy3  1  0.187300  0.811604  0.189493  1
  Dy  Dy4  1  0.808089  0.815642  0.188134  1
  Dy  Dy5  1  0.187300  0.189493  0.811604  1
  Er  Er6  1  0.601469  0.595715  0.595715  1
  Er  Er7  1  0.601469  0.595715  0.207102  1
  Er  Er8  1  0.601469  0.207102  0.595715  1
  Er  Er9  1  0.215883  0.594706  0.594706  1
  Er  Er10  1  0.061337  0.438183  0.438183  1
  Er  Er11  1  0.435368  0.062446  0.062446  1
  Er  Er12  1  0.435368  0.062446  0.439740  1
  Er  Er13  1  0.061337  0.438183  0.062296  1
  Er  Er14  1  0.435368  0.439740  0.062446  1
  Er  Er15  1  0.061337  0.062296  0.438183  1
  Cd  Cd16  1  0.828618  0.830049  0.830049  1
  Cd  Cd17  1  0.828618  0.830049  0.511283  1
  Cd  Cd18  1  0.828618  0.511283  0.830049  1
  Cd  Cd19  1  0.506484  0.831172  0.831172  1
  Ni  Ni20  1  0.823177  0.392274  0.392274  1
  Ru  Ru21  1  0.395970  0.388392  0.388392  1
  Ru  Ru22  1  0.395970  0.388392  0.827245  1
  Ru  Ru23  1  0.395970  0.827245  0.388392  1
