# generated using pymatgen
data_Zr10AlAgBi5Pb
_symmetry_space_group_name_H-M   'P 1'
_cell_length_a   8.90515252
_cell_length_b   8.88726910
_cell_length_c   5.98912814
_cell_angle_alpha   89.95941656
_cell_angle_beta   90.02025381
_cell_angle_gamma   119.93358634
_symmetry_Int_Tables_number   1
_chemical_formula_structural   Zr10AlAgBi5Pb
_chemical_formula_sum   'Zr10 Al1 Ag1 Bi5 Pb1'
_cell_volume   410.76560724
_cell_formula_units_Z   1
loop_
 _symmetry_equiv_pos_site_id
 _symmetry_equiv_pos_as_xyz
  1  'x, y, z'
loop_
 _atom_site_type_symbol
 _atom_site_label
 _atom_site_symmetry_multiplicity
 _atom_site_fract_x
 _atom_site_fract_y
 _atom_site_fract_z
 _atom_site_occupancy
  Zr  Zr0  1  0.667446  0.333944  0.000596  1
  Zr  Zr1  1  0.332554  0.666499  0.000596  1
  Zr  Zr2  1  0.332512  0.666222  0.499331  1
  Zr  Zr3  1  0.667488  0.333708  0.499331  1
  Zr  Zr4  1  0.728459  0.728758  0.737092  1
  Zr  Zr5  1  0.271541  0.000299  0.737092  1
  Zr  Zr6  1  0.000000  0.270988  0.737994  1
  Zr  Zr7  1  0.271890  0.272039  0.262696  1
  Zr  Zr8  1  0.728110  0.000149  0.262696  1
  Zr  Zr9  1  0.000000  0.727593  0.263051  1
  Al  Al10  1  0.000000  0.000319  0.499097  1
  Ag  Ag11  1  0.000000  0.000608  0.000873  1
  Bi  Bi12  1  0.383401  0.384309  0.754285  1
  Bi  Bi13  1  0.616599  0.000908  0.754285  1
  Bi  Bi14  1  0.000000  0.615819  0.754906  1
  Bi  Bi15  1  0.616373  0.616169  0.245512  1
  Bi  Bi16  1  0.383627  0.999797  0.245512  1
  Pb  Pb17  1  0.000000  0.381871  0.245055  1
