# generated using pymatgen
data_Ce3In2SiRh3
_symmetry_space_group_name_H-M   'P 1'
_cell_length_a   7.45897200
_cell_length_b   7.46855418
_cell_length_c   3.95980200
_cell_angle_alpha   90.00000000
_cell_angle_beta   90.00000000
_cell_angle_gamma   119.95755880
_symmetry_Int_Tables_number   1
_chemical_formula_structural   Ce3In2SiRh3
_chemical_formula_sum   'Ce3 In2 Si1 Rh3'
_cell_volume   191.11958305
_cell_formula_units_Z   1
loop_
 _symmetry_equiv_pos_site_id
 _symmetry_equiv_pos_as_xyz
  1  'x, y, z'
loop_
 _atom_site_type_symbol
 _atom_site_label
 _atom_site_symmetry_multiplicity
 _atom_site_fract_x
 _atom_site_fract_y
 _atom_site_fract_z
 _atom_site_occupancy
  Ce  Ce0  1  0.435540  0.000000  0.500000  1
  Ce  Ce1  1  0.990519  0.400769  0.500000  1
  Ce  Ce2  1  0.589750  0.599231  0.500000  1
  In  In3  1  0.006969  0.755529  0.000000  1
  In  In4  1  0.251440  0.244471  0.000000  1
  Si  Si5  1  0.746377  0.000000  0.000000  1
  Rh  Rh6  1  0.360916  0.684179  0.000000  1
  Rh  Rh7  1  0.676738  0.315821  0.000000  1
  Rh  Rh8  1  0.941751  0.000000  0.500000  1
