# generated using pymatgen
data_SrTb5Rh18
_symmetry_space_group_name_H-M   'P 1'
_cell_length_a   5.26662200
_cell_length_b   5.26662062
_cell_length_c   17.54898700
_cell_angle_alpha   90.00000000
_cell_angle_beta   90.00000000
_cell_angle_gamma   119.99998357
_symmetry_Int_Tables_number   1
_chemical_formula_structural   SrTb5Rh18
_chemical_formula_sum   'Sr1 Tb5 Rh18'
_cell_volume   421.54790916
_cell_formula_units_Z   1
loop_
 _symmetry_equiv_pos_site_id
 _symmetry_equiv_pos_as_xyz
  1  'x, y, z'
loop_
 _atom_site_type_symbol
 _atom_site_label
 _atom_site_symmetry_multiplicity
 _atom_site_fract_x
 _atom_site_fract_y
 _atom_site_fract_z
 _atom_site_occupancy
  Sr  Sr0  1  0.666667  0.333333  0.250000  1
  Tb  Tb1  1  0.333332  0.666666  0.750000  1
  Tb  Tb2  1  0.333335  0.666669  0.541645  1
  Tb  Tb3  1  0.666668  0.333334  0.042453  1
  Tb  Tb4  1  0.666668  0.333334  0.457547  1
  Tb  Tb5  1  0.333335  0.666669  0.958355  1
  Rh  Rh6  1  0.167212  0.334424  0.124583  1
  Rh  Rh7  1  0.832660  0.665320  0.626020  1
  Rh  Rh8  1  0.665567  0.832782  0.124580  1
  Rh  Rh9  1  0.167213  0.832784  0.124582  1
  Rh  Rh10  1  0.832660  0.167339  0.626019  1
  Rh  Rh11  1  0.334678  0.167339  0.626019  1
  Rh  Rh12  1  0.832660  0.665320  0.873980  1
  Rh  Rh13  1  0.832660  0.167339  0.873981  1
  Rh  Rh14  1  0.334678  0.167339  0.873981  1
  Rh  Rh15  1  0.665567  0.832782  0.375420  1
  Rh  Rh16  1  0.167213  0.832784  0.375418  1
  Rh  Rh17  1  0.167212  0.334424  0.375417  1
  Rh  Rh18  1  0.000018  0.000016  0.250000  1
  Rh  Rh19  1  0.999993  0.999997  0.750000  1
  Rh  Rh20  1  0.333326  0.666659  0.250000  1
  Rh  Rh21  1  0.666669  0.333335  0.750000  1
  Rh  Rh22  1  0.000005  0.000005  0.999358  1
  Rh  Rh23  1  0.000005  0.000005  0.500642  1
