# generated using pymatgen
data_CeTm7Sc12Si15Ru
_symmetry_space_group_name_H-M   'P 1'
_cell_length_a   7.04462627
_cell_length_b   7.42278625
_cell_length_c   13.88982886
_cell_angle_alpha   90.07939800
_cell_angle_beta   90.09261736
_cell_angle_gamma   90.14211801
_symmetry_Int_Tables_number   1
_chemical_formula_structural   CeTm7Sc12Si15Ru
_chemical_formula_sum   'Ce1 Tm7 Sc12 Si15 Ru1'
_cell_volume   726.30575260
_cell_formula_units_Z   1
loop_
 _symmetry_equiv_pos_site_id
 _symmetry_equiv_pos_as_xyz
  1  'x, y, z'
loop_
 _atom_site_type_symbol
 _atom_site_label
 _atom_site_symmetry_multiplicity
 _atom_site_fract_x
 _atom_site_fract_y
 _atom_site_fract_z
 _atom_site_occupancy
  Ce  Ce0  1  0.012102  0.177952  0.094861  1
  Tm  Tm1  1  0.991872  0.826428  0.904359  1
  Tm  Tm2  1  0.490709  0.678181  0.903487  1
  Tm  Tm3  1  0.990227  0.826137  0.595388  1
  Tm  Tm4  1  0.510177  0.322591  0.094337  1
  Tm  Tm5  1  0.011663  0.181366  0.403336  1
  Tm  Tm6  1  0.511570  0.322953  0.406152  1
  Tm  Tm7  1  0.488912  0.678378  0.595314  1
  Sc  Sc8  1  0.157436  0.505740  0.750393  1
  Sc  Sc9  1  0.840127  0.494588  0.249588  1
  Sc  Sc10  1  0.339111  0.006178  0.250125  1
  Sc  Sc11  1  0.668739  0.996666  0.750152  1
  Sc  Sc12  1  0.313158  0.170945  0.628745  1
  Sc  Sc13  1  0.671614  0.825352  0.375287  1
  Sc  Sc14  1  0.173823  0.677046  0.375402  1
  Sc  Sc15  1  0.673005  0.825877  0.125850  1
  Sc  Sc16  1  0.837590  0.318937  0.628185  1
  Sc  Sc17  1  0.316411  0.171312  0.870687  1
  Sc  Sc18  1  0.835705  0.321883  0.871769  1
  Sc  Sc19  1  0.172057  0.677150  0.125933  1
  Si  Si20  1  0.969491  0.884928  0.251324  1
  Si  Si21  1  0.472024  0.612015  0.250756  1
  Si  Si22  1  0.527923  0.390385  0.748846  1
  Si  Si23  1  0.286082  0.864027  0.749487  1
  Si  Si24  1  0.712273  0.131957  0.251683  1
  Si  Si25  1  0.217342  0.370630  0.251031  1
  Si  Si26  1  0.779124  0.628829  0.749477  1
  Si  Si27  1  0.160234  0.468830  0.538329  1
  Si  Si28  1  0.843697  0.534722  0.461644  1
  Si  Si29  1  0.342901  0.967511  0.460437  1
  Si  Si30  1  0.841468  0.536678  0.037504  1
  Si  Si31  1  0.655033  0.034190  0.539735  1
  Si  Si32  1  0.161545  0.470984  0.961678  1
  Si  Si33  1  0.656556  0.033588  0.959924  1
  Si  Si34  1  0.345000  0.964294  0.038227  1
  Ru  Ru35  1  0.023296  0.100774  0.750567  1
