# generated using pymatgen
data_NdTa5NbCl18
_symmetry_space_group_name_H-M   'P 1'
_cell_length_a   10.25919411
_cell_length_b   10.25995080
_cell_length_c   10.25572979
_cell_angle_alpha   55.91623777
_cell_angle_beta   55.91908606
_cell_angle_gamma   55.89017452
_symmetry_Int_Tables_number   1
_chemical_formula_structural   NdTa5NbCl18
_chemical_formula_sum   'Nd1 Ta5 Nb1 Cl18'
_cell_volume   690.94197841
_cell_formula_units_Z   1
loop_
 _symmetry_equiv_pos_site_id
 _symmetry_equiv_pos_as_xyz
  1  'x, y, z'
loop_
 _atom_site_type_symbol
 _atom_site_label
 _atom_site_symmetry_multiplicity
 _atom_site_fract_x
 _atom_site_fract_y
 _atom_site_fract_z
 _atom_site_occupancy
  Nd  Nd0  1  0.999863  0.999369  0.000209  1
  Ta  Ta1  1  0.411362  0.303251  0.646784  1
  Ta  Ta2  1  0.352822  0.589349  0.697294  1
  Ta  Ta3  1  0.697630  0.352860  0.588911  1
  Ta  Ta4  1  0.302705  0.647639  0.410659  1
  Ta  Ta5  1  0.647529  0.411156  0.302296  1
  Nb  Nb6  1  0.589374  0.698324  0.352077  1
  Cl  Cl7  1  0.568714  0.165459  0.441092  1
  Cl  Cl8  1  0.226205  0.371631  0.903765  1
  Cl  Cl9  1  0.903747  0.225850  0.371604  1
  Cl  Cl10  1  0.368485  0.904771  0.225890  1
  Cl  Cl11  1  0.774997  0.626722  0.094427  1
  Cl  Cl12  1  0.096173  0.773806  0.628610  1
  Cl  Cl13  1  0.697082  0.956923  0.163700  1
  Cl  Cl14  1  0.952692  0.165359  0.696463  1
  Cl  Cl15  1  0.166086  0.695106  0.953518  1
  Cl  Cl16  1  0.303694  0.048466  0.833182  1
  Cl  Cl17  1  0.047061  0.832691  0.304359  1
  Cl  Cl18  1  0.833832  0.303104  0.047694  1
  Cl  Cl19  1  0.558735  0.431307  0.834730  1
  Cl  Cl20  1  0.165467  0.441467  0.568384  1
  Cl  Cl21  1  0.441265  0.568425  0.165366  1
  Cl  Cl22  1  0.429262  0.834784  0.561760  1
  Cl  Cl23  1  0.836533  0.555957  0.433261  1
  Cl  Cl24  1  0.628686  0.096226  0.773964  1
