# generated using pymatgen
data_Sc4VOs7
_symmetry_space_group_name_H-M   'P 1'
_cell_length_a   5.30587700
_cell_length_b   5.13190305
_cell_length_c   8.61924600
_cell_angle_alpha   90.00000000
_cell_angle_beta   90.00000000
_cell_angle_gamma   121.12790741
_symmetry_Int_Tables_number   1
_chemical_formula_structural   Sc4VOs7
_chemical_formula_sum   'Sc4 V1 Os7'
_cell_volume   200.90302267
_cell_formula_units_Z   1
loop_
 _symmetry_equiv_pos_site_id
 _symmetry_equiv_pos_as_xyz
  1  'x, y, z'
loop_
 _atom_site_type_symbol
 _atom_site_label
 _atom_site_symmetry_multiplicity
 _atom_site_fract_x
 _atom_site_fract_y
 _atom_site_fract_z
 _atom_site_occupancy
  Sc  Sc0  1  0.331684  0.663370  0.433384  1
  Sc  Sc1  1  0.668108  0.336215  0.564788  1
  Sc  Sc2  1  0.668108  0.336215  0.935212  1
  Sc  Sc3  1  0.331684  0.663370  0.066616  1
  V  V4  1  0.170435  0.340869  0.750000  1
  Os  Os5  1  0.172206  0.822400  0.750000  1
  Os  Os6  1  0.345956  0.171367  0.250000  1
  Os  Os7  1  0.829947  0.659895  0.250000  1
  Os  Os8  1  0.650194  0.822400  0.750000  1
  Os  Os9  1  0.003133  0.006267  0.997416  1
  Os  Os10  1  0.825409  0.171367  0.250000  1
  Os  Os11  1  0.003133  0.006267  0.502584  1
