# generated using pymatgen
data_YbY2Tm(Ir2O7)2
_symmetry_space_group_name_H-M   'P 1'
_cell_length_a   7.21869406
_cell_length_b   7.22952882
_cell_length_c   7.21869458
_cell_angle_alpha   60.14066449
_cell_angle_beta   60.11662105
_cell_angle_gamma   60.14066089
_symmetry_Int_Tables_number   1
_chemical_formula_structural   YbY2Tm(Ir2O7)2
_chemical_formula_sum   'Yb1 Y2 Tm1 Ir4 O14'
_cell_volume   267.18700234
_cell_formula_units_Z   1
loop_
 _symmetry_equiv_pos_site_id
 _symmetry_equiv_pos_as_xyz
  1  'x, y, z'
loop_
 _atom_site_type_symbol
 _atom_site_label
 _atom_site_symmetry_multiplicity
 _atom_site_fract_x
 _atom_site_fract_y
 _atom_site_fract_z
 _atom_site_occupancy
  Yb  Yb0  1  0.125000  0.625000  0.125000  1
  Y  Y1  1  0.625000  0.125000  0.125000  1
  Y  Y2  1  0.125000  0.125000  0.625000  1
  Tm  Tm3  1  0.125000  0.125000  0.125000  1
  Ir  Ir4  1  0.125000  0.625000  0.625000  1
  Ir  Ir5  1  0.625000  0.125000  0.625000  1
  Ir  Ir6  1  0.625000  0.625000  0.125000  1
  Ir  Ir7  1  0.625000  0.625000  0.625000  1
  O  O8  1  0.703353  0.713485  0.291441  1
  O  O9  1  0.289785  0.288591  0.714890  1
  O  O10  1  0.710168  0.289143  0.710168  1
  O  O11  1  0.291117  0.718373  0.291117  1
  O  O12  1  0.291441  0.713485  0.703353  1
  O  O13  1  0.714890  0.288591  0.289785  1
  O  O14  1  0.546647  0.536515  0.958559  1
  O  O15  1  0.960215  0.961409  0.535110  1
  O  O16  1  0.539832  0.960857  0.539832  1
  O  O17  1  0.958883  0.531627  0.958883  1
  O  O18  1  0.958559  0.536515  0.546647  1
  O  O19  1  0.535110  0.961409  0.960215  1
  O  O20  1  0.250199  0.243236  0.250199  1
  O  O21  1  0.999801  0.006764  0.999801  1
