# generated using pymatgen
data_PrMnFe(Sb6Os)2
_symmetry_space_group_name_H-M   'P 1'
_cell_length_a   8.14329543
_cell_length_b   8.11034861
_cell_length_c   8.10113760
_cell_angle_alpha   109.42942312
_cell_angle_beta   109.61820446
_cell_angle_gamma   109.56170644
_symmetry_Int_Tables_number   1
_chemical_formula_structural   PrMnFe(Sb6Os)2
_chemical_formula_sum   'Pr1 Mn1 Fe1 Sb12 Os2'
_cell_volume   410.87497698
_cell_formula_units_Z   1
loop_
 _symmetry_equiv_pos_site_id
 _symmetry_equiv_pos_as_xyz
  1  'x, y, z'
loop_
 _atom_site_type_symbol
 _atom_site_label
 _atom_site_symmetry_multiplicity
 _atom_site_fract_x
 _atom_site_fract_y
 _atom_site_fract_z
 _atom_site_occupancy
  Pr  Pr0  1  0.000000  0.000000  0.000000  1
  Mn  Mn1  1  0.000000  0.500000  0.000000  1
  Fe  Fe2  1  0.500000  0.000000  0.000000  1
  Sb  Sb3  1  0.339484  0.156512  0.496472  1
  Sb  Sb4  1  0.341394  0.846529  0.175681  1
  Sb  Sb5  1  0.658606  0.153471  0.824319  1
  Sb  Sb6  1  0.816669  0.658947  0.155267  1
  Sb  Sb7  1  0.155868  0.496129  0.338563  1
  Sb  Sb8  1  0.505044  0.671148  0.845713  1
  Sb  Sb9  1  0.834176  0.174751  0.328925  1
  Sb  Sb10  1  0.660516  0.843488  0.503528  1
  Sb  Sb11  1  0.183331  0.341053  0.844733  1
  Sb  Sb12  1  0.165824  0.825249  0.671075  1
  Sb  Sb13  1  0.494956  0.328852  0.154287  1
  Sb  Sb14  1  0.844132  0.503871  0.661437  1
  Os  Os15  1  0.500000  0.500000  0.500000  1
  Os  Os16  1  0.000000  0.000000  0.500000  1
