# generated using pymatgen
data_ZnCd3(BrO3)8
_symmetry_space_group_name_H-M   'P 1'
_cell_length_a   5.66584519
_cell_length_b   11.05349490
_cell_length_c   11.10558346
_cell_angle_alpha   119.66198168
_cell_angle_beta   89.96205955
_cell_angle_gamma   90.23867440
_symmetry_Int_Tables_number   1
_chemical_formula_structural   ZnCd3(BrO3)8
_chemical_formula_sum   'Zn1 Cd3 Br8 O24'
_cell_volume   604.36762921
_cell_formula_units_Z   1
loop_
 _symmetry_equiv_pos_site_id
 _symmetry_equiv_pos_as_xyz
  1  'x, y, z'
loop_
 _atom_site_type_symbol
 _atom_site_label
 _atom_site_symmetry_multiplicity
 _atom_site_fract_x
 _atom_site_fract_y
 _atom_site_fract_z
 _atom_site_occupancy
  Zn  Zn0  1  0.151806  0.761645  0.507037  1
  Cd  Cd1  1  0.644731  0.238621  0.495352  1
  Cd  Cd2  1  0.144532  0.264366  0.006462  1
  Cd  Cd3  1  0.639452  0.734339  0.995214  1
  Br  Br4  1  0.264700  0.426959  0.354145  1
  Br  Br5  1  0.776026  0.589499  0.649831  1
  Br  Br6  1  0.259226  0.914355  0.839892  1
  Br  Br7  1  0.759724  0.082620  0.149847  1
  Br  Br8  1  0.784677  0.071523  0.676472  1
  Br  Br9  1  0.270772  0.907372  0.318941  1
  Br  Br10  1  0.275963  0.414827  0.810648  1
  Br  Br11  1  0.783909  0.590781  0.199655  1
  O  O12  1  0.411648  0.883366  0.951598  1
  O  O13  1  0.908503  0.108184  0.033201  1
  O  O14  1  0.370288  0.802406  0.680238  1
  O  O15  1  0.876251  0.198544  0.305750  1
  O  O16  1  0.383683  0.316544  0.197183  1
  O  O17  1  0.885669  0.700782  0.809123  1
  O  O18  1  0.906575  0.211087  0.813979  1
  O  O19  1  0.405865  0.772559  0.183576  1
  O  O20  1  0.935563  0.930089  0.654628  1
  O  O21  1  0.411576  0.051500  0.340393  1
  O  O22  1  0.371359  0.070138  0.871196  1
  O  O23  1  0.867879  0.928919  0.125139  1
  O  O24  1  0.402543  0.274921  0.676618  1
  O  O25  1  0.924797  0.724404  0.334977  1
  O  O26  1  0.363027  0.405319  0.951845  1
  O  O27  1  0.868212  0.604776  0.060209  1
  O  O28  1  0.421554  0.555506  0.826083  1
  O  O29  1  0.916727  0.443477  0.174209  1
  O  O30  1  0.361144  0.585603  0.383663  1
  O  O31  1  0.880932  0.433341  0.620585  1
  O  O32  1  0.424966  0.400877  0.466622  1
  O  O33  1  0.934186  0.619500  0.538355  1
  O  O34  1  0.866816  0.091356  0.540090  1
  O  O35  1  0.354320  0.889898  0.457241  1
