# generated using pymatgen
data_ErTmLuS4
_symmetry_space_group_name_H-M   'P 1'
_cell_length_a   3.81018800
_cell_length_b   6.57196781
_cell_length_c   6.58626800
_cell_angle_alpha   71.71481380
_cell_angle_beta   90.00000000
_cell_angle_gamma   90.00000000
_symmetry_Int_Tables_number   1
_chemical_formula_structural   ErTmLuS4
_chemical_formula_sum   'Er1 Tm1 Lu1 S4'
_cell_volume   156.59548348
_cell_formula_units_Z   1
loop_
 _symmetry_equiv_pos_site_id
 _symmetry_equiv_pos_as_xyz
  1  'x, y, z'
loop_
 _atom_site_type_symbol
 _atom_site_label
 _atom_site_symmetry_multiplicity
 _atom_site_fract_x
 _atom_site_fract_y
 _atom_site_fract_z
 _atom_site_occupancy
  Er  Er0  1  0.000000  0.500000  0.500000  1
  Tm  Tm1  1  0.000000  0.000000  0.000000  1
  Lu  Lu2  1  0.500000  0.500000  0.000000  1
  S  S3  1  0.500000  0.753888  0.251807  1
  S  S4  1  0.000000  0.257348  0.241602  1
  S  S5  1  0.500000  0.246112  0.748193  1
  S  S6  1  0.000000  0.742652  0.758398  1
