# generated using pymatgen
data_Dy2Y6Cd2RuPt
_symmetry_space_group_name_H-M   'P 1'
_cell_length_a   9.68382904
_cell_length_b   9.68382960
_cell_length_c   9.72251200
_cell_angle_alpha   59.86778045
_cell_angle_beta   59.86777855
_cell_angle_gamma   59.77453720
_symmetry_Int_Tables_number   1
_chemical_formula_structural   Dy2Y6Cd2RuPt
_chemical_formula_sum   'Dy4 Y12 Cd4 Ru2 Pt2'
_cell_volume   642.30955925
_cell_formula_units_Z   2
loop_
 _symmetry_equiv_pos_site_id
 _symmetry_equiv_pos_as_xyz
  1  'x, y, z'
loop_
 _atom_site_type_symbol
 _atom_site_label
 _atom_site_symmetry_multiplicity
 _atom_site_fract_x
 _atom_site_fract_y
 _atom_site_fract_z
 _atom_site_occupancy
  Dy  Dy0  1  0.349269  0.349269  0.352647  1
  Dy  Dy1  1  0.349269  0.349269  0.948815  1
  Dy  Dy2  1  0.346593  0.954405  0.349501  1
  Dy  Dy3  1  0.954405  0.346593  0.349501  1
  Y  Y4  1  0.815038  0.188490  0.190303  1
  Y  Y5  1  0.188490  0.815038  0.806170  1
  Y  Y6  1  0.188490  0.815038  0.190303  1
  Y  Y7  1  0.815038  0.188490  0.806170  1
  Y  Y8  1  0.188147  0.188147  0.811853  1
  Y  Y9  1  0.808160  0.808160  0.191840  1
  Y  Y10  1  0.937058  0.559356  0.566381  1
  Y  Y11  1  0.559356  0.937058  0.937204  1
  Y  Y12  1  0.559356  0.937058  0.566381  1
  Y  Y13  1  0.937058  0.559356  0.937204  1
  Y  Y14  1  0.563188  0.563188  0.936812  1
  Y  Y15  1  0.937911  0.937911  0.562089  1
  Cd  Cd16  1  0.579913  0.579913  0.581245  1
  Cd  Cd17  1  0.579913  0.579913  0.258928  1
  Cd  Cd18  1  0.580804  0.256047  0.581574  1
  Cd  Cd19  1  0.256047  0.580804  0.581574  1
  Ru  Ru20  1  0.144502  0.144502  0.139094  1
  Ru  Ru21  1  0.144502  0.144502  0.571903  1
  Pt  Pt22  1  0.145060  0.572432  0.141254  1
  Pt  Pt23  1  0.572432  0.145060  0.141254  1
