# generated using pymatgen
data_Er8Mn(B8Os)3
_symmetry_space_group_name_H-M   'P 1'
_cell_length_a   3.61378000
_cell_length_b   9.09516828
_cell_length_c   11.47228735
_cell_angle_alpha   90.02815237
_cell_angle_beta   90.00000000
_cell_angle_gamma   90.00000000
_symmetry_Int_Tables_number   1
_chemical_formula_structural   Er8Mn(B8Os)3
_chemical_formula_sum   'Er8 Mn1 B24 Os3'
_cell_volume   377.07037460
_cell_formula_units_Z   1
loop_
 _symmetry_equiv_pos_site_id
 _symmetry_equiv_pos_as_xyz
  1  'x, y, z'
loop_
 _atom_site_type_symbol
 _atom_site_label
 _atom_site_symmetry_multiplicity
 _atom_site_fract_x
 _atom_site_fract_y
 _atom_site_fract_z
 _atom_site_occupancy
  Er  Er0  1  0.000000  0.325067  0.412550  1
  Er  Er1  1  0.000000  0.676795  0.581884  1
  Er  Er2  1  0.000000  0.819842  0.088644  1
  Er  Er3  1  0.000000  0.178419  0.915022  1
  Er  Er4  1  0.000000  0.939456  0.371694  1
  Er  Er5  1  0.000000  0.056768  0.626838  1
  Er  Er6  1  0.000000  0.446046  0.130449  1
  Er  Er7  1  0.000000  0.556941  0.872648  1
  Mn  Mn8  1  0.000000  0.637091  0.321340  1
  B  B9  1  0.500000  0.553800  0.431740  1
  B  B10  1  0.500000  0.447117  0.566052  1
  B  B11  1  0.500000  0.053413  0.067047  1
  B  B12  1  0.500000  0.947057  0.933488  1
  B  B13  1  0.500000  0.745782  0.417771  1
  B  B14  1  0.500000  0.252041  0.579704  1
  B  B15  1  0.500000  0.249101  0.080871  1
  B  B16  1  0.500000  0.751984  0.920101  1
  B  B17  1  0.500000  0.789104  0.266550  1
  B  B18  1  0.500000  0.209054  0.733818  1
  B  B19  1  0.500000  0.291554  0.234430  1
  B  B20  1  0.500000  0.709114  0.765852  1
  B  B21  1  0.500000  0.631353  0.187007  1
  B  B22  1  0.500000  0.368953  0.814988  1
  B  B23  1  0.500000  0.130668  0.314648  1
  B  B24  1  0.500000  0.868627  0.684793  1
  B  B25  1  0.500000  0.981514  0.212850  1
  B  B26  1  0.500000  0.017991  0.787300  1
  B  B27  1  0.500000  0.484810  0.288352  1
  B  B28  1  0.500000  0.517994  0.712426  1
  B  B29  1  0.500000  0.606657  0.030044  1
  B  B30  1  0.500000  0.394179  0.971130  1
  B  B31  1  0.500000  0.106029  0.469964  1
  B  B32  1  0.500000  0.892826  0.529139  1
  Os  Os33  1  0.000000  0.362431  0.679113  1
  Os  Os34  1  0.000000  0.137285  0.178482  1
  Os  Os35  1  0.000000  0.863132  0.821272  1
