# generated using pymatgen
data_TlInOs3Pb3O13
_symmetry_space_group_name_H-M   'P 1'
_cell_length_a   7.56016731
_cell_length_b   7.56016715
_cell_length_c   7.56016593
_cell_angle_alpha   58.80649441
_cell_angle_beta   58.80649474
_cell_angle_gamma   58.80649624
_symmetry_Int_Tables_number   1
_chemical_formula_structural   TlInOs3Pb3O13
_chemical_formula_sum   'Tl1 In1 Os3 Pb3 O13'
_cell_volume   297.22009188
_cell_formula_units_Z   1
loop_
 _symmetry_equiv_pos_site_id
 _symmetry_equiv_pos_as_xyz
  1  'x, y, z'
loop_
 _atom_site_type_symbol
 _atom_site_label
 _atom_site_symmetry_multiplicity
 _atom_site_fract_x
 _atom_site_fract_y
 _atom_site_fract_z
 _atom_site_occupancy
  Tl  Tl0  1  0.994577  0.994577  0.994577  1
  In  In1  1  0.501452  0.501452  0.501452  1
  Os  Os2  1  0.000607  0.501114  0.501114  1
  Os  Os3  1  0.501114  0.501114  0.000607  1
  Os  Os4  1  0.501114  0.000607  0.501114  1
  Pb  Pb5  1  0.501191  0.004136  0.004136  1
  Pb  Pb6  1  0.004136  0.004136  0.501191  1
  Pb  Pb7  1  0.004136  0.501191  0.004136  1
  O  O8  1  0.859021  0.411613  0.411613  1
  O  O9  1  0.425817  0.802313  0.802313  1
  O  O10  1  0.411613  0.411613  0.859021  1
  O  O11  1  0.802313  0.802313  0.425817  1
  O  O12  1  0.802313  0.425817  0.802313  1
  O  O13  1  0.411613  0.859021  0.411613  1
  O  O14  1  0.147954  0.583502  0.583502  1
  O  O15  1  0.574890  0.195487  0.195487  1
  O  O16  1  0.583502  0.583502  0.147954  1
  O  O17  1  0.195487  0.195487  0.574890  1
  O  O18  1  0.195487  0.574890  0.195487  1
  O  O19  1  0.583502  0.147954  0.583502  1
  O  O20  1  0.123157  0.123157  0.123157  1
