# generated using pymatgen
data_Be7V2SiW2
_symmetry_space_group_name_H-M   'P 1'
_cell_length_a   4.42800700
_cell_length_b   4.42800677
_cell_length_c   7.32072800
_cell_angle_alpha   90.00000000
_cell_angle_beta   90.00000000
_cell_angle_gamma   120.00000916
_symmetry_Int_Tables_number   1
_chemical_formula_structural   Be7V2SiW2
_chemical_formula_sum   'Be7 V2 Si1 W2'
_cell_volume   124.30867517
_cell_formula_units_Z   1
loop_
 _symmetry_equiv_pos_site_id
 _symmetry_equiv_pos_as_xyz
  1  'x, y, z'
loop_
 _atom_site_type_symbol
 _atom_site_label
 _atom_site_symmetry_multiplicity
 _atom_site_fract_x
 _atom_site_fract_y
 _atom_site_fract_z
 _atom_site_occupancy
  Be  Be0  1  0.000000  0.000000  0.000000  1
  Be  Be1  1  0.827738  0.172262  0.246235  1
  Be  Be2  1  0.827738  0.655476  0.246235  1
  Be  Be3  1  0.344524  0.172262  0.246235  1
  Be  Be4  1  0.172262  0.827738  0.753765  1
  Be  Be5  1  0.172262  0.344524  0.753765  1
  Be  Be6  1  0.655476  0.827738  0.753765  1
  V  V7  1  0.333333  0.666667  0.435637  1
  V  V8  1  0.666667  0.333333  0.564363  1
  Si  Si9  1  0.000000  0.000000  0.500000  1
  W  W10  1  0.666667  0.333333  0.934885  1
  W  W11  1  0.333333  0.666667  0.065115  1
