# generated using pymatgen
data_Ce4Mn2HgB6
_symmetry_space_group_name_H-M   'P 1'
_cell_length_a   5.29178757
_cell_length_b   5.29178829
_cell_length_c   8.43183580
_cell_angle_alpha   71.71172802
_cell_angle_beta   71.71172530
_cell_angle_gamma   59.99999130
_symmetry_Int_Tables_number   1
_chemical_formula_structural   Ce4Mn2HgB6
_chemical_formula_sum   'Ce4 Mn2 Hg1 B6'
_cell_volume   190.58750364
_cell_formula_units_Z   1
loop_
 _symmetry_equiv_pos_site_id
 _symmetry_equiv_pos_as_xyz
  1  'x, y, z'
loop_
 _atom_site_type_symbol
 _atom_site_label
 _atom_site_symmetry_multiplicity
 _atom_site_fract_x
 _atom_site_fract_y
 _atom_site_fract_z
 _atom_site_occupancy
  Ce  Ce0  1  0.746715  0.746715  0.759855  1
  Ce  Ce1  1  0.253285  0.253285  0.240145  1
  Ce  Ce2  1  0.586468  0.586468  0.240595  1
  Ce  Ce3  1  0.413532  0.413532  0.759405  1
  Mn  Mn4  1  0.883326  0.883326  0.350026  1
  Mn  Mn5  1  0.116674  0.116674  0.649975  1
  Hg  Hg6  1  0.000000  0.000000  0.000000  1
  B  B7  1  0.500000  0.167669  0.500000  1
  B  B8  1  0.832331  0.500000  0.500000  1
  B  B9  1  0.167669  0.832331  0.500000  1
  B  B10  1  0.167669  0.500000  0.500000  1
  B  B11  1  0.832331  0.167669  0.500000  1
  B  B12  1  0.500000  0.832331  0.500000  1
