# generated using pymatgen
data_TmLu15(ZnIn3)2
_symmetry_space_group_name_H-M   'P 1'
_cell_length_a   10.42848700
_cell_length_b   10.42848667
_cell_length_c   6.66847700
_cell_angle_alpha   90.00000000
_cell_angle_beta   90.00000000
_cell_angle_gamma   120.00000421
_symmetry_Int_Tables_number   1
_chemical_formula_structural   TmLu15(ZnIn3)2
_chemical_formula_sum   'Tm1 Lu15 Zn2 In6'
_cell_volume   628.05816431
_cell_formula_units_Z   1
loop_
 _symmetry_equiv_pos_site_id
 _symmetry_equiv_pos_as_xyz
  1  'x, y, z'
loop_
 _atom_site_type_symbol
 _atom_site_label
 _atom_site_symmetry_multiplicity
 _atom_site_fract_x
 _atom_site_fract_y
 _atom_site_fract_z
 _atom_site_occupancy
  Tm  Tm0  1  0.000000  0.000000  0.770126  1
  Lu  Lu1  1  0.173264  0.826736  0.008090  1
  Lu  Lu2  1  0.346620  0.173310  0.507297  1
  Lu  Lu3  1  0.826690  0.653380  0.507297  1
  Lu  Lu4  1  0.173264  0.346526  0.008090  1
  Lu  Lu5  1  0.653474  0.826736  0.008090  1
  Lu  Lu6  1  0.826690  0.173310  0.507297  1
  Lu  Lu7  1  0.333333  0.666667  0.641318  1
  Lu  Lu8  1  0.666667  0.333333  0.141580  1
  Lu  Lu9  1  0.480663  0.519337  0.292848  1
  Lu  Lu10  1  0.961415  0.480708  0.792840  1
  Lu  Lu11  1  0.519292  0.038585  0.792840  1
  Lu  Lu12  1  0.480663  0.961324  0.292848  1
  Lu  Lu13  1  0.038676  0.519337  0.292848  1
  Lu  Lu14  1  0.519292  0.480708  0.792840  1
  Lu  Lu15  1  0.000000  0.000000  0.269791  1
  Zn  Zn16  1  0.333333  0.666667  0.078293  1
  Zn  Zn17  1  0.666667  0.333333  0.579111  1
  In  In18  1  0.165041  0.834959  0.523417  1
  In  In19  1  0.329989  0.164994  0.023439  1
  In  In20  1  0.835006  0.670011  0.023439  1
  In  In21  1  0.165041  0.330082  0.523417  1
  In  In22  1  0.669918  0.834959  0.523417  1
  In  In23  1  0.835006  0.164994  0.023439  1
