# generated using pymatgen
data_Nd2MgInIr2
_symmetry_space_group_name_H-M   'P 1'
_cell_length_a   7.27105900
_cell_length_b   4.25424300
_cell_length_c   8.72461900
_cell_angle_alpha   90.00000000
_cell_angle_beta   90.00000000
_cell_angle_gamma   90.00000000
_symmetry_Int_Tables_number   1
_chemical_formula_structural   Nd2MgInIr2
_chemical_formula_sum   'Nd4 Mg2 In2 Ir4'
_cell_volume   269.87734700
_cell_formula_units_Z   2
loop_
 _symmetry_equiv_pos_site_id
 _symmetry_equiv_pos_as_xyz
  1  'x, y, z'
loop_
 _atom_site_type_symbol
 _atom_site_label
 _atom_site_symmetry_multiplicity
 _atom_site_fract_x
 _atom_site_fract_y
 _atom_site_fract_z
 _atom_site_occupancy
  Nd  Nd0  1  0.462152  0.250000  0.179395  1
  Nd  Nd1  1  0.962151  0.250000  0.320605  1
  Nd  Nd2  1  0.038577  0.749999  0.678389  1
  Nd  Nd3  1  0.538577  0.749999  0.821612  1
  Mg  Mg4  1  0.137810  0.749999  0.061736  1
  Mg  Mg5  1  0.637810  0.749999  0.438264  1
  In  In6  1  0.362533  0.250000  0.561008  1
  In  In7  1  0.862532  0.250000  0.938993  1
  Ir  Ir8  1  0.752762  0.749999  0.128312  1
  Ir  Ir9  1  0.252761  0.749999  0.371688  1
  Ir  Ir10  1  0.746168  0.250000  0.625608  1
  Ir  Ir11  1  0.246168  0.250000  0.874394  1
