# generated using pymatgen
data_K2In(GePd2)3
_symmetry_space_group_name_H-M   'P 1'
_cell_length_a   7.15925534
_cell_length_b   7.14763837
_cell_length_c   7.15925577
_cell_angle_alpha   129.12772653
_cell_angle_beta   117.62939792
_cell_angle_gamma   84.61023558
_symmetry_Int_Tables_number   1
_chemical_formula_structural   K2In(GePd2)3
_chemical_formula_sum   'K2 In1 Ge3 Pd6'
_cell_volume   241.03169831
_cell_formula_units_Z   1
loop_
 _symmetry_equiv_pos_site_id
 _symmetry_equiv_pos_as_xyz
  1  'x, y, z'
loop_
 _atom_site_type_symbol
 _atom_site_label
 _atom_site_symmetry_multiplicity
 _atom_site_fract_x
 _atom_site_fract_y
 _atom_site_fract_z
 _atom_site_occupancy
  K  K0  1  0.000523  0.981809  0.981287  1
  K  K1  1  0.501437  0.036533  0.535097  1
  In  In2  1  0.345872  0.391222  0.045350  1
  Ge  Ge3  1  0.818247  0.271091  0.452845  1
  Ge  Ge4  1  0.646119  0.686829  0.040710  1
  Ge  Ge5  1  0.191617  0.637985  0.446368  1
  Pd  Pd6  1  0.946409  0.504506  0.955991  1
  Pd  Pd7  1  0.548514  0.504506  0.558097  1
  Pd  Pd8  1  0.021185  0.986748  0.515964  1
  Pd  Pd9  1  0.798879  0.498512  0.288097  1
  Pd  Pd10  1  0.210415  0.498512  0.699633  1
  Pd  Pd11  1  0.470784  0.986748  0.965562  1
