# generated using pymatgen
data_Tb3Dy3Er10(InIr)4
_symmetry_space_group_name_H-M   'P 1'
_cell_length_a   9.63141798
_cell_length_b   9.63030992
_cell_length_c   9.63377644
_cell_angle_alpha   59.99570588
_cell_angle_beta   60.01279606
_cell_angle_gamma   60.02000006
_symmetry_Int_Tables_number   1
_chemical_formula_structural   Tb3Dy3Er10(InIr)4
_chemical_formula_sum   'Tb3 Dy3 Er10 In4 Ir4'
_cell_volume   631.98322745
_cell_formula_units_Z   1
loop_
 _symmetry_equiv_pos_site_id
 _symmetry_equiv_pos_as_xyz
  1  'x, y, z'
loop_
 _atom_site_type_symbol
 _atom_site_label
 _atom_site_symmetry_multiplicity
 _atom_site_fract_x
 _atom_site_fract_y
 _atom_site_fract_z
 _atom_site_occupancy
  Tb  Tb0  1  0.190052  0.809668  0.811112  1
  Tb  Tb1  1  0.811112  0.189168  0.190052  1
  Tb  Tb2  1  0.811001  0.188999  0.811001  1
  Dy  Dy3  1  0.190699  0.809301  0.190699  1
  Dy  Dy4  1  0.810519  0.808957  0.190686  1
  Dy  Dy5  1  0.190686  0.189838  0.810519  1
  Er  Er6  1  0.598632  0.597269  0.598844  1
  Er  Er7  1  0.599904  0.598565  0.202865  1
  Er  Er8  1  0.598844  0.205255  0.598632  1
  Er  Er9  1  0.202865  0.598666  0.599904  1
  Er  Er10  1  0.059602  0.440926  0.439111  1
  Er  Er11  1  0.439111  0.060361  0.059602  1
  Er  Er12  1  0.439731  0.060269  0.439731  1
  Er  Er13  1  0.059849  0.440151  0.059849  1
  Er  Er14  1  0.438938  0.440808  0.059703  1
  Er  Er15  1  0.059703  0.060552  0.438938  1
  In  In16  1  0.832255  0.833099  0.832669  1
  In  In17  1  0.832477  0.832548  0.502039  1
  In  In18  1  0.832669  0.501977  0.832255  1
  In  In19  1  0.502039  0.832936  0.832477  1
  Ir  Ir20  1  0.390740  0.391593  0.391265  1
  Ir  Ir21  1  0.390668  0.391074  0.826640  1
  Ir  Ir22  1  0.391265  0.826403  0.390740  1
  Ir  Ir23  1  0.826640  0.391619  0.390668  1
