# generated using pymatgen
data_Ac2AlGaI
_symmetry_space_group_name_H-M   'P 1'
_cell_length_a   4.40192500
_cell_length_b   4.40192449
_cell_length_c   19.00888700
_cell_angle_alpha   90.00000000
_cell_angle_beta   90.00000000
_cell_angle_gamma   120.00001133
_symmetry_Int_Tables_number   1
_chemical_formula_structural   Ac2AlGaI
_chemical_formula_sum   'Ac4 Al2 Ga2 I2'
_cell_volume   318.98664326
_cell_formula_units_Z   2
loop_
 _symmetry_equiv_pos_site_id
 _symmetry_equiv_pos_as_xyz
  1  'x, y, z'
loop_
 _atom_site_type_symbol
 _atom_site_label
 _atom_site_symmetry_multiplicity
 _atom_site_fract_x
 _atom_site_fract_y
 _atom_site_fract_z
 _atom_site_occupancy
  Ac  Ac0  1  0.000000  0.000000  0.383292  1
  Ac  Ac1  1  0.000000  0.000000  0.883292  1
  Ac  Ac2  1  0.000000  0.000000  0.617449  1
  Ac  Ac3  1  0.000000  0.000000  0.117449  1
  Al  Al4  1  0.333333  0.666667  0.504733  1
  Al  Al5  1  0.666667  0.333333  0.004733  1
  Ga  Ga6  1  0.666667  0.333333  0.494470  1
  Ga  Ga7  1  0.333333  0.666667  0.994470  1
  I  I8  1  0.333333  0.666667  0.250056  1
  I  I9  1  0.666667  0.333333  0.750056  1
