# generated using pymatgen
data_Ca4HgPd7
_symmetry_space_group_name_H-M   'P 1'
_cell_length_a   9.43350839
_cell_length_b   9.43350885
_cell_length_c   9.43350800
_cell_angle_alpha   34.76997060
_cell_angle_beta   34.76996653
_cell_angle_gamma   34.76996272
_symmetry_Int_Tables_number   1
_chemical_formula_structural   Ca4HgPd7
_chemical_formula_sum   'Ca4 Hg1 Pd7'
_cell_volume   243.68225442
_cell_formula_units_Z   1
loop_
 _symmetry_equiv_pos_site_id
 _symmetry_equiv_pos_as_xyz
  1  'x, y, z'
loop_
 _atom_site_type_symbol
 _atom_site_label
 _atom_site_symmetry_multiplicity
 _atom_site_fract_x
 _atom_site_fract_y
 _atom_site_fract_z
 _atom_site_occupancy
  Ca  Ca0  1  0.564037  0.564037  0.564037  1
  Ca  Ca1  1  0.438557  0.438557  0.438557  1
  Ca  Ca2  1  0.936135  0.936135  0.936135  1
  Ca  Ca3  1  0.061514  0.061514  0.061514  1
  Hg  Hg4  1  0.749942  0.749942  0.749942  1
  Pd  Pd5  1  0.249969  0.249969  0.249969  1
  Pd  Pd6  1  0.004337  0.497431  0.497431  1
  Pd  Pd7  1  0.495691  0.002477  0.002477  1
  Pd  Pd8  1  0.497431  0.004337  0.497431  1
  Pd  Pd9  1  0.002477  0.495691  0.002477  1
  Pd  Pd10  1  0.497431  0.497431  0.004337  1
  Pd  Pd11  1  0.002477  0.002477  0.495691  1
