# generated using pymatgen
data_Nd8Cd4Cu7Ru
_symmetry_space_group_name_H-M   'P 1'
_cell_length_a   5.68771344
_cell_length_b   5.70971348
_cell_length_c   14.94995649
_cell_angle_alpha   99.50094429
_cell_angle_beta   99.42214883
_cell_angle_gamma   97.82460832
_symmetry_Int_Tables_number   1
_chemical_formula_structural   Nd8Cd4Cu7Ru
_chemical_formula_sum   'Nd8 Cd4 Cu7 Ru1'
_cell_volume   465.69379084
_cell_formula_units_Z   1
loop_
 _symmetry_equiv_pos_site_id
 _symmetry_equiv_pos_as_xyz
  1  'x, y, z'
loop_
 _atom_site_type_symbol
 _atom_site_label
 _atom_site_symmetry_multiplicity
 _atom_site_fract_x
 _atom_site_fract_y
 _atom_site_fract_z
 _atom_site_occupancy
  Nd  Nd0  1  0.325720  0.800440  0.131186  1
  Nd  Nd1  1  0.804346  0.326066  0.135969  1
  Nd  Nd2  1  0.691210  0.667630  0.362706  1
  Nd  Nd3  1  0.173649  0.197742  0.366557  1
  Nd  Nd4  1  0.829130  0.799081  0.629711  1
  Nd  Nd5  1  0.305807  0.331239  0.634610  1
  Nd  Nd6  1  0.195584  0.670252  0.862994  1
  Nd  Nd7  1  0.670313  0.201198  0.868419  1
  Cd  Cd8  1  0.772880  0.771539  0.999692  1
  Cd  Cd9  1  0.276958  0.770789  0.500457  1
  Cd  Cd10  1  0.723109  0.227342  0.500028  1
  Cd  Cd11  1  0.223628  0.224089  0.000427  1
  Cu  Cu12  1  0.868887  0.868642  0.201689  1
  Cu  Cu13  1  0.163007  0.672977  0.301000  1
  Cu  Cu14  1  0.635547  0.126303  0.300512  1
  Cu  Cu15  1  0.371705  0.873349  0.701262  1
  Cu  Cu16  1  0.831054  0.329963  0.701387  1
  Cu  Cu17  1  0.128123  0.128401  0.797741  1
  Cu  Cu18  1  0.671707  0.672359  0.797605  1
  Ru  Ru19  1  0.337639  0.340601  0.206046  1
