# generated using pymatgen
data_TmThCoSi4Ni
_symmetry_space_group_name_H-M   'P 1'
_cell_length_a   8.42980614
_cell_length_b   8.42980657
_cell_length_c   4.03564900
_cell_angle_alpha   90.00000000
_cell_angle_beta   90.00000000
_cell_angle_gamma   152.12626718
_symmetry_Int_Tables_number   1
_chemical_formula_structural   TmThCoSi4Ni
_chemical_formula_sum   'Tm1 Th1 Co1 Si4 Ni1'
_cell_volume   134.07662040
_cell_formula_units_Z   1
loop_
 _symmetry_equiv_pos_site_id
 _symmetry_equiv_pos_as_xyz
  1  'x, y, z'
loop_
 _atom_site_type_symbol
 _atom_site_label
 _atom_site_symmetry_multiplicity
 _atom_site_fract_x
 _atom_site_fract_y
 _atom_site_fract_z
 _atom_site_occupancy
  Tm  Tm0  1  0.605444  0.394556  0.250000  1
  Th  Th1  1  0.392786  0.607214  0.750000  1
  Co  Co2  1  0.180347  0.819653  0.750000  1
  Si  Si3  1  0.963925  0.036075  0.250000  1
  Si  Si4  1  0.044238  0.955762  0.750000  1
  Si  Si5  1  0.245372  0.754628  0.250000  1
  Si  Si6  1  0.745212  0.254788  0.750000  1
  Ni  Ni7  1  0.822677  0.177323  0.250000  1
