# generated using pymatgen
data_Lu5CuSiBi
_symmetry_space_group_name_H-M   'P 1'
_cell_length_a   8.34808540
_cell_length_b   8.34808536
_cell_length_c   8.60244185
_cell_angle_alpha   124.89467705
_cell_angle_beta   124.89467728
_cell_angle_gamma   79.68850039
_symmetry_Int_Tables_number   1
_chemical_formula_structural   Lu5CuSiBi
_chemical_formula_sum   'Lu10 Cu2 Si2 Bi2'
_cell_volume   393.39463228
_cell_formula_units_Z   2
loop_
 _symmetry_equiv_pos_site_id
 _symmetry_equiv_pos_as_xyz
  1  'x, y, z'
loop_
 _atom_site_type_symbol
 _atom_site_label
 _atom_site_symmetry_multiplicity
 _atom_site_fract_x
 _atom_site_fract_y
 _atom_site_fract_z
 _atom_site_occupancy
  Lu  Lu0  1  0.000000  0.000000  0.000000  1
  Lu  Lu1  1  0.500000  0.500000  0.000000  1
  Lu  Lu2  1  0.784736  0.284736  0.792152  1
  Lu  Lu3  1  0.215264  0.715264  0.207848  1
  Lu  Lu4  1  0.492585  0.992585  0.207848  1
  Lu  Lu5  1  0.292677  0.475077  0.500000  1
  Lu  Lu6  1  0.024923  0.207323  0.500000  1
  Lu  Lu7  1  0.507415  0.007415  0.792152  1
  Lu  Lu8  1  0.707323  0.524923  0.500000  1
  Lu  Lu9  1  0.975077  0.792677  0.500000  1
  Cu  Cu10  1  0.632690  0.867310  0.500000  1
  Cu  Cu11  1  0.367310  0.132690  0.500000  1
  Si  Si12  1  0.152289  0.652289  0.804578  1
  Si  Si13  1  0.847711  0.347711  0.195422  1
  Bi  Bi14  1  0.250000  0.250000  0.000000  1
  Bi  Bi15  1  0.750000  0.750000  0.000000  1
