# generated using pymatgen
data_LiNdTmSi3Ag
_symmetry_space_group_name_H-M   'P 1'
_cell_length_a   9.29917872
_cell_length_b   9.29917872
_cell_length_c   6.97527500
_cell_angle_alpha   90.00000000
_cell_angle_beta   90.00000000
_cell_angle_gamma   153.48444430
_symmetry_Int_Tables_number   1
_chemical_formula_structural   LiNdTmSi3Ag
_chemical_formula_sum   'Li2 Nd2 Tm2 Si6 Ag2'
_cell_volume   269.28636950
_cell_formula_units_Z   2
loop_
 _symmetry_equiv_pos_site_id
 _symmetry_equiv_pos_as_xyz
  1  'x, y, z'
loop_
 _atom_site_type_symbol
 _atom_site_label
 _atom_site_symmetry_multiplicity
 _atom_site_fract_x
 _atom_site_fract_y
 _atom_site_fract_z
 _atom_site_occupancy
  Li  Li0  1  0.807886  0.192114  0.939369  1
  Li  Li1  1  0.807886  0.192114  0.560631  1
  Nd  Nd2  1  0.555053  0.444947  0.250000  1
  Nd  Nd3  1  0.446377  0.553623  0.750000  1
  Tm  Tm4  1  0.347409  0.652591  0.250000  1
  Tm  Tm5  1  0.651770  0.348230  0.750000  1
  Si  Si6  1  0.727208  0.272792  0.250000  1
  Si  Si7  1  0.277606  0.722394  0.750000  1
  Si  Si8  1  0.057758  0.942242  0.922024  1
  Si  Si9  1  0.939885  0.060115  0.077840  1
  Si  Si10  1  0.939885  0.060115  0.422160  1
  Si  Si11  1  0.057758  0.942242  0.577976  1
  Ag  Ag12  1  0.191759  0.808241  0.048563  1
  Ag  Ag13  1  0.191759  0.808241  0.451437  1
