# generated using pymatgen
data_HfPa3Ga6Os7
_symmetry_space_group_name_H-M   'P 1'
_cell_length_a   7.27243459
_cell_length_b   7.27243545
_cell_length_c   7.27243600
_cell_angle_alpha   109.55057446
_cell_angle_beta   109.55057687
_cell_angle_gamma   109.55057271
_symmetry_Int_Tables_number   1
_chemical_formula_structural   HfPa3Ga6Os7
_chemical_formula_sum   'Hf1 Pa3 Ga6 Os7'
_cell_volume   295.21278689
_cell_formula_units_Z   1
loop_
 _symmetry_equiv_pos_site_id
 _symmetry_equiv_pos_as_xyz
  1  'x, y, z'
loop_
 _atom_site_type_symbol
 _atom_site_label
 _atom_site_symmetry_multiplicity
 _atom_site_fract_x
 _atom_site_fract_y
 _atom_site_fract_z
 _atom_site_occupancy
  Hf  Hf0  1  0.500000  0.500000  0.500000  1
  Pa  Pa1  1  0.000000  0.000000  0.500000  1
  Pa  Pa2  1  0.000000  0.500000  0.000000  1
  Pa  Pa3  1  0.500000  0.000000  0.000000  1
  Ga  Ga4  1  0.689273  0.689273  0.992494  1
  Ga  Ga5  1  0.310727  0.007506  0.310727  1
  Ga  Ga6  1  0.007506  0.310727  0.310727  1
  Ga  Ga7  1  0.310727  0.310727  0.007506  1
  Ga  Ga8  1  0.689273  0.992494  0.689273  1
  Ga  Ga9  1  0.992494  0.689273  0.689273  1
  Os  Os10  1  0.749017  0.250983  0.500000  1
  Os  Os11  1  0.749017  0.500000  0.250983  1
  Os  Os12  1  0.500000  0.250983  0.749017  1
  Os  Os13  1  0.250983  0.500000  0.749017  1
  Os  Os14  1  0.250983  0.749017  0.500000  1
  Os  Os15  1  0.500000  0.749017  0.250983  1
  Os  Os16  1  0.000000  0.000000  0.000000  1
