# generated using pymatgen
data_Er12In2Fe2Ru
_symmetry_space_group_name_H-M   'P 1'
_cell_length_a   8.30704796
_cell_length_b   8.30704788
_cell_length_c   8.30704770
_cell_angle_alpha   108.68270728
_cell_angle_beta   108.68270052
_cell_angle_gamma   111.06003606
_symmetry_Int_Tables_number   1
_chemical_formula_structural   Er12In2Fe2Ru
_chemical_formula_sum   'Er12 In2 Fe2 Ru1'
_cell_volume   441.02875283
_cell_formula_units_Z   1
loop_
 _symmetry_equiv_pos_site_id
 _symmetry_equiv_pos_as_xyz
  1  'x, y, z'
loop_
 _atom_site_type_symbol
 _atom_site_label
 _atom_site_symmetry_multiplicity
 _atom_site_fract_x
 _atom_site_fract_y
 _atom_site_fract_z
 _atom_site_occupancy
  Er  Er0  1  0.193031  0.431935  0.238904  1
  Er  Er1  1  0.806969  0.568065  0.761096  1
  Er  Er2  1  0.193031  0.954128  0.761096  1
  Er  Er3  1  0.954128  0.193031  0.761096  1
  Er  Er4  1  0.806969  0.045872  0.238904  1
  Er  Er5  1  0.045872  0.806969  0.238904  1
  Er  Er6  1  0.431935  0.193031  0.238904  1
  Er  Er7  1  0.568065  0.806969  0.761096  1
  Er  Er8  1  0.307496  0.307496  0.614992  1
  Er  Er9  1  0.692504  0.692504  0.385008  1
  Er  Er10  1  0.692504  0.307496  0.000000  1
  Er  Er11  1  0.307496  0.692504  0.000000  1
  In  In12  1  0.000000  0.500000  0.500000  1
  In  In13  1  0.500000  0.000000  0.500000  1
  Fe  Fe14  1  0.384642  0.384642  0.000000  1
  Fe  Fe15  1  0.615358  0.615358  0.000000  1
  Ru  Ru16  1  0.000000  0.000000  0.000000  1
