# generated using pymatgen
data_Tb8DyHoSn8
_symmetry_space_group_name_H-M   'P 1'
_cell_length_a   8.06467600
_cell_length_b   8.21829700
_cell_length_c   15.52255800
_cell_angle_alpha   90.00000000
_cell_angle_beta   90.00000000
_cell_angle_gamma   90.00000000
_symmetry_Int_Tables_number   1
_chemical_formula_structural   Tb8DyHoSn8
_chemical_formula_sum   'Tb16 Dy2 Ho2 Sn16'
_cell_volume   1028.80258687
_cell_formula_units_Z   2
loop_
 _symmetry_equiv_pos_site_id
 _symmetry_equiv_pos_as_xyz
  1  'x, y, z'
loop_
 _atom_site_type_symbol
 _atom_site_label
 _atom_site_symmetry_multiplicity
 _atom_site_fract_x
 _atom_site_fract_y
 _atom_site_fract_z
 _atom_site_occupancy
  Tb  Tb0  1  0.367558  0.836354  0.878177  1
  Tb  Tb1  1  0.867558  0.663646  0.621823  1
  Tb  Tb2  1  0.632427  0.163664  0.378149  1
  Tb  Tb3  1  0.132427  0.336336  0.121851  1
  Tb  Tb4  1  0.632427  0.163664  0.121851  1
  Tb  Tb5  1  0.132427  0.336336  0.378149  1
  Tb  Tb6  1  0.367558  0.836354  0.621823  1
  Tb  Tb7  1  0.867558  0.663646  0.878177  1
  Tb  Tb8  1  0.520548  0.320443  0.902062  1
  Tb  Tb9  1  0.020548  0.179557  0.597938  1
  Tb  Tb10  1  0.479462  0.679566  0.402044  1
  Tb  Tb11  1  0.979462  0.820434  0.097956  1
  Tb  Tb12  1  0.479462  0.679566  0.097956  1
  Tb  Tb13  1  0.979462  0.820434  0.402044  1
  Tb  Tb14  1  0.520548  0.320443  0.597938  1
  Tb  Tb15  1  0.020548  0.179557  0.902062  1
  Dy  Dy16  1  0.800751  0.497786  0.250000  1
  Dy  Dy17  1  0.300751  0.002214  0.250000  1
  Ho  Ho18  1  0.199237  0.502180  0.750000  1
  Ho  Ho19  1  0.699237  0.997820  0.750000  1
  Sn  Sn20  1  0.292460  0.035477  0.042063  1
  Sn  Sn21  1  0.792460  0.464523  0.457937  1
  Sn  Sn22  1  0.707544  0.964525  0.542045  1
  Sn  Sn23  1  0.207544  0.535475  0.957955  1
  Sn  Sn24  1  0.707544  0.964525  0.957955  1
  Sn  Sn25  1  0.207544  0.535475  0.542045  1
  Sn  Sn26  1  0.292460  0.035477  0.457937  1
  Sn  Sn27  1  0.792460  0.464523  0.042063  1
  Sn  Sn28  1  0.565519  0.618364  0.750000  1
  Sn  Sn29  1  0.065519  0.881636  0.750000  1
  Sn  Sn30  1  0.434501  0.381617  0.250000  1
  Sn  Sn31  1  0.934501  0.118383  0.250000  1
  Sn  Sn32  1  0.328944  0.146770  0.750000  1
  Sn  Sn33  1  0.828944  0.353230  0.750000  1
  Sn  Sn34  1  0.671047  0.853181  0.250000  1
  Sn  Sn35  1  0.171047  0.646819  0.250000  1
