# generated using pymatgen
data_Pa2CrFeB8
_symmetry_space_group_name_H-M   'P 1'
_cell_length_a   3.50987000
_cell_length_b   5.92203109
_cell_length_c   11.47722706
_cell_angle_alpha   90.09633599
_cell_angle_beta   90.00000000
_cell_angle_gamma   90.00000000
_symmetry_Int_Tables_number   1
_chemical_formula_structural   Pa2CrFeB8
_chemical_formula_sum   'Pa4 Cr2 Fe2 B16'
_cell_volume   238.56024603
_cell_formula_units_Z   2
loop_
 _symmetry_equiv_pos_site_id
 _symmetry_equiv_pos_as_xyz
  1  'x, y, z'
loop_
 _atom_site_type_symbol
 _atom_site_label
 _atom_site_symmetry_multiplicity
 _atom_site_fract_x
 _atom_site_fract_y
 _atom_site_fract_z
 _atom_site_occupancy
  Pa  Pa0  1  0.500000  0.373328  0.149460  1
  Pa  Pa1  1  0.500000  0.626672  0.850540  1
  Pa  Pa2  1  0.500000  0.126002  0.651137  1
  Pa  Pa3  1  0.500000  0.873998  0.348863  1
  Cr  Cr4  1  0.500000  0.369709  0.412523  1
  Cr  Cr5  1  0.500000  0.630291  0.587477  1
  Fe  Fe6  1  0.500000  0.136112  0.908394  1
  Fe  Fe7  1  0.500000  0.863888  0.091606  1
  B  B8  1  0.000000  0.111438  0.045473  1
  B  B9  1  0.000000  0.888562  0.954527  1
  B  B10  1  0.000000  0.387279  0.545390  1
  B  B11  1  0.000000  0.612721  0.454610  1
  B  B12  1  0.000000  0.137615  0.466705  1
  B  B13  1  0.000000  0.862385  0.533295  1
  B  B14  1  0.000000  0.360898  0.966657  1
  B  B15  1  0.000000  0.639102  0.033343  1
  B  B16  1  0.000000  0.024093  0.189623  1
  B  B17  1  0.000000  0.975907  0.810377  1
  B  B18  1  0.000000  0.473702  0.690723  1
  B  B19  1  0.000000  0.526298  0.309277  1
  B  B20  1  0.000000  0.217115  0.313331  1
  B  B21  1  0.000000  0.782885  0.686669  1
  B  B22  1  0.000000  0.282388  0.815041  1
  B  B23  1  0.000000  0.717612  0.184959  1
