# generated using pymatgen
data_Ho16In4TcPd3
_symmetry_space_group_name_H-M   'P 1'
_cell_length_a   9.70789590
_cell_length_b   9.70789512
_cell_length_c   9.70789540
_cell_angle_alpha   59.46866612
_cell_angle_beta   59.46866767
_cell_angle_gamma   59.46866172
_symmetry_Int_Tables_number   1
_chemical_formula_structural   Ho16In4TcPd3
_chemical_formula_sum   'Ho16 In4 Tc1 Pd3'
_cell_volume   639.11542051
_cell_formula_units_Z   1
loop_
 _symmetry_equiv_pos_site_id
 _symmetry_equiv_pos_as_xyz
  1  'x, y, z'
loop_
 _atom_site_type_symbol
 _atom_site_label
 _atom_site_symmetry_multiplicity
 _atom_site_fract_x
 _atom_site_fract_y
 _atom_site_fract_z
 _atom_site_occupancy
  Ho  Ho0  1  0.352825  0.352825  0.352825  1
  Ho  Ho1  1  0.351048  0.351048  0.944463  1
  Ho  Ho2  1  0.351048  0.944463  0.351048  1
  Ho  Ho3  1  0.944463  0.351048  0.351048  1
  Ho  Ho4  1  0.816794  0.188416  0.188416  1
  Ho  Ho5  1  0.188788  0.810226  0.810226  1
  Ho  Ho6  1  0.188416  0.816794  0.188416  1
  Ho  Ho7  1  0.810226  0.188788  0.810226  1
  Ho  Ho8  1  0.188416  0.188416  0.816794  1
  Ho  Ho9  1  0.810226  0.810226  0.188788  1
  Ho  Ho10  1  0.933469  0.564291  0.564291  1
  Ho  Ho11  1  0.555200  0.939340  0.939340  1
  Ho  Ho12  1  0.564291  0.933469  0.564291  1
  Ho  Ho13  1  0.939340  0.555200  0.939340  1
  Ho  Ho14  1  0.564291  0.564291  0.933469  1
  Ho  Ho15  1  0.939340  0.939340  0.555200  1
  In  In16  1  0.583555  0.583555  0.583555  1
  In  In17  1  0.582662  0.582662  0.249920  1
  In  In18  1  0.582662  0.249920  0.582662  1
  In  In19  1  0.249920  0.582662  0.582662  1
  Tc  Tc20  1  0.144615  0.144615  0.144615  1
  Pd  Pd21  1  0.144647  0.144647  0.569106  1
  Pd  Pd22  1  0.144647  0.569106  0.144647  1
  Pd  Pd23  1  0.569106  0.144647  0.144647  1
