# generated using pymatgen
data_Sc12Co2PtBr16
_symmetry_space_group_name_H-M   'P 1'
_cell_length_a   8.78360880
_cell_length_b   11.51434783
_cell_length_c   12.13502960
_cell_angle_alpha   117.53680296
_cell_angle_beta   101.16660619
_cell_angle_gamma   100.69024490
_symmetry_Int_Tables_number   1
_chemical_formula_structural   Sc12Co2PtBr16
_chemical_formula_sum   'Sc12 Co2 Pt1 Br16'
_cell_volume   1012.90353081
_cell_formula_units_Z   1
loop_
 _symmetry_equiv_pos_site_id
 _symmetry_equiv_pos_as_xyz
  1  'x, y, z'
loop_
 _atom_site_type_symbol
 _atom_site_label
 _atom_site_symmetry_multiplicity
 _atom_site_fract_x
 _atom_site_fract_y
 _atom_site_fract_z
 _atom_site_occupancy
  Sc  Sc0  1  0.091667  0.266054  0.356237  1
  Sc  Sc1  1  0.908333  0.733946  0.643763  1
  Sc  Sc2  1  0.774693  0.536032  0.326764  1
  Sc  Sc3  1  0.225307  0.463968  0.673236  1
  Sc  Sc4  1  0.282507  0.733929  0.643539  1
  Sc  Sc5  1  0.717493  0.266071  0.356461  1
  Sc  Sc6  1  0.148739  0.535479  0.326955  1
  Sc  Sc7  1  0.851261  0.464521  0.673045  1
  Sc  Sc8  1  0.407613  0.361729  0.279452  1
  Sc  Sc9  1  0.592387  0.638271  0.720548  1
  Sc  Sc10  1  0.459642  0.312574  0.520182  1
  Sc  Sc11  1  0.540358  0.687426  0.479818  1
  Co  Co12  1  0.340898  0.500031  0.499732  1
  Co  Co13  1  0.659103  0.499969  0.500268  1
  Pt  Pt14  1  0.000000  0.500000  0.500000  1
  Br  Br15  1  0.393630  0.734215  0.872983  1
  Br  Br16  1  0.606370  0.265785  0.127017  1
  Br  Br17  1  0.184296  0.951656  0.777069  1
  Br  Br18  1  0.815704  0.048344  0.222931  1
  Br  Br19  1  0.340351  0.107002  0.257619  1
  Br  Br20  1  0.659649  0.892998  0.742381  1
  Br  Br21  1  0.558491  0.441341  0.790817  1
  Br  Br22  1  0.441509  0.558659  0.209183  1
  Br  Br23  1  0.306799  0.817497  0.464320  1
  Br  Br24  1  0.693201  0.182503  0.535680  1
  Br  Br25  1  0.170047  0.181143  0.533204  1
  Br  Br26  1  0.829953  0.818857  0.466796  1
  Br  Br27  1  0.927604  0.570508  0.167481  1
  Br  Br28  1  0.072396  0.429492  0.832519  1
  Br  Br29  1  0.918633  0.733078  0.873292  1
  Br  Br30  1  0.081367  0.266922  0.126708  1
