# generated using pymatgen
data_CaTbGa9Ru5
_symmetry_space_group_name_H-M   'P 1'
_cell_length_a   8.04193145
_cell_length_b   8.04193085
_cell_length_c   8.04193190
_cell_angle_alpha   134.96046028
_cell_angle_beta   134.40674414
_cell_angle_gamma   66.02323815
_symmetry_Int_Tables_number   1
_chemical_formula_structural   CaTbGa9Ru5
_chemical_formula_sum   'Ca1 Tb1 Ga9 Ru5'
_cell_volume   258.88381858
_cell_formula_units_Z   1
loop_
 _symmetry_equiv_pos_site_id
 _symmetry_equiv_pos_as_xyz
  1  'x, y, z'
loop_
 _atom_site_type_symbol
 _atom_site_label
 _atom_site_symmetry_multiplicity
 _atom_site_fract_x
 _atom_site_fract_y
 _atom_site_fract_z
 _atom_site_occupancy
  Ca  Ca0  1  0.500000  0.000000  0.500000  1
  Tb  Tb1  1  0.000000  0.500000  0.500000  1
  Ga  Ga2  1  0.438458  0.859503  0.002065  1
  Ga  Ga3  1  0.142562  0.140497  0.578955  1
  Ga  Ga4  1  0.857438  0.436393  0.997935  1
  Ga  Ga5  1  0.857438  0.859503  0.421045  1
  Ga  Ga6  1  0.561542  0.140497  0.997935  1
  Ga  Ga7  1  0.142562  0.563607  0.002065  1
  Ga  Ga8  1  0.561542  0.563607  0.421045  1
  Ga  Ga9  1  0.000000  0.000000  0.000000  1
  Ga  Ga10  1  0.438458  0.436393  0.578955  1
  Ru  Ru11  1  0.181755  0.181755  0.000000  1
  Ru  Ru12  1  0.818245  0.818245  0.000000  1
  Ru  Ru13  1  0.249143  0.749143  0.500000  1
  Ru  Ru14  1  0.750857  0.250857  0.500000  1
  Ru  Ru15  1  0.500000  0.500000  0.000000  1
