# generated using pymatgen
data_Sm2Co3P7Ru9
_symmetry_space_group_name_H-M   'P 1'
_cell_length_a   9.36401100
_cell_length_b   9.36401040
_cell_length_c   3.85039500
_cell_angle_alpha   90.00000000
_cell_angle_beta   90.00000000
_cell_angle_gamma   120.00000472
_symmetry_Int_Tables_number   1
_chemical_formula_structural   Sm2Co3P7Ru9
_chemical_formula_sum   'Sm2 Co3 P7 Ru9'
_cell_volume   292.38810340
_cell_formula_units_Z   1
loop_
 _symmetry_equiv_pos_site_id
 _symmetry_equiv_pos_as_xyz
  1  'x, y, z'
loop_
 _atom_site_type_symbol
 _atom_site_label
 _atom_site_symmetry_multiplicity
 _atom_site_fract_x
 _atom_site_fract_y
 _atom_site_fract_z
 _atom_site_occupancy
  Sm  Sm0  1  0.333333  0.666667  0.500000  1
  Sm  Sm1  1  0.000000  0.000000  0.000000  1
  Co  Co2  1  0.823556  0.601093  0.000000  1
  Co  Co3  1  0.398907  0.222463  0.000000  1
  Co  Co4  1  0.777537  0.176444  0.000000  1
  P  P5  1  0.779660  0.732686  0.500000  1
  P  P6  1  0.267314  0.046974  0.500000  1
  P  P7  1  0.953026  0.220340  0.500000  1
  P  P8  1  0.666667  0.333333  0.000000  1
  P  P9  1  0.075718  0.634518  0.000000  1
  P  P10  1  0.365482  0.441200  0.000000  1
  P  P11  1  0.558800  0.924282  0.000000  1
  Ru  Ru12  1  0.090982  0.393526  0.000000  1
  Ru  Ru13  1  0.606474  0.697456  0.000000  1
  Ru  Ru14  1  0.302544  0.909018  0.000000  1
  Ru  Ru15  1  0.047973  0.766639  0.500000  1
  Ru  Ru16  1  0.233361  0.281334  0.500000  1
  Ru  Ru17  1  0.718666  0.952027  0.500000  1
  Ru  Ru18  1  0.872252  0.418483  0.500000  1
  Ru  Ru19  1  0.581517  0.453769  0.500000  1
  Ru  Ru20  1  0.546231  0.127748  0.500000  1
