# generated using pymatgen
data_Nd8Hf12Si15Sn
_symmetry_space_group_name_H-M   'P 1'
_cell_length_a   7.40889970
_cell_length_b   7.44006005
_cell_length_c   13.65657350
_cell_angle_alpha   89.75803233
_cell_angle_beta   89.97538691
_cell_angle_gamma   89.89799999
_symmetry_Int_Tables_number   1
_chemical_formula_structural   Nd8Hf12Si15Sn
_chemical_formula_sum   'Nd8 Hf12 Si15 Sn1'
_cell_volume   752.77866642
_cell_formula_units_Z   1
loop_
 _symmetry_equiv_pos_site_id
 _symmetry_equiv_pos_as_xyz
  1  'x, y, z'
loop_
 _atom_site_type_symbol
 _atom_site_label
 _atom_site_symmetry_multiplicity
 _atom_site_fract_x
 _atom_site_fract_y
 _atom_site_fract_z
 _atom_site_occupancy
  Nd  Nd0  1  0.987792  0.342779  0.212768  1
  Nd  Nd1  1  0.006184  0.657190  0.716181  1
  Nd  Nd2  1  0.150215  0.502860  0.470332  1
  Nd  Nd3  1  0.507279  0.840975  0.032797  1
  Nd  Nd4  1  0.843117  0.505179  0.964191  1
  Nd  Nd5  1  0.496244  0.155478  0.538770  1
  Nd  Nd6  1  0.342505  0.994291  0.784966  1
  Nd  Nd7  1  0.663190  0.999643  0.283350  1
  Hf  Hf8  1  0.174100  0.174624  0.999067  1
  Hf  Hf9  1  0.825680  0.827331  0.501061  1
  Hf  Hf10  1  0.325400  0.682137  0.248140  1
  Hf  Hf11  1  0.675227  0.325354  0.750464  1
  Hf  Hf12  1  0.145494  0.987886  0.373827  1
  Hf  Hf13  1  0.849807  0.005421  0.873059  1
  Hf  Hf14  1  0.505396  0.652265  0.623864  1
  Hf  Hf15  1  0.348906  0.493221  0.876736  1
  Hf  Hf16  1  0.494970  0.349024  0.117227  1
  Hf  Hf17  1  0.662137  0.516156  0.380608  1
  Hf  Hf18  1  0.993181  0.151812  0.627423  1
  Hf  Hf19  1  0.003899  0.846575  0.124263  1
  Si  Si20  1  0.633754  0.702897  0.814315  1
  Si  Si21  1  0.203284  0.868197  0.565746  1
  Si  Si22  1  0.134170  0.795995  0.934453  1
  Si  Si23  1  0.797052  0.132914  0.062895  1
  Si  Si24  1  0.865816  0.202993  0.436080  1
  Si  Si25  1  0.296683  0.366651  0.686465  1
  Si  Si26  1  0.700873  0.633355  0.185243  1
  Si  Si27  1  0.290832  0.042643  0.180580  1
  Si  Si28  1  0.709365  0.948692  0.686266  1
  Si  Si29  1  0.449348  0.793578  0.435458  1
  Si  Si30  1  0.207971  0.549915  0.064448  1
  Si  Si31  1  0.549764  0.206977  0.933383  1
  Si  Si32  1  0.789591  0.449720  0.567130  1
  Si  Si33  1  0.050176  0.291181  0.814754  1
  Si  Si34  1  0.952595  0.705956  0.313331  1
  Sn  Sn35  1  0.368004  0.298136  0.320358  1
