# generated using pymatgen
data_Hf4Fe11(P4Ru3)3
_symmetry_space_group_name_H-M   'P 1'
_cell_length_a   3.72120800
_cell_length_b   10.31509201
_cell_length_c   11.91032001
_cell_angle_alpha   89.99497905
_cell_angle_beta   90.00000000
_cell_angle_gamma   90.00000000
_symmetry_Int_Tables_number   1
_chemical_formula_structural   Hf4Fe11(P4Ru3)3
_chemical_formula_sum   'Hf4 Fe11 P12 Ru9'
_cell_volume   457.17290239
_cell_formula_units_Z   1
loop_
 _symmetry_equiv_pos_site_id
 _symmetry_equiv_pos_as_xyz
  1  'x, y, z'
loop_
 _atom_site_type_symbol
 _atom_site_label
 _atom_site_symmetry_multiplicity
 _atom_site_fract_x
 _atom_site_fract_y
 _atom_site_fract_z
 _atom_site_occupancy
  Hf  Hf0  1  0.250000  0.581548  0.710034  1
  Hf  Hf1  1  0.250000  0.916685  0.211146  1
  Hf  Hf2  1  0.750000  0.423225  0.291656  1
  Hf  Hf3  1  0.750000  0.081162  0.789436  1
  Fe  Fe4  1  0.250000  0.272528  0.674713  1
  Fe  Fe5  1  0.750000  0.772509  0.824913  1
  Fe  Fe6  1  0.750000  0.726454  0.325789  1
  Fe  Fe7  1  0.250000  0.880767  0.699955  1
  Fe  Fe8  1  0.250000  0.621108  0.200270  1
  Fe  Fe9  1  0.750000  0.112736  0.301249  1
  Fe  Fe10  1  0.750000  0.382609  0.798088  1
  Fe  Fe11  1  0.250000  0.462579  0.931456  1
  Fe  Fe12  1  0.250000  0.036972  0.435333  1
  Fe  Fe13  1  0.750000  0.538971  0.065433  1
  Fe  Fe14  1  0.750000  0.961778  0.567693  1
  P  P15  1  0.250000  0.433815  0.113380  1
  P  P16  1  0.250000  0.073299  0.616790  1
  P  P17  1  0.750000  0.573817  0.883315  1
  P  P18  1  0.750000  0.924102  0.385832  1
  P  P19  1  0.250000  0.270034  0.857459  1
  P  P20  1  0.250000  0.230400  0.366312  1
  P  P21  1  0.750000  0.730428  0.142077  1
  P  P22  1  0.750000  0.769498  0.642137  1
  P  P23  1  0.250000  0.603689  0.383123  1
  P  P24  1  0.250000  0.895848  0.881858  1
  P  P25  1  0.750000  0.397795  0.616868  1
  P  P26  1  0.750000  0.098719  0.114774  1
  Ru  Ru27  1  0.250000  0.704783  0.984996  1
  Ru  Ru28  1  0.250000  0.795281  0.486090  1
  Ru  Ru29  1  0.750000  0.294048  0.008104  1
  Ru  Ru30  1  0.750000  0.204573  0.514409  1
  Ru  Ru31  1  0.250000  0.406041  0.481675  1
  Ru  Ru32  1  0.250000  0.093688  0.975625  1
  Ru  Ru33  1  0.750000  0.596793  0.521127  1
  Ru  Ru34  1  0.750000  0.902465  0.020297  1
  Ru  Ru35  1  0.250000  0.229254  0.176588  1
