# generated using pymatgen
data_Tb7Y9(AgRh)4
_symmetry_space_group_name_H-M   'P 1'
_cell_length_a   9.57311881
_cell_length_b   9.54155265
_cell_length_c   9.58188513
_cell_angle_alpha   60.07748425
_cell_angle_beta   60.29197770
_cell_angle_gamma   60.17057177
_symmetry_Int_Tables_number   1
_chemical_formula_structural   Tb7Y9(AgRh)4
_chemical_formula_sum   'Tb7 Y9 Ag4 Rh4'
_cell_volume   621.40148080
_cell_formula_units_Z   1
loop_
 _symmetry_equiv_pos_site_id
 _symmetry_equiv_pos_as_xyz
  1  'x, y, z'
loop_
 _atom_site_type_symbol
 _atom_site_label
 _atom_site_symmetry_multiplicity
 _atom_site_fract_x
 _atom_site_fract_y
 _atom_site_fract_z
 _atom_site_occupancy
  Tb  Tb0  1  0.602671  0.602679  0.603557  1
  Tb  Tb1  1  0.603357  0.602276  0.191406  1
  Tb  Tb2  1  0.603627  0.191027  0.602692  1
  Tb  Tb3  1  0.191352  0.603018  0.603371  1
  Tb  Tb4  1  0.061759  0.438739  0.436494  1
  Tb  Tb5  1  0.436511  0.063009  0.061743  1
  Tb  Tb6  1  0.436881  0.063131  0.436866  1
  Y  Y7  1  0.061807  0.438197  0.061794  1
  Y  Y8  1  0.436473  0.438413  0.061816  1
  Y  Y9  1  0.061802  0.063329  0.436467  1
  Y  Y10  1  0.185205  0.814995  0.814426  1
  Y  Y11  1  0.814436  0.185377  0.185200  1
  Y  Y12  1  0.813915  0.186100  0.813909  1
  Y  Y13  1  0.185107  0.814897  0.185113  1
  Y  Y14  1  0.814149  0.814589  0.185268  1
  Y  Y15  1  0.185300  0.186006  0.814116  1
  Ag  Ag16  1  0.833213  0.830764  0.832251  1
  Ag  Ag17  1  0.833265  0.831186  0.504899  1
  Ag  Ag18  1  0.832228  0.503779  0.833221  1
  Ag  Ag19  1  0.504915  0.830611  0.833278  1
  Rh  Rh20  1  0.392811  0.391580  0.395441  1
  Rh  Rh21  1  0.395648  0.391595  0.818177  1
  Rh  Rh22  1  0.395422  0.820098  0.392871  1
  Rh  Rh23  1  0.818146  0.394606  0.395630  1
