# generated using pymatgen
data_Tb12Dy8(Ir3Rh)3
_symmetry_space_group_name_H-M   'P 1'
_cell_length_a   10.90545700
_cell_length_b   10.90590400
_cell_length_c   6.40159500
_cell_angle_alpha   90.00000000
_cell_angle_beta   90.00000000
_cell_angle_gamma   89.99731008
_symmetry_Int_Tables_number   1
_chemical_formula_structural   Tb12Dy8(Ir3Rh)3
_chemical_formula_sum   'Tb12 Dy8 Ir9 Rh3'
_cell_volume   761.36644865
_cell_formula_units_Z   1
loop_
 _symmetry_equiv_pos_site_id
 _symmetry_equiv_pos_as_xyz
  1  'x, y, z'
loop_
 _atom_site_type_symbol
 _atom_site_label
 _atom_site_symmetry_multiplicity
 _atom_site_fract_x
 _atom_site_fract_y
 _atom_site_fract_z
 _atom_site_occupancy
  Tb  Tb0  1  0.290378  0.088827  0.379835  1
  Tb  Tb1  1  0.290242  0.910727  0.879644  1
  Tb  Tb2  1  0.709758  0.089273  0.879644  1
  Tb  Tb3  1  0.709622  0.911173  0.379835  1
  Tb  Tb4  1  0.589243  0.790295  0.879736  1
  Tb  Tb5  1  0.588796  0.209574  0.379932  1
  Tb  Tb6  1  0.411204  0.790426  0.379932  1
  Tb  Tb7  1  0.410757  0.209705  0.879736  1
  Tb  Tb8  1  0.208682  0.411227  0.619053  1
  Tb  Tb9  1  0.209109  0.589093  0.121386  1
  Tb  Tb10  1  0.790891  0.410907  0.121386  1
  Tb  Tb11  1  0.791318  0.588773  0.619053  1
  Dy  Dy12  1  0.911002  0.709167  0.121321  1
  Dy  Dy13  1  0.911316  0.291247  0.618885  1
  Dy  Dy14  1  0.088684  0.708753  0.618885  1
  Dy  Dy15  1  0.088998  0.290833  0.121321  1
  Dy  Dy16  1  0.000000  0.000000  0.500380  1
  Dy  Dy17  1  0.000000  0.000000  0.000171  1
  Dy  Dy18  1  0.500000  0.500000  0.000092  1
  Dy  Dy19  1  0.500000  0.500000  0.500303  1
  Ir  Ir20  1  0.846059  0.153080  0.250079  1
  Ir  Ir21  1  0.846297  0.846484  0.750046  1
  Ir  Ir22  1  0.153703  0.153516  0.750046  1
  Ir  Ir23  1  0.153941  0.846920  0.250079  1
  Ir  Ir24  1  0.653524  0.346046  0.749693  1
  Ir  Ir25  1  0.653093  0.654187  0.249725  1
  Ir  Ir26  1  0.346907  0.345813  0.249725  1
  Ir  Ir27  1  0.346476  0.653954  0.749693  1
  Ir  Ir28  1  0.000000  0.500000  0.375204  1
  Rh  Rh29  1  0.500000  0.000000  0.124363  1
  Rh  Rh30  1  0.500000  0.000000  0.624662  1
  Rh  Rh31  1  0.000000  0.500000  0.876157  1
