# generated using pymatgen
data_Tb3NdCo8(PRu)12
_symmetry_space_group_name_H-M   'P 1'
_cell_length_a   3.80201700
_cell_length_b   10.64306764
_cell_length_c   12.13494374
_cell_angle_alpha   90.03984831
_cell_angle_beta   90.00000000
_cell_angle_gamma   90.00000000
_symmetry_Int_Tables_number   1
_chemical_formula_structural   Tb3NdCo8(PRu)12
_chemical_formula_sum   'Tb3 Nd1 Co8 P12 Ru12'
_cell_volume   491.04188553
_cell_formula_units_Z   1
loop_
 _symmetry_equiv_pos_site_id
 _symmetry_equiv_pos_as_xyz
  1  'x, y, z'
loop_
 _atom_site_type_symbol
 _atom_site_label
 _atom_site_symmetry_multiplicity
 _atom_site_fract_x
 _atom_site_fract_y
 _atom_site_fract_z
 _atom_site_occupancy
  Tb  Tb0  1  0.250000  0.915695  0.206471  1
  Tb  Tb1  1  0.750000  0.415252  0.293391  1
  Tb  Tb2  1  0.750000  0.084500  0.793520  1
  Nd  Nd3  1  0.250000  0.584146  0.706873  1
  Co  Co4  1  0.250000  0.888576  0.694839  1
  Co  Co5  1  0.250000  0.612463  0.196185  1
  Co  Co6  1  0.750000  0.112463  0.304305  1
  Co  Co7  1  0.750000  0.385730  0.806426  1
  Co  Co8  1  0.250000  0.462245  0.937114  1
  Co  Co9  1  0.250000  0.037169  0.434599  1
  Co  Co10  1  0.750000  0.536986  0.066514  1
  Co  Co11  1  0.750000  0.963810  0.564092  1
  P  P12  1  0.250000  0.425509  0.113534  1
  P  P13  1  0.250000  0.074399  0.611890  1
  P  P14  1  0.750000  0.574834  0.890544  1
  P  P15  1  0.750000  0.925998  0.387012  1
  P  P16  1  0.250000  0.272310  0.871420  1
  P  P17  1  0.250000  0.227301  0.370813  1
  P  P18  1  0.750000  0.728312  0.128701  1
  P  P19  1  0.750000  0.774437  0.627380  1
  P  P20  1  0.250000  0.601563  0.386916  1
  P  P21  1  0.250000  0.898388  0.887146  1
  P  P22  1  0.750000  0.395905  0.611341  1
  P  P23  1  0.750000  0.101659  0.112929  1
  Ru  Ru24  1  0.250000  0.706203  0.986436  1
  Ru  Ru25  1  0.250000  0.794346  0.485358  1
  Ru  Ru26  1  0.750000  0.293446  0.014746  1
  Ru  Ru27  1  0.750000  0.205386  0.513211  1
  Ru  Ru28  1  0.250000  0.404150  0.485173  1
  Ru  Ru29  1  0.250000  0.094720  0.985870  1
  Ru  Ru30  1  0.750000  0.594569  0.511121  1
  Ru  Ru31  1  0.750000  0.905547  0.014482  1
  Ru  Ru32  1  0.250000  0.223228  0.180188  1
  Ru  Ru33  1  0.250000  0.275682  0.679945  1
  Ru  Ru34  1  0.750000  0.778668  0.820253  1
  Ru  Ru35  1  0.750000  0.724403  0.319264  1
