# generated using pymatgen
data_Dy4HoMoRhO12
_symmetry_space_group_name_H-M   'P 1'
_cell_length_a   6.84560590
_cell_length_b   6.84560504
_cell_length_c   7.47398804
_cell_angle_alpha   73.89861291
_cell_angle_beta   73.89861671
_cell_angle_gamma   49.88120564
_symmetry_Int_Tables_number   1
_chemical_formula_structural   Dy4HoMoRhO12
_chemical_formula_sum   'Dy4 Ho1 Mo1 Rh1 O12'
_cell_volume   255.00263523
_cell_formula_units_Z   1
loop_
 _symmetry_equiv_pos_site_id
 _symmetry_equiv_pos_as_xyz
  1  'x, y, z'
loop_
 _atom_site_type_symbol
 _atom_site_label
 _atom_site_symmetry_multiplicity
 _atom_site_fract_x
 _atom_site_fract_y
 _atom_site_fract_z
 _atom_site_occupancy
  Dy  Dy0  1  0.318926  0.285999  0.358931  1
  Dy  Dy1  1  0.714001  0.681074  0.641069  1
  Dy  Dy2  1  0.319293  0.304971  0.827033  1
  Dy  Dy3  1  0.695029  0.680707  0.172967  1
  Ho  Ho4  1  0.010406  0.989594  0.500000  1
  Mo  Mo5  1  0.201864  0.798136  0.000000  1
  Rh  Rh6  1  0.752653  0.247347  0.000000  1
  O  O7  1  0.911079  0.437363  0.913786  1
  O  O8  1  0.413112  0.904296  0.915353  1
  O  O9  1  0.095704  0.586888  0.084647  1
  O  O10  1  0.562637  0.088921  0.086214  1
  O  O11  1  0.110564  0.590825  0.568375  1
  O  O12  1  0.603716  0.085677  0.576421  1
  O  O13  1  0.914323  0.396284  0.423579  1
  O  O14  1  0.409175  0.889436  0.431625  1
  O  O15  1  0.995477  0.000523  0.800350  1
  O  O16  1  0.999477  0.004523  0.199650  1
  O  O17  1  0.486616  0.514049  0.820200  1
  O  O18  1  0.485951  0.513384  0.179800  1
