# generated using pymatgen
data_DyFe3P12Rh
_symmetry_space_group_name_H-M   'P 1'
_cell_length_a   6.82369267
_cell_length_b   6.82369176
_cell_length_c   6.80969600
_cell_angle_alpha   109.42967157
_cell_angle_beta   109.42966889
_cell_angle_gamma   109.51273889
_symmetry_Int_Tables_number   1
_chemical_formula_structural   DyFe3P12Rh
_chemical_formula_sum   'Dy1 Fe3 P12 Rh1'
_cell_volume   244.21207742
_cell_formula_units_Z   1
loop_
 _symmetry_equiv_pos_site_id
 _symmetry_equiv_pos_as_xyz
  1  'x, y, z'
loop_
 _atom_site_type_symbol
 _atom_site_label
 _atom_site_symmetry_multiplicity
 _atom_site_fract_x
 _atom_site_fract_y
 _atom_site_fract_z
 _atom_site_occupancy
  Dy  Dy0  1  0.000000  0.000000  0.000000  1
  Fe  Fe1  1  0.500000  0.000000  0.000000  1
  Fe  Fe2  1  0.500000  0.500000  0.500000  1
  Fe  Fe3  1  0.000000  0.500000  0.000000  1
  P  P4  1  0.155600  0.790863  0.655873  1
  P  P5  1  0.149761  0.499079  0.348507  1
  P  P6  1  0.850239  0.500921  0.651493  1
  P  P7  1  0.364736  0.155600  0.499728  1
  P  P8  1  0.790863  0.635264  0.134991  1
  P  P9  1  0.844400  0.209137  0.344127  1
  P  P10  1  0.650682  0.149761  0.801253  1
  P  P11  1  0.500921  0.650682  0.849428  1
  P  P12  1  0.635264  0.844400  0.500272  1
  P  P13  1  0.499079  0.349318  0.150572  1
  P  P14  1  0.349318  0.850239  0.198747  1
  P  P15  1  0.209137  0.364736  0.865009  1
  Rh  Rh16  1  0.000000  0.000000  0.500000  1
