# generated using pymatgen
data_Sr4FeCo2O9
_symmetry_space_group_name_H-M   'P 1'
_cell_length_a   9.55299882
_cell_length_b   9.55850617
_cell_length_c   7.82332800
_cell_angle_alpha   90.00000000
_cell_angle_beta   89.97621322
_cell_angle_gamma   120.01906721
_symmetry_Int_Tables_number   1
_chemical_formula_structural   Sr4FeCo2O9
_chemical_formula_sum   'Sr12 Fe3 Co6 O27'
_cell_volume   618.54086136
_cell_formula_units_Z   3
loop_
 _symmetry_equiv_pos_site_id
 _symmetry_equiv_pos_as_xyz
  1  'x, y, z'
loop_
 _atom_site_type_symbol
 _atom_site_label
 _atom_site_symmetry_multiplicity
 _atom_site_fract_x
 _atom_site_fract_y
 _atom_site_fract_z
 _atom_site_occupancy
  Sr  Sr0  1  0.000097  0.327153  0.999360  1
  Sr  Sr1  1  0.328210  0.000460  0.000088  1
  Sr  Sr2  1  0.029862  0.694692  0.249814  1
  Sr  Sr3  1  0.305600  0.334979  0.249690  1
  Sr  Sr4  1  0.665434  0.970582  0.250367  1
  Sr  Sr5  1  0.364759  0.000400  0.499608  1
  Sr  Sr6  1  0.000015  0.364414  0.499903  1
  Sr  Sr7  1  0.635152  0.635584  0.500217  1
  Sr  Sr8  1  0.332495  0.303310  0.749770  1
  Sr  Sr9  1  0.696200  0.029165  0.750431  1
  Sr  Sr10  1  0.970367  0.666907  0.750420  1
  Sr  Sr11  1  0.671743  0.672381  0.998665  1
  Fe  Fe12  1  0.667198  0.333982  0.263276  1
  Fe  Fe13  1  0.999645  0.999477  0.506109  1
  Fe  Fe14  1  0.332816  0.666799  0.736655  1
  Co  Co15  1  0.333344  0.666407  0.078158  1
  Co  Co16  1  0.000514  0.000166  0.160068  1
  Co  Co17  1  0.333321  0.666898  0.401146  1
  Co  Co18  1  0.666673  0.333573  0.598941  1
  Co  Co19  1  0.999616  0.999701  0.839937  1
  Co  Co20  1  0.666655  0.333060  0.921712  1
  O  O21  1  0.000630  0.847811  0.003281  1
  O  O22  1  0.847171  0.999151  0.003653  1
  O  O23  1  0.680654  0.186905  0.069321  1
  O  O24  1  0.506814  0.318988  0.070100  1
  O  O25  1  0.812867  0.493043  0.069925  1
  O  O26  1  0.349192  0.830334  0.237070  1
  O  O27  1  0.481600  0.651161  0.237600  1
  O  O28  1  0.169675  0.518558  0.237429  1
  O  O29  1  0.160841  0.007684  0.308874  1
  O  O30  1  0.993519  0.152883  0.309734  1
  O  O31  1  0.848379  0.840770  0.311192  1
  O  O32  1  0.682919  0.184427  0.443987  1
  O  O33  1  0.816427  0.499438  0.444756  1
  O  O34  1  0.501233  0.318049  0.444813  1
  O  O35  1  0.498493  0.817039  0.555215  1
  O  O36  1  0.183334  0.682508  0.555277  1
  O  O37  1  0.317562  0.501769  0.556030  1
  O  O38  1  0.153330  0.992057  0.684649  1
  O  O39  1  0.006757  0.161099  0.685539  1
  O  O40  1  0.837367  0.845327  0.686578  1
  O  O41  1  0.830415  0.349329  0.762455  1
  O  O42  1  0.518758  0.169480  0.762279  1
  O  O43  1  0.650364  0.480785  0.762841  1
  O  O44  1  0.187018  0.680060  0.930014  1
  O  O45  1  0.493207  0.812313  0.929849  1
  O  O46  1  0.319467  0.506265  0.930604  1
  O  O47  1  0.152297  0.152662  0.002599  1
