# generated using pymatgen
data_Tm4Lu6NiSb5
_symmetry_space_group_name_H-M   'P 1'
_cell_length_a   7.83818200
_cell_length_b   9.05922400
_cell_length_c   11.71708200
_cell_angle_alpha   90.00000000
_cell_angle_beta   90.00000000
_cell_angle_gamma   90.00000000
_symmetry_Int_Tables_number   1
_chemical_formula_structural   Tm4Lu6NiSb5
_chemical_formula_sum   'Tm8 Lu12 Ni2 Sb10'
_cell_volume   832.00475998
_cell_formula_units_Z   2
loop_
 _symmetry_equiv_pos_site_id
 _symmetry_equiv_pos_as_xyz
  1  'x, y, z'
loop_
 _atom_site_type_symbol
 _atom_site_label
 _atom_site_symmetry_multiplicity
 _atom_site_fract_x
 _atom_site_fract_y
 _atom_site_fract_z
 _atom_site_occupancy
  Tm  Tm0  1  0.573458  0.500000  0.773678  1
  Tm  Tm1  1  0.426542  0.500000  0.273678  1
  Tm  Tm2  1  0.266749  0.500000  0.994528  1
  Tm  Tm3  1  0.733251  0.500000  0.494528  1
  Tm  Tm4  1  0.092041  0.500000  0.715182  1
  Tm  Tm5  1  0.907959  0.500000  0.215182  1
  Tm  Tm6  1  0.379896  0.000000  0.303823  1
  Tm  Tm7  1  0.620104  0.000000  0.803823  1
  Lu  Lu8  1  0.431995  0.181191  0.564930  1
  Lu  Lu9  1  0.568005  0.818809  0.064930  1
  Lu  Lu10  1  0.067827  0.721475  0.434705  1
  Lu  Lu11  1  0.932173  0.278525  0.934705  1
  Lu  Lu12  1  0.067827  0.278525  0.434705  1
  Lu  Lu13  1  0.932173  0.721475  0.934705  1
  Lu  Lu14  1  0.431995  0.818809  0.564930  1
  Lu  Lu15  1  0.568005  0.181191  0.064930  1
  Lu  Lu16  1  0.910244  0.000000  0.205477  1
  Lu  Lu17  1  0.089756  0.000000  0.705477  1
  Lu  Lu18  1  0.200990  0.000000  0.999188  1
  Lu  Lu19  1  0.799010  0.000000  0.499188  1
  Ni  Ni20  1  0.166917  0.000000  0.485928  1
  Ni  Ni21  1  0.833083  0.000000  0.985928  1
  Sb  Sb22  1  0.814709  0.741115  0.672492  1
  Sb  Sb23  1  0.185291  0.258885  0.172492  1
  Sb  Sb24  1  0.682604  0.241509  0.325823  1
  Sb  Sb25  1  0.317396  0.758491  0.825823  1
  Sb  Sb26  1  0.682604  0.758491  0.325823  1
  Sb  Sb27  1  0.317396  0.241509  0.825823  1
  Sb  Sb28  1  0.814709  0.258885  0.672492  1
  Sb  Sb29  1  0.185291  0.741115  0.172492  1
  Sb  Sb30  1  0.343709  0.500000  0.526299  1
  Sb  Sb31  1  0.656291  0.500000  0.026299  1
