# generated using pymatgen
data_Yb2FeSi4Ir
_symmetry_space_group_name_H-M   'P 1'
_cell_length_a   3.95832700
_cell_length_b   4.43782825
_cell_length_c   8.11004781
_cell_angle_alpha   77.12315341
_cell_angle_beta   90.00000000
_cell_angle_gamma   90.00000000
_symmetry_Int_Tables_number   1
_chemical_formula_structural   Yb2FeSi4Ir
_chemical_formula_sum   'Yb2 Fe1 Si4 Ir1'
_cell_volume   138.88136046
_cell_formula_units_Z   1
loop_
 _symmetry_equiv_pos_site_id
 _symmetry_equiv_pos_as_xyz
  1  'x, y, z'
loop_
 _atom_site_type_symbol
 _atom_site_label
 _atom_site_symmetry_multiplicity
 _atom_site_fract_x
 _atom_site_fract_y
 _atom_site_fract_z
 _atom_site_occupancy
  Yb  Yb0  1  0.250000  0.598415  0.799295  1
  Yb  Yb1  1  0.750000  0.417134  0.202428  1
  Fe  Fe2  1  0.750000  0.114881  0.610006  1
  Si  Si3  1  0.250000  0.972891  0.082191  1
  Si  Si4  1  0.750000  0.043681  0.899519  1
  Si  Si5  1  0.250000  0.319632  0.501919  1
  Si  Si6  1  0.750000  0.652655  0.521673  1
  Ir  Ir7  1  0.250000  0.880710  0.382970  1
