# generated using pymatgen
data_Tm3Lu2P12Ir10Ru9
_symmetry_space_group_name_H-M   'P 1'
_cell_length_a   12.60708000
_cell_length_b   12.60707939
_cell_length_c   3.93468600
_cell_angle_alpha   90.00000000
_cell_angle_beta   90.00000000
_cell_angle_gamma   119.99999110
_symmetry_Int_Tables_number   1
_chemical_formula_structural   Tm3Lu2P12Ir10Ru9
_chemical_formula_sum   'Tm3 Lu2 P12 Ir10 Ru9'
_cell_volume   541.58889050
_cell_formula_units_Z   1
loop_
 _symmetry_equiv_pos_site_id
 _symmetry_equiv_pos_as_xyz
  1  'x, y, z'
loop_
 _atom_site_type_symbol
 _atom_site_label
 _atom_site_symmetry_multiplicity
 _atom_site_fract_x
 _atom_site_fract_y
 _atom_site_fract_z
 _atom_site_occupancy
  Tm  Tm0  1  0.187635  0.187635  0.000000  1
  Tm  Tm1  1  0.812365  0.000000  0.000000  1
  Tm  Tm2  1  0.000000  0.812365  0.000000  1
  Lu  Lu3  1  0.333333  0.666667  0.500000  1
  Lu  Lu4  1  0.666667  0.333333  0.500000  1
  P  P5  1  0.308607  0.827084  0.000000  1
  P  P6  1  0.172916  0.481524  0.000000  1
  P  P7  1  0.518476  0.691393  0.000000  1
  P  P8  1  0.827084  0.308607  0.000000  1
  P  P9  1  0.481524  0.172916  0.000000  1
  P  P10  1  0.691393  0.518476  0.000000  1
  P  P11  1  0.361904  0.361904  0.500000  1
  P  P12  1  0.638096  0.000000  0.500000  1
  P  P13  1  0.000000  0.638096  0.500000  1
  P  P14  1  0.819150  0.819150  0.500000  1
  P  P15  1  0.180850  0.000000  0.500000  1
  P  P16  1  0.000000  0.180850  0.500000  1
  Ir  Ir17  1  0.130972  0.636811  0.000000  1
  Ir  Ir18  1  0.363189  0.494160  0.000000  1
  Ir  Ir19  1  0.505840  0.869028  0.000000  1
  Ir  Ir20  1  0.636811  0.130972  0.000000  1
  Ir  Ir21  1  0.494160  0.363189  0.000000  1
  Ir  Ir22  1  0.869028  0.505840  0.000000  1
  Ir  Ir23  1  0.714102  0.714102  0.000000  1
  Ir  Ir24  1  0.285898  0.000000  0.000000  1
  Ir  Ir25  1  0.000000  0.285898  0.000000  1
  Ir  Ir26  1  0.000000  0.000000  0.500000  1
  Ru  Ru27  1  0.195510  0.818004  0.500000  1
  Ru  Ru28  1  0.181996  0.377507  0.500000  1
  Ru  Ru29  1  0.622493  0.804490  0.500000  1
  Ru  Ru30  1  0.818004  0.195510  0.500000  1
  Ru  Ru31  1  0.377507  0.181996  0.500000  1
  Ru  Ru32  1  0.804490  0.622493  0.500000  1
  Ru  Ru33  1  0.546682  0.546682  0.500000  1
  Ru  Ru34  1  0.453318  0.000000  0.500000  1
  Ru  Ru35  1  0.000000  0.453318  0.500000  1
