# generated using pymatgen
data_Tb6Dy4InBi5
_symmetry_space_group_name_H-M   'P 1'
_cell_length_a   9.17125829
_cell_length_b   9.17125798
_cell_length_c   6.44219000
_cell_angle_alpha   90.00000000
_cell_angle_beta   90.00000000
_cell_angle_gamma   119.69593551
_symmetry_Int_Tables_number   1
_chemical_formula_structural   Tb6Dy4InBi5
_chemical_formula_sum   'Tb6 Dy4 In1 Bi5'
_cell_volume   470.70034515
_cell_formula_units_Z   1
loop_
 _symmetry_equiv_pos_site_id
 _symmetry_equiv_pos_as_xyz
  1  'x, y, z'
loop_
 _atom_site_type_symbol
 _atom_site_label
 _atom_site_symmetry_multiplicity
 _atom_site_fract_x
 _atom_site_fract_y
 _atom_site_fract_z
 _atom_site_occupancy
  Tb  Tb0  1  0.755041  0.755041  0.750000  1
  Tb  Tb1  1  0.242857  0.006411  0.750000  1
  Tb  Tb2  1  0.006411  0.242857  0.750000  1
  Tb  Tb3  1  0.241924  0.241924  0.250000  1
  Tb  Tb4  1  0.757680  0.999141  0.250000  1
  Tb  Tb5  1  0.999141  0.757680  0.250000  1
  Dy  Dy6  1  0.663105  0.334355  0.998282  1
  Dy  Dy7  1  0.334355  0.663105  0.998282  1
  Dy  Dy8  1  0.334355  0.663105  0.501718  1
  Dy  Dy9  1  0.663105  0.334355  0.501718  1
  In  In10  1  0.394072  0.394072  0.750000  1
  Bi  Bi11  1  0.609913  0.001766  0.750000  1
  Bi  Bi12  1  0.001766  0.609913  0.750000  1
  Bi  Bi13  1  0.607920  0.607920  0.250000  1
  Bi  Bi14  1  0.390778  0.997576  0.250000  1
  Bi  Bi15  1  0.997576  0.390778  0.250000  1
