# generated using pymatgen
data_Tm11Lu5(Ga3Co)2
_symmetry_space_group_name_H-M   'P 1'
_cell_length_a   9.84603506
_cell_length_b   9.84603431
_cell_length_c   6.82382705
_cell_angle_alpha   90.01243229
_cell_angle_beta   89.98756597
_cell_angle_gamma   119.99935785
_symmetry_Int_Tables_number   1
_chemical_formula_structural   Tm11Lu5(Ga3Co)2
_chemical_formula_sum   'Tm11 Lu5 Ga6 Co2'
_cell_volume   572.90704436
_cell_formula_units_Z   1
loop_
 _symmetry_equiv_pos_site_id
 _symmetry_equiv_pos_as_xyz
  1  'x, y, z'
loop_
 _atom_site_type_symbol
 _atom_site_label
 _atom_site_symmetry_multiplicity
 _atom_site_fract_x
 _atom_site_fract_y
 _atom_site_fract_z
 _atom_site_occupancy
  Tm  Tm0  1  0.826711  0.173289  0.490013  1
  Tm  Tm1  1  0.333343  0.666657  0.671976  1
  Tm  Tm2  1  0.666556  0.333444  0.171699  1
  Tm  Tm3  1  0.464193  0.535807  0.291897  1
  Tm  Tm4  1  0.928395  0.464394  0.792175  1
  Tm  Tm5  1  0.535606  0.071605  0.792175  1
  Tm  Tm6  1  0.463945  0.928194  0.291792  1
  Tm  Tm7  1  0.071806  0.536055  0.291792  1
  Tm  Tm8  1  0.535818  0.464182  0.791962  1
  Tm  Tm9  1  0.000050  0.999950  0.267778  1
  Tm  Tm10  1  0.000101  0.999899  0.768308  1
  Lu  Lu11  1  0.173453  0.826547  0.989941  1
  Lu  Lu12  1  0.346898  0.173450  0.489997  1
  Lu  Lu13  1  0.826550  0.653102  0.489997  1
  Lu  Lu14  1  0.173450  0.346892  0.990009  1
  Lu  Lu15  1  0.653108  0.826550  0.990009  1
  Ga  Ga16  1  0.163255  0.836745  0.539902  1
  Ga  Ga17  1  0.326451  0.163227  0.039863  1
  Ga  Ga18  1  0.836773  0.673549  0.039863  1
  Ga  Ga19  1  0.163726  0.326756  0.539944  1
  Ga  Ga20  1  0.673244  0.836274  0.539944  1
  Ga  Ga21  1  0.836753  0.163247  0.039463  1
  Co  Co22  1  0.333335  0.666665  0.056711  1
  Co  Co23  1  0.666481  0.333519  0.556800  1
