# generated using pymatgen
data_NdDyMn3Co9P7
_symmetry_space_group_name_H-M   'P 1'
_cell_length_a   9.12625700
_cell_length_b   9.12625690
_cell_length_c   3.62047500
_cell_angle_alpha   90.00000000
_cell_angle_beta   90.00000000
_cell_angle_gamma   120.00000399
_symmetry_Int_Tables_number   1
_chemical_formula_structural   NdDyMn3Co9P7
_chemical_formula_sum   'Nd1 Dy1 Mn3 Co9 P7'
_cell_volume   261.14490171
_cell_formula_units_Z   1
loop_
 _symmetry_equiv_pos_site_id
 _symmetry_equiv_pos_as_xyz
  1  'x, y, z'
loop_
 _atom_site_type_symbol
 _atom_site_label
 _atom_site_symmetry_multiplicity
 _atom_site_fract_x
 _atom_site_fract_y
 _atom_site_fract_z
 _atom_site_occupancy
  Nd  Nd0  1  0.333333  0.666667  0.500000  1
  Dy  Dy1  1  0.666667  0.333333  0.000000  1
  Mn  Mn2  1  0.119376  0.899151  0.500000  1
  Mn  Mn3  1  0.100849  0.220224  0.500000  1
  Mn  Mn4  1  0.779776  0.880624  0.500000  1
  Co  Co5  1  0.371618  0.943430  0.000000  1
  Co  Co6  1  0.056570  0.428189  0.000000  1
  Co  Co7  1  0.571811  0.628382  0.000000  1
  Co  Co8  1  0.881960  0.725853  0.000000  1
  Co  Co9  1  0.274147  0.156107  0.000000  1
  Co  Co10  1  0.843893  0.118040  0.000000  1
  Co  Co11  1  0.946644  0.562626  0.500000  1
  Co  Co12  1  0.437374  0.384018  0.500000  1
  Co  Co13  1  0.615982  0.053356  0.500000  1
  P  P14  1  0.106973  0.699433  0.000000  1
  P  P15  1  0.300567  0.407540  0.000000  1
  P  P16  1  0.592460  0.893027  0.000000  1
  P  P17  1  0.709732  0.593533  0.500000  1
  P  P18  1  0.406467  0.116200  0.500000  1
  P  P19  1  0.883800  0.290268  0.500000  1
  P  P20  1  0.000000  0.000000  0.000000  1
