# generated using pymatgen
data_Pr2Th2CdInNi4
_symmetry_space_group_name_H-M   'P 1'
_cell_length_a   7.65567900
_cell_length_b   7.66083741
_cell_length_c   3.74059400
_cell_angle_alpha   90.00000000
_cell_angle_beta   90.00000000
_cell_angle_gamma   92.51521174
_symmetry_Int_Tables_number   1
_chemical_formula_structural   Pr2Th2CdInNi4
_chemical_formula_sum   'Pr2 Th2 Cd1 In1 Ni4'
_cell_volume   219.17041741
_cell_formula_units_Z   1
loop_
 _symmetry_equiv_pos_site_id
 _symmetry_equiv_pos_as_xyz
  1  'x, y, z'
loop_
 _atom_site_type_symbol
 _atom_site_label
 _atom_site_symmetry_multiplicity
 _atom_site_fract_x
 _atom_site_fract_y
 _atom_site_fract_z
 _atom_site_occupancy
  Pr  Pr0  1  0.172781  0.327575  0.500000  1
  Pr  Pr1  1  0.827219  0.672425  0.500000  1
  Th  Th2  1  0.672432  0.173245  0.500000  1
  Th  Th3  1  0.327568  0.826755  0.500000  1
  Cd  Cd4  1  0.500000  0.500000  0.000000  1
  In  In5  1  0.000000  0.000000  0.000000  1
  Ni  Ni6  1  0.128532  0.632533  0.000000  1
  Ni  Ni7  1  0.871468  0.367467  0.000000  1
  Ni  Ni8  1  0.616769  0.886071  0.000000  1
  Ni  Ni9  1  0.383231  0.113929  0.000000  1
