# generated using pymatgen
data_Mg4GaSnPd10
_symmetry_space_group_name_H-M   'P 1'
_cell_length_a   4.17472800
_cell_length_b   5.57198822
_cell_length_c   10.93150200
_cell_angle_alpha   89.74492340
_cell_angle_beta   90.00000000
_cell_angle_gamma   90.00000000
_symmetry_Int_Tables_number   1
_chemical_formula_structural   Mg4GaSnPd10
_chemical_formula_sum   'Mg4 Ga1 Sn1 Pd10'
_cell_volume   254.28099895
_cell_formula_units_Z   1
loop_
 _symmetry_equiv_pos_site_id
 _symmetry_equiv_pos_as_xyz
  1  'x, y, z'
loop_
 _atom_site_type_symbol
 _atom_site_label
 _atom_site_symmetry_multiplicity
 _atom_site_fract_x
 _atom_site_fract_y
 _atom_site_fract_z
 _atom_site_occupancy
  Mg  Mg0  1  0.500000  0.172203  0.147369  1
  Mg  Mg1  1  0.500000  0.827797  0.852631  1
  Mg  Mg2  1  0.500000  0.326533  0.637595  1
  Mg  Mg3  1  0.500000  0.673467  0.362405  1
  Ga  Ga4  1  0.000000  0.000000  0.500000  1
  Sn  Sn5  1  0.000000  0.500000  0.000000  1
  Pd  Pd6  1  0.500000  0.185107  0.395581  1
  Pd  Pd7  1  0.500000  0.814893  0.604419  1
  Pd  Pd8  1  0.500000  0.302018  0.886087  1
  Pd  Pd9  1  0.500000  0.697982  0.113913  1
  Pd  Pd10  1  0.000000  0.426224  0.246252  1
  Pd  Pd11  1  0.000000  0.573776  0.753748  1
  Pd  Pd12  1  0.000000  0.074149  0.736992  1
  Pd  Pd13  1  0.000000  0.925851  0.263008  1
  Pd  Pd14  1  0.000000  0.000000  0.000000  1
  Pd  Pd15  1  0.000000  0.500000  0.500000  1
