# generated using pymatgen
data_Zr5(Hg2Ir)2
_symmetry_space_group_name_H-M   'P 1'
_cell_length_a   3.29919900
_cell_length_b   7.74554400
_cell_length_c   17.82707100
_cell_angle_alpha   90.00000000
_cell_angle_beta   90.00000000
_cell_angle_gamma   90.00000000
_symmetry_Int_Tables_number   1
_chemical_formula_structural   Zr5(Hg2Ir)2
_chemical_formula_sum   'Zr10 Hg8 Ir4'
_cell_volume   455.55459494
_cell_formula_units_Z   2
loop_
 _symmetry_equiv_pos_site_id
 _symmetry_equiv_pos_as_xyz
  1  'x, y, z'
loop_
 _atom_site_type_symbol
 _atom_site_label
 _atom_site_symmetry_multiplicity
 _atom_site_fract_x
 _atom_site_fract_y
 _atom_site_fract_z
 _atom_site_occupancy
  Zr  Zr0  1  0.000000  0.134109  0.919222  1
  Zr  Zr1  1  0.000000  0.758835  0.780320  1
  Zr  Zr2  1  0.000000  0.634109  0.580778  1
  Zr  Zr3  1  0.000000  0.258835  0.719680  1
  Zr  Zr4  1  0.000000  0.365891  0.419222  1
  Zr  Zr5  1  0.000000  0.241165  0.219680  1
  Zr  Zr6  1  0.000000  0.000000  0.500000  1
  Zr  Zr7  1  0.000000  0.741165  0.280320  1
  Zr  Zr8  1  0.000000  0.500000  0.000000  1
  Zr  Zr9  1  0.000000  0.865891  0.080778  1
  Hg  Hg10  1  0.500000  0.796683  0.933935  1
  Hg  Hg11  1  0.500000  0.559535  0.147516  1
  Hg  Hg12  1  0.500000  0.440465  0.852484  1
  Hg  Hg13  1  0.500000  0.059535  0.352484  1
  Hg  Hg14  1  0.500000  0.296683  0.566065  1
  Hg  Hg15  1  0.500000  0.940465  0.647516  1
  Hg  Hg16  1  0.500000  0.703317  0.433935  1
  Hg  Hg17  1  0.500000  0.203317  0.066065  1
  Ir  Ir18  1  0.500000  0.546274  0.693530  1
  Ir  Ir19  1  0.500000  0.453726  0.306470  1
  Ir  Ir20  1  0.500000  0.046274  0.806470  1
  Ir  Ir21  1  0.500000  0.953726  0.193530  1
