# generated using pymatgen
data_Ho5Sn2Bi
_symmetry_space_group_name_H-M   'P 1'
_cell_length_a   8.98807999
_cell_length_b   8.98076283
_cell_length_c   6.47323700
_cell_angle_alpha   90.00000000
_cell_angle_beta   90.00000000
_cell_angle_gamma   119.97307045
_symmetry_Int_Tables_number   1
_chemical_formula_structural   Ho5Sn2Bi
_chemical_formula_sum   'Ho10 Sn4 Bi2'
_cell_volume   452.63703183
_cell_formula_units_Z   2
loop_
 _symmetry_equiv_pos_site_id
 _symmetry_equiv_pos_as_xyz
  1  'x, y, z'
loop_
 _atom_site_type_symbol
 _atom_site_label
 _atom_site_symmetry_multiplicity
 _atom_site_fract_x
 _atom_site_fract_y
 _atom_site_fract_z
 _atom_site_occupancy
  Ho  Ho0  1  0.994976  0.757331  0.750000  1
  Ho  Ho1  1  0.994976  0.237645  0.250000  1
  Ho  Ho2  1  0.764919  0.764570  0.250000  1
  Ho  Ho3  1  0.764919  0.000349  0.750000  1
  Ho  Ho4  1  0.236371  0.241789  0.750000  1
  Ho  Ho5  1  0.236371  0.994581  0.250000  1
  Ho  Ho6  1  0.331177  0.665589  0.500000  1
  Ho  Ho7  1  0.672858  0.336429  0.000000  1
  Ho  Ho8  1  0.672858  0.336429  0.500000  1
  Ho  Ho9  1  0.331177  0.665589  0.000000  1
  Sn  Sn10  1  0.000896  0.604689  0.250000  1
  Sn  Sn11  1  0.000896  0.396207  0.750000  1
  Sn  Sn12  1  0.604370  0.604992  0.750000  1
  Sn  Sn13  1  0.604370  0.999378  0.250000  1
  Bi  Bi14  1  0.394433  0.001362  0.750000  1
  Bi  Bi15  1  0.394433  0.393071  0.250000  1
