# generated using pymatgen
data_Y3Ho5(AgIr)2
_symmetry_space_group_name_H-M   'P 1'
_cell_length_a   9.54178011
_cell_length_b   9.54177921
_cell_length_c   9.54177900
_cell_angle_alpha   59.99999726
_cell_angle_beta   60.00000037
_cell_angle_gamma   60.00000114
_symmetry_Int_Tables_number   1
_chemical_formula_structural   Y3Ho5(AgIr)2
_chemical_formula_sum   'Y6 Ho10 Ag4 Ir4'
_cell_volume   614.28953760
_cell_formula_units_Z   2
loop_
 _symmetry_equiv_pos_site_id
 _symmetry_equiv_pos_as_xyz
  1  'x, y, z'
loop_
 _atom_site_type_symbol
 _atom_site_label
 _atom_site_symmetry_multiplicity
 _atom_site_fract_x
 _atom_site_fract_y
 _atom_site_fract_z
 _atom_site_occupancy
  Y  Y0  1  0.937336  0.562664  0.562664  1
  Y  Y1  1  0.562664  0.937336  0.937336  1
  Y  Y2  1  0.562664  0.937336  0.562664  1
  Y  Y3  1  0.937336  0.562664  0.937336  1
  Y  Y4  1  0.562664  0.562664  0.937336  1
  Y  Y5  1  0.937336  0.937336  0.562664  1
  Ho  Ho6  1  0.351286  0.351286  0.351286  1
  Ho  Ho7  1  0.351286  0.351286  0.946143  1
  Ho  Ho8  1  0.351286  0.946143  0.351286  1
  Ho  Ho9  1  0.946143  0.351286  0.351286  1
  Ho  Ho10  1  0.811060  0.188940  0.188940  1
  Ho  Ho11  1  0.188940  0.811060  0.811060  1
  Ho  Ho12  1  0.188940  0.811060  0.188940  1
  Ho  Ho13  1  0.811060  0.188940  0.811060  1
  Ho  Ho14  1  0.188940  0.188940  0.811060  1
  Ho  Ho15  1  0.811060  0.811060  0.188940  1
  Ag  Ag16  1  0.581356  0.581356  0.581356  1
  Ag  Ag17  1  0.581356  0.581356  0.255933  1
  Ag  Ag18  1  0.581356  0.255933  0.581356  1
  Ag  Ag19  1  0.255933  0.581356  0.581356  1
  Ir  Ir20  1  0.142057  0.142057  0.142057  1
  Ir  Ir21  1  0.142057  0.142057  0.573830  1
  Ir  Ir22  1  0.142057  0.573830  0.142057  1
  Ir  Ir23  1  0.573830  0.142057  0.142057  1
