# generated using pymatgen
data_TbDyPa2O8
_symmetry_space_group_name_H-M   'P 1'
_cell_length_a   6.60154026
_cell_length_b   6.60154007
_cell_length_c   6.60154002
_cell_angle_alpha   131.70664450
_cell_angle_beta   131.70664139
_cell_angle_gamma   70.69274747
_symmetry_Int_Tables_number   1
_chemical_formula_structural   TbDyPa2O8
_chemical_formula_sum   'Tb1 Dy1 Pa2 O8'
_cell_volume   157.07745083
_cell_formula_units_Z   1
loop_
 _symmetry_equiv_pos_site_id
 _symmetry_equiv_pos_as_xyz
  1  'x, y, z'
loop_
 _atom_site_type_symbol
 _atom_site_label
 _atom_site_symmetry_multiplicity
 _atom_site_fract_x
 _atom_site_fract_y
 _atom_site_fract_z
 _atom_site_occupancy
  Tb  Tb0  1  0.750000  0.250000  0.500000  1
  Dy  Dy1  1  0.000000  0.000000  0.000000  1
  Pa  Pa2  1  0.500000  0.500000  0.000000  1
  Pa  Pa3  1  0.250000  0.750000  0.500000  1
  O  O4  1  0.374365  0.385773  0.510556  1
  O  O5  1  0.875217  0.863809  0.489444  1
  O  O6  1  0.136191  0.124783  0.510556  1
  O  O7  1  0.614227  0.124783  0.988592  1
  O  O8  1  0.875217  0.385773  0.011408  1
  O  O9  1  0.614227  0.625635  0.489444  1
  O  O10  1  0.374365  0.863809  0.988592  1
  O  O11  1  0.136191  0.625635  0.011408  1
