# generated using pymatgen
data_Y3Er5Cd2RuPt
_symmetry_space_group_name_H-M   'P 1'
_cell_length_a   9.59656937
_cell_length_b   9.59656955
_cell_length_c   9.63403400
_cell_angle_alpha   59.87078129
_cell_angle_beta   59.87078069
_cell_angle_gamma   59.76545648
_symmetry_Int_Tables_number   1
_chemical_formula_structural   Y3Er5Cd2RuPt
_chemical_formula_sum   'Y6 Er10 Cd4 Ru2 Pt2'
_cell_volume   625.03087274
_cell_formula_units_Z   2
loop_
 _symmetry_equiv_pos_site_id
 _symmetry_equiv_pos_as_xyz
  1  'x, y, z'
loop_
 _atom_site_type_symbol
 _atom_site_label
 _atom_site_symmetry_multiplicity
 _atom_site_fract_x
 _atom_site_fract_y
 _atom_site_fract_z
 _atom_site_occupancy
  Y  Y0  1  0.937711  0.558833  0.565741  1
  Y  Y1  1  0.558833  0.937711  0.937715  1
  Y  Y2  1  0.558833  0.937711  0.565741  1
  Y  Y3  1  0.937711  0.558833  0.937715  1
  Y  Y4  1  0.562657  0.562657  0.937343  1
  Y  Y5  1  0.938626  0.938626  0.561374  1
  Er  Er6  1  0.348984  0.348984  0.352500  1
  Er  Er7  1  0.348984  0.348984  0.949531  1
  Er  Er8  1  0.346345  0.955539  0.349058  1
  Er  Er9  1  0.955539  0.346345  0.349058  1
  Er  Er10  1  0.815630  0.187767  0.189617  1
  Er  Er11  1  0.187767  0.815630  0.806986  1
  Er  Er12  1  0.187767  0.815630  0.189617  1
  Er  Er13  1  0.815630  0.187767  0.806986  1
  Er  Er14  1  0.187416  0.187416  0.812584  1
  Er  Er15  1  0.808892  0.808892  0.191108  1
  Cd  Cd16  1  0.579792  0.579792  0.580957  1
  Cd  Cd17  1  0.579792  0.579792  0.259459  1
  Cd  Cd18  1  0.580747  0.256150  0.581551  1
  Cd  Cd19  1  0.256150  0.580747  0.581551  1
  Ru  Ru20  1  0.143806  0.143806  0.138437  1
  Ru  Ru21  1  0.143806  0.143806  0.573952  1
  Pt  Pt22  1  0.144423  0.574158  0.140710  1
  Pt  Pt23  1  0.574158  0.144423  0.140710  1
