# generated using pymatgen
data_Th6Si4Ir3Os
_symmetry_space_group_name_H-M   'P 1'
_cell_length_a   5.75903307
_cell_length_b   5.75903393
_cell_length_c   13.69124017
_cell_angle_alpha   90.01686284
_cell_angle_beta   89.98313596
_cell_angle_gamma   138.11753443
_symmetry_Int_Tables_number   1
_chemical_formula_structural   Th6Si4Ir3Os
_chemical_formula_sum   'Th6 Si4 Ir3 Os1'
_cell_volume   303.15266389
_cell_formula_units_Z   1
loop_
 _symmetry_equiv_pos_site_id
 _symmetry_equiv_pos_as_xyz
  1  'x, y, z'
loop_
 _atom_site_type_symbol
 _atom_site_label
 _atom_site_symmetry_multiplicity
 _atom_site_fract_x
 _atom_site_fract_y
 _atom_site_fract_z
 _atom_site_occupancy
  Th  Th0  1  0.776857  0.223143  0.599823  1
  Th  Th1  1  0.511718  0.488282  0.248267  1
  Th  Th2  1  0.223143  0.776857  0.400177  1
  Th  Th3  1  0.776264  0.223736  0.899744  1
  Th  Th4  1  0.488282  0.511718  0.751733  1
  Th  Th5  1  0.223736  0.776264  0.100256  1
  Si  Si6  1  0.061383  0.938617  0.591862  1
  Si  Si7  1  0.061492  0.938508  0.909903  1
  Si  Si8  1  0.938617  0.061383  0.408138  1
  Si  Si9  1  0.938508  0.061492  0.090097  1
  Ir  Ir10  1  0.798042  0.201958  0.250362  1
  Ir  Ir11  1  0.201958  0.798042  0.749638  1
  Ir  Ir12  1  0.500000  0.500000  0.500000  1
  Os  Os13  1  0.500000  0.500000  0.000000  1
