# generated using pymatgen
data_Y2Ho10Os3Ru
_symmetry_space_group_name_H-M   'P 1'
_cell_length_a   6.29628112
_cell_length_b   7.36953416
_cell_length_c   9.07247900
_cell_angle_alpha   90.00000000
_cell_angle_beta   90.00000000
_cell_angle_gamma   89.95820352
_symmetry_Int_Tables_number   1
_chemical_formula_structural   Y2Ho10Os3Ru
_chemical_formula_sum   'Y2 Ho10 Os3 Ru1'
_cell_volume   420.96889063
_cell_formula_units_Z   1
loop_
 _symmetry_equiv_pos_site_id
 _symmetry_equiv_pos_as_xyz
  1  'x, y, z'
loop_
 _atom_site_type_symbol
 _atom_site_label
 _atom_site_symmetry_multiplicity
 _atom_site_fract_x
 _atom_site_fract_y
 _atom_site_fract_z
 _atom_site_occupancy
  Y  Y0  1  0.130997  0.461853  0.750000  1
  Y  Y1  1  0.370560  0.960870  0.750000  1
  Ho  Ho2  1  0.329881  0.676116  0.064838  1
  Ho  Ho3  1  0.169142  0.175821  0.436572  1
  Ho  Ho4  1  0.668695  0.324182  0.562671  1
  Ho  Ho5  1  0.832102  0.825078  0.938124  1
  Ho  Ho6  1  0.668695  0.324182  0.937329  1
  Ho  Ho7  1  0.832102  0.825078  0.561876  1
  Ho  Ho8  1  0.329881  0.676116  0.435162  1
  Ho  Ho9  1  0.169142  0.175821  0.063428  1
  Ho  Ho10  1  0.868755  0.538445  0.250000  1
  Ho  Ho11  1  0.630854  0.038920  0.250000  1
  Os  Os12  1  0.038618  0.883660  0.250000  1
  Os  Os13  1  0.461074  0.383936  0.250000  1
  Os  Os14  1  0.956274  0.115376  0.750000  1
  Ru  Ru15  1  0.543221  0.614545  0.750000  1
