# generated using pymatgen
data_Y3Lu17(ZnBi5)2
_symmetry_space_group_name_H-M   'P 1'
_cell_length_a   8.05779705
_cell_length_b   9.32104300
_cell_length_c   11.77266000
_cell_angle_alpha   90.00000000
_cell_angle_beta   90.00627866
_cell_angle_gamma   90.00000000
_symmetry_Int_Tables_number   1
_chemical_formula_structural   Y3Lu17(ZnBi5)2
_chemical_formula_sum   'Y3 Lu17 Zn2 Bi10'
_cell_volume   884.21002605
_cell_formula_units_Z   1
loop_
 _symmetry_equiv_pos_site_id
 _symmetry_equiv_pos_as_xyz
  1  'x, y, z'
loop_
 _atom_site_type_symbol
 _atom_site_label
 _atom_site_symmetry_multiplicity
 _atom_site_fract_x
 _atom_site_fract_y
 _atom_site_fract_z
 _atom_site_occupancy
  Y  Y0  1  0.822377  0.250000  0.287980  1
  Y  Y1  1  0.688870  0.750000  0.782870  1
  Y  Y2  1  0.188742  0.750000  0.717162  1
  Lu  Lu3  1  0.345903  0.750000  0.218680  1
  Lu  Lu4  1  0.845153  0.750000  0.281091  1
  Lu  Lu5  1  0.647712  0.250000  0.795965  1
  Lu  Lu6  1  0.146785  0.250000  0.704262  1
  Lu  Lu7  1  0.690462  0.548084  0.058233  1
  Lu  Lu8  1  0.190044  0.952580  0.441454  1
  Lu  Lu9  1  0.316675  0.073280  0.943811  1
  Lu  Lu10  1  0.816170  0.427033  0.556963  1
  Lu  Lu11  1  0.316675  0.426720  0.943811  1
  Lu  Lu12  1  0.816170  0.072967  0.556963  1
  Lu  Lu13  1  0.690462  0.951916  0.058233  1
  Lu  Lu14  1  0.190044  0.547420  0.441454  1
  Lu  Lu15  1  0.463755  0.250000  0.490410  1
  Lu  Lu16  1  0.964685  0.250000  0.009554  1
  Lu  Lu17  1  0.517166  0.750000  0.508206  1
  Lu  Lu18  1  0.017797  0.750000  0.991902  1
  Lu  Lu19  1  0.321588  0.250000  0.211201  1
  Zn  Zn20  1  0.592795  0.250000  0.040928  1
  Zn  Zn21  1  0.095057  0.250000  0.459650  1
  Bi  Bi22  1  0.401754  0.750000  0.960165  1
  Bi  Bi23  1  0.901952  0.750000  0.539804  1
  Bi  Bi24  1  0.559895  0.998353  0.322043  1
  Bi  Bi25  1  0.062272  0.501939  0.177437  1
  Bi  Bi26  1  0.441784  0.495777  0.675622  1
  Bi  Bi27  1  0.941655  0.004150  0.824521  1
  Bi  Bi28  1  0.441784  0.004223  0.675622  1
  Bi  Bi29  1  0.941655  0.495850  0.824521  1
  Bi  Bi30  1  0.559895  0.501647  0.322043  1
  Bi  Bi31  1  0.062272  0.998061  0.177437  1
