# generated using pymatgen
data_Sr3ScIrO6
_symmetry_space_group_name_H-M   'P 1'
_cell_length_a   6.76846114
_cell_length_b   6.76846146
_cell_length_c   6.76846099
_cell_angle_alpha   92.38163702
_cell_angle_beta   92.38163580
_cell_angle_gamma   92.38165116
_symmetry_Int_Tables_number   1
_chemical_formula_structural   Sr3ScIrO6
_chemical_formula_sum   'Sr6 Sc2 Ir2 O12'
_cell_volume   309.25065480
_cell_formula_units_Z   2
loop_
 _symmetry_equiv_pos_site_id
 _symmetry_equiv_pos_as_xyz
  1  'x, y, z'
loop_
 _atom_site_type_symbol
 _atom_site_label
 _atom_site_symmetry_multiplicity
 _atom_site_fract_x
 _atom_site_fract_y
 _atom_site_fract_z
 _atom_site_occupancy
  Sr  Sr0  1  0.750000  0.118601  0.381399  1
  Sr  Sr1  1  0.381399  0.750000  0.118601  1
  Sr  Sr2  1  0.118601  0.381399  0.750000  1
  Sr  Sr3  1  0.250000  0.881399  0.618601  1
  Sr  Sr4  1  0.618601  0.250000  0.881399  1
  Sr  Sr5  1  0.881399  0.618601  0.250000  1
  Sc  Sc6  1  0.750000  0.750000  0.750000  1
  Sc  Sc7  1  0.250000  0.250000  0.250000  1
  Ir  Ir8  1  0.500000  0.500000  0.500000  1
  Ir  Ir9  1  0.000000  0.000000  0.000000  1
  O  O10  1  0.599808  0.793144  0.466844  1
  O  O11  1  0.466844  0.599808  0.793144  1
  O  O12  1  0.793144  0.466844  0.599808  1
  O  O13  1  0.900192  0.033156  0.706856  1
  O  O14  1  0.706856  0.900192  0.033156  1
  O  O15  1  0.033156  0.706856  0.900192  1
  O  O16  1  0.400192  0.206856  0.533156  1
  O  O17  1  0.533156  0.400192  0.206856  1
  O  O18  1  0.206856  0.533156  0.400192  1
  O  O19  1  0.099808  0.966844  0.293144  1
  O  O20  1  0.966844  0.293144  0.099808  1
  O  O21  1  0.293144  0.099808  0.966844  1
