# generated using pymatgen
data_Tb12Ge(BBr4)3
_symmetry_space_group_name_H-M   'P 1'
_cell_length_a   9.94761916
_cell_length_b   9.94761865
_cell_length_c   9.94761938
_cell_angle_alpha   109.92144356
_cell_angle_beta   109.92144379
_cell_angle_gamma   109.92144350
_symmetry_Int_Tables_number   1
_chemical_formula_structural   Tb12Ge(BBr4)3
_chemical_formula_sum   'Tb12 Ge1 B3 Br12'
_cell_volume   744.86789423
_cell_formula_units_Z   1
loop_
 _symmetry_equiv_pos_site_id
 _symmetry_equiv_pos_as_xyz
  1  'x, y, z'
loop_
 _atom_site_type_symbol
 _atom_site_label
 _atom_site_symmetry_multiplicity
 _atom_site_fract_x
 _atom_site_fract_y
 _atom_site_fract_z
 _atom_site_occupancy
  Tb  Tb0  1  0.469851  0.497278  0.224845  1
  Tb  Tb1  1  0.750000  0.228004  0.271996  1
  Tb  Tb2  1  0.750000  0.019439  0.480561  1
  Tb  Tb3  1  0.224845  0.469851  0.497278  1
  Tb  Tb4  1  0.271996  0.750000  0.228004  1
  Tb  Tb5  1  0.030149  0.275155  0.002722  1
  Tb  Tb6  1  0.002722  0.030149  0.275155  1
  Tb  Tb7  1  0.480561  0.750000  0.019439  1
  Tb  Tb8  1  0.497278  0.224845  0.469851  1
  Tb  Tb9  1  0.019439  0.480561  0.750000  1
  Tb  Tb10  1  0.275155  0.002722  0.030149  1
  Tb  Tb11  1  0.228004  0.271996  0.750000  1
  Ge  Ge12  1  0.250000  0.250000  0.250000  1
  B  B13  1  0.500453  0.999547  0.250000  1
  B  B14  1  0.999547  0.250000  0.500453  1
  B  B15  1  0.250000  0.500453  0.999547  1
  Br  Br16  1  0.250000  0.757701  0.742299  1
  Br  Br17  1  0.512314  0.506746  0.757771  1
  Br  Br18  1  0.987686  0.742229  0.993254  1
  Br  Br19  1  0.742299  0.250000  0.757701  1
  Br  Br20  1  0.993254  0.987686  0.742229  1
  Br  Br21  1  0.250000  0.994294  0.505706  1
  Br  Br22  1  0.757771  0.512314  0.506746  1
  Br  Br23  1  0.505706  0.250000  0.994294  1
  Br  Br24  1  0.757701  0.742299  0.250000  1
  Br  Br25  1  0.742229  0.993254  0.987686  1
  Br  Br26  1  0.994294  0.505706  0.250000  1
  Br  Br27  1  0.506746  0.757771  0.512314  1
