# generated using pymatgen
data_LaY7(CdPd)2
_symmetry_space_group_name_H-M   'P 1'
_cell_length_a   9.80735770
_cell_length_b   9.80735712
_cell_length_c   9.76516200
_cell_angle_alpha   60.14222030
_cell_angle_beta   60.14222226
_cell_angle_gamma   60.32580366
_symmetry_Int_Tables_number   1
_chemical_formula_structural   LaY7(CdPd)2
_chemical_formula_sum   'La2 Y14 Cd4 Pd4'
_cell_volume   667.20802819
_cell_formula_units_Z   2
loop_
 _symmetry_equiv_pos_site_id
 _symmetry_equiv_pos_as_xyz
  1  'x, y, z'
loop_
 _atom_site_type_symbol
 _atom_site_label
 _atom_site_symmetry_multiplicity
 _atom_site_fract_x
 _atom_site_fract_y
 _atom_site_fract_z
 _atom_site_occupancy
  La  La0  1  0.352038  0.352038  0.353994  1
  La  La1  1  0.352038  0.352038  0.941930  1
  Y  Y2  1  0.358065  0.931000  0.355467  1
  Y  Y3  1  0.931000  0.358065  0.355467  1
  Y  Y4  1  0.812821  0.188942  0.187469  1
  Y  Y5  1  0.188942  0.812821  0.810768  1
  Y  Y6  1  0.188942  0.812821  0.187469  1
  Y  Y7  1  0.812821  0.188942  0.810768  1
  Y  Y8  1  0.186795  0.186795  0.813205  1
  Y  Y9  1  0.810833  0.810833  0.189167  1
  Y  Y10  1  0.934870  0.566333  0.566605  1
  Y  Y11  1  0.566333  0.934870  0.932192  1
  Y  Y12  1  0.566333  0.934870  0.566605  1
  Y  Y13  1  0.934870  0.566333  0.932192  1
  Y  Y14  1  0.567496  0.567496  0.932504  1
  Y  Y15  1  0.936350  0.936350  0.563650  1
  Cd  Cd16  1  0.585255  0.585255  0.578305  1
  Cd  Cd17  1  0.585255  0.585255  0.251186  1
  Cd  Cd18  1  0.587284  0.249116  0.581801  1
  Cd  Cd19  1  0.249116  0.587284  0.581801  1
  Pd  Pd20  1  0.141158  0.141158  0.151744  1
  Pd  Pd21  1  0.141158  0.141158  0.565938  1
  Pd  Pd22  1  0.137840  0.572386  0.144886  1
  Pd  Pd23  1  0.572386  0.137840  0.144886  1
