# generated using pymatgen
data_YPa(CoB4)2
_symmetry_space_group_name_H-M   'P 1'
_cell_length_a   3.40039200
_cell_length_b   5.91778460
_cell_length_c   11.46899016
_cell_angle_alpha   89.94834130
_cell_angle_beta   90.00000000
_cell_angle_gamma   90.00000000
_symmetry_Int_Tables_number   1
_chemical_formula_structural   YPa(CoB4)2
_chemical_formula_sum   'Y2 Pa2 Co4 B16'
_cell_volume   230.78795717
_cell_formula_units_Z   2
loop_
 _symmetry_equiv_pos_site_id
 _symmetry_equiv_pos_as_xyz
  1  'x, y, z'
loop_
 _atom_site_type_symbol
 _atom_site_label
 _atom_site_symmetry_multiplicity
 _atom_site_fract_x
 _atom_site_fract_y
 _atom_site_fract_z
 _atom_site_occupancy
  Y  Y0  1  0.500000  0.127686  0.648078  1
  Y  Y1  1  0.500000  0.872314  0.351922  1
  Pa  Pa2  1  0.500000  0.372680  0.151588  1
  Pa  Pa3  1  0.500000  0.627320  0.848412  1
  Co  Co4  1  0.500000  0.366411  0.409648  1
  Co  Co5  1  0.500000  0.633589  0.590352  1
  Co  Co6  1  0.500000  0.134642  0.910148  1
  Co  Co7  1  0.500000  0.865358  0.089852  1
  B  B8  1  0.000000  0.111223  0.046057  1
  B  B9  1  0.000000  0.888777  0.953943  1
  B  B10  1  0.000000  0.387269  0.545089  1
  B  B11  1  0.000000  0.612731  0.454911  1
  B  B12  1  0.000000  0.138510  0.467002  1
  B  B13  1  0.000000  0.861490  0.532998  1
  B  B14  1  0.000000  0.361687  0.965685  1
  B  B15  1  0.000000  0.638313  0.034315  1
  B  B16  1  0.000000  0.021127  0.190692  1
  B  B17  1  0.000000  0.978873  0.809308  1
  B  B18  1  0.000000  0.476549  0.688811  1
  B  B19  1  0.000000  0.523451  0.311189  1
  B  B20  1  0.000000  0.217330  0.316172  1
  B  B21  1  0.000000  0.782670  0.683828  1
  B  B22  1  0.000000  0.281974  0.814576  1
  B  B23  1  0.000000  0.718026  0.185424  1
