# generated using pymatgen
data_Sr4TbDyNb2O12
_symmetry_space_group_name_H-M   'P 1'
_cell_length_a   5.84675783
_cell_length_b   5.96637206
_cell_length_c   8.33405995
_cell_angle_alpha   90.01641703
_cell_angle_beta   90.19258632
_cell_angle_gamma   90.00376507
_symmetry_Int_Tables_number   1
_chemical_formula_structural   Sr4TbDyNb2O12
_chemical_formula_sum   'Sr4 Tb1 Dy1 Nb2 O12'
_cell_volume   290.72313068
_cell_formula_units_Z   1
loop_
 _symmetry_equiv_pos_site_id
 _symmetry_equiv_pos_as_xyz
  1  'x, y, z'
loop_
 _atom_site_type_symbol
 _atom_site_label
 _atom_site_symmetry_multiplicity
 _atom_site_fract_x
 _atom_site_fract_y
 _atom_site_fract_z
 _atom_site_occupancy
  Sr  Sr0  1  0.490829  0.457954  0.248377  1
  Sr  Sr1  1  0.009175  0.958328  0.250385  1
  Sr  Sr2  1  0.990824  0.041671  0.749614  1
  Sr  Sr3  1  0.509171  0.542046  0.751624  1
  Tb  Tb4  1  0.000000  0.499999  0.500000  1
  Dy  Dy5  1  0.500000  0.000000  0.000000  1
  Nb  Nb6  1  0.000000  0.499999  0.000000  1
  Nb  Nb7  1  0.500000  0.000000  0.500000  1
  O  O8  1  0.277951  0.695013  0.042170  1
  O  O9  1  0.192456  0.222453  0.046987  1
  O  O10  1  0.915320  0.528038  0.234685  1
  O  O11  1  0.584156  0.027862  0.264424  1
  O  O12  1  0.309208  0.722253  0.452560  1
  O  O13  1  0.221835  0.193452  0.457353  1
  O  O14  1  0.778166  0.806549  0.542648  1
  O  O15  1  0.690792  0.277748  0.547442  1
  O  O16  1  0.415845  0.972137  0.735576  1
  O  O17  1  0.084679  0.471959  0.765314  1
  O  O18  1  0.807543  0.777546  0.953015  1
  O  O19  1  0.722050  0.304988  0.957830  1
