# generated using pymatgen
data_Dy2(YAu2)5
_symmetry_space_group_name_H-M   'P 1'
_cell_length_a   8.76541205
_cell_length_b   8.76541128
_cell_length_c   10.44655300
_cell_angle_alpha   89.99384255
_cell_angle_beta   89.99384255
_cell_angle_gamma   107.14009739
_symmetry_Int_Tables_number   1
_chemical_formula_structural   Dy2(YAu2)5
_chemical_formula_sum   'Dy4 Y10 Au20'
_cell_volume   766.98677165
_cell_formula_units_Z   2
loop_
 _symmetry_equiv_pos_site_id
 _symmetry_equiv_pos_as_xyz
  1  'x, y, z'
loop_
 _atom_site_type_symbol
 _atom_site_label
 _atom_site_symmetry_multiplicity
 _atom_site_fract_x
 _atom_site_fract_y
 _atom_site_fract_z
 _atom_site_occupancy
  Dy  Dy0  1  0.000000  0.000000  0.000000  1
  Dy  Dy1  1  0.500000  0.500000  0.500000  1
  Dy  Dy2  1  0.187285  0.187285  0.687694  1
  Dy  Dy3  1  0.812715  0.812715  0.312306  1
  Y  Y4  1  0.694541  0.305457  0.999999  1
  Y  Y5  1  0.305459  0.694543  0.000001  1
  Y  Y6  1  0.805192  0.194809  0.500000  1
  Y  Y7  1  0.194808  0.805191  0.500000  1
  Y  Y8  1  0.002270  0.502069  0.250161  1
  Y  Y9  1  0.997730  0.497931  0.749839  1
  Y  Y10  1  0.497932  0.997732  0.749841  1
  Y  Y11  1  0.502068  0.002268  0.250159  1
  Y  Y12  1  0.311702  0.311700  0.188803  1
  Y  Y13  1  0.688298  0.688300  0.811197  1
  Au  Au14  1  0.860654  0.148309  0.209303  1
  Au  Au15  1  0.139346  0.851691  0.790697  1
  Au  Au16  1  0.639346  0.351284  0.709329  1
  Au  Au17  1  0.648715  0.360652  0.290671  1
  Au  Au18  1  0.360654  0.648716  0.290671  1
  Au  Au19  1  0.351285  0.639348  0.709329  1
  Au  Au20  1  0.851689  0.139344  0.790695  1
  Au  Au21  1  0.148311  0.860656  0.209305  1
  Au  Au22  1  0.936899  0.645138  0.002378  1
  Au  Au23  1  0.063101  0.354862  0.997622  1
  Au  Au24  1  0.563462  0.854734  0.502054  1
  Au  Au25  1  0.145264  0.436539  0.497947  1
  Au  Au26  1  0.436538  0.145266  0.497946  1
  Au  Au27  1  0.854736  0.563461  0.502053  1
  Au  Au28  1  0.354858  0.063103  0.997615  1
  Au  Au29  1  0.645142  0.936897  0.002385  1
  Au  Au30  1  0.104934  0.104935  0.397256  1
  Au  Au31  1  0.895066  0.895065  0.602744  1
  Au  Au32  1  0.393898  0.393898  0.895999  1
  Au  Au33  1  0.606102  0.606102  0.104001  1
