# generated using pymatgen
data_CePr3Lu4(ReB6)4
_symmetry_space_group_name_H-M   'P 1'
_cell_length_a   3.70698400
_cell_length_b   9.19234383
_cell_length_c   11.65157104
_cell_angle_alpha   89.95139363
_cell_angle_beta   90.00000000
_cell_angle_gamma   90.00000000
_symmetry_Int_Tables_number   1
_chemical_formula_structural   CePr3Lu4(ReB6)4
_chemical_formula_sum   'Ce1 Pr3 Lu4 Re4 B24'
_cell_volume   397.03729481
_cell_formula_units_Z   1
loop_
 _symmetry_equiv_pos_site_id
 _symmetry_equiv_pos_as_xyz
  1  'x, y, z'
loop_
 _atom_site_type_symbol
 _atom_site_label
 _atom_site_symmetry_multiplicity
 _atom_site_fract_x
 _atom_site_fract_y
 _atom_site_fract_z
 _atom_site_occupancy
  Ce  Ce0  1  0.000000  0.176521  0.914515  1
  Pr  Pr1  1  0.000000  0.322770  0.414523  1
  Pr  Pr2  1  0.000000  0.677261  0.585543  1
  Pr  Pr3  1  0.000000  0.822240  0.085283  1
  Lu  Lu4  1  0.000000  0.943610  0.368746  1
  Lu  Lu5  1  0.000000  0.056688  0.630484  1
  Lu  Lu6  1  0.000000  0.443412  0.130171  1
  Lu  Lu7  1  0.000000  0.556788  0.869727  1
  Re  Re8  1  0.000000  0.640285  0.318255  1
  Re  Re9  1  0.000000  0.357647  0.684338  1
  Re  Re10  1  0.000000  0.140186  0.178787  1
  Re  Re11  1  0.000000  0.862222  0.819422  1
  B  B12  1  0.500000  0.555506  0.429775  1
  B  B13  1  0.500000  0.443356  0.571338  1
  B  B14  1  0.500000  0.057063  0.068207  1
  B  B15  1  0.500000  0.946422  0.929771  1
  B  B16  1  0.500000  0.751940  0.415434  1
  B  B17  1  0.500000  0.248132  0.585385  1
  B  B18  1  0.500000  0.251656  0.082231  1
  B  B19  1  0.500000  0.748736  0.915247  1
  B  B20  1  0.500000  0.792667  0.265548  1
  B  B21  1  0.500000  0.206672  0.736026  1
  B  B22  1  0.500000  0.292226  0.233098  1
  B  B23  1  0.500000  0.707969  0.766454  1
  B  B24  1  0.500000  0.629016  0.185243  1
  B  B25  1  0.500000  0.368983  0.816391  1
  B  B26  1  0.500000  0.129198  0.313590  1
  B  B27  1  0.500000  0.871284  0.685917  1
  B  B28  1  0.500000  0.984558  0.213597  1
  B  B29  1  0.500000  0.017428  0.787076  1
  B  B30  1  0.500000  0.483835  0.285637  1
  B  B31  1  0.500000  0.515059  0.714890  1
  B  B32  1  0.500000  0.595746  0.026184  1
  B  B33  1  0.500000  0.402596  0.973358  1
  B  B34  1  0.500000  0.094956  0.473886  1
  B  B35  1  0.500000  0.905363  0.525921  1
