# generated using pymatgen
data_Sr2(AsPd)3
_symmetry_space_group_name_H-M   'P 1'
_cell_length_a   4.41656900
_cell_length_b   4.38759700
_cell_length_c   35.94662500
_cell_angle_alpha   90.00000000
_cell_angle_beta   90.00000000
_cell_angle_gamma   90.00000000
_symmetry_Int_Tables_number   1
_chemical_formula_structural   Sr2(AsPd)3
_chemical_formula_sum   'Sr8 As12 Pd12'
_cell_volume   696.57818879
_cell_formula_units_Z   4
loop_
 _symmetry_equiv_pos_site_id
 _symmetry_equiv_pos_as_xyz
  1  'x, y, z'
loop_
 _atom_site_type_symbol
 _atom_site_label
 _atom_site_symmetry_multiplicity
 _atom_site_fract_x
 _atom_site_fract_y
 _atom_site_fract_z
 _atom_site_occupancy
  Sr  Sr0  1  0.499999  0.499999  0.071111  1
  Sr  Sr1  1  0.000000  0.499999  0.176607  1
  Sr  Sr2  1  0.499999  0.000000  0.322068  1
  Sr  Sr3  1  0.000000  0.000000  0.428276  1
  Sr  Sr4  1  0.000000  0.000000  0.571724  1
  Sr  Sr5  1  0.499999  0.000000  0.677931  1
  Sr  Sr6  1  0.000000  0.499999  0.823393  1
  Sr  Sr7  1  0.499999  0.499999  0.928889  1
  As  As8  1  0.000000  0.000000  0.039808  1
  As  As9  1  0.499999  0.000000  0.140700  1
  As  As10  1  0.499999  0.000000  0.212383  1
  As  As11  1  0.000000  0.499999  0.286225  1
  As  As12  1  0.000000  0.499999  0.358136  1
  As  As13  1  0.499999  0.499999  0.459998  1
  As  As14  1  0.499999  0.499999  0.540002  1
  As  As15  1  0.000000  0.499999  0.641864  1
  As  As16  1  0.000000  0.499999  0.713775  1
  As  As17  1  0.499999  0.000000  0.787617  1
  As  As18  1  0.499999  0.000000  0.859300  1
  As  As19  1  0.000000  0.000000  0.960192  1
  Pd  Pd20  1  0.499999  0.000000  0.000000  1
  Pd  Pd21  1  0.000000  0.499999  0.000000  1
  Pd  Pd22  1  0.000000  0.000000  0.109411  1
  Pd  Pd23  1  0.000000  0.000000  0.248381  1
  Pd  Pd24  1  0.499999  0.499999  0.249964  1
  Pd  Pd25  1  0.499999  0.499999  0.389952  1
  Pd  Pd26  1  0.499999  0.000000  0.500000  1
  Pd  Pd27  1  0.000000  0.499999  0.500000  1
  Pd  Pd28  1  0.499999  0.499999  0.610048  1
  Pd  Pd29  1  0.499999  0.499999  0.750036  1
  Pd  Pd30  1  0.000000  0.000000  0.751619  1
  Pd  Pd31  1  0.000000  0.000000  0.890589  1
