# generated using pymatgen
data_Ac5Th(ZrBi5)2
_symmetry_space_group_name_H-M   'P 1'
_cell_length_a   10.03751300
_cell_length_b   10.03751285
_cell_length_c   6.69456700
_cell_angle_alpha   90.00000000
_cell_angle_beta   90.00000000
_cell_angle_gamma   119.96620317
_symmetry_Int_Tables_number   1
_chemical_formula_structural   Ac5Th(ZrBi5)2
_chemical_formula_sum   'Ac5 Th1 Zr2 Bi10'
_cell_volume   584.32324239
_cell_formula_units_Z   1
loop_
 _symmetry_equiv_pos_site_id
 _symmetry_equiv_pos_as_xyz
  1  'x, y, z'
loop_
 _atom_site_type_symbol
 _atom_site_label
 _atom_site_symmetry_multiplicity
 _atom_site_fract_x
 _atom_site_fract_y
 _atom_site_fract_z
 _atom_site_occupancy
  Ac  Ac0  1  0.378286  0.998912  0.750000  1
  Ac  Ac1  1  0.617264  0.002860  0.250000  1
  Ac  Ac2  1  0.998912  0.378286  0.750000  1
  Ac  Ac3  1  0.382963  0.382963  0.250000  1
  Ac  Ac4  1  0.002860  0.617264  0.250000  1
  Th  Th5  1  0.618068  0.618068  0.750000  1
  Zr  Zr6  1  0.000808  0.000808  0.002621  1
  Zr  Zr7  1  0.000808  0.000808  0.497379  1
  Bi  Bi8  1  0.258670  0.999586  0.250000  1
  Bi  Bi9  1  0.999586  0.258670  0.250000  1
  Bi  Bi10  1  0.990593  0.737079  0.750000  1
  Bi  Bi11  1  0.340393  0.666471  0.506137  1
  Bi  Bi12  1  0.340393  0.666471  0.993863  1
  Bi  Bi13  1  0.262272  0.262272  0.750000  1
  Bi  Bi14  1  0.666471  0.340393  0.506137  1
  Bi  Bi15  1  0.738102  0.738102  0.250000  1
  Bi  Bi16  1  0.737079  0.990593  0.750000  1
  Bi  Bi17  1  0.666471  0.340393  0.993863  1
