# generated using pymatgen
data_Ba2LaU3Se10
_symmetry_space_group_name_H-M   'P 1'
_cell_length_a   7.98269500
_cell_length_b   8.80969680
_cell_length_c   12.47586618
_cell_angle_alpha   89.58061308
_cell_angle_beta   90.00000000
_cell_angle_gamma   90.00000000
_symmetry_Int_Tables_number   1
_chemical_formula_structural   Ba2LaU3Se10
_chemical_formula_sum   'Ba4 La2 U6 Se20'
_cell_volume   877.34331552
_cell_formula_units_Z   2
loop_
 _symmetry_equiv_pos_site_id
 _symmetry_equiv_pos_as_xyz
  1  'x, y, z'
loop_
 _atom_site_type_symbol
 _atom_site_label
 _atom_site_symmetry_multiplicity
 _atom_site_fract_x
 _atom_site_fract_y
 _atom_site_fract_z
 _atom_site_occupancy
  Ba  Ba0  1  0.050398  0.492699  0.331434  1
  Ba  Ba1  1  0.550398  0.507301  0.168566  1
  Ba  Ba2  1  0.945216  0.507101  0.670954  1
  Ba  Ba3  1  0.445216  0.492899  0.829046  1
  La  La4  1  0.031508  0.999755  0.321141  1
  La  La5  1  0.531508  0.000245  0.178859  1
  U  U6  1  0.978058  0.001748  0.682479  1
  U  U7  1  0.478058  0.998252  0.817521  1
  U  U8  1  0.065561  0.757236  0.006593  1
  U  U9  1  0.565561  0.242764  0.493407  1
  U  U10  1  0.930563  0.246779  0.991246  1
  U  U11  1  0.430563  0.753221  0.508754  1
  Se  Se12  1  0.661334  0.957120  0.413164  1
  Se  Se13  1  0.161334  0.042880  0.086836  1
  Se  Se14  1  0.334735  0.045246  0.599222  1
  Se  Se15  1  0.834735  0.954754  0.900778  1
  Se  Se16  1  0.445022  0.784721  0.994828  1
  Se  Se17  1  0.945022  0.215279  0.505172  1
  Se  Se18  1  0.553017  0.212691  0.987759  1
  Se  Se19  1  0.053017  0.787309  0.512241  1
  Se  Se20  1  0.845928  0.769691  0.184185  1
  Se  Se21  1  0.345928  0.230309  0.315815  1
  Se  Se22  1  0.156634  0.217303  0.810736  1
  Se  Se23  1  0.656634  0.782697  0.689264  1
  Se  Se24  1  0.317809  0.763279  0.290498  1
  Se  Se25  1  0.817809  0.236721  0.209502  1
  Se  Se26  1  0.684397  0.222350  0.712573  1
  Se  Se27  1  0.184397  0.777650  0.787427  1
  Se  Se28  1  0.175035  0.460931  0.066880  1
  Se  Se29  1  0.675035  0.539069  0.433120  1
  Se  Se30  1  0.824785  0.537550  0.925465  1
  Se  Se31  1  0.324785  0.462450  0.574535  1
