# generated using pymatgen
data_SrHgRh2O7
_symmetry_space_group_name_H-M   'P 1'
_cell_length_a   7.36200417
_cell_length_b   7.36237925
_cell_length_c   7.25210500
_cell_angle_alpha   60.49567219
_cell_angle_beta   60.49387046
_cell_angle_gamma   61.10779673
_symmetry_Int_Tables_number   1
_chemical_formula_structural   SrHgRh2O7
_chemical_formula_sum   'Sr2 Hg2 Rh4 O14'
_cell_volume   282.31246548
_cell_formula_units_Z   2
loop_
 _symmetry_equiv_pos_site_id
 _symmetry_equiv_pos_as_xyz
  1  'x, y, z'
loop_
 _atom_site_type_symbol
 _atom_site_label
 _atom_site_symmetry_multiplicity
 _atom_site_fract_x
 _atom_site_fract_y
 _atom_site_fract_z
 _atom_site_occupancy
  Sr  Sr0  1  0.625006  0.124996  0.124998  1
  Sr  Sr1  1  0.125001  0.625005  0.124993  1
  Hg  Hg2  1  0.124999  0.124995  0.125014  1
  Hg  Hg3  1  0.124997  0.125001  0.624997  1
  Rh  Rh4  1  0.624994  0.625005  0.124991  1
  Rh  Rh5  1  0.625012  0.625000  0.625019  1
  Rh  Rh6  1  0.625010  0.124973  0.625014  1
  Rh  Rh7  1  0.124971  0.625010  0.625003  1
  O  O8  1  0.697592  0.304882  0.303362  1
  O  O9  1  0.697585  0.304889  0.694154  1
  O  O10  1  0.025626  0.025628  0.974377  1
  O  O11  1  0.304985  0.697612  0.303211  1
  O  O12  1  0.701502  0.701496  0.298506  1
  O  O13  1  0.945005  0.552399  0.555811  1
  O  O14  1  0.304991  0.697605  0.694185  1
  O  O15  1  0.224368  0.224368  0.275638  1
  O  O16  1  0.945018  0.552393  0.946779  1
  O  O17  1  0.552419  0.945112  0.555839  1
  O  O18  1  0.548505  0.548509  0.951491  1
  O  O19  1  0.943048  0.943282  0.556833  1
  O  O20  1  0.552410  0.945120  0.946629  1
  O  O21  1  0.306956  0.306722  0.693154  1
