# generated using pymatgen
data_Ti13Al9(FeRh)4
_symmetry_space_group_name_H-M   'P 1'
_cell_length_a   8.68151421
_cell_length_b   8.68151379
_cell_length_c   8.61831075
_cell_angle_alpha   59.84035709
_cell_angle_beta   59.84035777
_cell_angle_gamma   59.35972819
_symmetry_Int_Tables_number   1
_chemical_formula_structural   Ti13Al9(FeRh)4
_chemical_formula_sum   'Ti13 Al9 Fe4 Rh4'
_cell_volume   455.94278789
_cell_formula_units_Z   1
loop_
 _symmetry_equiv_pos_site_id
 _symmetry_equiv_pos_as_xyz
  1  'x, y, z'
loop_
 _atom_site_type_symbol
 _atom_site_label
 _atom_site_symmetry_multiplicity
 _atom_site_fract_x
 _atom_site_fract_y
 _atom_site_fract_z
 _atom_site_occupancy
  Ti  Ti0  1  0.207597  0.207597  0.792585  1
  Ti  Ti1  1  0.791731  0.208946  0.208527  1
  Ti  Ti2  1  0.208946  0.791731  0.208527  1
  Ti  Ti3  1  0.805731  0.805731  0.177344  1
  Ti  Ti4  1  0.176889  0.805960  0.806455  1
  Ti  Ti5  1  0.805960  0.176889  0.806455  1
  Ti  Ti6  1  0.378246  0.378246  0.387788  1
  Ti  Ti7  1  0.385416  0.856037  0.387572  1
  Ti  Ti8  1  0.856037  0.385416  0.387572  1
  Ti  Ti9  1  0.384192  0.384192  0.854282  1
  Ti  Ti10  1  0.848879  0.470136  0.831735  1
  Ti  Ti11  1  0.470136  0.848879  0.831735  1
  Ti  Ti12  1  0.838122  0.838122  0.469569  1
  Al  Al13  1  0.155752  0.155752  0.156141  1
  Al  Al14  1  0.157214  0.521942  0.169906  1
  Al  Al15  1  0.521942  0.157214  0.169906  1
  Al  Al16  1  0.164668  0.164668  0.522185  1
  Al  Al17  1  0.619148  0.619148  0.613726  1
  Al  Al18  1  0.617676  0.148455  0.612809  1
  Al  Al19  1  0.148455  0.617676  0.612809  1
  Al  Al20  1  0.616535  0.616535  0.148888  1
  Al  Al21  1  0.827556  0.827556  0.825814  1
  Fe  Fe22  1  0.999415  0.501476  0.503381  1
  Fe  Fe23  1  0.501476  0.999415  0.503381  1
  Fe  Fe24  1  0.499946  0.499946  0.500942  1
  Fe  Fe25  1  0.004373  0.004373  0.005866  1
  Rh  Rh26  1  0.004192  0.004192  0.499391  1
  Rh  Rh27  1  0.499291  0.004440  0.002622  1
  Rh  Rh28  1  0.004440  0.499291  0.002622  1
  Rh  Rh29  1  0.500034  0.500034  0.999459  1
