# generated using pymatgen
data_Ac2PrSn4Hg
_symmetry_space_group_name_H-M   'P 1'
_cell_length_a   6.79209395
_cell_length_b   6.79209330
_cell_length_c   10.86908651
_cell_angle_alpha   90.58246237
_cell_angle_beta   90.58245850
_cell_angle_gamma   102.42391688
_symmetry_Int_Tables_number   1
_chemical_formula_structural   Ac2PrSn4Hg
_chemical_formula_sum   'Ac4 Pr2 Sn8 Hg2'
_cell_volume   489.61210381
_cell_formula_units_Z   2
loop_
 _symmetry_equiv_pos_site_id
 _symmetry_equiv_pos_as_xyz
  1  'x, y, z'
loop_
 _atom_site_type_symbol
 _atom_site_label
 _atom_site_symmetry_multiplicity
 _atom_site_fract_x
 _atom_site_fract_y
 _atom_site_fract_z
 _atom_site_occupancy
  Ac  Ac0  1  0.201028  0.798972  0.500000  1
  Ac  Ac1  1  0.203356  0.796644  0.000000  1
  Ac  Ac2  1  0.798972  0.201028  0.500000  1
  Ac  Ac3  1  0.796644  0.203356  0.000000  1
  Pr  Pr4  1  0.639535  0.639535  0.253420  1
  Pr  Pr5  1  0.360465  0.360465  0.746580  1
  Sn  Sn6  1  0.026175  0.026175  0.248067  1
  Sn  Sn7  1  0.973825  0.973825  0.751933  1
  Sn  Sn8  1  0.318775  0.318775  0.449915  1
  Sn  Sn9  1  0.681225  0.681225  0.550085  1
  Sn  Sn10  1  0.488183  0.080903  0.247537  1
  Sn  Sn11  1  0.919097  0.511817  0.752463  1
  Sn  Sn12  1  0.511817  0.919097  0.752463  1
  Sn  Sn13  1  0.080903  0.488183  0.247537  1
  Hg  Hg14  1  0.317321  0.317321  0.037045  1
  Hg  Hg15  1  0.682679  0.682679  0.962955  1
