# generated using pymatgen
data_Sm2Mo(SeO5)2
_symmetry_space_group_name_H-M   'P 1'
_cell_length_a   5.42419627
_cell_length_b   6.88466903
_cell_length_c   12.61787438
_cell_angle_alpha   85.83187512
_cell_angle_beta   83.70530097
_cell_angle_gamma   69.94846179
_symmetry_Int_Tables_number   1
_chemical_formula_structural   Sm2Mo(SeO5)2
_chemical_formula_sum   'Sm4 Mo2 Se4 O20'
_cell_volume   439.65796102
_cell_formula_units_Z   2
loop_
 _symmetry_equiv_pos_site_id
 _symmetry_equiv_pos_as_xyz
  1  'x, y, z'
loop_
 _atom_site_type_symbol
 _atom_site_label
 _atom_site_symmetry_multiplicity
 _atom_site_fract_x
 _atom_site_fract_y
 _atom_site_fract_z
 _atom_site_occupancy
  Sm  Sm0  1  0.168433  0.696457  0.047015  1
  Sm  Sm1  1  0.831567  0.303544  0.952985  1
  Sm  Sm2  1  0.087657  0.888029  0.352153  1
  Sm  Sm3  1  0.912342  0.111970  0.647847  1
  Mo  Mo4  1  0.636358  0.720039  0.558689  1
  Mo  Mo5  1  0.363643  0.279959  0.441311  1
  Se  Se6  1  0.396103  0.102937  0.130617  1
  Se  Se7  1  0.603898  0.897061  0.869383  1
  Se  Se8  1  0.741120  0.579303  0.223469  1
  Se  Se9  1  0.258879  0.420697  0.776531  1
  O  O10  1  0.848811  0.879254  0.528748  1
  O  O11  1  0.151189  0.120747  0.471252  1
  O  O12  1  0.883679  0.773384  0.218657  1
  O  O13  1  0.116320  0.226615  0.781343  1
  O  O14  1  0.443125  0.334731  0.079316  1
  O  O15  1  0.556873  0.665268  0.920684  1
  O  O16  1  0.863924  0.507787  0.094487  1
  O  O17  1  0.136076  0.492213  0.905514  1
  O  O18  1  0.413025  0.719362  0.202109  1
  O  O19  1  0.586975  0.280637  0.797892  1
  O  O20  1  0.183903  0.165859  0.243722  1
  O  O21  1  0.816095  0.834141  0.756278  1
  O  O22  1  0.180349  0.058890  0.044512  1
  O  O23  1  0.819651  0.941110  0.955487  1
  O  O24  1  0.522909  0.708471  0.431994  1
  O  O25  1  0.477090  0.291527  0.568006  1
  O  O26  1  0.832380  0.470214  0.606432  1
  O  O27  1  0.167619  0.529786  0.393569  1
  O  O28  1  0.349124  0.838256  0.646456  1
  O  O29  1  0.650874  0.161746  0.353544  1
