# generated using pymatgen
data_Sr4SiGePd4
_symmetry_space_group_name_H-M   'P 1'
_cell_length_a   9.34337548
_cell_length_b   8.34751627
_cell_length_c   6.02270142
_cell_angle_alpha   80.36938558
_cell_angle_beta   61.39052733
_cell_angle_gamma   39.30173186
_symmetry_Int_Tables_number   1
_chemical_formula_structural   Sr4SiGePd4
_chemical_formula_sum   'Sr4 Si1 Ge1 Pd4'
_cell_volume   243.13271542
_cell_formula_units_Z   1
loop_
 _symmetry_equiv_pos_site_id
 _symmetry_equiv_pos_as_xyz
  1  'x, y, z'
loop_
 _atom_site_type_symbol
 _atom_site_label
 _atom_site_symmetry_multiplicity
 _atom_site_fract_x
 _atom_site_fract_y
 _atom_site_fract_z
 _atom_site_occupancy
  Sr  Sr0  1  0.036681  0.058355  0.631152  1
  Sr  Sr1  1  0.273810  0.631152  0.058355  1
  Sr  Sr2  1  0.615012  0.981012  0.217734  1
  Sr  Sr3  1  0.186244  0.217734  0.981012  1
  Si  Si4  1  0.870280  0.629720  0.629720  1
  Ge  Ge5  1  0.636188  0.363812  0.363812  1
  Pd  Pd6  1  0.625331  0.626893  0.054233  1
  Pd  Pd7  1  0.693542  0.054233  0.626893  1
  Pd  Pd8  1  0.182915  0.556668  0.628703  1
  Pd  Pd9  1  0.631715  0.628703  0.556668  1
