# generated using pymatgen
data_Ho5Cu5Ni14
_symmetry_space_group_name_H-M   'P 1'
_cell_length_a   4.93792986
_cell_length_b   4.93792999
_cell_length_c   16.40483769
_cell_angle_alpha   81.34397060
_cell_angle_beta   81.34396969
_cell_angle_gamma   60.00000104
_symmetry_Int_Tables_number   1
_chemical_formula_structural   Ho5Cu5Ni14
_chemical_formula_sum   'Ho5 Cu5 Ni14'
_cell_volume   341.14046604
_cell_formula_units_Z   1
loop_
 _symmetry_equiv_pos_site_id
 _symmetry_equiv_pos_as_xyz
  1  'x, y, z'
loop_
 _atom_site_type_symbol
 _atom_site_label
 _atom_site_symmetry_multiplicity
 _atom_site_fract_x
 _atom_site_fract_y
 _atom_site_fract_z
 _atom_site_occupancy
  Ho  Ho0  1  0.999331  0.999331  0.002008  1
  Ho  Ho1  1  0.077541  0.077541  0.767378  1
  Ho  Ho2  1  0.921541  0.921541  0.235376  1
  Ho  Ho3  1  0.151967  0.151967  0.544096  1
  Ho  Ho4  1  0.848125  0.848125  0.455626  1
  Cu  Cu5  1  0.250519  0.250519  0.248444  1
  Cu  Cu6  1  0.749720  0.749720  0.750843  1
  Cu  Cu7  1  0.333336  0.333336  0.999990  1
  Cu  Cu8  1  0.666705  0.666705  0.999886  1
  Cu  Cu9  1  0.416409  0.416409  0.750773  1
  Ni  Ni10  1  0.500085  0.500085  0.499746  1
  Ni  Ni11  1  0.583801  0.583801  0.248597  1
  Ni  Ni12  1  0.123236  0.625196  0.626372  1
  Ni  Ni13  1  0.625196  0.625196  0.626372  1
  Ni  Ni14  1  0.625196  0.123236  0.626372  1
  Ni  Ni15  1  0.876042  0.375680  0.372598  1
  Ni  Ni16  1  0.375680  0.375680  0.372598  1
  Ni  Ni17  1  0.375680  0.876042  0.372598  1
  Ni  Ni18  1  0.041522  0.541258  0.875962  1
  Ni  Ni19  1  0.541258  0.541258  0.875962  1
  Ni  Ni20  1  0.541258  0.041522  0.875962  1
  Ni  Ni21  1  0.957325  0.459264  0.124148  1
  Ni  Ni22  1  0.459264  0.459264  0.124148  1
  Ni  Ni23  1  0.459264  0.957325  0.124148  1
