# generated using pymatgen
data_Ho6Fe3Co8P12Ir7
_symmetry_space_group_name_H-M   'P 1'
_cell_length_a   3.77441400
_cell_length_b   10.81305350
_cell_length_c   12.44386114
_cell_angle_alpha   89.84627793
_cell_angle_beta   90.00000000
_cell_angle_gamma   90.00000000
_symmetry_Int_Tables_number   1
_chemical_formula_structural   Ho6Fe3Co8P12Ir7
_chemical_formula_sum   'Ho6 Fe3 Co8 P12 Ir7'
_cell_volume   507.86873667
_cell_formula_units_Z   1
loop_
 _symmetry_equiv_pos_site_id
 _symmetry_equiv_pos_as_xyz
  1  'x, y, z'
loop_
 _atom_site_type_symbol
 _atom_site_label
 _atom_site_symmetry_multiplicity
 _atom_site_fract_x
 _atom_site_fract_y
 _atom_site_fract_z
 _atom_site_occupancy
  Ho  Ho0  1  0.000000  0.501375  0.523238  1
  Ho  Ho1  1  0.500000  0.996646  0.480089  1
  Ho  Ho2  1  0.500000  0.816426  0.200309  1
  Ho  Ho3  1  0.500000  0.182491  0.196567  1
  Ho  Ho4  1  0.000000  0.685057  0.798329  1
  Ho  Ho5  1  0.000000  0.318264  0.802682  1
  Fe  Fe6  1  0.000000  0.501011  0.992709  1
  Fe  Fe7  1  0.500000  0.999615  0.006143  1
  Fe  Fe8  1  0.000000  0.797288  0.573249  1
  Co  Co9  1  0.500000  0.880889  0.713181  1
  Co  Co10  1  0.500000  0.121819  0.717722  1
  Co  Co11  1  0.000000  0.619624  0.285355  1
  Co  Co12  1  0.000000  0.377957  0.283327  1
  Co  Co13  1  0.500000  0.332953  0.995289  1
  Co  Co14  1  0.500000  0.668889  0.995742  1
  Co  Co15  1  0.000000  0.167485  0.003209  1
  Co  Co16  1  0.000000  0.831919  0.003673  1
  P  P17  1  0.500000  0.309621  0.625039  1
  P  P18  1  0.500000  0.698784  0.621864  1
  P  P19  1  0.000000  0.188792  0.375859  1
  P  P20  1  0.000000  0.813028  0.385566  1
  P  P21  1  0.500000  0.501991  0.894138  1
  P  P22  1  0.000000  0.999061  0.104897  1
  P  P23  1  0.500000  0.843436  0.896009  1
  P  P24  1  0.500000  0.156897  0.896871  1
  P  P25  1  0.000000  0.657214  0.103621  1
  P  P26  1  0.000000  0.343250  0.102111  1
  P  P27  1  0.500000  0.500568  0.345632  1
  P  P28  1  0.000000  0.989128  0.651229  1
  Ir  Ir29  1  0.500000  0.298273  0.426144  1
  Ir  Ir30  1  0.500000  0.701363  0.428003  1
  Ir  Ir31  1  0.000000  0.198006  0.575428  1
  Ir  Ir32  1  0.500000  0.500215  0.159349  1
  Ir  Ir33  1  0.000000  0.999324  0.838779  1
  Ir  Ir34  1  0.500000  0.502247  0.706648  1
  Ir  Ir35  1  0.000000  0.999095  0.291998  1
