# generated using pymatgen
data_Ho3Er7(SiSn3)2
_symmetry_space_group_name_H-M   'P 1'
_cell_length_a   9.15529300
_cell_length_b   9.15529334
_cell_length_c   6.39928700
_cell_angle_alpha   90.00000000
_cell_angle_beta   90.00000000
_cell_angle_gamma   119.99999515
_symmetry_Int_Tables_number   1
_chemical_formula_structural   Ho3Er7(SiSn3)2
_chemical_formula_sum   'Ho3 Er7 Si2 Sn6'
_cell_volume   464.52249792
_cell_formula_units_Z   1
loop_
 _symmetry_equiv_pos_site_id
 _symmetry_equiv_pos_as_xyz
  1  'x, y, z'
loop_
 _atom_site_type_symbol
 _atom_site_label
 _atom_site_symmetry_multiplicity
 _atom_site_fract_x
 _atom_site_fract_y
 _atom_site_fract_z
 _atom_site_occupancy
  Ho  Ho0  1  0.747099  0.747099  0.750000  1
  Ho  Ho1  1  0.252901  0.000000  0.750000  1
  Ho  Ho2  1  0.000000  0.252901  0.750000  1
  Er  Er3  1  0.666667  0.333333  0.000052  1
  Er  Er4  1  0.333333  0.666667  0.000052  1
  Er  Er5  1  0.333333  0.666667  0.499948  1
  Er  Er6  1  0.666667  0.333333  0.499948  1
  Er  Er7  1  0.252776  0.252776  0.250000  1
  Er  Er8  1  0.747224  0.000000  0.250000  1
  Er  Er9  1  0.000000  0.747224  0.250000  1
  Si  Si10  1  0.000000  0.000000  0.000564  1
  Si  Si11  1  0.000000  0.000000  0.499436  1
  Sn  Sn12  1  0.391643  0.391643  0.750000  1
  Sn  Sn13  1  0.608357  0.000000  0.750000  1
  Sn  Sn14  1  0.000000  0.608357  0.750000  1
  Sn  Sn15  1  0.608481  0.608481  0.250000  1
  Sn  Sn16  1  0.391519  0.000000  0.250000  1
  Sn  Sn17  1  0.000000  0.391519  0.250000  1
