# generated using pymatgen
data_Ac3LuAu5
_symmetry_space_group_name_H-M   'P 1'
_cell_length_a   8.50894617
_cell_length_b   8.50894646
_cell_length_c   8.50894565
_cell_angle_alpha   65.74849775
_cell_angle_beta   65.74849342
_cell_angle_gamma   65.74847472
_symmetry_Int_Tables_number   1
_chemical_formula_structural   Ac3LuAu5
_chemical_formula_sum   'Ac6 Lu2 Au10'
_cell_volume   489.94241043
_cell_formula_units_Z   2
loop_
 _symmetry_equiv_pos_site_id
 _symmetry_equiv_pos_as_xyz
  1  'x, y, z'
loop_
 _atom_site_type_symbol
 _atom_site_label
 _atom_site_symmetry_multiplicity
 _atom_site_fract_x
 _atom_site_fract_y
 _atom_site_fract_z
 _atom_site_occupancy
  Ac  Ac0  1  0.890701  0.186606  0.624067  1
  Ac  Ac1  1  0.624067  0.890701  0.186606  1
  Ac  Ac2  1  0.186606  0.624067  0.890701  1
  Ac  Ac3  1  0.109299  0.813394  0.375933  1
  Ac  Ac4  1  0.375933  0.109299  0.813394  1
  Ac  Ac5  1  0.813394  0.375933  0.109299  1
  Lu  Lu6  1  0.657210  0.657210  0.657210  1
  Lu  Lu7  1  0.342790  0.342790  0.342790  1
  Au  Au8  1  0.000000  0.000000  0.000000  1
  Au  Au9  1  0.500000  0.500000  0.500000  1
  Au  Au10  1  0.800593  0.800593  0.800593  1
  Au  Au11  1  0.199407  0.199407  0.199407  1
  Au  Au12  1  0.941241  0.547615  0.327506  1
  Au  Au13  1  0.327506  0.941241  0.547615  1
  Au  Au14  1  0.547615  0.327506  0.941241  1
  Au  Au15  1  0.058759  0.452385  0.672494  1
  Au  Au16  1  0.672494  0.058759  0.452385  1
  Au  Au17  1  0.452385  0.672494  0.058759  1
