# generated using pymatgen
data_Rb4Si12SbP11
_symmetry_space_group_name_H-M   'P 1'
_cell_length_a   3.59327300
_cell_length_b   10.09559520
_cell_length_c   20.02861170
_cell_angle_alpha   89.87165133
_cell_angle_beta   90.00000000
_cell_angle_gamma   90.00000000
_symmetry_Int_Tables_number   1
_chemical_formula_structural   Rb4Si12SbP11
_chemical_formula_sum   'Rb4 Si12 Sb1 P11'
_cell_volume   726.56069497
_cell_formula_units_Z   1
loop_
 _symmetry_equiv_pos_site_id
 _symmetry_equiv_pos_as_xyz
  1  'x, y, z'
loop_
 _atom_site_type_symbol
 _atom_site_label
 _atom_site_symmetry_multiplicity
 _atom_site_fract_x
 _atom_site_fract_y
 _atom_site_fract_z
 _atom_site_occupancy
  Rb  Rb0  1  0.000000  0.309950  0.306138  1
  Rb  Rb1  1  0.000000  0.688350  0.692448  1
  Rb  Rb2  1  0.000000  0.188919  0.807142  1
  Rb  Rb3  1  0.000000  0.828437  0.210834  1
  Si  Si4  1  0.500000  0.400313  0.030410  1
  Si  Si5  1  0.500000  0.586712  0.960734  1
  Si  Si6  1  0.500000  0.096502  0.533591  1
  Si  Si7  1  0.500000  0.903148  0.466469  1
  Si  Si8  1  0.000000  0.115931  0.012536  1
  Si  Si9  1  0.000000  0.895723  0.979700  1
  Si  Si10  1  0.000000  0.385275  0.515722  1
  Si  Si11  1  0.000000  0.612906  0.486786  1
  Si  Si12  1  0.000000  0.183825  0.125591  1
  Si  Si13  1  0.000000  0.816916  0.868695  1
  Si  Si14  1  0.000000  0.316036  0.628223  1
  Si  Si15  1  0.000000  0.678842  0.374320  1
  Sb  Sb16  1  0.500000  0.780002  0.047904  1
  P  P17  1  0.500000  0.124041  0.186140  1
  P  P18  1  0.500000  0.879810  0.808650  1
  P  P19  1  0.500000  0.379339  0.687401  1
  P  P20  1  0.500000  0.615398  0.315089  1
  P  P21  1  0.500000  0.283434  0.465379  1
  P  P22  1  0.500000  0.717355  0.535481  1
  P  P23  1  0.500000  0.217467  0.962969  1
  P  P24  1  0.000000  0.408592  0.101441  1
  P  P25  1  0.000000  0.590448  0.890209  1
  P  P26  1  0.000000  0.090873  0.604411  1
  P  P27  1  0.000000  0.905457  0.395590  1
