# generated using pymatgen
data_Sc4Ta4Co16(Si3P)3
_symmetry_space_group_name_H-M   'P 1'
_cell_length_a   3.65866300
_cell_length_b   10.54084556
_cell_length_c   12.13070009
_cell_angle_alpha   90.09414801
_cell_angle_beta   90.00000000
_cell_angle_gamma   90.00000000
_symmetry_Int_Tables_number   1
_chemical_formula_structural   Sc4Ta4Co16(Si3P)3
_chemical_formula_sum   'Sc4 Ta4 Co16 Si9 P3'
_cell_volume   467.82468961
_cell_formula_units_Z   1
loop_
 _symmetry_equiv_pos_site_id
 _symmetry_equiv_pos_as_xyz
  1  'x, y, z'
loop_
 _atom_site_type_symbol
 _atom_site_label
 _atom_site_symmetry_multiplicity
 _atom_site_fract_x
 _atom_site_fract_y
 _atom_site_fract_z
 _atom_site_occupancy
  Sc  Sc0  1  0.250000  0.573687  0.705077  1
  Sc  Sc1  1  0.250000  0.926073  0.205771  1
  Sc  Sc2  1  0.750000  0.422271  0.290646  1
  Sc  Sc3  1  0.750000  0.073920  0.795596  1
  Ta  Ta4  1  0.250000  0.702056  0.992693  1
  Ta  Ta5  1  0.250000  0.799038  0.492430  1
  Ta  Ta6  1  0.750000  0.297865  0.007376  1
  Ta  Ta7  1  0.750000  0.201725  0.507474  1
  Co  Co8  1  0.250000  0.403821  0.486775  1
  Co  Co9  1  0.250000  0.091134  0.983685  1
  Co  Co10  1  0.750000  0.591935  0.517265  1
  Co  Co11  1  0.750000  0.909859  0.016092  1
  Co  Co12  1  0.250000  0.211435  0.166080  1
  Co  Co13  1  0.250000  0.287640  0.667449  1
  Co  Co14  1  0.750000  0.789354  0.834274  1
  Co  Co15  1  0.750000  0.714817  0.335078  1
  Co  Co16  1  0.250000  0.881429  0.705341  1
  Co  Co17  1  0.250000  0.620065  0.200947  1
  Co  Co18  1  0.750000  0.119946  0.295475  1
  Co  Co19  1  0.750000  0.380208  0.795267  1
  Co  Co20  1  0.250000  0.462574  0.930376  1
  Co  Co21  1  0.250000  0.038051  0.431935  1
  Co  Co22  1  0.750000  0.537853  0.066301  1
  Co  Co23  1  0.750000  0.963221  0.569575  1
  Si  Si24  1  0.250000  0.424462  0.120024  1
  Si  Si25  1  0.250000  0.076399  0.621966  1
  Si  Si26  1  0.750000  0.576413  0.877866  1
  Si  Si27  1  0.750000  0.925551  0.379157  1
  Si  Si28  1  0.250000  0.262057  0.852901  1
  Si  Si29  1  0.250000  0.237483  0.352443  1
  Si  Si30  1  0.750000  0.737672  0.148266  1
  Si  Si31  1  0.750000  0.763168  0.648368  1
  Si  Si32  1  0.250000  0.585991  0.386711  1
  P  P33  1  0.250000  0.910907  0.888216  1
  P  P34  1  0.750000  0.410398  0.612617  1
  P  P35  1  0.750000  0.089523  0.112489  1
