# generated using pymatgen
data_Pu3In3Ge2Rh
_symmetry_space_group_name_H-M   'P 1'
_cell_length_a   7.29314900
_cell_length_b   7.29314935
_cell_length_c   4.43817300
_cell_angle_alpha   90.00000000
_cell_angle_beta   90.00000000
_cell_angle_gamma   119.99999388
_symmetry_Int_Tables_number   1
_chemical_formula_structural   Pu3In3Ge2Rh
_chemical_formula_sum   'Pu3 In3 Ge2 Rh1'
_cell_volume   204.43962658
_cell_formula_units_Z   1
loop_
 _symmetry_equiv_pos_site_id
 _symmetry_equiv_pos_as_xyz
  1  'x, y, z'
loop_
 _atom_site_type_symbol
 _atom_site_label
 _atom_site_symmetry_multiplicity
 _atom_site_fract_x
 _atom_site_fract_y
 _atom_site_fract_z
 _atom_site_occupancy
  Pu  Pu0  1  0.412431  0.000000  0.000000  1
  Pu  Pu1  1  0.000000  0.412431  0.000000  1
  Pu  Pu2  1  0.587569  0.587568  0.000000  1
  In  In3  1  0.758156  0.000000  0.500001  1
  In  In4  1  0.241844  0.241844  0.500001  1
  In  In5  1  0.000000  0.758157  0.500001  1
  Ge  Ge6  1  0.666667  0.333334  0.500001  1
  Ge  Ge7  1  0.333333  0.666667  0.500001  1
  Rh  Rh8  1  0.000000  0.000000  0.000000  1
