# generated using pymatgen
data_K2GdZrTe8
_symmetry_space_group_name_H-M   'P 1'
_cell_length_a   11.92791824
_cell_length_b   12.47848111
_cell_length_c   14.62511900
_cell_angle_alpha   90.00000000
_cell_angle_beta   90.00000000
_cell_angle_gamma   86.78880788
_symmetry_Int_Tables_number   1
_chemical_formula_structural   K2GdZrTe8
_chemical_formula_sum   'K2 Gd1 Zr1 Te8'
_cell_volume   2173.41840626
_cell_formula_units_Z   1
loop_
 _symmetry_equiv_pos_site_id
 _symmetry_equiv_pos_as_xyz
  1  'x, y, z'
loop_
 _atom_site_type_symbol
 _atom_site_label
 _atom_site_symmetry_multiplicity
 _atom_site_fract_x
 _atom_site_fract_y
 _atom_site_fract_z
 _atom_site_occupancy
  K  K0  1  0.000000  0.000000  0.999926  1
  K  K1  1  0.500000  0.500000  0.999921  1
  Gd  Gd2  1  0.500000  0.500000  0.500897  1
  Zr  Zr3  1  0.000000  0.000000  0.500013  1
  Te  Te4  1  0.330046  0.831720  0.274079  1
  Te  Te5  1  0.158910  0.339679  0.273176  1
  Te  Te6  1  0.841090  0.660321  0.273176  1
  Te  Te7  1  0.340260  0.160131  0.726150  1
  Te  Te8  1  0.659740  0.839869  0.726150  1
  Te  Te9  1  0.669954  0.168280  0.274079  1
  Te  Te10  1  0.832046  0.329423  0.726217  1
  Te  Te11  1  0.167954  0.670577  0.726217  1
