# generated using pymatgen
data_YHo7Cu2(Si6Pd)2
_symmetry_space_group_name_H-M   'P 1'
_cell_length_a   8.06916600
_cell_length_b   8.06916572
_cell_length_c   8.09143100
_cell_angle_alpha   90.00000000
_cell_angle_beta   90.00000000
_cell_angle_gamma   119.99999294
_symmetry_Int_Tables_number   1
_chemical_formula_structural   YHo7Cu2(Si6Pd)2
_chemical_formula_sum   'Y1 Ho7 Cu2 Si12 Pd2'
_cell_volume   456.26093120
_cell_formula_units_Z   1
loop_
 _symmetry_equiv_pos_site_id
 _symmetry_equiv_pos_as_xyz
  1  'x, y, z'
loop_
 _atom_site_type_symbol
 _atom_site_label
 _atom_site_symmetry_multiplicity
 _atom_site_fract_x
 _atom_site_fract_y
 _atom_site_fract_z
 _atom_site_occupancy
  Y  Y0  1  0.000000  0.000000  0.750772  1
  Ho  Ho1  1  0.500128  0.000258  0.249671  1
  Ho  Ho2  1  0.499866  0.999732  0.750316  1
  Ho  Ho3  1  0.999742  0.499872  0.249671  1
  Ho  Ho4  1  0.000268  0.500134  0.750316  1
  Ho  Ho5  1  0.500128  0.499872  0.249671  1
  Ho  Ho6  1  0.499866  0.500134  0.750316  1
  Ho  Ho7  1  0.000000  0.000000  0.249268  1
  Cu  Cu8  1  0.333333  0.666667  0.999144  1
  Cu  Cu9  1  0.666667  0.333333  0.000270  1
  Si  Si10  1  0.169296  0.338593  0.000702  1
  Si  Si11  1  0.830703  0.661407  0.000606  1
  Si  Si12  1  0.661407  0.830704  0.000702  1
  Si  Si13  1  0.834055  0.668110  0.499411  1
  Si  Si14  1  0.338593  0.169297  0.000606  1
  Si  Si15  1  0.165942  0.331885  0.499223  1
  Si  Si16  1  0.169296  0.830704  0.000702  1
  Si  Si17  1  0.331890  0.165945  0.499411  1
  Si  Si18  1  0.830703  0.169297  0.000606  1
  Si  Si19  1  0.668115  0.834058  0.499223  1
  Si  Si20  1  0.834055  0.165945  0.499411  1
  Si  Si21  1  0.165942  0.834058  0.499223  1
  Pd  Pd22  1  0.666667  0.333333  0.501022  1
  Pd  Pd23  1  0.333333  0.666667  0.499731  1
