# generated using pymatgen
data_TbHo2Co9(SiB2)2
_symmetry_space_group_name_H-M   'P 1'
_cell_length_a   5.11575701
_cell_length_b   5.11533445
_cell_length_c   9.34872500
_cell_angle_alpha   89.99990167
_cell_angle_beta   90.00009467
_cell_angle_gamma   119.99823227
_symmetry_Int_Tables_number   1
_chemical_formula_structural   TbHo2Co9(SiB2)2
_chemical_formula_sum   'Tb1 Ho2 Co9 Si2 B4'
_cell_volume   211.87255007
_cell_formula_units_Z   1
loop_
 _symmetry_equiv_pos_site_id
 _symmetry_equiv_pos_as_xyz
  1  'x, y, z'
loop_
 _atom_site_type_symbol
 _atom_site_label
 _atom_site_symmetry_multiplicity
 _atom_site_fract_x
 _atom_site_fract_y
 _atom_site_fract_z
 _atom_site_occupancy
  Tb  Tb0  1  0.999983  0.999999  0.000042  1
  Ho  Ho1  1  0.999994  0.000000  0.338610  1
  Ho  Ho2  1  0.000002  0.999999  0.661404  1
  Co  Co3  1  0.499998  0.000000  0.499987  1
  Co  Co4  1  0.499998  0.500001  0.499982  1
  Co  Co5  1  0.999996  0.500000  0.499972  1
  Co  Co6  1  0.499992  0.000001  0.196353  1
  Co  Co7  1  0.499991  0.500000  0.196352  1
  Co  Co8  1  0.999990  0.500000  0.196349  1
  Co  Co9  1  0.499998  0.000000  0.803657  1
  Co  Co10  1  0.499999  0.500001  0.803661  1
  Co  Co11  1  0.999998  0.499999  0.803661  1
  Si  Si12  1  0.333394  0.666731  0.000003  1
  Si  Si13  1  0.666582  0.333268  0.000002  1
  B  B14  1  0.333319  0.666661  0.345736  1
  B  B15  1  0.666668  0.333339  0.345735  1
  B  B16  1  0.666674  0.333344  0.654248  1
  B  B17  1  0.333323  0.666656  0.654248  1
