# generated using pymatgen
data_TaBe3CoIr
_symmetry_space_group_name_H-M   'P 1'
_cell_length_a   4.53124700
_cell_length_b   4.53124674
_cell_length_c   7.26297000
_cell_angle_alpha   90.00000000
_cell_angle_beta   90.00000000
_cell_angle_gamma   119.99999461
_symmetry_Int_Tables_number   1
_chemical_formula_structural   TaBe3CoIr
_chemical_formula_sum   'Ta2 Be6 Co2 Ir2'
_cell_volume   129.14581976
_cell_formula_units_Z   2
loop_
 _symmetry_equiv_pos_site_id
 _symmetry_equiv_pos_as_xyz
  1  'x, y, z'
loop_
 _atom_site_type_symbol
 _atom_site_label
 _atom_site_symmetry_multiplicity
 _atom_site_fract_x
 _atom_site_fract_y
 _atom_site_fract_z
 _atom_site_occupancy
  Ta  Ta0  1  0.666667  0.333333  0.939920  1
  Ta  Ta1  1  0.333333  0.666667  0.439920  1
  Be  Be2  1  0.836750  0.673499  0.245784  1
  Be  Be3  1  0.163250  0.836750  0.745784  1
  Be  Be4  1  0.673499  0.836750  0.745784  1
  Be  Be5  1  0.326501  0.163250  0.245784  1
  Be  Be6  1  0.836750  0.163250  0.245784  1
  Be  Be7  1  0.163250  0.326501  0.745784  1
  Co  Co8  1  0.000000  0.000000  0.990395  1
  Co  Co9  1  0.000000  0.000000  0.490395  1
  Ir  Ir10  1  0.333333  0.666667  0.082332  1
  Ir  Ir11  1  0.666667  0.333333  0.582332  1
