# generated using pymatgen
data_Pr4Hf5ZrSn8
_symmetry_space_group_name_H-M   'P 1'
_cell_length_a   7.89534400
_cell_length_b   7.91497103
_cell_length_c   14.77546105
_cell_angle_alpha   90.00973942
_cell_angle_beta   90.00000000
_cell_angle_gamma   90.00000000
_symmetry_Int_Tables_number   1
_chemical_formula_structural   Pr4Hf5ZrSn8
_chemical_formula_sum   'Pr8 Hf10 Zr2 Sn16'
_cell_volume   923.33951457
_cell_formula_units_Z   2
loop_
 _symmetry_equiv_pos_site_id
 _symmetry_equiv_pos_as_xyz
  1  'x, y, z'
loop_
 _atom_site_type_symbol
 _atom_site_label
 _atom_site_symmetry_multiplicity
 _atom_site_fract_x
 _atom_site_fract_y
 _atom_site_fract_z
 _atom_site_occupancy
  Pr  Pr0  1  0.509608  0.326711  0.907495  1
  Pr  Pr1  1  0.009608  0.173289  0.592505  1
  Pr  Pr2  1  0.490475  0.673434  0.407008  1
  Pr  Pr3  1  0.990475  0.826566  0.092992  1
  Pr  Pr4  1  0.490823  0.673228  0.092953  1
  Pr  Pr5  1  0.990823  0.826772  0.407047  1
  Pr  Pr6  1  0.509328  0.326139  0.592627  1
  Pr  Pr7  1  0.009328  0.173861  0.907373  1
  Hf  Hf8  1  0.344187  0.837525  0.870261  1
  Hf  Hf9  1  0.844187  0.662475  0.629739  1
  Hf  Hf10  1  0.655719  0.162283  0.370095  1
  Hf  Hf11  1  0.155719  0.337717  0.129905  1
  Hf  Hf12  1  0.655396  0.162388  0.130330  1
  Hf  Hf13  1  0.155396  0.337612  0.369670  1
  Hf  Hf14  1  0.166894  0.510747  0.750018  1
  Hf  Hf15  1  0.666894  0.989253  0.749982  1
  Hf  Hf16  1  0.833472  0.488331  0.250101  1
  Hf  Hf17  1  0.333472  0.011669  0.249899  1
  Zr  Zr18  1  0.343735  0.837533  0.629038  1
  Zr  Zr19  1  0.843735  0.662467  0.870962  1
  Sn  Sn20  1  0.319916  0.044046  0.044938  1
  Sn  Sn21  1  0.819916  0.455954  0.455062  1
  Sn  Sn22  1  0.681671  0.956277  0.544399  1
  Sn  Sn23  1  0.181671  0.543723  0.955601  1
  Sn  Sn24  1  0.679275  0.957406  0.955694  1
  Sn  Sn25  1  0.179275  0.542594  0.544306  1
  Sn  Sn26  1  0.319906  0.044878  0.454350  1
  Sn  Sn27  1  0.819906  0.455122  0.045650  1
  Sn  Sn28  1  0.539550  0.624229  0.749976  1
  Sn  Sn29  1  0.039550  0.875771  0.750024  1
  Sn  Sn30  1  0.460289  0.375457  0.250002  1
  Sn  Sn31  1  0.960289  0.124543  0.249998  1
  Sn  Sn32  1  0.313117  0.148784  0.750456  1
  Sn  Sn33  1  0.813117  0.351216  0.749544  1
  Sn  Sn34  1  0.686638  0.851846  0.249952  1
  Sn  Sn35  1  0.186638  0.648154  0.250048  1
