# generated using pymatgen
data_Tb9Th7(CdTc)4
_symmetry_space_group_name_H-M   'P 1'
_cell_length_a   9.74839427
_cell_length_b   9.74679251
_cell_length_c   9.84824234
_cell_angle_alpha   59.66587483
_cell_angle_beta   60.33745394
_cell_angle_gamma   60.68431370
_symmetry_Int_Tables_number   1
_chemical_formula_structural   Tb9Th7(CdTc)4
_chemical_formula_sum   'Tb9 Th7 Cd4 Tc4'
_cell_volume   664.99159410
_cell_formula_units_Z   1
loop_
 _symmetry_equiv_pos_site_id
 _symmetry_equiv_pos_as_xyz
  1  'x, y, z'
loop_
 _atom_site_type_symbol
 _atom_site_label
 _atom_site_symmetry_multiplicity
 _atom_site_fract_x
 _atom_site_fract_y
 _atom_site_fract_z
 _atom_site_occupancy
  Tb  Tb0  1  0.808479  0.191521  0.808479  1
  Tb  Tb1  1  0.190820  0.196271  0.804318  1
  Tb  Tb2  1  0.804318  0.808591  0.190820  1
  Tb  Tb3  1  0.936038  0.564350  0.564183  1
  Tb  Tb4  1  0.564183  0.935429  0.936038  1
  Tb  Tb5  1  0.563158  0.936842  0.563158  1
  Tb  Tb6  1  0.938488  0.561512  0.938488  1
  Tb  Tb7  1  0.560531  0.559848  0.939271  1
  Tb  Tb8  1  0.939271  0.940350  0.560531  1
  Th  Th9  1  0.345761  0.345223  0.351119  1
  Th  Th10  1  0.348633  0.344241  0.958008  1
  Th  Th11  1  0.351119  0.957898  0.345761  1
  Th  Th12  1  0.958008  0.349119  0.348633  1
  Th  Th13  1  0.811457  0.188690  0.184311  1
  Th  Th14  1  0.184311  0.815542  0.811457  1
  Th  Th15  1  0.186926  0.813074  0.186926  1
  Cd  Cd16  1  0.583746  0.580550  0.580285  1
  Cd  Cd17  1  0.582466  0.582196  0.255049  1
  Cd  Cd18  1  0.580285  0.255417  0.583746  1
  Cd  Cd19  1  0.255049  0.580287  0.582466  1
  Tc  Tc20  1  0.131315  0.130477  0.151650  1
  Tc  Tc21  1  0.147709  0.124543  0.576280  1
  Tc  Tc22  1  0.151650  0.586558  0.131315  1
  Tc  Tc23  1  0.576280  0.151468  0.147709  1
