# generated using pymatgen
data_Tb5In2PbBr
_symmetry_space_group_name_H-M   'P 1'
_cell_length_a   9.24920871
_cell_length_b   9.24920936
_cell_length_c   6.81775200
_cell_angle_alpha   90.00000000
_cell_angle_beta   90.00000000
_cell_angle_gamma   120.26486410
_symmetry_Int_Tables_number   1
_chemical_formula_structural   Tb5In2PbBr
_chemical_formula_sum   'Tb10 In4 Pb2 Br2'
_cell_volume   503.75075911
_cell_formula_units_Z   2
loop_
 _symmetry_equiv_pos_site_id
 _symmetry_equiv_pos_as_xyz
  1  'x, y, z'
loop_
 _atom_site_type_symbol
 _atom_site_label
 _atom_site_symmetry_multiplicity
 _atom_site_fract_x
 _atom_site_fract_y
 _atom_site_fract_z
 _atom_site_occupancy
  Tb  Tb0  1  0.264767  0.997641  0.250000  1
  Tb  Tb1  1  0.735233  0.002359  0.750000  1
  Tb  Tb2  1  0.997641  0.264767  0.250000  1
  Tb  Tb3  1  0.002359  0.735233  0.750000  1
  Tb  Tb4  1  0.737298  0.737298  0.250000  1
  Tb  Tb5  1  0.262702  0.262702  0.750000  1
  Tb  Tb6  1  0.330873  0.669127  0.000000  1
  Tb  Tb7  1  0.669127  0.330873  0.000000  1
  Tb  Tb8  1  0.669127  0.330873  0.500000  1
  Tb  Tb9  1  0.330873  0.669127  0.500000  1
  In  In10  1  0.607116  0.999782  0.250000  1
  In  In11  1  0.392884  0.000218  0.750000  1
  In  In12  1  0.999782  0.607116  0.250000  1
  In  In13  1  0.000218  0.392884  0.750000  1
  Pb  Pb14  1  0.390763  0.390763  0.250000  1
  Pb  Pb15  1  0.609237  0.609237  0.750000  1
  Br  Br16  1  0.000000  0.000000  0.000000  1
  Br  Br17  1  0.000000  0.000000  0.500000  1
