# generated using pymatgen
data_YbYLu2(B6Os)2
_symmetry_space_group_name_H-M   'P 1'
_cell_length_a   3.61220500
_cell_length_b   9.08667899
_cell_length_c   11.48395102
_cell_angle_alpha   89.87731497
_cell_angle_beta   90.00000000
_cell_angle_gamma   90.00000000
_symmetry_Int_Tables_number   1
_chemical_formula_structural   YbYLu2(B6Os)2
_chemical_formula_sum   'Yb2 Y2 Lu4 B24 Os4'
_cell_volume   376.93625480
_cell_formula_units_Z   2
loop_
 _symmetry_equiv_pos_site_id
 _symmetry_equiv_pos_as_xyz
  1  'x, y, z'
loop_
 _atom_site_type_symbol
 _atom_site_label
 _atom_site_symmetry_multiplicity
 _atom_site_fract_x
 _atom_site_fract_y
 _atom_site_fract_z
 _atom_site_occupancy
  Yb  Yb0  1  0.000000  0.323840  0.414667  1
  Yb  Yb1  1  0.000000  0.676160  0.585333  1
  Y  Y2  1  0.000000  0.821194  0.086331  1
  Y  Y3  1  0.000000  0.178806  0.913669  1
  Lu  Lu4  1  0.000000  0.942399  0.370920  1
  Lu  Lu5  1  0.000000  0.057601  0.629080  1
  Lu  Lu6  1  0.000000  0.443126  0.129998  1
  Lu  Lu7  1  0.000000  0.556874  0.870002  1
  B  B8  1  0.500000  0.553963  0.432376  1
  B  B9  1  0.500000  0.446037  0.567624  1
  B  B10  1  0.500000  0.054037  0.067132  1
  B  B11  1  0.500000  0.945963  0.932868  1
  B  B12  1  0.500000  0.749171  0.418014  1
  B  B13  1  0.500000  0.250829  0.581986  1
  B  B14  1  0.500000  0.249882  0.081751  1
  B  B15  1  0.500000  0.750118  0.918249  1
  B  B16  1  0.500000  0.791746  0.264977  1
  B  B17  1  0.500000  0.208254  0.735022  1
  B  B18  1  0.500000  0.291208  0.234721  1
  B  B19  1  0.500000  0.708792  0.765280  1
  B  B20  1  0.500000  0.630173  0.184838  1
  B  B21  1  0.500000  0.369827  0.815162  1
  B  B22  1  0.500000  0.130324  0.314881  1
  B  B23  1  0.500000  0.869676  0.685119  1
  B  B24  1  0.500000  0.982590  0.212682  1
  B  B25  1  0.500000  0.017410  0.787318  1
  B  B26  1  0.500000  0.482668  0.287565  1
  B  B27  1  0.500000  0.517332  0.712435  1
  B  B28  1  0.500000  0.600718  0.027644  1
  B  B29  1  0.500000  0.399282  0.972356  1
  B  B30  1  0.500000  0.098489  0.472928  1
  B  B31  1  0.500000  0.901511  0.527072  1
  Os  Os32  1  0.000000  0.640017  0.318594  1
  Os  Os33  1  0.000000  0.359983  0.681406  1
  Os  Os34  1  0.000000  0.137668  0.179120  1
  Os  Os35  1  0.000000  0.862332  0.820880  1
