# generated using pymatgen
data_YbTm5IO12
_symmetry_space_group_name_H-M   'P 1'
_cell_length_a   6.34277745
_cell_length_b   6.31117342
_cell_length_c   6.31723300
_cell_angle_alpha   98.95784009
_cell_angle_beta   98.98105950
_cell_angle_gamma   98.49169839
_symmetry_Int_Tables_number   1
_chemical_formula_structural   YbTm5IO12
_chemical_formula_sum   'Yb1 Tm5 I1 O12'
_cell_volume   242.87145376
_cell_formula_units_Z   1
loop_
 _symmetry_equiv_pos_site_id
 _symmetry_equiv_pos_as_xyz
  1  'x, y, z'
loop_
 _atom_site_type_symbol
 _atom_site_label
 _atom_site_symmetry_multiplicity
 _atom_site_fract_x
 _atom_site_fract_y
 _atom_site_fract_z
 _atom_site_occupancy
  Yb  Yb0  1  0.854614  0.390345  0.680838  1
  Tm  Tm1  1  0.613409  0.323874  0.148107  1
  Tm  Tm2  1  0.324099  0.151567  0.609183  1
  Tm  Tm3  1  0.678115  0.855570  0.392190  1
  Tm  Tm4  1  0.388667  0.674237  0.851191  1
  Tm  Tm5  1  0.145853  0.610106  0.322043  1
  I  I6  1  0.001139  0.998338  0.000424  1
  O  O7  1  0.928010  0.021696  0.703806  1
  O  O8  1  0.970389  0.294380  0.074674  1
  O  O9  1  0.581574  0.173474  0.422213  1
  O  O10  1  0.824337  0.572787  0.395252  1
  O  O11  1  0.296165  0.072894  0.970013  1
  O  O12  1  0.563278  0.405011  0.825620  1
  O  O13  1  0.429799  0.595611  0.178016  1
  O  O14  1  0.704104  0.926684  0.030570  1
  O  O15  1  0.181053  0.433378  0.587241  1
  O  O16  1  0.409104  0.825110  0.572342  1
  O  O17  1  0.035678  0.702979  0.936099  1
  O  O18  1  0.070610  0.971961  0.300179  1
