# generated using pymatgen
data_Tb9Cd5Ni4
_symmetry_space_group_name_H-M   'P 1'
_cell_length_a   10.79967100
_cell_length_b   10.79967100
_cell_length_c   3.66168300
_cell_angle_alpha   90.00000000
_cell_angle_beta   90.00000000
_cell_angle_gamma   90.00000000
_symmetry_Int_Tables_number   1
_chemical_formula_structural   Tb9Cd5Ni4
_chemical_formula_sum   'Tb9 Cd5 Ni4'
_cell_volume   427.07268413
_cell_formula_units_Z   1
loop_
 _symmetry_equiv_pos_site_id
 _symmetry_equiv_pos_as_xyz
  1  'x, y, z'
loop_
 _atom_site_type_symbol
 _atom_site_label
 _atom_site_symmetry_multiplicity
 _atom_site_fract_x
 _atom_site_fract_y
 _atom_site_fract_z
 _atom_site_occupancy
  Tb  Tb0  1  0.325245  0.325245  0.500000  1
  Tb  Tb1  1  0.674755  0.674755  0.500000  1
  Tb  Tb2  1  0.325245  0.674755  0.500000  1
  Tb  Tb3  1  0.674755  0.325245  0.500000  1
  Tb  Tb4  1  0.000000  0.286111  0.500000  1
  Tb  Tb5  1  0.000000  0.713889  0.500000  1
  Tb  Tb6  1  0.286111  0.000000  0.500000  1
  Tb  Tb7  1  0.713889  0.000000  0.500000  1
  Tb  Tb8  1  0.000000  0.000000  0.000000  1
  Cd  Cd9  1  0.500000  0.145109  0.000000  1
  Cd  Cd10  1  0.500000  0.854891  0.000000  1
  Cd  Cd11  1  0.145109  0.500000  0.000000  1
  Cd  Cd12  1  0.854891  0.500000  0.000000  1
  Cd  Cd13  1  0.500000  0.500000  0.000000  1
  Ni  Ni14  1  0.189590  0.189590  0.000000  1
  Ni  Ni15  1  0.810410  0.810410  0.000000  1
  Ni  Ni16  1  0.189590  0.810410  0.000000  1
  Ni  Ni17  1  0.810410  0.189590  0.000000  1
