# generated using pymatgen
data_Hf5Al16PIr7
_symmetry_space_group_name_H-M   'P 1'
_cell_length_a   8.65747890
_cell_length_b   8.72574533
_cell_length_c   8.72574600
_cell_angle_alpha   59.48305876
_cell_angle_beta   60.25847068
_cell_angle_gamma   60.25847083
_symmetry_Int_Tables_number   1
_chemical_formula_structural   Hf5Al16PIr7
_chemical_formula_sum   'Hf5 Al16 P1 Ir7'
_cell_volume   466.04600260
_cell_formula_units_Z   1
loop_
 _symmetry_equiv_pos_site_id
 _symmetry_equiv_pos_as_xyz
  1  'x, y, z'
loop_
 _atom_site_type_symbol
 _atom_site_label
 _atom_site_symmetry_multiplicity
 _atom_site_fract_x
 _atom_site_fract_y
 _atom_site_fract_z
 _atom_site_occupancy
  Hf  Hf0  1  0.314318  0.685682  0.685682  1
  Hf  Hf1  1  0.296872  0.703128  0.296486  1
  Hf  Hf2  1  0.703514  0.296486  0.703128  1
  Hf  Hf3  1  0.296872  0.296486  0.703128  1
  Hf  Hf4  1  0.703514  0.703128  0.296486  1
  Al  Al5  1  0.368259  0.332217  0.332217  1
  Al  Al6  1  0.677956  0.655974  0.655974  1
  Al  Al7  1  0.344026  0.322044  0.989905  1
  Al  Al8  1  0.344026  0.989905  0.322044  1
  Al  Al9  1  0.667783  0.631741  0.032692  1
  Al  Al10  1  0.667783  0.032692  0.631741  1
  Al  Al11  1  0.967308  0.332217  0.332217  1
  Al  Al12  1  0.010095  0.655974  0.655974  1
  Al  Al13  1  0.116171  0.116477  0.116477  1
  Al  Al14  1  0.881820  0.872712  0.872712  1
  Al  Al15  1  0.127288  0.118180  0.627244  1
  Al  Al16  1  0.127288  0.627244  0.118180  1
  Al  Al17  1  0.883523  0.883829  0.349124  1
  Al  Al18  1  0.883523  0.349124  0.883829  1
  Al  Al19  1  0.650876  0.116477  0.116477  1
  Al  Al20  1  0.372756  0.872712  0.872712  1
  P  P21  1  0.528550  0.471450  0.471450  1
  Ir  Ir22  1  0.511148  0.988852  0.988852  1
  Ir  Ir23  1  0.011148  0.488852  0.488852  1
  Ir  Ir24  1  0.012119  0.496107  0.987881  1
  Ir  Ir25  1  0.503893  0.987881  0.496107  1
  Ir  Ir26  1  0.012119  0.987881  0.496107  1
  Ir  Ir27  1  0.503893  0.496107  0.987881  1
  Ir  Ir28  1  0.011557  0.988443  0.988443  1
