# generated using pymatgen
data_Tb4Ga18(PdRu)3
_symmetry_space_group_name_H-M   'P 1'
_cell_length_a   7.62053218
_cell_length_b   7.62053159
_cell_length_c   9.59347291
_cell_angle_alpha   89.92729699
_cell_angle_beta   89.92729245
_cell_angle_gamma   119.85401605
_symmetry_Int_Tables_number   1
_chemical_formula_structural   Tb4Ga18(PdRu)3
_chemical_formula_sum   'Tb4 Ga18 Pd3 Ru3'
_cell_volume   483.18411199
_cell_formula_units_Z   1
loop_
 _symmetry_equiv_pos_site_id
 _symmetry_equiv_pos_as_xyz
  1  'x, y, z'
loop_
 _atom_site_type_symbol
 _atom_site_label
 _atom_site_symmetry_multiplicity
 _atom_site_fract_x
 _atom_site_fract_y
 _atom_site_fract_z
 _atom_site_occupancy
  Tb  Tb0  1  0.996517  0.669432  0.251094  1
  Tb  Tb1  1  0.002187  0.329758  0.748535  1
  Tb  Tb2  1  0.670242  0.997813  0.251465  1
  Tb  Tb3  1  0.330568  0.003483  0.748906  1
  Ga  Ga4  1  0.131354  0.129095  0.250058  1
  Ga  Ga5  1  0.870905  0.868646  0.749942  1
  Ga  Ga6  1  0.006387  0.338886  0.080529  1
  Ga  Ga7  1  0.002251  0.664779  0.919568  1
  Ga  Ga8  1  0.998995  0.660935  0.578205  1
  Ga  Ga9  1  0.339065  0.001005  0.421795  1
  Ga  Ga10  1  0.002288  0.339456  0.420574  1
  Ga  Ga11  1  0.660544  0.997712  0.579426  1
  Ga  Ga12  1  0.661114  0.993613  0.919471  1
  Ga  Ga13  1  0.335221  0.997749  0.080432  1
  Ga  Ga14  1  0.340509  0.340152  0.562970  1
  Ga  Ga15  1  0.659848  0.659491  0.437030  1
  Ga  Ga16  1  0.659934  0.665281  0.066565  1
  Ga  Ga17  1  0.334719  0.340066  0.933435  1
  Ga  Ga18  1  0.337077  0.551427  0.250622  1
  Ga  Ga19  1  0.664679  0.453350  0.746500  1
  Ga  Ga20  1  0.546650  0.335321  0.253500  1
  Ga  Ga21  1  0.448573  0.662923  0.749378  1
  Pd  Pd22  1  0.672127  0.327873  0.000000  1
  Pd  Pd23  1  0.000608  0.999392  0.000000  1
  Pd  Pd24  1  0.999622  0.000378  0.500000  1
  Ru  Ru25  1  0.327486  0.672514  0.000000  1
  Ru  Ru26  1  0.327175  0.672825  0.500000  1
  Ru  Ru27  1  0.673358  0.326642  0.500000  1
