# generated using pymatgen
data_La9TbOs4
_symmetry_space_group_name_H-M   'P 1'
_cell_length_a   6.75056365
_cell_length_b   7.41260510
_cell_length_c   9.00692981
_cell_angle_alpha   94.75383636
_cell_angle_beta   112.00842484
_cell_angle_gamma   89.99999967
_symmetry_Int_Tables_number   1
_chemical_formula_structural   La9TbOs4
_chemical_formula_sum   'La9 Tb1 Os4'
_cell_volume   416.18428781
_cell_formula_units_Z   1
loop_
 _symmetry_equiv_pos_site_id
 _symmetry_equiv_pos_as_xyz
  1  'x, y, z'
loop_
 _atom_site_type_symbol
 _atom_site_label
 _atom_site_symmetry_multiplicity
 _atom_site_fract_x
 _atom_site_fract_y
 _atom_site_fract_z
 _atom_site_occupancy
  La  La0  1  0.979006  0.912178  0.182439  1
  La  La1  1  0.796566  0.587822  0.817561  1
  La  La2  1  0.017935  0.093068  0.818263  1
  La  La3  1  0.199672  0.406932  0.181737  1
  La  La4  1  0.638872  0.819490  0.430870  1
  La  La5  1  0.208002  0.680510  0.569130  1
  La  La6  1  0.362744  0.181314  0.573586  1
  La  La7  1  0.789158  0.318686  0.426414  1
  La  La8  1  0.430299  0.750000  0.000000  1
  Tb  Tb9  1  0.567255  0.250000  0.000000  1
  Os  Os10  1  0.825379  0.573271  0.218192  1
  Os  Os11  1  0.607187  0.926729  0.781808  1
  Os  Os12  1  0.179178  0.422726  0.780431  1
  Os  Os13  1  0.398747  0.077274  0.219569  1
