# generated using pymatgen
data_SrMnAl(CoO4)2
_symmetry_space_group_name_H-M   'P 1'
_cell_length_a   5.69680937
_cell_length_b   6.66945415
_cell_length_c   5.70278370
_cell_angle_alpha   90.84347773
_cell_angle_beta   119.96572304
_cell_angle_gamma   113.24887620
_symmetry_Int_Tables_number   1
_chemical_formula_structural   SrMnAl(CoO4)2
_chemical_formula_sum   'Sr1 Mn1 Al1 Co2 O8'
_cell_volume   166.24610365
_cell_formula_units_Z   1
loop_
 _symmetry_equiv_pos_site_id
 _symmetry_equiv_pos_as_xyz
  1  'x, y, z'
loop_
 _atom_site_type_symbol
 _atom_site_label
 _atom_site_symmetry_multiplicity
 _atom_site_fract_x
 _atom_site_fract_y
 _atom_site_fract_z
 _atom_site_occupancy
  Sr  Sr0  1  0.000000  0.500000  0.500000  1
  Mn  Mn1  1  0.500000  0.000000  0.500000  1
  Al  Al2  1  0.000000  0.000000  0.000000  1
  Co  Co3  1  0.500000  0.000000  0.000000  1
  Co  Co4  1  0.000000  0.000000  0.500000  1
  O  O5  1  0.560716  0.833819  0.273253  1
  O  O6  1  0.061011  0.830245  0.275670  1
  O  O7  1  0.555688  0.827943  0.777064  1
  O  O8  1  0.065726  0.835177  0.782807  1
  O  O9  1  0.934274  0.164823  0.217193  1
  O  O10  1  0.444312  0.172057  0.222936  1
  O  O11  1  0.938989  0.169755  0.724330  1
  O  O12  1  0.439284  0.166181  0.726747  1
