# generated using pymatgen
data_RbBa7Ca4(TcN4)4
_symmetry_space_group_name_H-M   'P 1'
_cell_length_a   10.84929638
_cell_length_b   10.50942659
_cell_length_c   8.08202294
_cell_angle_alpha   70.34375711
_cell_angle_beta   65.55237450
_cell_angle_gamma   44.43301921
_symmetry_Int_Tables_number   1
_chemical_formula_structural   RbBa7Ca4(TcN4)4
_chemical_formula_sum   'Rb1 Ba7 Ca4 Tc4 N16'
_cell_volume   586.07718382
_cell_formula_units_Z   1
loop_
 _symmetry_equiv_pos_site_id
 _symmetry_equiv_pos_as_xyz
  1  'x, y, z'
loop_
 _atom_site_type_symbol
 _atom_site_label
 _atom_site_symmetry_multiplicity
 _atom_site_fract_x
 _atom_site_fract_y
 _atom_site_fract_z
 _atom_site_occupancy
  Rb  Rb0  1  0.578472  0.921528  0.921528  1
  Ba  Ba1  1  0.927950  0.572050  0.572050  1
  Ba  Ba2  1  0.321479  0.678521  0.678521  1
  Ba  Ba3  1  0.111966  0.110236  0.892153  1
  Ba  Ba4  1  0.140600  0.133124  0.361611  1
  Ba  Ba5  1  0.364664  0.361611  0.133124  1
  Ba  Ba6  1  0.676959  0.323041  0.323041  1
  Ba  Ba7  1  0.885646  0.892153  0.110236  1
  Ca  Ca8  1  0.344654  0.330144  0.665313  1
  Ca  Ca9  1  0.902043  0.920203  0.593729  1
  Ca  Ca10  1  0.659889  0.665313  0.330144  1
  Ca  Ca11  1  0.584025  0.593729  0.920203  1
  Tc  Tc12  1  0.492583  0.006050  0.493888  1
  Tc  Tc13  1  0.007480  0.493888  0.006050  1
  Tc  Tc14  1  0.757909  0.248121  0.753498  1
  Tc  Tc15  1  0.240472  0.753498  0.248121  1
  N  N16  1  0.019085  0.648463  0.820801  1
  N  N17  1  0.702981  0.284632  0.994409  1
  N  N18  1  0.656245  0.011984  0.502320  1
  N  N19  1  0.511650  0.820801  0.648463  1
  N  N20  1  0.240471  0.586787  0.422672  1
  N  N21  1  0.750072  0.422672  0.586787  1
  N  N22  1  0.995899  0.020185  0.705971  1
  N  N23  1  0.545783  0.969977  0.259321  1
  N  N24  1  0.421634  0.736649  0.250013  1
  N  N25  1  0.963581  0.555264  0.227345  1
  N  N26  1  0.277946  0.705971  0.020185  1
  N  N27  1  0.829451  0.502320  0.011984  1
  N  N28  1  0.224918  0.259321  0.969977  1
  N  N29  1  0.591705  0.250013  0.736649  1
  N  N30  1  0.253809  0.227345  0.555264  1
  N  N31  1  0.017979  0.994409  0.284632  1
