# generated using pymatgen
data_RbBaPu2(CuSe3)2
_symmetry_space_group_name_H-M   'P 1'
_cell_length_a   7.57509771
_cell_length_b   7.57509744
_cell_length_c   10.78027600
_cell_angle_alpha   90.00000000
_cell_angle_beta   90.00000000
_cell_angle_gamma   147.64594144
_symmetry_Int_Tables_number   1
_chemical_formula_structural   RbBaPu2(CuSe3)2
_chemical_formula_sum   'Rb1 Ba1 Pu2 Cu2 Se6'
_cell_volume   331.04082885
_cell_formula_units_Z   1
loop_
 _symmetry_equiv_pos_site_id
 _symmetry_equiv_pos_as_xyz
  1  'x, y, z'
loop_
 _atom_site_type_symbol
 _atom_site_label
 _atom_site_symmetry_multiplicity
 _atom_site_fract_x
 _atom_site_fract_y
 _atom_site_fract_z
 _atom_site_occupancy
  Rb  Rb0  1  0.254900  0.745100  0.250000  1
  Ba  Ba1  1  0.745344  0.254656  0.750000  1
  Pu  Pu2  1  0.999527  0.000473  0.499535  1
  Pu  Pu3  1  0.999527  0.000473  0.000465  1
  Cu  Cu4  1  0.534834  0.465166  0.250000  1
  Cu  Cu5  1  0.468885  0.531115  0.750000  1
  Se  Se6  1  0.625072  0.374928  0.443437  1
  Se  Se7  1  0.369670  0.630330  0.567891  1
  Se  Se8  1  0.625072  0.374928  0.056563  1
  Se  Se9  1  0.369670  0.630330  0.932109  1
  Se  Se10  1  0.939991  0.060009  0.250000  1
  Se  Se11  1  0.067508  0.932492  0.750000  1
