# generated using pymatgen
data_YbEr6Co4Sn23Ir2
_symmetry_space_group_name_H-M   'P 1'
_cell_length_a   9.74166084
_cell_length_b   9.74166135
_cell_length_c   9.97771300
_cell_angle_alpha   90.28009954
_cell_angle_beta   89.71989230
_cell_angle_gamma   120.04678057
_symmetry_Int_Tables_number   1
_chemical_formula_structural   YbEr6Co4Sn23Ir2
_chemical_formula_sum   'Yb1 Er6 Co4 Sn23 Ir2'
_cell_volume   819.62621518
_cell_formula_units_Z   1
loop_
 _symmetry_equiv_pos_site_id
 _symmetry_equiv_pos_as_xyz
  1  'x, y, z'
loop_
 _atom_site_type_symbol
 _atom_site_label
 _atom_site_symmetry_multiplicity
 _atom_site_fract_x
 _atom_site_fract_y
 _atom_site_fract_z
 _atom_site_occupancy
  Yb  Yb0  1  0.000000  0.000000  0.000000  1
  Er  Er1  1  0.479916  0.520084  0.306799  1
  Er  Er2  1  0.520084  0.479916  0.693201  1
  Er  Er3  1  0.480979  0.959970  0.306178  1
  Er  Er4  1  0.519021  0.040030  0.693822  1
  Er  Er5  1  0.040030  0.519021  0.306178  1
  Er  Er6  1  0.959970  0.480979  0.693822  1
  Co  Co7  1  0.829478  0.661534  0.199573  1
  Co  Co8  1  0.170522  0.338466  0.800427  1
  Co  Co9  1  0.338466  0.170522  0.199573  1
  Co  Co10  1  0.661534  0.829478  0.800427  1
  Sn  Sn11  1  0.117295  0.882705  0.273135  1
  Sn  Sn12  1  0.882705  0.117295  0.726865  1
  Sn  Sn13  1  0.123871  0.236794  0.278178  1
  Sn  Sn14  1  0.876129  0.763206  0.721822  1
  Sn  Sn15  1  0.763206  0.876129  0.278178  1
  Sn  Sn16  1  0.236794  0.123871  0.721822  1
  Sn  Sn17  1  0.778815  0.221185  0.458599  1
  Sn  Sn18  1  0.221185  0.778815  0.541401  1
  Sn  Sn19  1  0.780690  0.560826  0.451617  1
  Sn  Sn20  1  0.219310  0.439174  0.548383  1
  Sn  Sn21  1  0.439174  0.219310  0.451617  1
  Sn  Sn22  1  0.560826  0.780690  0.548383  1
  Sn  Sn23  1  0.351151  0.004963  0.005552  1
  Sn  Sn24  1  0.648849  0.995037  0.994448  1
  Sn  Sn25  1  0.004963  0.351151  0.994448  1
  Sn  Sn26  1  0.995037  0.648849  0.005552  1
  Sn  Sn27  1  0.653850  0.653850  0.000000  1
  Sn  Sn28  1  0.346150  0.346150  0.000000  1
  Sn  Sn29  1  0.333767  0.666233  0.121703  1
  Sn  Sn30  1  0.666233  0.333767  0.878297  1
  Sn  Sn31  1  0.336083  0.663917  0.818678  1
  Sn  Sn32  1  0.663917  0.336083  0.181322  1
  Sn  Sn33  1  0.000000  0.000000  0.500000  1
  Ir  Ir34  1  0.830775  0.169225  0.198334  1
  Ir  Ir35  1  0.169225  0.830775  0.801666  1
