# generated using pymatgen
data_NaYCuPt3
_symmetry_space_group_name_H-M   'P 1'
_cell_length_a   5.21910466
_cell_length_b   5.21910597
_cell_length_c   5.21910560
_cell_angle_alpha   62.97431646
_cell_angle_beta   62.97429511
_cell_angle_gamma   62.97430602
_symmetry_Int_Tables_number   1
_chemical_formula_structural   NaYCuPt3
_chemical_formula_sum   'Na1 Y1 Cu1 Pt3'
_cell_volume   107.16388526
_cell_formula_units_Z   1
loop_
 _symmetry_equiv_pos_site_id
 _symmetry_equiv_pos_as_xyz
  1  'x, y, z'
loop_
 _atom_site_type_symbol
 _atom_site_label
 _atom_site_symmetry_multiplicity
 _atom_site_fract_x
 _atom_site_fract_y
 _atom_site_fract_z
 _atom_site_occupancy
  Na  Na0  1  0.251362  0.251362  0.251362  1
  Y  Y1  1  0.001821  0.001821  0.001821  1
  Cu  Cu2  1  0.624003  0.624003  0.624003  1
  Pt  Pt3  1  0.623680  0.623680  0.125453  1
  Pt  Pt4  1  0.623680  0.125453  0.623680  1
  Pt  Pt5  1  0.125453  0.623680  0.623680  1
