# generated using pymatgen
data_Hf7Co16Si11PW
_symmetry_space_group_name_H-M   'P 1'
_cell_length_a   12.21580342
_cell_length_b   12.23098490
_cell_length_c   3.68556900
_cell_angle_alpha   90.00000000
_cell_angle_beta   90.00000000
_cell_angle_gamma   119.83450848
_symmetry_Int_Tables_number   1
_chemical_formula_structural   Hf7Co16Si11PW
_chemical_formula_sum   'Hf7 Co16 Si11 P1 W1'
_cell_volume   477.68374302
_cell_formula_units_Z   1
loop_
 _symmetry_equiv_pos_site_id
 _symmetry_equiv_pos_as_xyz
  1  'x, y, z'
loop_
 _atom_site_type_symbol
 _atom_site_label
 _atom_site_symmetry_multiplicity
 _atom_site_fract_x
 _atom_site_fract_y
 _atom_site_fract_z
 _atom_site_occupancy
  Hf  Hf0  1  0.809622  0.809652  0.500000  1
  Hf  Hf1  1  0.003131  0.182363  0.500000  1
  Hf  Hf2  1  0.561154  0.000773  0.000000  1
  Hf  Hf3  1  0.334589  0.664207  0.000000  1
  Hf  Hf4  1  0.664537  0.335604  0.000000  1
  Hf  Hf5  1  0.000894  0.559779  0.000000  1
  Hf  Hf6  1  0.182369  0.002432  0.500000  1
  Co  Co7  1  0.625296  0.818077  0.000000  1
  Co  Co8  1  0.372319  0.197839  0.000000  1
  Co  Co9  1  0.998469  0.726238  0.500000  1
  Co  Co10  1  0.279486  0.279288  0.500000  1
  Co  Co11  1  0.882495  0.361000  0.500000  1
  Co  Co12  1  0.721691  0.998909  0.500000  1
  Co  Co13  1  0.821148  0.628887  0.000000  1
  Co  Co14  1  0.175308  0.807997  0.000000  1
  Co  Co15  1  0.359127  0.881572  0.500000  1
  Co  Co16  1  0.127445  0.483196  0.500000  1
  Co  Co17  1  0.641285  0.519328  0.500000  1
  Co  Co18  1  0.999012  0.993840  0.000000  1
  Co  Co19  1  0.519302  0.640067  0.500000  1
  Co  Co20  1  0.482189  0.127052  0.500000  1
  Co  Co21  1  0.198012  0.371712  0.000000  1
  Co  Co22  1  0.807536  0.178915  0.000000  1
  Si  Si23  1  0.003266  0.348927  0.000000  1
  Si  Si24  1  0.823589  0.517214  0.500000  1
  Si  Si25  1  0.696117  0.179729  0.500000  1
  Si  Si26  1  0.175719  0.175437  0.000000  1
  Si  Si27  1  0.640987  0.640975  0.000000  1
  Si  Si28  1  0.821767  0.998022  0.000000  1
  Si  Si29  1  0.516278  0.822408  0.500000  1
  Si  Si30  1  0.178644  0.696273  0.500000  1
  Si  Si31  1  0.349315  0.002780  0.000000  1
  Si  Si32  1  0.482138  0.311993  0.500000  1
  Si  Si33  1  0.312127  0.481799  0.500000  1
  P  P34  1  0.997444  0.819844  0.000000  1
  W  W35  1  0.436188  0.435873  0.000000  1
