# generated using pymatgen
data_NaSb12RuRh3
_symmetry_space_group_name_H-M   'P 1'
_cell_length_a   8.15206200
_cell_length_b   8.15206144
_cell_length_c   8.15206252
_cell_angle_alpha   109.51647069
_cell_angle_beta   109.51647319
_cell_angle_gamma   109.51646491
_symmetry_Int_Tables_number   1
_chemical_formula_structural   NaSb12RuRh3
_chemical_formula_sum   'Na1 Sb12 Ru1 Rh3'
_cell_volume   416.34256883
_cell_formula_units_Z   1
loop_
 _symmetry_equiv_pos_site_id
 _symmetry_equiv_pos_as_xyz
  1  'x, y, z'
loop_
 _atom_site_type_symbol
 _atom_site_label
 _atom_site_symmetry_multiplicity
 _atom_site_fract_x
 _atom_site_fract_y
 _atom_site_fract_z
 _atom_site_occupancy
  Na  Na0  1  0.000000  0.000000  0.000000  1
  Sb  Sb1  1  0.657801  0.813403  0.155335  1
  Sb  Sb2  1  0.844665  0.342199  0.186597  1
  Sb  Sb3  1  0.504219  0.842027  0.659561  1
  Sb  Sb4  1  0.842027  0.659561  0.504219  1
  Sb  Sb5  1  0.495781  0.157973  0.340439  1
  Sb  Sb6  1  0.155335  0.657801  0.813403  1
  Sb  Sb7  1  0.813403  0.155335  0.657801  1
  Sb  Sb8  1  0.186597  0.844665  0.342199  1
  Sb  Sb9  1  0.157973  0.340439  0.495781  1
  Sb  Sb10  1  0.659561  0.504219  0.842027  1
  Sb  Sb11  1  0.340439  0.495781  0.157973  1
  Sb  Sb12  1  0.342199  0.186597  0.844665  1
  Ru  Ru13  1  0.500000  0.500000  0.500000  1
  Rh  Rh14  1  0.000000  0.000000  0.500000  1
  Rh  Rh15  1  0.000000  0.500000  0.000000  1
  Rh  Rh16  1  0.500000  0.000000  0.000000  1
