# generated using pymatgen
data_SrCeUSe5
_symmetry_space_group_name_H-M   'P 1'
_cell_length_a   7.86570800
_cell_length_b   8.56745577
_cell_length_c   12.26551600
_cell_angle_alpha   89.69958462
_cell_angle_beta   90.00000000
_cell_angle_gamma   90.00000000
_symmetry_Int_Tables_number   1
_chemical_formula_structural   SrCeUSe5
_chemical_formula_sum   'Sr4 Ce4 U4 Se20'
_cell_volume   826.55078829
_cell_formula_units_Z   4
loop_
 _symmetry_equiv_pos_site_id
 _symmetry_equiv_pos_as_xyz
  1  'x, y, z'
loop_
 _atom_site_type_symbol
 _atom_site_label
 _atom_site_symmetry_multiplicity
 _atom_site_fract_x
 _atom_site_fract_y
 _atom_site_fract_z
 _atom_site_occupancy
  Sr  Sr0  1  0.052018  0.494563  0.328459  1
  Sr  Sr1  1  0.552018  0.505437  0.171541  1
  Sr  Sr2  1  0.947982  0.505437  0.671541  1
  Sr  Sr3  1  0.447982  0.494563  0.828459  1
  Ce  Ce4  1  0.041003  0.999903  0.322977  1
  Ce  Ce5  1  0.541003  0.000097  0.177023  1
  Ce  Ce6  1  0.958997  0.000097  0.677023  1
  Ce  Ce7  1  0.458997  0.999903  0.822977  1
  U  U8  1  0.068157  0.751576  0.007877  1
  U  U9  1  0.568157  0.248424  0.492123  1
  U  U10  1  0.931843  0.248424  0.992123  1
  U  U11  1  0.431843  0.751576  0.507877  1
  Se  Se12  1  0.669723  0.956414  0.409767  1
  Se  Se13  1  0.169723  0.043586  0.090233  1
  Se  Se14  1  0.330277  0.043586  0.590233  1
  Se  Se15  1  0.830277  0.956414  0.909767  1
  Se  Se16  1  0.450710  0.771678  0.001917  1
  Se  Se17  1  0.950710  0.228322  0.498083  1
  Se  Se18  1  0.549290  0.228322  0.998083  1
  Se  Se19  1  0.049290  0.771678  0.501917  1
  Se  Se20  1  0.846946  0.765264  0.191094  1
  Se  Se21  1  0.346946  0.234736  0.308906  1
  Se  Se22  1  0.153054  0.234736  0.808906  1
  Se  Se23  1  0.653054  0.765264  0.691094  1
  Se  Se24  1  0.322271  0.761454  0.285549  1
  Se  Se25  1  0.822271  0.238546  0.214451  1
  Se  Se26  1  0.677729  0.238546  0.714451  1
  Se  Se27  1  0.177729  0.761454  0.785549  1
  Se  Se28  1  0.178089  0.457503  0.077210  1
  Se  Se29  1  0.678089  0.542497  0.422790  1
  Se  Se30  1  0.821911  0.542497  0.922790  1
  Se  Se31  1  0.321911  0.457503  0.577210  1
