# generated using pymatgen
data_V17Re2Si12Tc
_symmetry_space_group_name_H-M   'P 1'
_cell_length_a   7.04985740
_cell_length_b   7.04985856
_cell_length_c   13.24944400
_cell_angle_alpha   90.00000000
_cell_angle_beta   90.00000000
_cell_angle_gamma   139.92386664
_symmetry_Int_Tables_number   1
_chemical_formula_structural   V17Re2Si12Tc
_chemical_formula_sum   'V17 Re2 Si12 Tc1'
_cell_volume   423.94810479
_cell_formula_units_Z   1
loop_
 _symmetry_equiv_pos_site_id
 _symmetry_equiv_pos_as_xyz
  1  'x, y, z'
loop_
 _atom_site_type_symbol
 _atom_site_label
 _atom_site_symmetry_multiplicity
 _atom_site_fract_x
 _atom_site_fract_y
 _atom_site_fract_z
 _atom_site_occupancy
  V  V0  1  0.070791  0.421285  0.399391  1
  V  V1  1  0.576636  0.926202  0.899599  1
  V  V2  1  0.421285  0.070791  0.600609  1
  V  V3  1  0.926202  0.576636  0.100401  1
  V  V4  1  0.852933  0.651424  0.674931  1
  V  V5  1  0.350118  0.150404  0.174876  1
  V  V6  1  0.651424  0.852933  0.325069  1
  V  V7  1  0.150404  0.350118  0.825124  1
  V  V8  1  0.651424  0.852933  0.674931  1
  V  V9  1  0.150404  0.350118  0.174876  1
  V  V10  1  0.852933  0.651424  0.325069  1
  V  V11  1  0.350118  0.150404  0.825124  1
  V  V12  1  0.421285  0.070791  0.399391  1
  V  V13  1  0.926202  0.576636  0.899599  1
  V  V14  1  0.070791  0.421285  0.600609  1
  V  V15  1  0.576636  0.926202  0.100401  1
  V  V16  1  0.997963  0.997963  0.500000  1
  Re  Re17  1  0.501399  0.501399  0.000000  1
  Re  Re18  1  0.001359  0.001359  0.000000  1
  Si  Si19  1  0.250646  0.749463  0.750258  1
  Si  Si20  1  0.749463  0.250646  0.249742  1
  Si  Si21  1  0.749463  0.250646  0.750258  1
  Si  Si22  1  0.250646  0.749463  0.249742  1
  Si  Si23  1  0.245665  0.245665  0.667356  1
  Si  Si24  1  0.752774  0.752774  0.169748  1
  Si  Si25  1  0.245665  0.245665  0.332644  1
  Si  Si26  1  0.752774  0.752774  0.830252  1
  Si  Si27  1  0.583782  0.918885  0.500000  1
  Si  Si28  1  0.080533  0.420613  0.000000  1
  Si  Si29  1  0.918885  0.583782  0.500000  1
  Si  Si30  1  0.420613  0.080533  0.000000  1
  Tc  Tc31  1  0.498783  0.498783  0.500000  1
