# generated using pymatgen
data_Nd6Mn(GeS7)2
_symmetry_space_group_name_H-M   'P 1'
_cell_length_a   10.24223800
_cell_length_b   10.24203323
_cell_length_c   5.78484500
_cell_angle_alpha   90.00218626
_cell_angle_beta   89.99764661
_cell_angle_gamma   120.00063729
_symmetry_Int_Tables_number   1
_chemical_formula_structural   Nd6Mn(GeS7)2
_chemical_formula_sum   'Nd6 Mn1 Ge2 S14'
_cell_volume   525.53375161
_cell_formula_units_Z   1
loop_
 _symmetry_equiv_pos_site_id
 _symmetry_equiv_pos_as_xyz
  1  'x, y, z'
loop_
 _atom_site_type_symbol
 _atom_site_label
 _atom_site_symmetry_multiplicity
 _atom_site_fract_x
 _atom_site_fract_y
 _atom_site_fract_z
 _atom_site_occupancy
  Nd  Nd0  1  0.876985  0.232729  0.249291  1
  Nd  Nd1  1  0.767274  0.644261  0.249287  1
  Nd  Nd2  1  0.355741  0.123024  0.249301  1
  Nd  Nd3  1  0.122917  0.767585  0.750937  1
  Nd  Nd4  1  0.232412  0.355324  0.750938  1
  Nd  Nd5  1  0.644674  0.877081  0.750934  1
  Mn  Mn6  1  0.999997  0.999997  0.487915  1
  Ge  Ge7  1  0.666667  0.333331  0.831159  1
  Ge  Ge8  1  0.333337  0.666670  0.334353  1
  S  S9  1  0.666668  0.333335  0.452547  1
  S  S10  1  0.333332  0.666666  0.955389  1
  S  S11  1  0.914098  0.159619  0.723812  1
  S  S12  1  0.840381  0.754477  0.723813  1
  S  S13  1  0.245521  0.085904  0.723806  1
  S  S14  1  0.083600  0.838299  0.248202  1
  S  S15  1  0.161704  0.245301  0.248206  1
  S  S16  1  0.754700  0.916401  0.248205  1
  S  S17  1  0.588340  0.105390  0.988314  1
  S  S18  1  0.894606  0.482952  0.988307  1
  S  S19  1  0.517048  0.411656  0.988305  1
  S  S20  1  0.412257  0.894658  0.490871  1
  S  S21  1  0.105343  0.517604  0.490885  1
  S  S22  1  0.482397  0.587739  0.490881  1
