# generated using pymatgen
data_Tb20(Ir3Au)3
_symmetry_space_group_name_H-M   'P 1'
_cell_length_a   11.11843115
_cell_length_b   11.11843115
_cell_length_c   6.35224013
_cell_angle_alpha   89.93455354
_cell_angle_beta   89.93455354
_cell_angle_gamma   90.19670106
_symmetry_Int_Tables_number   1
_chemical_formula_structural   Tb20(Ir3Au)3
_chemical_formula_sum   'Tb20 Ir9 Au3'
_cell_volume   785.25516490
_cell_formula_units_Z   1
loop_
 _symmetry_equiv_pos_site_id
 _symmetry_equiv_pos_as_xyz
  1  'x, y, z'
loop_
 _atom_site_type_symbol
 _atom_site_label
 _atom_site_symmetry_multiplicity
 _atom_site_fract_x
 _atom_site_fract_y
 _atom_site_fract_z
 _atom_site_occupancy
  Tb  Tb0  1  0.297205  0.084205  0.361447  1
  Tb  Tb1  1  0.295612  0.903820  0.876473  1
  Tb  Tb2  1  0.700262  0.092117  0.865172  1
  Tb  Tb3  1  0.697160  0.906936  0.364553  1
  Tb  Tb4  1  0.580201  0.788944  0.879405  1
  Tb  Tb5  1  0.580903  0.210743  0.380195  1
  Tb  Tb6  1  0.408655  0.790258  0.380170  1
  Tb  Tb7  1  0.416938  0.211026  0.878722  1
  Tb  Tb8  1  0.211056  0.419799  0.620595  1
  Tb  Tb9  1  0.209742  0.591345  0.119830  1
  Tb  Tb10  1  0.789257  0.419097  0.119805  1
  Tb  Tb11  1  0.788974  0.583062  0.621278  1
  Tb  Tb12  1  0.915795  0.702795  0.138553  1
  Tb  Tb13  1  0.907883  0.299738  0.634828  1
  Tb  Tb14  1  0.096180  0.704388  0.623527  1
  Tb  Tb15  1  0.093064  0.302840  0.135447  1
  Tb  Tb16  1  0.004345  0.994296  0.499309  1
  Tb  Tb17  1  0.005704  0.995655  0.000691  1
  Tb  Tb18  1  0.498880  0.499606  0.001138  1
  Tb  Tb19  1  0.500394  0.501120  0.498862  1
  Ir  Ir20  1  0.152477  0.847523  0.250000  1
  Ir  Ir21  1  0.653744  0.346256  0.750000  1
  Ir  Ir22  1  0.655553  0.653687  0.248289  1
  Ir  Ir23  1  0.346313  0.344447  0.251711  1
  Ir  Ir24  1  0.347276  0.652724  0.750000  1
  Ir  Ir25  1  0.500717  0.000218  0.117171  1
  Ir  Ir26  1  0.499622  0.000139  0.621163  1
  Ir  Ir27  1  0.999861  0.500378  0.878837  1
  Ir  Ir28  1  0.999782  0.499283  0.382829  1
  Au  Au29  1  0.846189  0.153811  0.250000  1
  Au  Au30  1  0.842377  0.842120  0.750831  1
  Au  Au31  1  0.157880  0.157623  0.749169  1
