# generated using pymatgen
data_Y4Mg4Ir3Pt
_symmetry_space_group_name_H-M   'P 1'
_cell_length_a   4.14408300
_cell_length_b   7.10572427
_cell_length_c   8.56341908
_cell_angle_alpha   89.28856660
_cell_angle_beta   90.00000000
_cell_angle_gamma   90.00000000
_symmetry_Int_Tables_number   1
_chemical_formula_structural   Y4Mg4Ir3Pt
_chemical_formula_sum   'Y4 Mg4 Ir3 Pt1'
_cell_volume   252.14508905
_cell_formula_units_Z   1
loop_
 _symmetry_equiv_pos_site_id
 _symmetry_equiv_pos_as_xyz
  1  'x, y, z'
loop_
 _atom_site_type_symbol
 _atom_site_label
 _atom_site_symmetry_multiplicity
 _atom_site_fract_x
 _atom_site_fract_y
 _atom_site_fract_z
 _atom_site_occupancy
  Y  Y0  1  0.250000  0.033235  0.669545  1
  Y  Y1  1  0.250000  0.547106  0.822962  1
  Y  Y2  1  0.750000  0.960760  0.323950  1
  Y  Y3  1  0.750000  0.465063  0.181308  1
  Mg  Mg4  1  0.250000  0.136219  0.062262  1
  Mg  Mg5  1  0.250000  0.635672  0.439813  1
  Mg  Mg6  1  0.750000  0.863701  0.939554  1
  Mg  Mg7  1  0.750000  0.363111  0.559966  1
  Ir  Ir8  1  0.250000  0.250776  0.371921  1
  Ir  Ir9  1  0.250000  0.751429  0.125369  1
  Ir  Ir10  1  0.750000  0.746624  0.629351  1
  Pt  Pt11  1  0.750000  0.246304  0.873998  1
