# generated using pymatgen
data_Tb3YAl4OsPt3
_symmetry_space_group_name_H-M   'P 1'
_cell_length_a   4.39698800
_cell_length_b   6.88064079
_cell_length_c   7.85425269
_cell_angle_alpha   89.83374403
_cell_angle_beta   90.00000000
_cell_angle_gamma   90.00000000
_symmetry_Int_Tables_number   1
_chemical_formula_structural   Tb3YAl4OsPt3
_chemical_formula_sum   'Tb3 Y1 Al4 Os1 Pt3'
_cell_volume   237.62230670
_cell_formula_units_Z   1
loop_
 _symmetry_equiv_pos_site_id
 _symmetry_equiv_pos_as_xyz
  1  'x, y, z'
loop_
 _atom_site_type_symbol
 _atom_site_label
 _atom_site_symmetry_multiplicity
 _atom_site_fract_x
 _atom_site_fract_y
 _atom_site_fract_z
 _atom_site_occupancy
  Tb  Tb0  1  0.250000  0.030183  0.679081  1
  Tb  Tb1  1  0.750000  0.980490  0.319231  1
  Tb  Tb2  1  0.750000  0.470112  0.186230  1
  Y  Y3  1  0.250000  0.526948  0.817712  1
  Al  Al4  1  0.250000  0.147143  0.064493  1
  Al  Al5  1  0.250000  0.641896  0.435935  1
  Al  Al6  1  0.750000  0.854038  0.937084  1
  Al  Al7  1  0.750000  0.352341  0.561973  1
  Os  Os8  1  0.250000  0.269724  0.382034  1
  Pt  Pt9  1  0.250000  0.774521  0.115191  1
  Pt  Pt10  1  0.750000  0.726898  0.617913  1
  Pt  Pt11  1  0.750000  0.225704  0.883123  1
