# generated using pymatgen
data_Dy2Co9Si7Rh3
_symmetry_space_group_name_H-M   'P 1'
_cell_length_a   9.21023100
_cell_length_b   9.21023173
_cell_length_c   3.72269500
_cell_angle_alpha   90.00000000
_cell_angle_beta   90.00000000
_cell_angle_gamma   120.00000815
_symmetry_Int_Tables_number   1
_chemical_formula_structural   Dy2Co9Si7Rh3
_chemical_formula_sum   'Dy2 Co9 Si7 Rh3'
_cell_volume   273.48224234
_cell_formula_units_Z   1
loop_
 _symmetry_equiv_pos_site_id
 _symmetry_equiv_pos_as_xyz
  1  'x, y, z'
loop_
 _atom_site_type_symbol
 _atom_site_label
 _atom_site_symmetry_multiplicity
 _atom_site_fract_x
 _atom_site_fract_y
 _atom_site_fract_z
 _atom_site_occupancy
  Dy  Dy0  1  0.333333  0.666667  0.743085  1
  Dy  Dy1  1  0.666667  0.333333  0.243055  1
  Co  Co2  1  0.622721  0.566779  0.743048  1
  Co  Co3  1  0.433221  0.055942  0.743048  1
  Co  Co4  1  0.944058  0.377279  0.743048  1
  Co  Co5  1  0.383692  0.436689  0.243036  1
  Co  Co6  1  0.563311  0.947003  0.243036  1
  Co  Co7  1  0.052997  0.616308  0.243036  1
  Co  Co8  1  0.128068  0.844958  0.743066  1
  Co  Co9  1  0.155042  0.283111  0.743066  1
  Co  Co10  1  0.716889  0.871932  0.743066  1
  Si  Si11  1  0.000000  0.000000  0.743214  1
  Si  Si12  1  0.890508  0.594846  0.743018  1
  Si  Si13  1  0.405154  0.295661  0.743018  1
  Si  Si14  1  0.704339  0.109492  0.743018  1
  Si  Si15  1  0.113615  0.405513  0.243066  1
  Si  Si16  1  0.594487  0.708103  0.243066  1
  Si  Si17  1  0.291897  0.886385  0.243066  1
  Rh  Rh18  1  0.896186  0.120825  0.243075  1
  Rh  Rh19  1  0.879175  0.775361  0.243075  1
  Rh  Rh20  1  0.224639  0.103814  0.243075  1
