# generated using pymatgen
data_Th2Al16FePt8
_symmetry_space_group_name_H-M   'P 1'
_cell_length_a   11.12909558
_cell_length_b   11.12909758
_cell_length_c   11.12909727
_cell_angle_alpha   158.49122554
_cell_angle_beta   115.62328877
_cell_angle_gamma   68.72690767
_symmetry_Int_Tables_number   1
_chemical_formula_structural   Th2Al16FePt8
_chemical_formula_sum   'Th2 Al16 Fe1 Pt8'
_cell_volume   452.41720266
_cell_formula_units_Z   1
loop_
 _symmetry_equiv_pos_site_id
 _symmetry_equiv_pos_as_xyz
  1  'x, y, z'
loop_
 _atom_site_type_symbol
 _atom_site_label
 _atom_site_symmetry_multiplicity
 _atom_site_fract_x
 _atom_site_fract_y
 _atom_site_fract_z
 _atom_site_occupancy
  Th  Th0  1  0.229357  0.228968  0.000389  1
  Th  Th1  1  0.771421  0.771032  0.000389  1
  Al  Al2  1  0.275977  0.391985  0.883992  1
  Al  Al3  1  0.091852  0.925099  0.166755  1
  Al  Al4  1  0.504999  0.201523  0.303478  1
  Al  Al5  1  0.241656  0.074901  0.166755  1
  Al  Al6  1  0.911034  0.417641  0.493393  1
  Al  Al7  1  0.724545  0.598483  0.126062  1
  Al  Al8  1  0.900921  0.206260  0.694661  1
  Al  Al9  1  0.488402  0.793740  0.694661  1
  Al  Al10  1  0.391584  0.000000  0.391584  1
  Al  Al11  1  0.623999  0.000000  0.623999  1
  Al  Al12  1  0.492007  0.608015  0.883992  1
  Al  Al13  1  0.101955  0.798477  0.303478  1
  Al  Al14  1  0.895971  0.079342  0.816628  1
  Al  Al15  1  0.737285  0.920658  0.816628  1
  Al  Al16  1  0.527580  0.401517  0.126062  1
  Al  Al17  1  0.075752  0.582359  0.493393  1
  Fe  Fe18  1  0.771167  0.500000  0.271167  1
  Pt  Pt19  1  0.023468  0.342513  0.680955  1
  Pt  Pt20  1  0.631766  0.128039  0.503727  1
  Pt  Pt21  1  0.259078  0.500000  0.759078  1
  Pt  Pt22  1  0.375687  0.871961  0.503727  1
  Pt  Pt23  1  0.984789  0.000000  0.984789  1
  Pt  Pt24  1  0.652292  0.337638  0.314653  1
  Pt  Pt25  1  0.338441  0.657487  0.680955  1
  Pt  Pt26  1  0.977014  0.662362  0.314653  1
