# generated using pymatgen
data_Pr11NdFeCoI17
_symmetry_space_group_name_H-M   'P 1'
_cell_length_a   10.05356884
_cell_length_b   12.02992237
_cell_length_c   12.07837756
_cell_angle_alpha   93.34968835
_cell_angle_beta   104.86025160
_cell_angle_gamma   114.55004385
_symmetry_Int_Tables_number   1
_chemical_formula_structural   Pr11NdFeCoI17
_chemical_formula_sum   'Pr11 Nd1 Fe1 Co1 I17'
_cell_volume   1261.48671795
_cell_formula_units_Z   1
loop_
 _symmetry_equiv_pos_site_id
 _symmetry_equiv_pos_as_xyz
  1  'x, y, z'
loop_
 _atom_site_type_symbol
 _atom_site_label
 _atom_site_symmetry_multiplicity
 _atom_site_fract_x
 _atom_site_fract_y
 _atom_site_fract_z
 _atom_site_occupancy
  Pr  Pr0  1  0.990380  0.810564  0.582667  1
  Pr  Pr1  1  0.647828  0.241177  0.283465  1
  Pr  Pr2  1  0.009172  0.190600  0.414805  1
  Pr  Pr3  1  0.222617  0.670255  0.987884  1
  Pr  Pr4  1  0.259069  0.984493  0.891662  1
  Pr  Pr5  1  0.353957  0.759255  0.716007  1
  Pr  Pr6  1  0.943033  0.490427  0.677446  1
  Pr  Pr7  1  0.742159  0.016940  0.109411  1
  Pr  Pr8  1  0.149220  0.287259  0.152266  1
  Pr  Pr9  1  0.778700  0.329758  0.013843  1
  Pr  Pr10  1  0.849800  0.712438  0.848850  1
  Nd  Nd11  1  0.054513  0.506197  0.320999  1
  Fe  Fe12  1  0.896110  0.262246  0.214455  1
  Co  Co13  1  0.104056  0.738314  0.785200  1
  I  I14  1  0.784494  0.529553  0.417765  1
  I  I15  1  0.640396  0.418540  0.758161  1
  I  I16  1  0.842582  0.892824  0.325292  1
  I  I17  1  0.326589  0.212138  0.370926  1
  I  I18  1  0.157578  0.105818  0.676124  1
  I  I19  1  0.587325  0.052917  0.841850  1
  I  I20  1  0.755070  0.183743  0.539548  1
  I  I21  1  0.549027  0.706080  0.953166  1
  I  I22  1  0.358764  0.582624  0.241163  1
  I  I23  1  0.215934  0.471268  0.582767  1
  I  I24  1  0.055832  0.367104  0.895950  1
  I  I25  1  0.449967  0.291944  0.045321  1
  I  I26  1  0.000011  0.999644  0.999453  1
  I  I27  1  0.245551  0.817025  0.461657  1
  I  I28  1  0.410535  0.946428  0.157342  1
  I  I29  1  0.673342  0.788195  0.629975  1
  I  I30  1  0.946390  0.634234  0.104580  1
