# generated using pymatgen
data_Th2Si4Ni17Rh
_symmetry_space_group_name_H-M   'P 1'
_cell_length_a   7.63711062
_cell_length_b   7.63711207
_cell_length_c   7.63711135
_cell_angle_alpha   99.46205366
_cell_angle_beta   99.46205622
_cell_angle_gamma   132.16062139
_symmetry_Int_Tables_number   1
_chemical_formula_structural   Th2Si4Ni17Rh
_chemical_formula_sum   'Th2 Si4 Ni17 Rh1'
_cell_volume   301.82983447
_cell_formula_units_Z   1
loop_
 _symmetry_equiv_pos_site_id
 _symmetry_equiv_pos_as_xyz
  1  'x, y, z'
loop_
 _atom_site_type_symbol
 _atom_site_label
 _atom_site_symmetry_multiplicity
 _atom_site_fract_x
 _atom_site_fract_y
 _atom_site_fract_z
 _atom_site_occupancy
  Th  Th0  1  0.500000  0.500000  0.000000  1
  Th  Th1  1  0.750000  0.250000  0.500000  1
  Si  Si2  1  0.625754  0.874989  0.750765  1
  Si  Si3  1  0.125011  0.374246  0.249235  1
  Si  Si4  1  0.125011  0.875776  0.750765  1
  Si  Si5  1  0.124224  0.874989  0.249235  1
  Ni  Ni6  1  0.000000  0.000000  0.000000  1
  Ni  Ni7  1  0.689154  0.015749  0.079117  1
  Ni  Ni8  1  0.689154  0.610038  0.673406  1
  Ni  Ni9  1  0.266899  0.435354  0.581147  1
  Ni  Ni10  1  0.266899  0.685752  0.831544  1
  Ni  Ni11  1  0.936632  0.015749  0.326594  1
  Ni  Ni12  1  0.936632  0.610038  0.920883  1
  Ni  Ni13  1  0.854208  0.435354  0.168456  1
  Ni  Ni14  1  0.854208  0.685752  0.418853  1
  Ni  Ni15  1  0.564646  0.733101  0.418853  1
  Ni  Ni16  1  0.564646  0.145792  0.831544  1
  Ni  Ni17  1  0.984251  0.310846  0.920883  1
  Ni  Ni18  1  0.984251  0.063368  0.673406  1
  Ni  Ni19  1  0.314248  0.733101  0.168456  1
  Ni  Ni20  1  0.314248  0.145792  0.581147  1
  Ni  Ni21  1  0.389962  0.310846  0.326594  1
  Ni  Ni22  1  0.389962  0.063368  0.079117  1
  Rh  Rh23  1  0.250000  0.750000  0.500000  1
