# generated using pymatgen
data_Sc3In3CoHg2
_symmetry_space_group_name_H-M   'P 1'
_cell_length_a   7.74706900
_cell_length_b   7.74706863
_cell_length_c   3.61476700
_cell_angle_alpha   90.00000000
_cell_angle_beta   90.00000000
_cell_angle_gamma   119.99998876
_symmetry_Int_Tables_number   1
_chemical_formula_structural   Sc3In3CoHg2
_chemical_formula_sum   'Sc3 In3 Co1 Hg2'
_cell_volume   187.88227802
_cell_formula_units_Z   1
loop_
 _symmetry_equiv_pos_site_id
 _symmetry_equiv_pos_as_xyz
  1  'x, y, z'
loop_
 _atom_site_type_symbol
 _atom_site_label
 _atom_site_symmetry_multiplicity
 _atom_site_fract_x
 _atom_site_fract_y
 _atom_site_fract_z
 _atom_site_occupancy
  Sc  Sc0  1  0.624355  0.000000  0.000000  1
  Sc  Sc1  1  0.000000  0.624355  0.000000  1
  Sc  Sc2  1  0.375645  0.375645  0.000000  1
  In  In3  1  0.253372  0.000000  0.500000  1
  In  In4  1  0.000000  0.253372  0.500000  1
  In  In5  1  0.746628  0.746628  0.500000  1
  Co  Co6  1  0.000000  0.000000  0.000000  1
  Hg  Hg7  1  0.333333  0.666667  0.500000  1
  Hg  Hg8  1  0.666667  0.333333  0.500000  1
