# generated using pymatgen
data_NaAc(BeAs)4
_symmetry_space_group_name_H-M   'P 1'
_cell_length_a   6.90507000
_cell_length_b   6.90507059
_cell_length_c   5.26345600
_cell_angle_alpha   90.00000000
_cell_angle_beta   90.00000000
_cell_angle_gamma   135.35503946
_symmetry_Int_Tables_number   1
_chemical_formula_structural   NaAc(BeAs)4
_chemical_formula_sum   'Na1 Ac1 Be4 As4'
_cell_volume   176.35359191
_cell_formula_units_Z   1
loop_
 _symmetry_equiv_pos_site_id
 _symmetry_equiv_pos_as_xyz
  1  'x, y, z'
loop_
 _atom_site_type_symbol
 _atom_site_label
 _atom_site_symmetry_multiplicity
 _atom_site_fract_x
 _atom_site_fract_y
 _atom_site_fract_z
 _atom_site_occupancy
  Na  Na0  1  0.000000  0.000000  0.000000  1
  Ac  Ac1  1  0.500000  0.500000  0.500000  1
  Be  Be2  1  0.500000  0.000000  0.755028  1
  Be  Be3  1  0.000000  0.500000  0.244972  1
  Be  Be4  1  0.000000  0.500000  0.755028  1
  Be  Be5  1  0.500000  0.000000  0.244972  1
  As  As6  1  0.357813  0.642187  0.000000  1
  As  As7  1  0.855504  0.144496  0.500000  1
  As  As8  1  0.144496  0.855504  0.500000  1
  As  As9  1  0.642187  0.357813  0.000000  1
