# generated using pymatgen
data_TbSi2TcPt
_symmetry_space_group_name_H-M   'P 1'
_cell_length_a   5.76791882
_cell_length_b   5.76791896
_cell_length_c   5.76791789
_cell_angle_alpha   137.68513684
_cell_angle_beta   137.68514016
_cell_angle_gamma   61.38556709
_symmetry_Int_Tables_number   1
_chemical_formula_structural   TbSi2TcPt
_chemical_formula_sum   'Tb1 Si2 Tc1 Pt1'
_cell_volume   85.98524039
_cell_formula_units_Z   1
loop_
 _symmetry_equiv_pos_site_id
 _symmetry_equiv_pos_as_xyz
  1  'x, y, z'
loop_
 _atom_site_type_symbol
 _atom_site_label
 _atom_site_symmetry_multiplicity
 _atom_site_fract_x
 _atom_site_fract_y
 _atom_site_fract_z
 _atom_site_occupancy
  Tb  Tb0  1  0.000000  0.000000  0.000000  1
  Si  Si1  1  0.375969  0.375969  0.000000  1
  Si  Si2  1  0.624031  0.624031  0.000000  1
  Tc  Tc3  1  0.250000  0.750000  0.500000  1
  Pt  Pt4  1  0.750000  0.250000  0.500000  1
