# generated using pymatgen
data_Li2As2PdRh
_symmetry_space_group_name_H-M   'P 1'
_cell_length_a   4.07512700
_cell_length_b   6.62645014
_cell_length_c   7.20778329
_cell_angle_alpha   89.33228947
_cell_angle_beta   90.00000000
_cell_angle_gamma   90.00000000
_symmetry_Int_Tables_number   1
_chemical_formula_structural   Li2As2PdRh
_chemical_formula_sum   'Li4 As4 Pd2 Rh2'
_cell_volume   194.62306684
_cell_formula_units_Z   2
loop_
 _symmetry_equiv_pos_site_id
 _symmetry_equiv_pos_as_xyz
  1  'x, y, z'
loop_
 _atom_site_type_symbol
 _atom_site_label
 _atom_site_symmetry_multiplicity
 _atom_site_fract_x
 _atom_site_fract_y
 _atom_site_fract_z
 _atom_site_occupancy
  Li  Li0  1  0.250000  0.516505  0.172770  1
  Li  Li1  1  0.750000  0.483495  0.827230  1
  Li  Li2  1  0.750000  0.981390  0.674630  1
  Li  Li3  1  0.250000  0.018610  0.325370  1
  As  As4  1  0.250000  0.772687  0.866731  1
  As  As5  1  0.750000  0.227313  0.133269  1
  As  As6  1  0.750000  0.723562  0.384038  1
  As  As7  1  0.250000  0.276438  0.615962  1
  Pd  Pd8  1  0.750000  0.853612  0.054751  1
  Pd  Pd9  1  0.250000  0.146388  0.945249  1
  Rh  Rh10  1  0.250000  0.641916  0.555268  1
  Rh  Rh11  1  0.750000  0.358084  0.444732  1
