# generated using pymatgen
data_Y4Ho3Er5Co5Bi
_symmetry_space_group_name_H-M   'P 1'
_cell_length_a   8.28937470
_cell_length_b   8.28930569
_cell_length_c   8.28961847
_cell_angle_alpha   110.64887215
_cell_angle_beta   110.84140202
_cell_angle_gamma   106.95158280
_symmetry_Int_Tables_number   1
_chemical_formula_structural   Y4Ho3Er5Co5Bi
_chemical_formula_sum   'Y4 Ho3 Er5 Co5 Bi1'
_cell_volume   437.85385808
_cell_formula_units_Z   1
loop_
 _symmetry_equiv_pos_site_id
 _symmetry_equiv_pos_as_xyz
  1  'x, y, z'
loop_
 _atom_site_type_symbol
 _atom_site_label
 _atom_site_symmetry_multiplicity
 _atom_site_fract_x
 _atom_site_fract_y
 _atom_site_fract_z
 _atom_site_occupancy
  Y  Y0  1  0.814624  0.711527  0.526309  1
  Y  Y1  1  0.185361  0.288591  0.473859  1
  Y  Y2  1  0.185378  0.711498  0.896768  1
  Y  Y3  1  0.814642  0.288324  0.103107  1
  Ho  Ho4  1  0.401925  0.207384  0.194543  1
  Ho  Ho5  1  0.987018  0.792644  0.194383  1
  Ho  Ho6  1  0.012753  0.207277  0.805468  1
  Er  Er7  1  0.688484  0.378362  0.689809  1
  Er  Er8  1  0.311637  0.621837  0.310366  1
  Er  Er9  1  0.688443  0.998642  0.310115  1
  Er  Er10  1  0.311663  0.001284  0.689831  1
  Er  Er11  1  0.598168  0.792711  0.805454  1
  Co  Co12  1  0.623808  0.999881  0.623914  1
  Co  Co13  1  0.376218  0.000043  0.376168  1
  Co  Co14  1  0.112063  0.611988  0.500082  1
  Co  Co15  1  0.888066  0.388075  0.499995  1
  Co  Co16  1  0.999725  0.999858  0.999862  1
  Bi  Bi17  1  0.500026  0.500075  0.999967  1
