# generated using pymatgen
data_Rb(PbO2)6
_symmetry_space_group_name_H-M   'P 1'
_cell_length_a   9.58647276
_cell_length_b   9.58647230
_cell_length_c   9.58647242
_cell_angle_alpha   106.91577228
_cell_angle_beta   106.91577193
_cell_angle_gamma   114.71272758
_symmetry_Int_Tables_number   1
_chemical_formula_structural   Rb(PbO2)6
_chemical_formula_sum   'Rb2 Pb12 O24'
_cell_volume   673.89868036
_cell_formula_units_Z   2
loop_
 _symmetry_equiv_pos_site_id
 _symmetry_equiv_pos_as_xyz
  1  'x, y, z'
loop_
 _atom_site_type_symbol
 _atom_site_label
 _atom_site_symmetry_multiplicity
 _atom_site_fract_x
 _atom_site_fract_y
 _atom_site_fract_z
 _atom_site_occupancy
  Rb  Rb0  1  0.768137  0.768137  0.000000  1
  Rb  Rb1  1  0.231863  0.231863  0.000000  1
  Pb  Pb2  1  0.317022  0.831034  0.814564  1
  Pb  Pb3  1  0.649635  0.166849  0.816485  1
  Pb  Pb4  1  0.983529  0.497541  0.814564  1
  Pb  Pb5  1  0.016471  0.502459  0.185436  1
  Pb  Pb6  1  0.350365  0.833151  0.183515  1
  Pb  Pb7  1  0.682978  0.168966  0.185436  1
  Pb  Pb8  1  0.833151  0.649635  0.482787  1
  Pb  Pb9  1  0.168966  0.983529  0.485988  1
  Pb  Pb10  1  0.502459  0.317022  0.485988  1
  Pb  Pb11  1  0.497541  0.682978  0.514012  1
  Pb  Pb12  1  0.831034  0.016471  0.514012  1
  Pb  Pb13  1  0.166849  0.350365  0.517213  1
  O  O14  1  0.791053  0.499529  0.623618  1
  O  O15  1  0.124089  0.832565  0.623618  1
  O  O16  1  0.458239  0.161671  0.619910  1
  O  O17  1  0.875911  0.167435  0.376382  1
  O  O18  1  0.208947  0.500471  0.376382  1
  O  O19  1  0.541761  0.838329  0.380090  1
  O  O20  1  0.500471  0.124089  0.291525  1
  O  O21  1  0.838329  0.458239  0.296566  1
  O  O22  1  0.167435  0.791053  0.291525  1
  O  O23  1  0.161671  0.541761  0.703434  1
  O  O24  1  0.499529  0.875911  0.708475  1
  O  O25  1  0.832565  0.208947  0.708475  1
  O  O26  1  0.513585  0.874326  0.051191  1
  O  O27  1  0.843286  0.207747  0.051032  1
  O  O28  1  0.176866  0.537607  0.051191  1
  O  O29  1  0.156714  0.792253  0.948968  1
  O  O30  1  0.486415  0.125674  0.948809  1
  O  O31  1  0.823134  0.462393  0.948809  1
  O  O32  1  0.125674  0.176866  0.639259  1
  O  O33  1  0.462393  0.513585  0.639259  1
  O  O34  1  0.792253  0.843286  0.635538  1
  O  O35  1  0.537607  0.486415  0.360741  1
  O  O36  1  0.874326  0.823134  0.360741  1
  O  O37  1  0.207747  0.156714  0.364462  1
