# generated using pymatgen
data_Dy17Er3(SnPb3)4
_symmetry_space_group_name_H-M   'P 1'
_cell_length_a   8.14981000
_cell_length_b   8.23580545
_cell_length_c   15.60525700
_cell_angle_alpha   90.00000000
_cell_angle_beta   90.00000000
_cell_angle_gamma   90.02038511
_symmetry_Int_Tables_number   1
_chemical_formula_structural   Dy17Er3(SnPb3)4
_chemical_formula_sum   'Dy17 Er3 Sn4 Pb12'
_cell_volume   1047.42867908
_cell_formula_units_Z   1
loop_
 _symmetry_equiv_pos_site_id
 _symmetry_equiv_pos_as_xyz
  1  'x, y, z'
loop_
 _atom_site_type_symbol
 _atom_site_label
 _atom_site_symmetry_multiplicity
 _atom_site_fract_x
 _atom_site_fract_y
 _atom_site_fract_z
 _atom_site_occupancy
  Dy  Dy0  1  0.377495  0.839683  0.878034  1
  Dy  Dy1  1  0.877132  0.660557  0.621962  1
  Dy  Dy2  1  0.622664  0.160377  0.377964  1
  Dy  Dy3  1  0.122646  0.339600  0.122160  1
  Dy  Dy4  1  0.622664  0.160377  0.122036  1
  Dy  Dy5  1  0.122646  0.339600  0.377840  1
  Dy  Dy6  1  0.377495  0.839683  0.621966  1
  Dy  Dy7  1  0.877132  0.660557  0.878038  1
  Dy  Dy8  1  0.534865  0.324549  0.899484  1
  Dy  Dy9  1  0.034637  0.175132  0.600533  1
  Dy  Dy10  1  0.465245  0.675341  0.399349  1
  Dy  Dy11  1  0.965251  0.824679  0.100544  1
  Dy  Dy12  1  0.465245  0.675341  0.100651  1
  Dy  Dy13  1  0.965251  0.824679  0.399456  1
  Dy  Dy14  1  0.534865  0.324549  0.600516  1
  Dy  Dy15  1  0.034637  0.175132  0.899467  1
  Dy  Dy16  1  0.210143  0.506415  0.750000  1
  Er  Er17  1  0.710346  0.993172  0.750000  1
  Er  Er18  1  0.789694  0.493227  0.250000  1
  Er  Er19  1  0.289655  0.006728  0.250000  1
  Sn  Sn20  1  0.574140  0.625698  0.750000  1
  Sn  Sn21  1  0.073207  0.875268  0.750000  1
  Sn  Sn22  1  0.426745  0.374685  0.250000  1
  Sn  Sn23  1  0.926659  0.125217  0.250000  1
  Pb  Pb24  1  0.281824  0.033353  0.042839  1
  Pb  Pb25  1  0.781859  0.466785  0.457118  1
  Pb  Pb26  1  0.718092  0.966700  0.542747  1
  Pb  Pb27  1  0.218148  0.533467  0.957595  1
  Pb  Pb28  1  0.718092  0.966700  0.957253  1
  Pb  Pb29  1  0.218148  0.533467  0.542405  1
  Pb  Pb30  1  0.281824  0.033353  0.457161  1
  Pb  Pb31  1  0.781859  0.466785  0.042882  1
  Pb  Pb32  1  0.344534  0.150839  0.750000  1
  Pb  Pb33  1  0.843904  0.348080  0.750000  1
  Pb  Pb34  1  0.655708  0.848402  0.250000  1
  Pb  Pb35  1  0.155549  0.651826  0.250000  1
