# generated using pymatgen
data_Pr3Lu(ZnSn)4
_symmetry_space_group_name_H-M   'P 1'
_cell_length_a   4.56826900
_cell_length_b   4.56826838
_cell_length_c   16.40435900
_cell_angle_alpha   90.00000000
_cell_angle_beta   90.00000000
_cell_angle_gamma   120.00001174
_symmetry_Int_Tables_number   1
_chemical_formula_structural   Pr3Lu(ZnSn)4
_chemical_formula_sum   'Pr3 Lu1 Zn4 Sn4'
_cell_volume   296.47844538
_cell_formula_units_Z   1
loop_
 _symmetry_equiv_pos_site_id
 _symmetry_equiv_pos_as_xyz
  1  'x, y, z'
loop_
 _atom_site_type_symbol
 _atom_site_label
 _atom_site_symmetry_multiplicity
 _atom_site_fract_x
 _atom_site_fract_y
 _atom_site_fract_z
 _atom_site_occupancy
  Pr  Pr0  1  0.000000  0.000000  0.494334  1
  Pr  Pr1  1  0.000000  0.000000  0.005666  1
  Pr  Pr2  1  0.000000  0.000000  0.750000  1
  Lu  Lu3  1  0.000000  0.000000  0.250000  1
  Zn  Zn4  1  0.333333  0.666667  0.333345  1
  Zn  Zn5  1  0.666667  0.333333  0.655053  1
  Zn  Zn6  1  0.666667  0.333333  0.844947  1
  Zn  Zn7  1  0.333333  0.666667  0.166655  1
  Sn  Sn8  1  0.333333  0.666667  0.886371  1
  Sn  Sn9  1  0.666667  0.333333  0.121098  1
  Sn  Sn10  1  0.666667  0.333333  0.378902  1
  Sn  Sn11  1  0.333333  0.666667  0.613629  1
