# generated using pymatgen
data_Pr9Lu11Si16
_symmetry_space_group_name_H-M   'P 1'
_cell_length_a   7.72232017
_cell_length_b   7.73375297
_cell_length_c   14.21111436
_cell_angle_alpha   89.74098438
_cell_angle_beta   90.22676346
_cell_angle_gamma   90.01018544
_symmetry_Int_Tables_number   1
_chemical_formula_structural   Pr9Lu11Si16
_chemical_formula_sum   'Pr9 Lu11 Si16'
_cell_volume   848.70818261
_cell_formula_units_Z   1
loop_
 _symmetry_equiv_pos_site_id
 _symmetry_equiv_pos_as_xyz
  1  'x, y, z'
loop_
 _atom_site_type_symbol
 _atom_site_label
 _atom_site_symmetry_multiplicity
 _atom_site_fract_x
 _atom_site_fract_y
 _atom_site_fract_z
 _atom_site_occupancy
  Pr  Pr0  1  0.010029  0.859139  0.126257  1
  Pr  Pr1  1  0.643967  0.994633  0.462058  1
  Pr  Pr2  1  0.356297  0.005074  0.956926  1
  Pr  Pr3  1  0.991874  0.647210  0.539593  1
  Pr  Pr4  1  0.494729  0.855273  0.210569  1
  Pr  Pr5  1  0.506671  0.145285  0.710085  1
  Pr  Pr6  1  0.854558  0.490575  0.787985  1
  Pr  Pr7  1  0.142816  0.509766  0.292268  1
  Pr  Pr8  1  0.008534  0.355271  0.040014  1
  Lu  Lu9  1  0.492447  0.356429  0.123453  1
  Lu  Lu10  1  0.993947  0.141197  0.625129  1
  Lu  Lu11  1  0.859066  0.004722  0.872867  1
  Lu  Lu12  1  0.140748  0.995697  0.376646  1
  Lu  Lu13  1  0.504979  0.641648  0.624528  1
  Lu  Lu14  1  0.361080  0.491829  0.872614  1
  Lu  Lu15  1  0.640451  0.506971  0.377488  1
  Lu  Lu16  1  0.317803  0.320622  0.500534  1
  Lu  Lu17  1  0.180161  0.818341  0.748495  1
  Lu  Lu18  1  0.816695  0.183994  0.251370  1
  Lu  Lu19  1  0.682256  0.678215  0.999510  1
  Si  Si20  1  0.288360  0.939115  0.562857  1
  Si  Si21  1  0.707258  0.064503  0.059914  1
  Si  Si22  1  0.938058  0.291274  0.438627  1
  Si  Si23  1  0.438884  0.213608  0.313806  1
  Si  Si24  1  0.562735  0.786994  0.811625  1
  Si  Si25  1  0.210660  0.438146  0.686602  1
  Si  Si26  1  0.784174  0.554978  0.189522  1
  Si  Si27  1  0.063648  0.704589  0.932482  1
  Si  Si28  1  0.794580  0.851548  0.687275  1
  Si  Si29  1  0.207546  0.157300  0.193989  1
  Si  Si30  1  0.848376  0.796396  0.318591  1
  Si  Si31  1  0.350842  0.705765  0.438935  1
  Si  Si32  1  0.649127  0.293133  0.936855  1
  Si  Si33  1  0.704134  0.352758  0.563212  1
  Si  Si34  1  0.304226  0.644459  0.056581  1
  Si  Si35  1  0.148284  0.203539  0.810740  1
