# generated using pymatgen
data_Y2NbIr2Ru
_symmetry_space_group_name_H-M   'P 1'
_cell_length_a   5.30700361
_cell_length_b   5.65731273
_cell_length_c   5.66601500
_cell_angle_alpha   59.94909673
_cell_angle_beta   57.73578006
_cell_angle_gamma   56.55032441
_symmetry_Int_Tables_number   1
_chemical_formula_structural   Y2NbIr2Ru
_chemical_formula_sum   'Y2 Nb1 Ir2 Ru1'
_cell_volume   114.76439212
_cell_formula_units_Z   1
loop_
 _symmetry_equiv_pos_site_id
 _symmetry_equiv_pos_as_xyz
  1  'x, y, z'
loop_
 _atom_site_type_symbol
 _atom_site_label
 _atom_site_symmetry_multiplicity
 _atom_site_fract_x
 _atom_site_fract_y
 _atom_site_fract_z
 _atom_site_occupancy
  Y  Y0  1  0.506117  0.500512  0.496685  1
  Y  Y1  1  0.743883  0.749488  0.753315  1
  Nb  Nb2  1  0.625000  0.125000  0.125000  1
  Ir  Ir3  1  0.125000  0.125000  0.125000  1
  Ir  Ir4  1  0.125000  0.125000  0.625000  1
  Ru  Ru5  1  0.125000  0.625000  0.125000  1
