# generated using pymatgen
data_NpPaS2
_symmetry_space_group_name_H-M   'P 1'
_cell_length_a   6.67298651
_cell_length_b   6.67298617
_cell_length_c   6.67298500
_cell_angle_alpha   34.00654451
_cell_angle_beta   34.00654886
_cell_angle_gamma   34.00653827
_symmetry_Int_Tables_number   1
_chemical_formula_structural   NpPaS2
_chemical_formula_sum   'Np1 Pa1 S2'
_cell_volume   82.85080089
_cell_formula_units_Z   1
loop_
 _symmetry_equiv_pos_site_id
 _symmetry_equiv_pos_as_xyz
  1  'x, y, z'
loop_
 _atom_site_type_symbol
 _atom_site_label
 _atom_site_symmetry_multiplicity
 _atom_site_fract_x
 _atom_site_fract_y
 _atom_site_fract_z
 _atom_site_occupancy
  Np  Np0  1  0.000000  0.000000  0.000000  1
  Pa  Pa1  1  0.500000  0.500000  0.500000  1
  S  S2  1  0.251806  0.251806  0.251806  1
  S  S3  1  0.748194  0.748194  0.748194  1
