# generated using pymatgen
data_Tb3Lu5Au4
_symmetry_space_group_name_H-M   'P 1'
_cell_length_a   4.85321300
_cell_length_b   7.12122736
_cell_length_c   8.82471384
_cell_angle_alpha   89.63024111
_cell_angle_beta   90.00000000
_cell_angle_gamma   90.00000000
_symmetry_Int_Tables_number   1
_chemical_formula_structural   Tb3Lu5Au4
_chemical_formula_sum   'Tb3 Lu5 Au4'
_cell_volume   304.98311178
_cell_formula_units_Z   1
loop_
 _symmetry_equiv_pos_site_id
 _symmetry_equiv_pos_as_xyz
  1  'x, y, z'
loop_
 _atom_site_type_symbol
 _atom_site_label
 _atom_site_symmetry_multiplicity
 _atom_site_fract_x
 _atom_site_fract_y
 _atom_site_fract_z
 _atom_site_occupancy
  Tb  Tb0  1  0.250000  0.984767  0.322409  1
  Tb  Tb1  1  0.750000  0.515884  0.823123  1
  Tb  Tb2  1  0.750000  0.015791  0.676708  1
  Lu  Lu3  1  0.250000  0.851940  0.924090  1
  Lu  Lu4  1  0.250000  0.353164  0.576742  1
  Lu  Lu5  1  0.750000  0.148083  0.078205  1
  Lu  Lu6  1  0.750000  0.647798  0.419922  1
  Lu  Lu7  1  0.250000  0.482752  0.175945  1
  Au  Au8  1  0.250000  0.252705  0.900749  1
  Au  Au9  1  0.250000  0.750520  0.603152  1
  Au  Au10  1  0.750000  0.746093  0.102027  1
  Au  Au11  1  0.750000  0.250504  0.396927  1
