# generated using pymatgen
data_HoTh3Al3(Ga5Ir2)3
_symmetry_space_group_name_H-M   'P 1'
_cell_length_a   7.66882122
_cell_length_b   7.67925584
_cell_length_c   9.48213700
_cell_angle_alpha   89.99886610
_cell_angle_beta   90.00001537
_cell_angle_gamma   119.69371191
_symmetry_Int_Tables_number   1
_chemical_formula_structural   HoTh3Al3(Ga5Ir2)3
_chemical_formula_sum   'Ho1 Th3 Al3 Ga15 Ir6'
_cell_volume   485.08376623
_cell_formula_units_Z   1
loop_
 _symmetry_equiv_pos_site_id
 _symmetry_equiv_pos_as_xyz
  1  'x, y, z'
loop_
 _atom_site_type_symbol
 _atom_site_label
 _atom_site_symmetry_multiplicity
 _atom_site_fract_x
 _atom_site_fract_y
 _atom_site_fract_z
 _atom_site_occupancy
  Ho  Ho0  1  0.328776  0.003216  0.749129  1
  Th  Th1  1  0.997744  0.670436  0.249887  1
  Th  Th2  1  0.001334  0.329993  0.749006  1
  Th  Th3  1  0.669928  0.997050  0.249897  1
  Al  Al4  1  0.661964  0.661905  0.451151  1
  Al  Al5  1  0.664639  0.664476  0.049279  1
  Al  Al6  1  0.335095  0.331351  0.945561  1
  Ga  Ga7  1  0.135792  0.132754  0.249765  1
  Ga  Ga8  1  0.871382  0.869341  0.749832  1
  Ga  Ga9  1  0.004493  0.335180  0.078294  1
  Ga  Ga10  1  0.002272  0.670581  0.918455  1
  Ga  Ga11  1  0.001866  0.670893  0.581710  1
  Ga  Ga12  1  0.335140  0.003771  0.426218  1
  Ga  Ga13  1  0.005248  0.335382  0.419821  1
  Ga  Ga14  1  0.658873  0.996234  0.581704  1
  Ga  Ga15  1  0.659033  0.996782  0.918512  1
  Ga  Ga16  1  0.335108  0.002987  0.072038  1
  Ga  Ga17  1  0.333729  0.329194  0.564085  1
  Ga  Ga18  1  0.348745  0.545914  0.250038  1
  Ga  Ga19  1  0.652067  0.448800  0.750030  1
  Ga  Ga20  1  0.545676  0.345234  0.250054  1
  Ga  Ga21  1  0.453384  0.659439  0.749989  1
  Ir  Ir22  1  0.672277  0.331535  0.999877  1
  Ir  Ir23  1  0.329037  0.667818  0.000019  1
  Ir  Ir24  1  0.328836  0.670760  0.498937  1
  Ir  Ir25  1  0.675614  0.331673  0.498990  1
  Ir  Ir26  1  0.998187  0.000545  0.000125  1
  Ir  Ir27  1  0.993762  0.996755  0.497597  1
