# generated using pymatgen
data_Er2Zn(PIr2)6
_symmetry_space_group_name_H-M   'P 1'
_cell_length_a   9.66509100
_cell_length_b   9.66508959
_cell_length_c   3.94332000
_cell_angle_alpha   90.00000000
_cell_angle_beta   90.00000000
_cell_angle_gamma   119.99999546
_symmetry_Int_Tables_number   1
_chemical_formula_structural   Er2Zn(PIr2)6
_chemical_formula_sum   'Er2 Zn1 P6 Ir12'
_cell_volume   319.01015242
_cell_formula_units_Z   1
loop_
 _symmetry_equiv_pos_site_id
 _symmetry_equiv_pos_as_xyz
  1  'x, y, z'
loop_
 _atom_site_type_symbol
 _atom_site_label
 _atom_site_symmetry_multiplicity
 _atom_site_fract_x
 _atom_site_fract_y
 _atom_site_fract_z
 _atom_site_occupancy
  Er  Er0  1  0.333333  0.666667  0.752710  1
  Er  Er1  1  0.666667  0.333333  0.247290  1
  Zn  Zn2  1  0.000000  0.000000  0.500000  1
  P  P3  1  0.403692  0.281997  0.746865  1
  P  P4  1  0.718003  0.121696  0.746865  1
  P  P5  1  0.878304  0.596308  0.746865  1
  P  P6  1  0.596308  0.718003  0.253135  1
  P  P7  1  0.281997  0.878304  0.253135  1
  P  P8  1  0.121696  0.403692  0.253135  1
  Ir  Ir9  1  0.457894  0.069424  0.748740  1
  Ir  Ir10  1  0.930576  0.388469  0.748740  1
  Ir  Ir11  1  0.611531  0.542106  0.748740  1
  Ir  Ir12  1  0.542106  0.930576  0.251260  1
  Ir  Ir13  1  0.069424  0.611531  0.251260  1
  Ir  Ir14  1  0.388469  0.457894  0.251260  1
  Ir  Ir15  1  0.161463  0.286659  0.756542  1
  Ir  Ir16  1  0.713341  0.874804  0.756542  1
  Ir  Ir17  1  0.125196  0.838537  0.756542  1
  Ir  Ir18  1  0.838537  0.713341  0.243458  1
  Ir  Ir19  1  0.286659  0.125196  0.243458  1
  Ir  Ir20  1  0.874804  0.161463  0.243458  1
