# generated using pymatgen
data_Tb2Nd17CdIr12
_symmetry_space_group_name_H-M   'P 1'
_cell_length_a   11.22647200
_cell_length_b   11.22647200
_cell_length_c   6.48424700
_cell_angle_alpha   90.00000000
_cell_angle_beta   90.00000000
_cell_angle_gamma   90.00000000
_symmetry_Int_Tables_number   1
_chemical_formula_structural   Tb2Nd17CdIr12
_chemical_formula_sum   'Tb2 Nd17 Cd1 Ir12'
_cell_volume   817.23346972
_cell_formula_units_Z   1
loop_
 _symmetry_equiv_pos_site_id
 _symmetry_equiv_pos_as_xyz
  1  'x, y, z'
loop_
 _atom_site_type_symbol
 _atom_site_label
 _atom_site_symmetry_multiplicity
 _atom_site_fract_x
 _atom_site_fract_y
 _atom_site_fract_z
 _atom_site_occupancy
  Tb  Tb0  1  0.500000  0.500000  0.000000  1
  Tb  Tb1  1  0.500000  0.500000  0.500000  1
  Nd  Nd2  1  0.280662  0.084737  0.383404  1
  Nd  Nd3  1  0.291749  0.911547  0.881989  1
  Nd  Nd4  1  0.708251  0.088453  0.881989  1
  Nd  Nd5  1  0.719338  0.915263  0.383404  1
  Nd  Nd6  1  0.588732  0.789781  0.884528  1
  Nd  Nd7  1  0.586281  0.209802  0.380894  1
  Nd  Nd8  1  0.413719  0.790198  0.380894  1
  Nd  Nd9  1  0.411268  0.210219  0.884528  1
  Nd  Nd10  1  0.209802  0.413719  0.619106  1
  Nd  Nd11  1  0.210219  0.588732  0.115472  1
  Nd  Nd12  1  0.789781  0.411268  0.115472  1
  Nd  Nd13  1  0.790198  0.586281  0.619106  1
  Nd  Nd14  1  0.911547  0.708251  0.118011  1
  Nd  Nd15  1  0.915263  0.280662  0.616596  1
  Nd  Nd16  1  0.084737  0.719338  0.616596  1
  Nd  Nd17  1  0.088453  0.291749  0.118011  1
  Nd  Nd18  1  0.000000  0.000000  0.000000  1
  Cd  Cd19  1  0.000000  0.000000  0.500000  1
  Ir  Ir20  1  0.844933  0.156973  0.242689  1
  Ir  Ir21  1  0.843027  0.844933  0.757311  1
  Ir  Ir22  1  0.156973  0.155067  0.757311  1
  Ir  Ir23  1  0.155067  0.843027  0.242689  1
  Ir  Ir24  1  0.650142  0.350831  0.746966  1
  Ir  Ir25  1  0.649169  0.650142  0.253034  1
  Ir  Ir26  1  0.350831  0.349858  0.253034  1
  Ir  Ir27  1  0.349858  0.649169  0.746966  1
  Ir  Ir28  1  0.500000  0.000000  0.121731  1
  Ir  Ir29  1  0.500000  0.000000  0.614180  1
  Ir  Ir30  1  0.000000  0.500000  0.878269  1
  Ir  Ir31  1  0.000000  0.500000  0.385820  1
