# generated using pymatgen
data_Tb2Y2BeCo3I2
_symmetry_space_group_name_H-M   'P 1'
_cell_length_a   3.93483900
_cell_length_b   3.93483792
_cell_length_c   17.03616700
_cell_angle_alpha   90.00000000
_cell_angle_beta   90.00000000
_cell_angle_gamma   120.00001747
_symmetry_Int_Tables_number   1
_chemical_formula_structural   Tb2Y2BeCo3I2
_chemical_formula_sum   'Tb2 Y2 Be1 Co3 I2'
_cell_volume   228.43164085
_cell_formula_units_Z   1
loop_
 _symmetry_equiv_pos_site_id
 _symmetry_equiv_pos_as_xyz
  1  'x, y, z'
loop_
 _atom_site_type_symbol
 _atom_site_label
 _atom_site_symmetry_multiplicity
 _atom_site_fract_x
 _atom_site_fract_y
 _atom_site_fract_z
 _atom_site_occupancy
  Tb  Tb0  1  0.000000  0.000000  0.104224  1
  Tb  Tb1  1  0.000000  0.000000  0.895873  1
  Y  Y2  1  0.000000  0.000000  0.601950  1
  Y  Y3  1  0.000000  0.000000  0.398016  1
  Be  Be4  1  0.333333  0.666667  0.500344  1
  Co  Co5  1  0.666667  0.333333  0.498940  1
  Co  Co6  1  0.666667  0.333333  0.001601  1
  Co  Co7  1  0.333333  0.666667  0.998802  1
  I  I8  1  0.333333  0.666667  0.250992  1
  I  I9  1  0.666667  0.333333  0.749258  1
