# generated using pymatgen
data_TaNb3CuNiN
_symmetry_space_group_name_H-M   'P 1'
_cell_length_a   8.26799277
_cell_length_b   8.26799327
_cell_length_c   8.26799400
_cell_angle_alpha   60.00000507
_cell_angle_beta   60.00000308
_cell_angle_gamma   60.00001097
_symmetry_Int_Tables_number   1
_chemical_formula_structural   TaNb3CuNiN
_chemical_formula_sum   'Ta4 Nb12 Cu4 Ni4 N4'
_cell_volume   399.65515602
_cell_formula_units_Z   4
loop_
 _symmetry_equiv_pos_site_id
 _symmetry_equiv_pos_as_xyz
  1  'x, y, z'
loop_
 _atom_site_type_symbol
 _atom_site_label
 _atom_site_symmetry_multiplicity
 _atom_site_fract_x
 _atom_site_fract_y
 _atom_site_fract_z
 _atom_site_occupancy
  Ta  Ta0  1  0.118353  0.627216  0.627216  1
  Ta  Ta1  1  0.627216  0.118353  0.627216  1
  Ta  Ta2  1  0.627216  0.627216  0.118353  1
  Ta  Ta3  1  0.627216  0.627216  0.627216  1
  Nb  Nb4  1  0.816638  0.816638  0.183362  1
  Nb  Nb5  1  0.183362  0.183362  0.816638  1
  Nb  Nb6  1  0.816638  0.183362  0.816638  1
  Nb  Nb7  1  0.183362  0.816638  0.183362  1
  Nb  Nb8  1  0.183362  0.816638  0.816638  1
  Nb  Nb9  1  0.816638  0.183362  0.183362  1
  Nb  Nb10  1  0.434635  0.434635  0.065365  1
  Nb  Nb11  1  0.065365  0.065365  0.434635  1
  Nb  Nb12  1  0.434635  0.065365  0.434635  1
  Nb  Nb13  1  0.065365  0.434635  0.065365  1
  Nb  Nb14  1  0.065365  0.434635  0.434635  1
  Nb  Nb15  1  0.434635  0.065365  0.065365  1
  Cu  Cu16  1  0.747266  0.417578  0.417578  1
  Cu  Cu17  1  0.417578  0.747266  0.417578  1
  Cu  Cu18  1  0.417578  0.417578  0.747266  1
  Cu  Cu19  1  0.417578  0.417578  0.417578  1
  Ni  Ni20  1  0.512423  0.829192  0.829192  1
  Ni  Ni21  1  0.829192  0.512423  0.829192  1
  Ni  Ni22  1  0.829192  0.829192  0.512423  1
  Ni  Ni23  1  0.829192  0.829192  0.829192  1
  N  N24  1  0.623090  0.125637  0.125637  1
  N  N25  1  0.125637  0.623090  0.125637  1
  N  N26  1  0.125637  0.125637  0.623090  1
  N  N27  1  0.125637  0.125637  0.125637  1
