# generated using pymatgen
data_La5PrNd10MgIn3Rh4
_symmetry_space_group_name_H-M   'P 1'
_cell_length_a   9.99102167
_cell_length_b   10.05952322
_cell_length_c   10.05863523
_cell_angle_alpha   59.80314031
_cell_angle_beta   60.06420050
_cell_angle_gamma   60.10852953
_symmetry_Int_Tables_number   1
_chemical_formula_structural   La5PrNd10MgIn3Rh4
_chemical_formula_sum   'La5 Pr1 Nd10 Mg1 In3 Rh4'
_cell_volume   714.70193244
_cell_formula_units_Z   1
loop_
 _symmetry_equiv_pos_site_id
 _symmetry_equiv_pos_as_xyz
  1  'x, y, z'
loop_
 _atom_site_type_symbol
 _atom_site_label
 _atom_site_symmetry_multiplicity
 _atom_site_fract_x
 _atom_site_fract_y
 _atom_site_fract_z
 _atom_site_occupancy
  La  La0  1  0.347564  0.346926  0.347350  1
  La  La1  1  0.350560  0.348046  0.954510  1
  La  La2  1  0.350908  0.954165  0.348089  1
  La  La3  1  0.952141  0.350782  0.350453  1
  La  La4  1  0.811099  0.189505  0.188995  1
  Pr  Pr5  1  0.937714  0.936357  0.563817  1
  Nd  Nd6  1  0.184188  0.813069  0.813029  1
  Nd  Nd7  1  0.189644  0.809637  0.187490  1
  Nd  Nd8  1  0.807523  0.191729  0.806681  1
  Nd  Nd9  1  0.189171  0.187864  0.809875  1
  Nd  Nd10  1  0.807536  0.806802  0.191205  1
  Nd  Nd11  1  0.939038  0.563772  0.564276  1
  Nd  Nd12  1  0.562235  0.937594  0.937635  1
  Nd  Nd13  1  0.562135  0.938982  0.564094  1
  Nd  Nd14  1  0.937937  0.563342  0.936783  1
  Nd  Nd15  1  0.562539  0.563939  0.938659  1
  Mg  Mg16  1  0.273944  0.574556  0.574660  1
  In  In17  1  0.581828  0.581477  0.581372  1
  In  In18  1  0.578367  0.583026  0.256844  1
  In  In19  1  0.578001  0.257127  0.583041  1
  Rh  Rh20  1  0.136983  0.144206  0.143920  1
  Rh  Rh21  1  0.142780  0.141462  0.571203  1
  Rh  Rh22  1  0.142685  0.571120  0.141552  1
  Rh  Rh23  1  0.573479  0.144519  0.144468  1
