# generated using pymatgen
data_Sc3ZnSn3Ru2
_symmetry_space_group_name_H-M   'P 1'
_cell_length_a   7.68254600
_cell_length_b   7.68254550
_cell_length_c   6.80325300
_cell_angle_alpha   90.00000000
_cell_angle_beta   90.00000000
_cell_angle_gamma   119.99999355
_symmetry_Int_Tables_number   1
_chemical_formula_structural   Sc3ZnSn3Ru2
_chemical_formula_sum   'Sc6 Zn2 Sn6 Ru4'
_cell_volume   347.74235589
_cell_formula_units_Z   2
loop_
 _symmetry_equiv_pos_site_id
 _symmetry_equiv_pos_as_xyz
  1  'x, y, z'
loop_
 _atom_site_type_symbol
 _atom_site_label
 _atom_site_symmetry_multiplicity
 _atom_site_fract_x
 _atom_site_fract_y
 _atom_site_fract_z
 _atom_site_occupancy
  Sc  Sc0  1  0.371330  0.972729  0.250000  1
  Sc  Sc1  1  0.601399  0.628670  0.250000  1
  Sc  Sc2  1  0.027271  0.398601  0.250000  1
  Sc  Sc3  1  0.370136  0.971607  0.750000  1
  Sc  Sc4  1  0.601471  0.629864  0.750000  1
  Sc  Sc5  1  0.028393  0.398529  0.750000  1
  Zn  Zn6  1  0.666667  0.333333  0.993037  1
  Zn  Zn7  1  0.666667  0.333333  0.506963  1
  Sn  Sn8  1  0.724405  0.008217  0.000164  1
  Sn  Sn9  1  0.283812  0.275595  0.499836  1
  Sn  Sn10  1  0.991783  0.716188  0.499836  1
  Sn  Sn11  1  0.991783  0.716188  0.000164  1
  Sn  Sn12  1  0.283812  0.275595  0.000164  1
  Sn  Sn13  1  0.724405  0.008217  0.499836  1
  Ru  Ru14  1  0.333333  0.666667  0.000536  1
  Ru  Ru15  1  0.333333  0.666667  0.499464  1
  Ru  Ru16  1  0.000000  0.000000  0.250000  1
  Ru  Ru17  1  0.000000  0.000000  0.750000  1
