# generated using pymatgen
data_Yb3YB15C
_symmetry_space_group_name_H-M   'P 1'
_cell_length_a   7.01330287
_cell_length_b   7.01330336
_cell_length_c   4.06857300
_cell_angle_alpha   90.00000000
_cell_angle_beta   90.00000000
_cell_angle_gamma   90.59792498
_symmetry_Int_Tables_number   1
_chemical_formula_structural   Yb3YB15C
_chemical_formula_sum   'Yb3 Y1 B15 C1'
_cell_volume   200.10764572
_cell_formula_units_Z   1
loop_
 _symmetry_equiv_pos_site_id
 _symmetry_equiv_pos_as_xyz
  1  'x, y, z'
loop_
 _atom_site_type_symbol
 _atom_site_label
 _atom_site_symmetry_multiplicity
 _atom_site_fract_x
 _atom_site_fract_y
 _atom_site_fract_z
 _atom_site_occupancy
  Yb  Yb0  1  0.817601  0.316619  0.000000  1
  Yb  Yb1  1  0.183381  0.682399  0.000000  1
  Yb  Yb2  1  0.676631  0.823369  0.000000  1
  Y  Y3  1  0.319818  0.180182  0.000000  1
  B  B4  1  0.505825  0.504179  0.796814  1
  B  B5  1  0.995821  0.994175  0.796814  1
  B  B6  1  0.505825  0.504179  0.203186  1
  B  B7  1  0.995821  0.994175  0.203186  1
  B  B8  1  0.078839  0.421161  0.500000  1
  B  B9  1  0.412498  0.915194  0.500000  1
  B  B10  1  0.584806  0.087502  0.500000  1
  B  B11  1  0.686078  0.540822  0.500000  1
  B  B12  1  0.325997  0.467222  0.500000  1
  B  B13  1  0.173882  0.958876  0.500000  1
  B  B14  1  0.821095  0.032485  0.500000  1
  B  B15  1  0.467515  0.678905  0.500000  1
  B  B16  1  0.541124  0.326118  0.500000  1
  B  B17  1  0.032778  0.174003  0.500000  1
  B  B18  1  0.959178  0.813922  0.500000  1
  C  C19  1  0.915486  0.584514  0.500000  1
