# generated using pymatgen
data_Sr8MgIn4Hg3
_symmetry_space_group_name_H-M   'P 1'
_cell_length_a   8.20268503
_cell_length_b   8.19539500
_cell_length_c   7.93564700
_cell_angle_alpha   90.00011885
_cell_angle_beta   90.00513398
_cell_angle_gamma   90.00007689
_symmetry_Int_Tables_number   1
_chemical_formula_structural   Sr8MgIn4Hg3
_chemical_formula_sum   'Sr8 Mg1 In4 Hg3'
_cell_volume   533.46786733
_cell_formula_units_Z   1
loop_
 _symmetry_equiv_pos_site_id
 _symmetry_equiv_pos_as_xyz
  1  'x, y, z'
loop_
 _atom_site_type_symbol
 _atom_site_label
 _atom_site_symmetry_multiplicity
 _atom_site_fract_x
 _atom_site_fract_y
 _atom_site_fract_z
 _atom_site_occupancy
  Sr  Sr0  1  0.502164  0.497744  0.244194  1
  Sr  Sr1  1  0.502396  0.002400  0.244061  1
  Sr  Sr2  1  0.997811  0.497914  0.248996  1
  Sr  Sr3  1  0.997550  0.002030  0.249348  1
  Sr  Sr4  1  0.997547  0.002150  0.750760  1
  Sr  Sr5  1  0.997768  0.498031  0.750979  1
  Sr  Sr6  1  0.502233  0.497914  0.755948  1
  Sr  Sr7  1  0.502397  0.002210  0.755966  1
  Mg  Mg8  1  0.256592  0.749816  0.499593  1
  In  In9  1  0.753890  0.750088  0.000158  1
  In  In10  1  0.745602  0.749962  0.499948  1
  In  In11  1  0.253458  0.249777  0.500220  1
  In  In12  1  0.246489  0.249550  0.999724  1
  Hg  Hg13  1  0.755667  0.250146  0.999993  1
  Hg  Hg14  1  0.244360  0.750147  0.000071  1
  Hg  Hg15  1  0.744077  0.250123  0.500039  1
