# generated using pymatgen
data_TbNd9Tm2(Si2Ni)4
_symmetry_space_group_name_H-M   'P 1'
_cell_length_a   4.18321300
_cell_length_b   11.73949532
_cell_length_c   11.40983635
_cell_angle_alpha   89.72943173
_cell_angle_beta   90.00000000
_cell_angle_gamma   90.00000000
_symmetry_Int_Tables_number   1
_chemical_formula_structural   TbNd9Tm2(Si2Ni)4
_chemical_formula_sum   'Tb1 Nd9 Tm2 Si8 Ni4'
_cell_volume   560.31723131
_cell_formula_units_Z   1
loop_
 _symmetry_equiv_pos_site_id
 _symmetry_equiv_pos_as_xyz
  1  'x, y, z'
loop_
 _atom_site_type_symbol
 _atom_site_label
 _atom_site_symmetry_multiplicity
 _atom_site_fract_x
 _atom_site_fract_y
 _atom_site_fract_z
 _atom_site_occupancy
  Tb  Tb0  1  0.750000  0.305397  0.788627  1
  Nd  Nd1  1  0.250000  0.058850  0.889504  1
  Nd  Nd2  1  0.250000  0.438044  0.380853  1
  Nd  Nd3  1  0.750000  0.938460  0.121100  1
  Nd  Nd4  1  0.750000  0.557234  0.609574  1
  Nd  Nd5  1  0.250000  0.123550  0.561802  1
  Nd  Nd6  1  0.250000  0.377655  0.060704  1
  Nd  Nd7  1  0.750000  0.878537  0.437551  1
  Nd  Nd8  1  0.750000  0.622266  0.938990  1
  Nd  Nd9  1  0.250000  0.802298  0.710030  1
  Tm  Tm10  1  0.250000  0.688619  0.206827  1
  Tm  Tm11  1  0.750000  0.192721  0.290381  1
  Si  Si12  1  0.250000  0.809505  0.975257  1
  Si  Si13  1  0.250000  0.688247  0.460480  1
  Si  Si14  1  0.750000  0.188691  0.034752  1
  Si  Si15  1  0.750000  0.309947  0.528359  1
  Si  Si16  1  0.250000  0.486135  0.799302  1
  Si  Si17  1  0.250000  0.020522  0.305293  1
  Si  Si18  1  0.750000  0.515887  0.195563  1
  Si  Si19  1  0.750000  0.989313  0.702252  1
  Ni  Ni20  1  0.250000  0.362671  0.631314  1
  Ni  Ni21  1  0.250000  0.140672  0.137448  1
  Ni  Ni22  1  0.750000  0.640123  0.360103  1
  Ni  Ni23  1  0.750000  0.864655  0.873934  1
