# generated using pymatgen
data_Ho3Tm2Lu11(Ga3Co)2
_symmetry_space_group_name_H-M   'P 1'
_cell_length_a   9.82043700
_cell_length_b   9.82279944
_cell_length_c   6.84946300
_cell_angle_alpha   90.00361943
_cell_angle_beta   90.00000000
_cell_angle_gamma   119.99204109
_symmetry_Int_Tables_number   1
_chemical_formula_structural   Ho3Tm2Lu11(Ga3Co)2
_chemical_formula_sum   'Ho3 Tm2 Lu11 Ga6 Co2'
_cell_volume   572.25298923
_cell_formula_units_Z   1
loop_
 _symmetry_equiv_pos_site_id
 _symmetry_equiv_pos_as_xyz
  1  'x, y, z'
loop_
 _atom_site_type_symbol
 _atom_site_label
 _atom_site_symmetry_multiplicity
 _atom_site_fract_x
 _atom_site_fract_y
 _atom_site_fract_z
 _atom_site_occupancy
  Ho  Ho0  1  0.535359  0.070718  0.708313  1
  Ho  Ho1  1  0.000059  0.000117  0.230958  1
  Ho  Ho2  1  0.999999  0.999998  0.731087  1
  Tm  Tm3  1  0.535722  0.464555  0.708029  1
  Tm  Tm4  1  0.928833  0.464555  0.708029  1
  Lu  Lu5  1  0.173983  0.825362  0.509550  1
  Lu  Lu6  1  0.651378  0.825362  0.509550  1
  Lu  Lu7  1  0.174416  0.348834  0.509927  1
  Lu  Lu8  1  0.825991  0.174521  0.012865  1
  Lu  Lu9  1  0.348531  0.174521  0.012865  1
  Lu  Lu10  1  0.825567  0.651132  0.012537  1
  Lu  Lu11  1  0.333169  0.666339  0.828047  1
  Lu  Lu12  1  0.666869  0.333738  0.327478  1
  Lu  Lu13  1  0.463496  0.536511  0.207173  1
  Lu  Lu14  1  0.073012  0.536511  0.207173  1
  Lu  Lu15  1  0.463333  0.926669  0.207244  1
  Ga  Ga16  1  0.163790  0.836125  0.959602  1
  Ga  Ga17  1  0.672335  0.836125  0.959602  1
  Ga  Ga18  1  0.163821  0.327641  0.959373  1
  Ga  Ga19  1  0.836696  0.163678  0.458547  1
  Ga  Ga20  1  0.326982  0.163678  0.458547  1
  Ga  Ga21  1  0.836363  0.672725  0.458912  1
  Co  Co22  1  0.333307  0.666615  0.443646  1
  Co  Co23  1  0.666986  0.333971  0.944985  1
