# generated using pymatgen
data_Tb4Hf5NbGe8
_symmetry_space_group_name_H-M   'P 1'
_cell_length_a   7.36565800
_cell_length_b   7.36565742
_cell_length_c   13.52338800
_cell_angle_alpha   90.00000000
_cell_angle_beta   90.00000000
_cell_angle_gamma   90.11125208
_symmetry_Int_Tables_number   1
_chemical_formula_structural   Tb4Hf5NbGe8
_chemical_formula_sum   'Tb8 Hf10 Nb2 Ge16'
_cell_volume   733.68181683
_cell_formula_units_Z   2
loop_
 _symmetry_equiv_pos_site_id
 _symmetry_equiv_pos_as_xyz
  1  'x, y, z'
loop_
 _atom_site_type_symbol
 _atom_site_label
 _atom_site_symmetry_multiplicity
 _atom_site_fract_x
 _atom_site_fract_y
 _atom_site_fract_z
 _atom_site_occupancy
  Tb  Tb0  1  0.998241  0.341477  0.216533  1
  Tb  Tb1  1  0.001759  0.658523  0.716533  1
  Tb  Tb2  1  0.157303  0.499002  0.468001  1
  Tb  Tb3  1  0.500998  0.842697  0.031999  1
  Tb  Tb4  1  0.842697  0.500998  0.968001  1
  Tb  Tb5  1  0.499002  0.157303  0.531999  1
  Tb  Tb6  1  0.341477  0.998241  0.783467  1
  Tb  Tb7  1  0.658523  0.001759  0.283467  1
  Hf  Hf8  1  0.325935  0.674065  0.250000  1
  Hf  Hf9  1  0.674065  0.325935  0.750000  1
  Hf  Hf10  1  0.152061  0.995795  0.376892  1
  Hf  Hf11  1  0.847939  0.004205  0.876892  1
  Hf  Hf12  1  0.506591  0.655848  0.623810  1
  Hf  Hf13  1  0.344152  0.493409  0.876190  1
  Hf  Hf14  1  0.493409  0.344152  0.123810  1
  Hf  Hf15  1  0.655848  0.506591  0.376190  1
  Hf  Hf16  1  0.995795  0.152061  0.623108  1
  Hf  Hf17  1  0.004205  0.847939  0.123108  1
  Nb  Nb18  1  0.172855  0.172855  0.000000  1
  Nb  Nb19  1  0.827145  0.827145  0.500000  1
  Ge  Ge20  1  0.365926  0.301097  0.321658  1
  Ge  Ge21  1  0.634074  0.698903  0.821658  1
  Ge  Ge22  1  0.198994  0.864993  0.571379  1
  Ge  Ge23  1  0.135007  0.801006  0.928621  1
  Ge  Ge24  1  0.801006  0.135007  0.071379  1
  Ge  Ge25  1  0.864993  0.198994  0.428621  1
  Ge  Ge26  1  0.301097  0.365926  0.678342  1
  Ge  Ge27  1  0.698903  0.634074  0.178342  1
  Ge  Ge28  1  0.295931  0.040564  0.181459  1
  Ge  Ge29  1  0.704069  0.959436  0.681459  1
  Ge  Ge30  1  0.460646  0.797318  0.432200  1
  Ge  Ge31  1  0.202682  0.539354  0.067800  1
  Ge  Ge32  1  0.539354  0.202682  0.932200  1
  Ge  Ge33  1  0.797318  0.460646  0.567800  1
  Ge  Ge34  1  0.040564  0.295931  0.818541  1
  Ge  Ge35  1  0.959436  0.704069  0.318541  1
