# generated using pymatgen
data_Li8Nd8Si7Sb
_symmetry_space_group_name_H-M   'P 1'
_cell_length_a   9.02504100
_cell_length_b   9.01863970
_cell_length_c   7.42579710
_cell_angle_alpha   90.08753858
_cell_angle_beta   90.00000000
_cell_angle_gamma   120.02348597
_symmetry_Int_Tables_number   1
_chemical_formula_structural   Li8Nd8Si7Sb
_chemical_formula_sum   'Li8 Nd8 Si7 Sb1'
_cell_volume   523.31167698
_cell_formula_units_Z   1
loop_
 _symmetry_equiv_pos_site_id
 _symmetry_equiv_pos_as_xyz
  1  'x, y, z'
loop_
 _atom_site_type_symbol
 _atom_site_label
 _atom_site_symmetry_multiplicity
 _atom_site_fract_x
 _atom_site_fract_y
 _atom_site_fract_z
 _atom_site_occupancy
  Li  Li0  1  0.166954  0.333906  0.283415  1
  Li  Li1  1  0.169319  0.833914  0.286607  1
  Li  Li2  1  0.664595  0.833914  0.286607  1
  Li  Li3  1  0.832939  0.665879  0.784930  1
  Li  Li4  1  0.825387  0.163155  0.789288  1
  Li  Li5  1  0.337768  0.163155  0.789288  1
  Li  Li6  1  0.336982  0.673965  0.666382  1
  Li  Li7  1  0.665791  0.331582  0.168988  1
  Nd  Nd8  1  0.512700  0.025403  0.495074  1
  Nd  Nd9  1  0.520648  0.491752  0.491373  1
  Nd  Nd10  1  0.971103  0.491752  0.491373  1
  Nd  Nd11  1  0.487253  0.974504  0.996777  1
  Nd  Nd12  1  0.496860  0.517037  0.000226  1
  Nd  Nd13  1  0.020177  0.517037  0.000226  1
  Nd  Nd14  1  0.994534  0.989069  0.497155  1
  Nd  Nd15  1  0.996828  0.993656  0.005410  1
  Si  Si16  1  0.166031  0.832768  0.728791  1
  Si  Si17  1  0.666735  0.832768  0.728791  1
  Si  Si18  1  0.833380  0.666760  0.230682  1
  Si  Si19  1  0.833995  0.167263  0.228926  1
  Si  Si20  1  0.333269  0.167263  0.228926  1
  Si  Si21  1  0.332894  0.665789  0.265344  1
  Si  Si22  1  0.667072  0.334142  0.765862  1
  Sb  Sb23  1  0.166785  0.333570  0.731532  1
