# generated using pymatgen
data_Lu4ZnPd3Pb2
_symmetry_space_group_name_H-M   'P 1'
_cell_length_a   7.89249600
_cell_length_b   7.89249595
_cell_length_c   3.59224000
_cell_angle_alpha   90.00000000
_cell_angle_beta   90.00000000
_cell_angle_gamma   89.87445366
_symmetry_Int_Tables_number   1
_chemical_formula_structural   Lu4ZnPd3Pb2
_chemical_formula_sum   'Lu4 Zn1 Pd3 Pb2'
_cell_volume   223.76545453
_cell_formula_units_Z   1
loop_
 _symmetry_equiv_pos_site_id
 _symmetry_equiv_pos_as_xyz
  1  'x, y, z'
loop_
 _atom_site_type_symbol
 _atom_site_label
 _atom_site_symmetry_multiplicity
 _atom_site_fract_x
 _atom_site_fract_y
 _atom_site_fract_z
 _atom_site_occupancy
  Lu  Lu0  1  0.330598  0.830598  0.500000  1
  Lu  Lu1  1  0.657478  0.157478  0.500000  1
  Lu  Lu2  1  0.181047  0.335876  0.500000  1
  Lu  Lu3  1  0.835876  0.681047  0.500000  1
  Zn  Zn4  1  0.877842  0.377842  0.000000  1
  Pd  Pd5  1  0.624333  0.870267  0.000000  1
  Pd  Pd6  1  0.370267  0.124333  0.000000  1
  Pd  Pd7  1  0.117232  0.617232  0.000000  1
  Pb  Pb8  1  0.504058  0.501267  0.000000  1
  Pb  Pb9  1  0.001267  0.004058  0.000000  1
