# generated using pymatgen
data_Nd6Tl7InHgS
_symmetry_space_group_name_H-M   'P 1'
_cell_length_a   8.57358472
_cell_length_b   8.56583597
_cell_length_c   8.57407772
_cell_angle_alpha   119.58680967
_cell_angle_beta   119.64357077
_cell_angle_gamma   90.63105011
_symmetry_Int_Tables_number   1
_chemical_formula_structural   Nd6Tl7InHgS
_chemical_formula_sum   'Nd6 Tl7 In1 Hg1 S1'
_cell_volume   447.95255716
_cell_formula_units_Z   1
loop_
 _symmetry_equiv_pos_site_id
 _symmetry_equiv_pos_as_xyz
  1  'x, y, z'
loop_
 _atom_site_type_symbol
 _atom_site_label
 _atom_site_symmetry_multiplicity
 _atom_site_fract_x
 _atom_site_fract_y
 _atom_site_fract_z
 _atom_site_occupancy
  Nd  Nd0  1  0.769819  0.770308  0.000584  1
  Nd  Nd1  1  0.229896  0.230644  0.000669  1
  Nd  Nd2  1  0.682026  0.143961  0.826162  1
  Nd  Nd3  1  0.317179  0.857285  0.175065  1
  Nd  Nd4  1  0.146335  0.316462  0.460996  1
  Nd  Nd5  1  0.855897  0.683164  0.540138  1
  Tl  Tl6  1  0.333069  0.804426  0.788799  1
  Tl  Tl7  1  0.665439  0.195274  0.211160  1
  Tl  Tl8  1  0.015931  0.545211  0.212173  1
  Tl  Tl9  1  0.803686  0.016570  0.471172  1
  Tl  Tl10  1  0.454562  0.663619  0.472276  1
  Tl  Tl11  1  0.981846  0.455193  0.788911  1
  Tl  Tl12  1  0.194544  0.983437  0.529206  1
  In  In13  1  0.550211  0.335808  0.525635  1
  Hg  Hg14  1  0.499703  0.498609  0.996943  1
  S  S15  1  0.999856  0.000028  0.000111  1
