# generated using pymatgen
data_Eu5CrWN7
_symmetry_space_group_name_H-M   'P 1'
_cell_length_a   6.30404682
_cell_length_b   8.90425685
_cell_length_c   9.02329700
_cell_angle_alpha   114.58919323
_cell_angle_beta   96.63229669
_cell_angle_gamma   89.60854786
_symmetry_Int_Tables_number   1
_chemical_formula_structural   Eu5CrWN7
_chemical_formula_sum   'Eu10 Cr2 W2 N14'
_cell_volume   457.01189709
_cell_formula_units_Z   2
loop_
 _symmetry_equiv_pos_site_id
 _symmetry_equiv_pos_as_xyz
  1  'x, y, z'
loop_
 _atom_site_type_symbol
 _atom_site_label
 _atom_site_symmetry_multiplicity
 _atom_site_fract_x
 _atom_site_fract_y
 _atom_site_fract_z
 _atom_site_occupancy
  Eu  Eu0  1  0.852621  0.585425  0.337806  1
  Eu  Eu1  1  0.265547  0.977274  0.557622  1
  Eu  Eu2  1  0.697694  0.410862  0.843803  1
  Eu  Eu3  1  0.302306  0.589138  0.156197  1
  Eu  Eu4  1  0.398661  0.786941  0.910286  1
  Eu  Eu5  1  0.601339  0.213059  0.089714  1
  Eu  Eu6  1  0.147379  0.414575  0.662194  1
  Eu  Eu7  1  0.877509  0.837993  0.749506  1
  Eu  Eu8  1  0.122491  0.162007  0.250494  1
  Eu  Eu9  1  0.734453  0.022726  0.442378  1
  Cr  Cr10  1  0.575794  0.363548  0.476332  1
  Cr  Cr11  1  0.424206  0.636452  0.523668  1
  W  W12  1  0.119089  0.216669  0.915366  1
  W  W13  1  0.880911  0.783331  0.084634  1
  N  N14  1  0.547874  0.555465  0.672638  1
  N  N15  1  0.452126  0.444535  0.327362  1
  N  N16  1  0.164485  0.697749  0.570250  1
  N  N17  1  0.835515  0.302251  0.429750  1
  N  N18  1  0.421141  0.199945  0.480172  1
  N  N19  1  0.578859  0.800055  0.519828  1
  N  N20  1  0.945077  0.131462  0.708788  1
  N  N21  1  0.054923  0.868538  0.291212  1
  N  N22  1  0.237811  0.048460  0.969332  1
  N  N23  1  0.762189  0.951540  0.030668  1
  N  N24  1  0.359246  0.334612  0.902636  1
  N  N25  1  0.963865  0.354229  0.086534  1
  N  N26  1  0.036135  0.645771  0.913466  1
  N  N27  1  0.640754  0.665388  0.097364  1
