# generated using pymatgen
data_TbLu3(CuP)6
_symmetry_space_group_name_H-M   'P 1'
_cell_length_a   3.82271500
_cell_length_b   10.61948700
_cell_length_c   12.89611400
_cell_angle_alpha   90.00000000
_cell_angle_beta   90.00000000
_cell_angle_gamma   90.00000000
_symmetry_Int_Tables_number   1
_chemical_formula_structural   TbLu3(CuP)6
_chemical_formula_sum   'Tb2 Lu6 Cu12 P12'
_cell_volume   523.52125876
_cell_formula_units_Z   2
loop_
 _symmetry_equiv_pos_site_id
 _symmetry_equiv_pos_as_xyz
  1  'x, y, z'
loop_
 _atom_site_type_symbol
 _atom_site_label
 _atom_site_symmetry_multiplicity
 _atom_site_fract_x
 _atom_site_fract_y
 _atom_site_fract_z
 _atom_site_occupancy
  Tb  Tb0  1  0.250000  0.931437  0.792105  1
  Tb  Tb1  1  0.750000  0.431437  0.707895  1
  Lu  Lu2  1  0.250000  0.569277  0.291554  1
  Lu  Lu3  1  0.750000  0.069277  0.208446  1
  Lu  Lu4  1  0.250000  0.840453  0.502868  1
  Lu  Lu5  1  0.750000  0.340453  0.997132  1
  Lu  Lu6  1  0.250000  0.658771  0.004420  1
  Lu  Lu7  1  0.750000  0.158771  0.495580  1
  Cu  Cu8  1  0.250000  0.405593  0.511917  1
  Cu  Cu9  1  0.750000  0.905593  0.988083  1
  Cu  Cu10  1  0.250000  0.094281  0.013745  1
  Cu  Cu11  1  0.750000  0.594281  0.486255  1
  Cu  Cu12  1  0.250000  0.272193  0.331194  1
  Cu  Cu13  1  0.750000  0.772193  0.168806  1
  Cu  Cu14  1  0.250000  0.228733  0.831876  1
  Cu  Cu15  1  0.750000  0.728733  0.668124  1
  Cu  Cu16  1  0.250000  0.859875  0.282076  1
  Cu  Cu17  1  0.750000  0.359875  0.217924  1
  Cu  Cu18  1  0.250000  0.640610  0.783139  1
  Cu  Cu19  1  0.750000  0.140610  0.716861  1
  P  P20  1  0.250000  0.241628  0.639989  1
  P  P21  1  0.750000  0.741628  0.860011  1
  P  P22  1  0.250000  0.255616  0.141423  1
  P  P23  1  0.750000  0.755616  0.358577  1
  P  P24  1  0.250000  0.607022  0.602144  1
  P  P25  1  0.750000  0.107022  0.897856  1
  P  P26  1  0.250000  0.894485  0.102619  1
  P  P27  1  0.750000  0.394485  0.397381  1
  P  P28  1  0.250000  0.056437  0.369860  1
  P  P29  1  0.750000  0.556437  0.130140  1
  P  P30  1  0.250000  0.443587  0.873290  1
  P  P31  1  0.750000  0.943587  0.626710  1
