# generated using pymatgen
data_BaAcSiN3
_symmetry_space_group_name_H-M   'P 1'
_cell_length_a   6.42341469
_cell_length_b   6.42341566
_cell_length_c   12.45549900
_cell_angle_alpha   90.00000000
_cell_angle_beta   90.00000000
_cell_angle_gamma   127.56688746
_symmetry_Int_Tables_number   1
_chemical_formula_structural   BaAcSiN3
_chemical_formula_sum   'Ba4 Ac4 Si4 N12'
_cell_volume   407.35239015
_cell_formula_units_Z   4
loop_
 _symmetry_equiv_pos_site_id
 _symmetry_equiv_pos_as_xyz
  1  'x, y, z'
loop_
 _atom_site_type_symbol
 _atom_site_label
 _atom_site_symmetry_multiplicity
 _atom_site_fract_x
 _atom_site_fract_y
 _atom_site_fract_z
 _atom_site_occupancy
  Ba  Ba0  1  0.045249  0.954751  0.854029  1
  Ba  Ba1  1  0.954751  0.045249  0.145971  1
  Ba  Ba2  1  0.454751  0.545249  0.354029  1
  Ba  Ba3  1  0.545249  0.454751  0.645971  1
  Ac  Ac4  1  0.649577  0.350423  0.076806  1
  Ac  Ac5  1  0.350423  0.649577  0.923194  1
  Ac  Ac6  1  0.850423  0.149577  0.576806  1
  Ac  Ac7  1  0.149577  0.850423  0.423194  1
  Si  Si8  1  0.729695  0.270305  0.832498  1
  Si  Si9  1  0.270305  0.729695  0.167502  1
  Si  Si10  1  0.770305  0.229695  0.332498  1
  Si  Si11  1  0.229695  0.770305  0.667502  1
  N  N12  1  0.581079  0.418921  0.873698  1
  N  N13  1  0.418921  0.581079  0.126302  1
  N  N14  1  0.918921  0.081079  0.373698  1
  N  N15  1  0.081079  0.918921  0.626302  1
  N  N16  1  0.511287  0.988713  0.750000  1
  N  N17  1  0.988713  0.511287  0.250000  1
  N  N18  1  0.488713  0.011287  0.250000  1
  N  N19  1  0.011287  0.488713  0.750000  1
  N  N20  1  0.822666  0.177334  0.944341  1
  N  N21  1  0.177334  0.822666  0.055659  1
  N  N22  1  0.677334  0.322666  0.444341  1
  N  N23  1  0.322666  0.677334  0.555659  1
