# generated using pymatgen
data_Eu2Zn21Pd
_symmetry_space_group_name_H-M   'P 1'
_cell_length_a   8.34817452
_cell_length_b   8.40916729
_cell_length_c   8.40916790
_cell_angle_alpha   99.90265044
_cell_angle_beta   99.79681819
_cell_angle_gamma   131.59953146
_symmetry_Int_Tables_number   1
_chemical_formula_structural   Eu2Zn21Pd
_chemical_formula_sum   'Eu2 Zn21 Pd1'
_cell_volume   401.17786090
_cell_formula_units_Z   1
loop_
 _symmetry_equiv_pos_site_id
 _symmetry_equiv_pos_as_xyz
  1  'x, y, z'
loop_
 _atom_site_type_symbol
 _atom_site_label
 _atom_site_symmetry_multiplicity
 _atom_site_fract_x
 _atom_site_fract_y
 _atom_site_fract_z
 _atom_site_occupancy
  Eu  Eu0  1  0.998400  0.000566  0.997834  1
  Eu  Eu1  1  0.251600  0.749434  0.502166  1
  Zn  Zn2  1  0.747596  0.254749  0.492847  1
  Zn  Zn3  1  0.502404  0.495251  0.007153  1
  Zn  Zn4  1  0.125000  0.375000  0.750000  1
  Zn  Zn5  1  0.625000  0.875000  0.250000  1
  Zn  Zn6  1  0.625000  0.375000  0.750000  1
  Zn  Zn7  1  0.182597  0.511284  0.085003  1
  Zn  Zn8  1  0.182597  0.097594  0.671313  1
  Zn  Zn9  1  0.759658  0.933215  0.583896  1
  Zn  Zn10  1  0.759658  0.175763  0.826443  1
  Zn  Zn11  1  0.426622  0.508797  0.326558  1
  Zn  Zn12  1  0.426622  0.100064  0.917825  1
  Zn  Zn13  1  0.346688  0.932983  0.171195  1
  Zn  Zn14  1  0.346688  0.175493  0.413705  1
  Zn  Zn15  1  0.067403  0.238716  0.414997  1
  Zn  Zn16  1  0.067403  0.652406  0.828687  1
  Zn  Zn17  1  0.490342  0.816785  0.916104  1
  Zn  Zn18  1  0.490342  0.574237  0.673557  1
  Zn  Zn19  1  0.823378  0.241203  0.173442  1
  Zn  Zn20  1  0.823378  0.649936  0.582175  1
  Zn  Zn21  1  0.903312  0.817017  0.328805  1
  Zn  Zn22  1  0.903312  0.574507  0.086295  1
  Pd  Pd23  1  0.625000  0.375000  0.250000  1
