# generated using pymatgen
data_CsNaCd3O4
_symmetry_space_group_name_H-M   'P 1'
_cell_length_a   6.87356261
_cell_length_b   6.87356215
_cell_length_c   9.33923475
_cell_angle_alpha   47.15897087
_cell_angle_beta   47.15897428
_cell_angle_gamma   32.23952004
_symmetry_Int_Tables_number   1
_chemical_formula_structural   CsNaCd3O4
_chemical_formula_sum   'Cs1 Na1 Cd3 O4'
_cell_volume   166.27950317
_cell_formula_units_Z   1
loop_
 _symmetry_equiv_pos_site_id
 _symmetry_equiv_pos_as_xyz
  1  'x, y, z'
loop_
 _atom_site_type_symbol
 _atom_site_label
 _atom_site_symmetry_multiplicity
 _atom_site_fract_x
 _atom_site_fract_y
 _atom_site_fract_z
 _atom_site_occupancy
  Cs  Cs0  1  0.995823  0.995823  0.004158  1
  Na  Na1  1  0.178620  0.178620  0.450842  1
  Cd  Cd2  1  0.807416  0.807416  0.556012  1
  Cd  Cd3  1  0.378478  0.378478  0.802751  1
  Cd  Cd4  1  0.631187  0.631187  0.189985  1
  O  O5  1  0.233952  0.233952  0.152358  1
  O  O6  1  0.773115  0.773115  0.827605  1
  O  O7  1  0.600459  0.600459  0.640732  1
  O  O8  1  0.400948  0.400948  0.375557  1
