# generated using pymatgen
data_Ca9Tb9(NdSn8)2
_symmetry_space_group_name_H-M   'P 1'
_cell_length_a   7.90769968
_cell_length_b   8.43342489
_cell_length_c   15.92615024
_cell_angle_alpha   89.96127712
_cell_angle_beta   90.18768293
_cell_angle_gamma   90.08605632
_symmetry_Int_Tables_number   1
_chemical_formula_structural   Ca9Tb9(NdSn8)2
_chemical_formula_sum   'Ca9 Tb9 Nd2 Sn16'
_cell_volume   1062.09175950
_cell_formula_units_Z   1
loop_
 _symmetry_equiv_pos_site_id
 _symmetry_equiv_pos_as_xyz
  1  'x, y, z'
loop_
 _atom_site_type_symbol
 _atom_site_label
 _atom_site_symmetry_multiplicity
 _atom_site_fract_x
 _atom_site_fract_y
 _atom_site_fract_z
 _atom_site_occupancy
  Ca  Ca0  1  0.999380  0.183669  0.407290  1
  Ca  Ca1  1  0.331558  0.828887  0.122515  1
  Ca  Ca2  1  0.167156  0.328241  0.622264  1
  Ca  Ca3  1  0.499745  0.681780  0.907159  1
  Ca  Ca4  1  0.831631  0.672489  0.122597  1
  Ca  Ca5  1  0.161873  0.496613  0.248520  1
  Ca  Ca6  1  0.665087  0.003652  0.248929  1
  Ca  Ca7  1  0.338016  0.995842  0.749721  1
  Ca  Ca8  1  0.834046  0.505410  0.750489  1
  Tb  Tb9  1  0.168422  0.329951  0.875711  1
  Tb  Tb10  1  0.505181  0.683482  0.593358  1
  Tb  Tb11  1  0.668603  0.173111  0.624920  1
  Tb  Tb12  1  0.833353  0.672813  0.376121  1
  Tb  Tb13  1  0.991283  0.187339  0.093214  1
  Tb  Tb14  1  0.007299  0.812965  0.903572  1
  Tb  Tb15  1  0.668023  0.170859  0.876566  1
  Tb  Tb16  1  0.491581  0.312538  0.096352  1
  Tb  Tb17  1  0.333578  0.828818  0.374913  1
  Nd  Nd18  1  0.007932  0.814257  0.595596  1
  Nd  Nd19  1  0.495163  0.316482  0.405312  1
  Sn  Sn20  1  0.821562  0.467068  0.538827  1
  Sn  Sn21  1  0.673925  0.962687  0.462299  1
  Sn  Sn22  1  0.708523  0.863230  0.750184  1
  Sn  Sn23  1  0.176622  0.542342  0.461822  1
  Sn  Sn24  1  0.323195  0.040256  0.961249  1
  Sn  Sn25  1  0.789357  0.360758  0.250189  1
  Sn  Sn26  1  0.828248  0.463058  0.960683  1
  Sn  Sn27  1  0.532481  0.605696  0.250819  1
  Sn  Sn28  1  0.171170  0.529298  0.038785  1
  Sn  Sn29  1  0.466620  0.385870  0.750073  1
  Sn  Sn30  1  0.209208  0.640699  0.750140  1
  Sn  Sn31  1  0.968039  0.103993  0.751515  1
  Sn  Sn32  1  0.333325  0.029721  0.539387  1
  Sn  Sn33  1  0.673989  0.972467  0.039806  1
  Sn  Sn34  1  0.290762  0.140225  0.248589  1
  Sn  Sn35  1  0.034062  0.893435  0.250514  1
