# generated using pymatgen
data_CsCu2(PO4)2
_symmetry_space_group_name_H-M   'P 1'
_cell_length_a   5.65997543
_cell_length_b   7.08111725
_cell_length_c   6.07882933
_cell_angle_alpha   106.22644463
_cell_angle_beta   89.38601087
_cell_angle_gamma   113.25576880
_symmetry_Int_Tables_number   1
_chemical_formula_structural   CsCu2(PO4)2
_chemical_formula_sum   'Cs1 Cu2 P2 O8'
_cell_volume   213.54694174
_cell_formula_units_Z   1
loop_
 _symmetry_equiv_pos_site_id
 _symmetry_equiv_pos_as_xyz
  1  'x, y, z'
loop_
 _atom_site_type_symbol
 _atom_site_label
 _atom_site_symmetry_multiplicity
 _atom_site_fract_x
 _atom_site_fract_y
 _atom_site_fract_z
 _atom_site_occupancy
  Cs  Cs0  1  0.000000  0.000000  0.000000  1
  Cu  Cu1  1  0.248531  0.638631  0.297075  1
  Cu  Cu2  1  0.751469  0.361369  0.702925  1
  P  P3  1  0.305506  0.558277  0.767476  1
  P  P4  1  0.694494  0.441723  0.232524  1
  O  O5  1  0.292198  0.701989  0.618880  1
  O  O6  1  0.707802  0.298011  0.381120  1
  O  O7  1  0.294055  0.698945  0.013067  1
  O  O8  1  0.705945  0.301055  0.986933  1
  O  O9  1  0.433214  0.461623  0.240516  1
  O  O10  1  0.077611  0.331242  0.694544  1
  O  O11  1  0.922389  0.668758  0.305456  1
  O  O12  1  0.566786  0.538377  0.759484  1
