# generated using pymatgen
data_Sc12Tc3Bi2
_symmetry_space_group_name_H-M   'P 1'
_cell_length_a   8.01674834
_cell_length_b   8.01674856
_cell_length_c   8.01674796
_cell_angle_alpha   109.70595652
_cell_angle_beta   109.70596026
_cell_angle_gamma   109.00276113
_symmetry_Int_Tables_number   1
_chemical_formula_structural   Sc12Tc3Bi2
_chemical_formula_sum   'Sc12 Tc3 Bi2'
_cell_volume   396.59851477
_cell_formula_units_Z   1
loop_
 _symmetry_equiv_pos_site_id
 _symmetry_equiv_pos_as_xyz
  1  'x, y, z'
loop_
 _atom_site_type_symbol
 _atom_site_label
 _atom_site_symmetry_multiplicity
 _atom_site_fract_x
 _atom_site_fract_y
 _atom_site_fract_z
 _atom_site_occupancy
  Sc  Sc0  1  0.318624  0.318624  0.637249  1
  Sc  Sc1  1  0.681376  0.681376  0.362751  1
  Sc  Sc2  1  0.681376  0.318624  0.000000  1
  Sc  Sc3  1  0.318624  0.681376  0.000000  1
  Sc  Sc4  1  0.186854  0.424302  0.237449  1
  Sc  Sc5  1  0.813146  0.575698  0.762551  1
  Sc  Sc6  1  0.186854  0.949404  0.762551  1
  Sc  Sc7  1  0.949404  0.186854  0.762551  1
  Sc  Sc8  1  0.813146  0.050596  0.237449  1
  Sc  Sc9  1  0.050596  0.813146  0.237449  1
  Sc  Sc10  1  0.424302  0.186854  0.237449  1
  Sc  Sc11  1  0.575698  0.813146  0.762551  1
  Tc  Tc12  1  0.342620  0.342620  0.000000  1
  Tc  Tc13  1  0.657380  0.657380  0.000000  1
  Tc  Tc14  1  0.000000  0.000000  0.000000  1
  Bi  Bi15  1  0.000000  0.500000  0.500000  1
  Bi  Bi16  1  0.500000  0.000000  0.500000  1
