# generated using pymatgen
data_Y2Hf3Sc3(P3Ir4)4
_symmetry_space_group_name_H-M   'P 1'
_cell_length_a   12.83176400
_cell_length_b   12.83176348
_cell_length_c   3.93557200
_cell_angle_alpha   90.00000000
_cell_angle_beta   90.00000000
_cell_angle_gamma   120.00000134
_symmetry_Int_Tables_number   1
_chemical_formula_structural   Y2Hf3Sc3(P3Ir4)4
_chemical_formula_sum   'Y2 Hf3 Sc3 P12 Ir16'
_cell_volume   561.19164599
_cell_formula_units_Z   1
loop_
 _symmetry_equiv_pos_site_id
 _symmetry_equiv_pos_as_xyz
  1  'x, y, z'
loop_
 _atom_site_type_symbol
 _atom_site_label
 _atom_site_symmetry_multiplicity
 _atom_site_fract_x
 _atom_site_fract_y
 _atom_site_fract_z
 _atom_site_occupancy
  Y  Y0  1  0.333333  0.666667  0.000000  1
  Y  Y1  1  0.666667  0.333333  0.000000  1
  Hf  Hf2  1  0.450226  0.000000  0.000000  1
  Hf  Hf3  1  0.000000  0.450226  0.000000  1
  Hf  Hf4  1  0.549774  0.549774  0.000000  1
  Sc  Sc5  1  0.816745  0.000000  0.500000  1
  Sc  Sc6  1  0.000000  0.816745  0.500000  1
  Sc  Sc7  1  0.183255  0.183255  0.500000  1
  P  P8  1  0.172922  0.000000  0.000000  1
  P  P9  1  0.000000  0.172922  0.000000  1
  P  P10  1  0.827078  0.827078  0.000000  1
  P  P11  1  0.169438  0.481688  0.500000  1
  P  P12  1  0.518312  0.687749  0.500000  1
  P  P13  1  0.312251  0.830562  0.500000  1
  P  P14  1  0.687749  0.518312  0.500000  1
  P  P15  1  0.830562  0.312251  0.500000  1
  P  P16  1  0.481688  0.169438  0.500000  1
  P  P17  1  0.653574  0.000000  0.000000  1
  P  P18  1  0.000000  0.653574  0.000000  1
  P  P19  1  0.346426  0.346426  0.000000  1
  Ir  Ir20  1  0.358711  0.492932  0.500000  1
  Ir  Ir21  1  0.507068  0.865779  0.500000  1
  Ir  Ir22  1  0.134221  0.641289  0.500000  1
  Ir  Ir23  1  0.865779  0.507068  0.500000  1
  Ir  Ir24  1  0.641289  0.134221  0.500000  1
  Ir  Ir25  1  0.492932  0.358711  0.500000  1
  Ir  Ir26  1  0.177202  0.367563  0.000000  1
  Ir  Ir27  1  0.632437  0.809640  0.000000  1
  Ir  Ir28  1  0.190360  0.822798  0.000000  1
  Ir  Ir29  1  0.809640  0.632437  0.000000  1
  Ir  Ir30  1  0.822798  0.190360  0.000000  1
  Ir  Ir31  1  0.367563  0.177202  0.000000  1
  Ir  Ir32  1  0.278986  0.000000  0.500000  1
  Ir  Ir33  1  0.000000  0.278986  0.500000  1
  Ir  Ir34  1  0.721014  0.721014  0.500000  1
  Ir  Ir35  1  0.000000  0.000000  0.000000  1
