# generated using pymatgen
data_Be9Co2
_symmetry_space_group_name_H-M   'P 1'
_cell_length_a   4.17792289
_cell_length_b   3.48941407
_cell_length_c   6.81374366
_cell_angle_alpha   89.96406724
_cell_angle_beta   95.00724088
_cell_angle_gamma   65.31801386
_symmetry_Int_Tables_number   1
_chemical_formula_structural   Be9Co2
_chemical_formula_sum   'Be9 Co2'
_cell_volume   89.83905364
_cell_formula_units_Z   1
loop_
 _symmetry_equiv_pos_site_id
 _symmetry_equiv_pos_as_xyz
  1  'x, y, z'
loop_
 _atom_site_type_symbol
 _atom_site_label
 _atom_site_symmetry_multiplicity
 _atom_site_fract_x
 _atom_site_fract_y
 _atom_site_fract_z
 _atom_site_occupancy
  Be  Be0  1  0.540641  0.731129  0.010931  1
  Be  Be1  1  0.719290  0.638371  0.636311  1
  Be  Be2  1  0.994229  0.002704  0.104257  1
  Be  Be3  1  0.640471  0.179604  0.826531  1
  Be  Be4  1  0.443239  0.281129  0.195088  1
  Be  Be5  1  0.796483  0.099991  0.463108  1
  Be  Be6  1  0.180280  0.911258  0.743721  1
  Be  Be7  1  0.341465  0.831790  0.383193  1
  Be  Be8  1  0.260758  0.372123  0.573348  1
  Co  Co9  1  0.898742  0.550420  0.289683  1
  Co  Co10  1  0.083948  0.458397  0.917971  1
