# generated using pymatgen
data_Tm10SiSn6Ge
_symmetry_space_group_name_H-M   'P 1'
_cell_length_a   9.10868200
_cell_length_b   9.10868336
_cell_length_c   6.39074300
_cell_angle_alpha   90.00000000
_cell_angle_beta   90.00000000
_cell_angle_gamma   120.00000232
_symmetry_Int_Tables_number   1
_chemical_formula_structural   Tm10SiSn6Ge
_chemical_formula_sum   'Tm10 Si1 Sn6 Ge1'
_cell_volume   459.19073847
_cell_formula_units_Z   1
loop_
 _symmetry_equiv_pos_site_id
 _symmetry_equiv_pos_as_xyz
  1  'x, y, z'
loop_
 _atom_site_type_symbol
 _atom_site_label
 _atom_site_symmetry_multiplicity
 _atom_site_fract_x
 _atom_site_fract_y
 _atom_site_fract_z
 _atom_site_occupancy
  Tm  Tm0  1  0.666667  0.333333  0.000000  1
  Tm  Tm1  1  0.333333  0.666667  0.000000  1
  Tm  Tm2  1  0.333333  0.666667  0.500000  1
  Tm  Tm3  1  0.666667  0.333333  0.500000  1
  Tm  Tm4  1  0.746253  0.746253  0.749037  1
  Tm  Tm5  1  0.253747  0.000000  0.749037  1
  Tm  Tm6  1  0.000000  0.253747  0.749037  1
  Tm  Tm7  1  0.253747  0.253747  0.250963  1
  Tm  Tm8  1  0.746253  0.000000  0.250963  1
  Tm  Tm9  1  0.000000  0.746253  0.250963  1
  Si  Si10  1  0.000000  0.000000  0.500000  1
  Sn  Sn11  1  0.392861  0.392861  0.750193  1
  Sn  Sn12  1  0.607139  0.000000  0.750193  1
  Sn  Sn13  1  0.000000  0.607139  0.750193  1
  Sn  Sn14  1  0.607139  0.607139  0.249807  1
  Sn  Sn15  1  0.392861  0.000000  0.249807  1
  Sn  Sn16  1  0.000000  0.392861  0.249807  1
  Ge  Ge17  1  0.000000  0.000000  0.000000  1
