# generated using pymatgen
data_Rb5Sc(PSe3)4
_symmetry_space_group_name_H-M   'P 1'
_cell_length_a   13.88730200
_cell_length_b   13.88730200
_cell_length_c   7.57234100
_cell_angle_alpha   90.00000000
_cell_angle_beta   90.00000000
_cell_angle_gamma   90.00000000
_symmetry_Int_Tables_number   1
_chemical_formula_structural   Rb5Sc(PSe3)4
_chemical_formula_sum   'Rb10 Sc2 P8 Se24'
_cell_volume   1460.38015588
_cell_formula_units_Z   2
loop_
 _symmetry_equiv_pos_site_id
 _symmetry_equiv_pos_as_xyz
  1  'x, y, z'
loop_
 _atom_site_type_symbol
 _atom_site_label
 _atom_site_symmetry_multiplicity
 _atom_site_fract_x
 _atom_site_fract_y
 _atom_site_fract_z
 _atom_site_occupancy
  Rb  Rb0  1  0.000000  0.000000  0.500000  1
  Rb  Rb1  1  0.000000  0.000000  0.000000  1
  Rb  Rb2  1  0.315094  0.339812  0.500000  1
  Rb  Rb3  1  0.684906  0.660188  0.500000  1
  Rb  Rb4  1  0.660188  0.315094  0.000000  1
  Rb  Rb5  1  0.339812  0.684906  0.000000  1
  Rb  Rb6  1  0.314107  0.972474  0.500000  1
  Rb  Rb7  1  0.685893  0.027526  0.500000  1
  Rb  Rb8  1  0.027526  0.314107  0.000000  1
  Rb  Rb9  1  0.972474  0.685893  0.000000  1
  Sc  Sc10  1  0.000000  0.500000  0.500000  1
  Sc  Sc11  1  0.500000  0.000000  0.000000  1
  P  P12  1  0.202165  0.607480  0.500000  1
  P  P13  1  0.797835  0.392520  0.500000  1
  P  P14  1  0.392520  0.202165  0.000000  1
  P  P15  1  0.607480  0.797835  0.000000  1
  P  P16  1  0.113337  0.746930  0.500000  1
  P  P17  1  0.886663  0.253070  0.500000  1
  P  P18  1  0.253070  0.113337  0.000000  1
  P  P19  1  0.746930  0.886663  0.000000  1
  Se  Se20  1  0.150162  0.824481  0.258246  1
  Se  Se21  1  0.849838  0.175519  0.258246  1
  Se  Se22  1  0.175519  0.150162  0.758246  1
  Se  Se23  1  0.824481  0.849838  0.758246  1
  Se  Se24  1  0.849838  0.175519  0.741754  1
  Se  Se25  1  0.150162  0.824481  0.741754  1
  Se  Se26  1  0.824481  0.849838  0.241754  1
  Se  Se27  1  0.175519  0.150162  0.241754  1
  Se  Se28  1  0.037480  0.310007  0.500000  1
  Se  Se29  1  0.962520  0.689993  0.500000  1
  Se  Se30  1  0.689993  0.037480  0.000000  1
  Se  Se31  1  0.310007  0.962520  0.000000  1
  Se  Se32  1  0.354924  0.630880  0.500000  1
  Se  Se33  1  0.645076  0.369120  0.500000  1
  Se  Se34  1  0.369120  0.354924  0.000000  1
  Se  Se35  1  0.630880  0.645076  0.000000  1
  Se  Se36  1  0.147751  0.528086  0.262946  1
  Se  Se37  1  0.852249  0.471914  0.262946  1
  Se  Se38  1  0.471914  0.147751  0.762946  1
  Se  Se39  1  0.528086  0.852249  0.762946  1
  Se  Se40  1  0.852249  0.471914  0.737054  1
  Se  Se41  1  0.147751  0.528086  0.737054  1
  Se  Se42  1  0.528086  0.852249  0.237054  1
  Se  Se43  1  0.471914  0.147751  0.237054  1
