# generated using pymatgen
data_Tb8Ho7Lu(Ga3Co)2
_symmetry_space_group_name_H-M   'P 1'
_cell_length_a   9.99596300
_cell_length_b   9.99596284
_cell_length_c   6.97750500
_cell_angle_alpha   90.00000000
_cell_angle_beta   90.00000000
_cell_angle_gamma   119.99999721
_symmetry_Int_Tables_number   1
_chemical_formula_structural   Tb8Ho7Lu(Ga3Co)2
_chemical_formula_sum   'Tb8 Ho7 Lu1 Ga6 Co2'
_cell_volume   603.78187710
_cell_formula_units_Z   1
loop_
 _symmetry_equiv_pos_site_id
 _symmetry_equiv_pos_as_xyz
  1  'x, y, z'
loop_
 _atom_site_type_symbol
 _atom_site_label
 _atom_site_symmetry_multiplicity
 _atom_site_fract_x
 _atom_site_fract_y
 _atom_site_fract_z
 _atom_site_occupancy
  Tb  Tb0  1  0.536088  0.072174  0.791313  1
  Tb  Tb1  1  0.927826  0.463912  0.791313  1
  Tb  Tb2  1  0.536088  0.463912  0.791313  1
  Tb  Tb3  1  0.463523  0.927048  0.292030  1
  Tb  Tb4  1  0.072952  0.536477  0.292030  1
  Tb  Tb5  1  0.463523  0.536477  0.292030  1
  Tb  Tb6  1  0.000000  0.000000  0.769568  1
  Tb  Tb7  1  0.000000  0.000000  0.269044  1
  Ho  Ho8  1  0.826999  0.653999  0.487997  1
  Ho  Ho9  1  0.346001  0.173001  0.487997  1
  Ho  Ho10  1  0.826999  0.173001  0.487997  1
  Ho  Ho11  1  0.173471  0.346941  0.987065  1
  Ho  Ho12  1  0.653059  0.826529  0.987065  1
  Ho  Ho13  1  0.173471  0.826529  0.987065  1
  Ho  Ho14  1  0.666667  0.333333  0.172732  1
  Lu  Lu15  1  0.333333  0.666667  0.674855  1
  Ga  Ga16  1  0.836302  0.672607  0.042735  1
  Ga  Ga17  1  0.327393  0.163698  0.042735  1
  Ga  Ga18  1  0.836302  0.163698  0.042735  1
  Ga  Ga19  1  0.164334  0.328666  0.543323  1
  Ga  Ga20  1  0.671334  0.835666  0.543323  1
  Ga  Ga21  1  0.164334  0.835666  0.543323  1
  Co  Co22  1  0.666667  0.333333  0.553002  1
  Co  Co23  1  0.333333  0.666667  0.053484  1
