# generated using pymatgen
data_UNbBr10
_symmetry_space_group_name_H-M   'P 1'
_cell_length_a   7.25100075
_cell_length_b   7.85321850
_cell_length_c   10.51966399
_cell_angle_alpha   109.54001383
_cell_angle_beta   90.91017773
_cell_angle_gamma   116.17832980
_symmetry_Int_Tables_number   1
_chemical_formula_structural   UNbBr10
_chemical_formula_sum   'U1 Nb1 Br10'
_cell_volume   497.07281403
_cell_formula_units_Z   1
loop_
 _symmetry_equiv_pos_site_id
 _symmetry_equiv_pos_as_xyz
  1  'x, y, z'
loop_
 _atom_site_type_symbol
 _atom_site_label
 _atom_site_symmetry_multiplicity
 _atom_site_fract_x
 _atom_site_fract_y
 _atom_site_fract_z
 _atom_site_occupancy
  U  U0  1  0.097334  0.201279  0.703286  1
  Nb  Nb1  1  0.893552  0.779742  0.277795  1
  Br  Br2  1  0.886841  0.381680  0.652077  1
  Br  Br3  1  0.228807  0.167804  0.447645  1
  Br  Br4  1  0.104535  0.644486  0.356380  1
  Br  Br5  1  0.580018  0.448988  0.174950  1
  Br  Br6  1  0.431441  0.564251  0.829056  1
  Br  Br7  1  0.716738  0.983055  0.264826  1
  Br  Br8  1  0.762984  0.814606  0.534559  1
  Br  Br9  1  0.058946  0.811391  0.081931  1
  Br  Br10  1  0.935168  0.187744  0.926273  1
  Br  Br11  1  0.303635  0.014974  0.751222  1
