# generated using pymatgen
data_Ho6Sc4In8PtRh3
_symmetry_space_group_name_H-M   'P 1'
_cell_length_a   3.57342100
_cell_length_b   7.88057465
_cell_length_c   17.87712379
_cell_angle_alpha   89.92563886
_cell_angle_beta   90.00000000
_cell_angle_gamma   90.00000000
_symmetry_Int_Tables_number   1
_chemical_formula_structural   Ho6Sc4In8PtRh3
_chemical_formula_sum   'Ho6 Sc4 In8 Pt1 Rh3'
_cell_volume   503.43030376
_cell_formula_units_Z   1
loop_
 _symmetry_equiv_pos_site_id
 _symmetry_equiv_pos_as_xyz
  1  'x, y, z'
loop_
 _atom_site_type_symbol
 _atom_site_label
 _atom_site_symmetry_multiplicity
 _atom_site_fract_x
 _atom_site_fract_y
 _atom_site_fract_z
 _atom_site_occupancy
  Ho  Ho0  1  0.000000  0.999762  0.000335  1
  Ho  Ho1  1  0.000000  0.500476  0.499858  1
  Ho  Ho2  1  0.000000  0.745478  0.782383  1
  Ho  Ho3  1  0.000000  0.250933  0.218543  1
  Ho  Ho4  1  0.000000  0.252148  0.718816  1
  Ho  Ho5  1  0.000000  0.750721  0.281564  1
  Sc  Sc6  1  0.000000  0.877165  0.587308  1
  Sc  Sc7  1  0.000000  0.121829  0.410508  1
  Sc  Sc8  1  0.000000  0.378951  0.911037  1
  Sc  Sc9  1  0.000000  0.622106  0.089365  1
  In  In10  1  0.500000  0.809808  0.437998  1
  In  In11  1  0.500000  0.192054  0.560348  1
  In  In12  1  0.500000  0.309747  0.061599  1
  In  In13  1  0.500000  0.690621  0.938384  1
  In  In14  1  0.500000  0.925194  0.149794  1
  In  In15  1  0.500000  0.077183  0.851693  1
  In  In16  1  0.500000  0.424304  0.350181  1
  In  In17  1  0.500000  0.572521  0.649340  1
  Pt  Pt18  1  0.500000  0.962774  0.692822  1
  Rh  Rh19  1  0.500000  0.036846  0.307733  1
  Rh  Rh20  1  0.500000  0.463277  0.808253  1
  Rh  Rh21  1  0.500000  0.536105  0.192138  1
