# generated using pymatgen
data_Li8Hf3NiBr24
_symmetry_space_group_name_H-M   'P 1'
_cell_length_a   6.73041100
_cell_length_b   6.73041133
_cell_length_c   26.76394400
_cell_angle_alpha   90.00000000
_cell_angle_beta   90.00000000
_cell_angle_gamma   120.00000328
_symmetry_Int_Tables_number   1
_chemical_formula_structural   Li8Hf3NiBr24
_chemical_formula_sum   'Li8 Hf3 Ni1 Br24'
_cell_volume   1049.93864916
_cell_formula_units_Z   1
loop_
 _symmetry_equiv_pos_site_id
 _symmetry_equiv_pos_as_xyz
  1  'x, y, z'
loop_
 _atom_site_type_symbol
 _atom_site_label
 _atom_site_symmetry_multiplicity
 _atom_site_fract_x
 _atom_site_fract_y
 _atom_site_fract_z
 _atom_site_occupancy
  Li  Li0  1  0.000000  0.000000  0.249863  1
  Li  Li1  1  0.000000  0.000000  0.750137  1
  Li  Li2  1  0.333333  0.666667  0.000284  1
  Li  Li3  1  0.333333  0.666667  0.499683  1
  Li  Li4  1  0.333333  0.666667  0.249932  1
  Li  Li5  1  0.666667  0.333333  0.750068  1
  Li  Li6  1  0.666667  0.333333  0.999716  1
  Li  Li7  1  0.666667  0.333333  0.500317  1
  Hf  Hf8  1  0.000000  0.000000  0.500000  1
  Hf  Hf9  1  0.333333  0.666667  0.750377  1
  Hf  Hf10  1  0.666667  0.333333  0.249623  1
  Ni  Ni11  1  0.000000  0.000000  0.000000  1
  Br  Br12  1  0.348592  0.015280  0.306678  1
  Br  Br13  1  0.334474  0.984921  0.807234  1
  Br  Br14  1  0.999943  0.294028  0.051910  1
  Br  Br15  1  0.999680  0.317930  0.556799  1
  Br  Br16  1  0.984720  0.333313  0.306678  1
  Br  Br17  1  0.015079  0.349552  0.807234  1
  Br  Br18  1  0.349552  0.334474  0.192766  1
  Br  Br19  1  0.333313  0.348592  0.693322  1
  Br  Br20  1  0.317930  0.318250  0.443201  1
  Br  Br21  1  0.294028  0.294086  0.948090  1
  Br  Br22  1  0.681750  0.999680  0.443201  1
  Br  Br23  1  0.294086  0.000057  0.051910  1
  Br  Br24  1  0.318250  0.000320  0.556799  1
  Br  Br25  1  0.705972  0.705914  0.051910  1
  Br  Br26  1  0.682070  0.681750  0.556799  1
  Br  Br27  1  0.666687  0.651408  0.306678  1
  Br  Br28  1  0.650448  0.665526  0.807234  1
  Br  Br29  1  0.984921  0.650448  0.192766  1
  Br  Br30  1  0.015280  0.666687  0.693322  1
  Br  Br31  1  0.000320  0.682070  0.443201  1
  Br  Br32  1  0.000057  0.705972  0.948090  1
  Br  Br33  1  0.705914  0.999943  0.948090  1
  Br  Br34  1  0.665526  0.015079  0.192766  1
  Br  Br35  1  0.651408  0.984720  0.693322  1
