# generated using pymatgen
data_Ho12Th4Mg4Ru3Pt
_symmetry_space_group_name_H-M   'P 1'
_cell_length_a   9.76787241
_cell_length_b   9.76787194
_cell_length_c   9.76787188
_cell_angle_alpha   59.90649972
_cell_angle_beta   59.90650170
_cell_angle_gamma   59.90649945
_symmetry_Int_Tables_number   1
_chemical_formula_structural   Ho12Th4Mg4Ru3Pt
_chemical_formula_sum   'Ho12 Th4 Mg4 Ru3 Pt1'
_cell_volume   657.60139339
_cell_formula_units_Z   1
loop_
 _symmetry_equiv_pos_site_id
 _symmetry_equiv_pos_as_xyz
  1  'x, y, z'
loop_
 _atom_site_type_symbol
 _atom_site_label
 _atom_site_symmetry_multiplicity
 _atom_site_fract_x
 _atom_site_fract_y
 _atom_site_fract_z
 _atom_site_occupancy
  Ho  Ho0  1  0.806780  0.188314  0.188314  1
  Ho  Ho1  1  0.185499  0.813685  0.813685  1
  Ho  Ho2  1  0.188314  0.806780  0.188314  1
  Ho  Ho3  1  0.813685  0.185499  0.813685  1
  Ho  Ho4  1  0.188314  0.188314  0.806780  1
  Ho  Ho5  1  0.813685  0.813685  0.185499  1
  Ho  Ho6  1  0.936048  0.566091  0.566091  1
  Ho  Ho7  1  0.566223  0.935818  0.935818  1
  Ho  Ho8  1  0.566091  0.936048  0.566091  1
  Ho  Ho9  1  0.935818  0.566223  0.935818  1
  Ho  Ho10  1  0.566091  0.566091  0.936048  1
  Ho  Ho11  1  0.935818  0.935818  0.566223  1
  Th  Th12  1  0.345431  0.345431  0.345431  1
  Th  Th13  1  0.351658  0.351658  0.954752  1
  Th  Th14  1  0.351658  0.954752  0.351658  1
  Th  Th15  1  0.954752  0.351658  0.351658  1
  Mg  Mg16  1  0.580426  0.580426  0.580426  1
  Mg  Mg17  1  0.580246  0.580246  0.259226  1
  Mg  Mg18  1  0.580246  0.259226  0.580246  1
  Mg  Mg19  1  0.259226  0.580246  0.580246  1
  Ru  Ru20  1  0.143004  0.143004  0.567053  1
  Ru  Ru21  1  0.143004  0.567053  0.143004  1
  Ru  Ru22  1  0.567053  0.143004  0.143004  1
  Pt  Pt23  1  0.140929  0.140929  0.140929  1
