# generated using pymatgen
data_Rb4Al3Ga5Au12
_symmetry_space_group_name_H-M   'P 1'
_cell_length_a   5.63510783
_cell_length_b   7.19670671
_cell_length_c   13.60422530
_cell_angle_alpha   89.89715671
_cell_angle_beta   90.07352575
_cell_angle_gamma   89.94481783
_symmetry_Int_Tables_number   1
_chemical_formula_structural   Rb4Al3Ga5Au12
_chemical_formula_sum   'Rb4 Al3 Ga5 Au12'
_cell_volume   551.70712266
_cell_formula_units_Z   1
loop_
 _symmetry_equiv_pos_site_id
 _symmetry_equiv_pos_as_xyz
  1  'x, y, z'
loop_
 _atom_site_type_symbol
 _atom_site_label
 _atom_site_symmetry_multiplicity
 _atom_site_fract_x
 _atom_site_fract_y
 _atom_site_fract_z
 _atom_site_occupancy
  Rb  Rb0  1  0.248757  0.101752  0.073111  1
  Rb  Rb1  1  0.250415  0.398705  0.573458  1
  Rb  Rb2  1  0.750008  0.898295  0.926633  1
  Rb  Rb3  1  0.750691  0.601557  0.426739  1
  Al  Al4  1  0.999284  0.899058  0.656108  1
  Al  Al5  1  0.501048  0.601197  0.156583  1
  Al  Al6  1  0.499628  0.100583  0.343479  1
  Ga  Ga7  1  0.000841  0.395505  0.844916  1
  Ga  Ga8  1  0.002083  0.104932  0.344725  1
  Ga  Ga9  1  0.497957  0.396004  0.844728  1
  Ga  Ga10  1  0.502581  0.895353  0.654594  1
  Ga  Ga11  1  0.997593  0.605469  0.155309  1
  Au  Au12  1  0.247598  0.107334  0.785110  1
  Au  Au13  1  0.256372  0.389136  0.285789  1
  Au  Au14  1  0.743593  0.888969  0.214069  1
  Au  Au15  1  0.754569  0.611860  0.712785  1
  Au  Au16  1  0.246129  0.700435  0.789161  1
  Au  Au17  1  0.256534  0.802136  0.289091  1
  Au  Au18  1  0.743545  0.301389  0.211294  1
  Au  Au19  1  0.753000  0.197248  0.709228  1
  Au  Au20  1  0.255927  0.582836  0.995519  1
  Au  Au21  1  0.246939  0.919578  0.494472  1
  Au  Au22  1  0.748223  0.419608  0.007972  1
  Au  Au23  1  0.746684  0.081060  0.505127  1
