# generated using pymatgen
data_TbTmAg2(Ir2O7)2
_symmetry_space_group_name_H-M   'P 1'
_cell_length_a   7.22493291
_cell_length_b   7.16899024
_cell_length_c   7.21313000
_cell_angle_alpha   60.20221479
_cell_angle_beta   61.11294176
_cell_angle_gamma   60.25580236
_symmetry_Int_Tables_number   1
_chemical_formula_structural   TbTmAg2(Ir2O7)2
_chemical_formula_sum   'Tb1 Tm1 Ag2 Ir4 O14'
_cell_volume   267.26423281
_cell_formula_units_Z   1
loop_
 _symmetry_equiv_pos_site_id
 _symmetry_equiv_pos_as_xyz
  1  'x, y, z'
loop_
 _atom_site_type_symbol
 _atom_site_label
 _atom_site_symmetry_multiplicity
 _atom_site_fract_x
 _atom_site_fract_y
 _atom_site_fract_z
 _atom_site_occupancy
  Tb  Tb0  1  0.125000  0.125000  0.625000  1
  Tm  Tm1  1  0.625000  0.125000  0.125000  1
  Ag  Ag2  1  0.125000  0.625000  0.125000  1
  Ag  Ag3  1  0.125000  0.125000  0.125000  1
  Ir  Ir4  1  0.125000  0.625000  0.625000  1
  Ir  Ir5  1  0.625000  0.125000  0.625000  1
  Ir  Ir6  1  0.625000  0.625000  0.125000  1
  Ir  Ir7  1  0.625000  0.625000  0.625000  1
  O  O8  1  0.689565  0.718465  0.298108  1
  O  O9  1  0.298866  0.293723  0.694782  1
  O  O10  1  0.709262  0.287333  0.716071  1
  O  O11  1  0.306508  0.693946  0.305599  1
  O  O12  1  0.298866  0.712629  0.694782  1
  O  O13  1  0.689565  0.293861  0.298108  1
  O  O14  1  0.560435  0.531535  0.951892  1
  O  O15  1  0.951134  0.956277  0.555218  1
  O  O16  1  0.540738  0.962667  0.533929  1
  O  O17  1  0.943492  0.556054  0.944401  1
  O  O18  1  0.951134  0.537371  0.555218  1
  O  O19  1  0.560435  0.956139  0.951892  1
  O  O20  1  0.251092  0.253582  0.241742  1
  O  O21  1  0.998908  0.996418  0.008258  1
