# generated using pymatgen
data_Al11CrRe2Os
_symmetry_space_group_name_H-M   'P 1'
_cell_length_a   5.15250080
_cell_length_b   5.16414627
_cell_length_c   9.00408423
_cell_angle_alpha   105.32077775
_cell_angle_beta   90.28794813
_cell_angle_gamma   100.19657932
_symmetry_Int_Tables_number   1
_chemical_formula_structural   Al11CrRe2Os
_chemical_formula_sum   'Al11 Cr1 Re2 Os1'
_cell_volume   227.08036947
_cell_formula_units_Z   1
loop_
 _symmetry_equiv_pos_site_id
 _symmetry_equiv_pos_as_xyz
  1  'x, y, z'
loop_
 _atom_site_type_symbol
 _atom_site_label
 _atom_site_symmetry_multiplicity
 _atom_site_fract_x
 _atom_site_fract_y
 _atom_site_fract_z
 _atom_site_occupancy
  Al  Al0  1  0.804053  0.262042  0.632077  1
  Al  Al1  1  0.197071  0.740293  0.364423  1
  Al  Al2  1  0.146192  0.464154  0.872233  1
  Al  Al3  1  0.854993  0.536581  0.128806  1
  Al  Al4  1  0.000256  0.998987  0.002473  1
  Al  Al5  1  0.499867  0.094247  0.872845  1
  Al  Al6  1  0.501840  0.904309  0.129675  1
  Al  Al7  1  0.571198  0.328102  0.378238  1
  Al  Al8  1  0.433141  0.677968  0.619809  1
  Al  Al9  1  0.938047  0.804714  0.665743  1
  Al  Al10  1  0.049908  0.191971  0.332161  1
  Cr  Cr11  1  0.718116  0.847112  0.400016  1
  Re  Re12  1  0.661691  0.608146  0.865790  1
  Re  Re13  1  0.340340  0.390330  0.134575  1
  Os  Os14  1  0.283284  0.151043  0.601136  1
