# generated using pymatgen
data_Mg4Ni4(As2Ru)3
_symmetry_space_group_name_H-M   'P 1'
_cell_length_a   6.93832487
_cell_length_b   6.88453507
_cell_length_c   6.88453487
_cell_angle_alpha   109.53298099
_cell_angle_beta   109.28364566
_cell_angle_gamma   109.28364084
_symmetry_Int_Tables_number   1
_chemical_formula_structural   Mg4Ni4(As2Ru)3
_chemical_formula_sum   'Mg4 Ni4 As6 Ru3'
_cell_volume   254.12554655
_cell_formula_units_Z   1
loop_
 _symmetry_equiv_pos_site_id
 _symmetry_equiv_pos_as_xyz
  1  'x, y, z'
loop_
 _atom_site_type_symbol
 _atom_site_label
 _atom_site_symmetry_multiplicity
 _atom_site_fract_x
 _atom_site_fract_y
 _atom_site_fract_z
 _atom_site_occupancy
  Mg  Mg0  1  0.000000  0.002433  0.502832  1
  Mg  Mg1  1  0.500000  0.999652  0.000348  1
  Mg  Mg2  1  0.000000  0.497168  0.997567  1
  Mg  Mg3  1  0.500000  0.499652  0.500348  1
  Ni  Ni4  1  0.500000  0.246033  0.753967  1
  Ni  Ni5  1  0.500000  0.746033  0.253967  1
  Ni  Ni6  1  0.747816  0.501898  0.245918  1
  Ni  Ni7  1  0.252184  0.754082  0.498102  1
  As  As8  1  0.688613  0.686281  0.002332  1
  As  As9  1  0.316358  0.315634  0.000725  1
  As  As10  1  0.000000  0.684952  0.684538  1
  As  As11  1  0.000000  0.315462  0.315048  1
  As  As12  1  0.683642  0.999275  0.684366  1
  As  As13  1  0.311387  0.997668  0.313719  1
  Ru  Ru14  1  0.000000  0.001007  0.998993  1
  Ru  Ru15  1  0.258333  0.505552  0.752782  1
  Ru  Ru16  1  0.741667  0.247218  0.494448  1
