# generated using pymatgen
data_LiHo2Si4(PPd10)2
_symmetry_space_group_name_H-M   'P 1'
_cell_length_a   8.65042753
_cell_length_b   8.65042693
_cell_length_c   8.65968900
_cell_angle_alpha   59.96457882
_cell_angle_beta   59.96458112
_cell_angle_gamma   60.07084583
_symmetry_Int_Tables_number   1
_chemical_formula_structural   LiHo2Si4(PPd10)2
_chemical_formula_sum   'Li1 Ho2 Si4 P2 Pd20'
_cell_volume   458.20669877
_cell_formula_units_Z   1
loop_
 _symmetry_equiv_pos_site_id
 _symmetry_equiv_pos_as_xyz
  1  'x, y, z'
loop_
 _atom_site_type_symbol
 _atom_site_label
 _atom_site_symmetry_multiplicity
 _atom_site_fract_x
 _atom_site_fract_y
 _atom_site_fract_z
 _atom_site_occupancy
  Li  Li0  1  0.000000  0.000000  0.000000  1
  Ho  Ho1  1  0.250000  0.250000  0.250000  1
  Ho  Ho2  1  0.750000  0.750000  0.750000  1
  Si  Si3  1  0.736401  0.263599  0.263599  1
  Si  Si4  1  0.263599  0.736401  0.736401  1
  Si  Si5  1  0.263599  0.736401  0.263599  1
  Si  Si6  1  0.736401  0.263599  0.736401  1
  P  P7  1  0.263213  0.263213  0.736787  1
  P  P8  1  0.736787  0.736787  0.263213  1
  Pd  Pd9  1  0.383327  0.383327  0.385471  1
  Pd  Pd10  1  0.616673  0.616673  0.614529  1
  Pd  Pd11  1  0.383327  0.383327  0.847876  1
  Pd  Pd12  1  0.385471  0.847876  0.383327  1
  Pd  Pd13  1  0.616673  0.616673  0.152124  1
  Pd  Pd14  1  0.614529  0.152124  0.616673  1
  Pd  Pd15  1  0.847876  0.385471  0.383327  1
  Pd  Pd16  1  0.152124  0.614529  0.616673  1
  Pd  Pd17  1  0.344382  0.002210  0.997790  1
  Pd  Pd18  1  0.655618  0.997790  0.002210  1
  Pd  Pd19  1  0.002210  0.344382  0.655618  1
  Pd  Pd20  1  0.997790  0.655618  0.344382  1
  Pd  Pd21  1  0.002210  0.344382  0.997790  1
  Pd  Pd22  1  0.655618  0.997790  0.344382  1
  Pd  Pd23  1  0.997790  0.655618  0.002210  1
  Pd  Pd24  1  0.344382  0.002210  0.655618  1
  Pd  Pd25  1  0.000000  0.000000  0.345956  1
  Pd  Pd26  1  0.000000  0.000000  0.654044  1
  Pd  Pd27  1  0.654044  0.345956  0.000000  1
  Pd  Pd28  1  0.345956  0.654044  0.000000  1
