# generated using pymatgen
data_PH3Se2
_symmetry_space_group_name_H-M   'P 1'
_cell_length_a   4.75424382
_cell_length_b   6.31279033
_cell_length_c   6.74032063
_cell_angle_alpha   129.27485149
_cell_angle_beta   56.73953396
_cell_angle_gamma   130.72269296
_symmetry_Int_Tables_number   1
_chemical_formula_structural   PH3Se2
_chemical_formula_sum   'P1 H3 Se2'
_cell_volume   115.47667037
_cell_formula_units_Z   1
loop_
 _symmetry_equiv_pos_site_id
 _symmetry_equiv_pos_as_xyz
  1  'x, y, z'
loop_
 _atom_site_type_symbol
 _atom_site_label
 _atom_site_symmetry_multiplicity
 _atom_site_fract_x
 _atom_site_fract_y
 _atom_site_fract_z
 _atom_site_occupancy
  P  P0  1  0.710746  0.396041  0.080488  1
  H  H1  1  0.315851  0.291839  0.201363  1
  H  H2  1  0.575156  0.641767  0.956613  1
  H  H3  1  0.749241  0.124205  0.931761  1
  Se  Se4  1  0.799365  0.463031  0.752848  1
  Se  Se5  1  0.070173  0.772622  0.356373  1
