# generated using pymatgen
data_Tb3Al12FeOsRu2
_symmetry_space_group_name_H-M   'P 1'
_cell_length_a   8.79712517
_cell_length_b   8.79712575
_cell_length_c   9.50660900
_cell_angle_alpha   90.00000000
_cell_angle_beta   90.00000000
_cell_angle_gamma   120.09920640
_symmetry_Int_Tables_number   1
_chemical_formula_structural   Tb3Al12FeOsRu2
_chemical_formula_sum   'Tb6 Al24 Fe2 Os2 Ru4'
_cell_volume   636.50645950
_cell_formula_units_Z   2
loop_
 _symmetry_equiv_pos_site_id
 _symmetry_equiv_pos_as_xyz
  1  'x, y, z'
loop_
 _atom_site_type_symbol
 _atom_site_label
 _atom_site_symmetry_multiplicity
 _atom_site_fract_x
 _atom_site_fract_y
 _atom_site_fract_z
 _atom_site_occupancy
  Tb  Tb0  1  0.196308  0.387031  0.250000  1
  Tb  Tb1  1  0.803692  0.612969  0.750000  1
  Tb  Tb2  1  0.612969  0.803692  0.250000  1
  Tb  Tb3  1  0.387031  0.196308  0.750000  1
  Tb  Tb4  1  0.192518  0.807482  0.250000  1
  Tb  Tb5  1  0.807482  0.192518  0.750000  1
  Al  Al6  1  0.332730  0.667270  0.012566  1
  Al  Al7  1  0.667270  0.332730  0.987434  1
  Al  Al8  1  0.667270  0.332730  0.512566  1
  Al  Al9  1  0.332730  0.667270  0.487434  1
  Al  Al10  1  0.158705  0.317712  0.575663  1
  Al  Al11  1  0.841295  0.682288  0.424337  1
  Al  Al12  1  0.682288  0.841295  0.575663  1
  Al  Al13  1  0.841295  0.682288  0.075663  1
  Al  Al14  1  0.317712  0.158705  0.424337  1
  Al  Al15  1  0.158705  0.317712  0.924337  1
  Al  Al16  1  0.158309  0.841691  0.576736  1
  Al  Al17  1  0.317712  0.158705  0.075663  1
  Al  Al18  1  0.841691  0.158309  0.423264  1
  Al  Al19  1  0.682288  0.841295  0.924337  1
  Al  Al20  1  0.841691  0.158309  0.076736  1
  Al  Al21  1  0.158309  0.841691  0.923264  1
  Al  Al22  1  0.561043  0.120866  0.250000  1
  Al  Al23  1  0.438957  0.879134  0.750000  1
  Al  Al24  1  0.879134  0.438957  0.250000  1
  Al  Al25  1  0.120866  0.561043  0.750000  1
  Al  Al26  1  0.562327  0.437673  0.250000  1
  Al  Al27  1  0.437673  0.562327  0.750000  1
  Al  Al28  1  0.999825  0.000175  0.250000  1
  Al  Al29  1  0.000175  0.999825  0.750000  1
  Fe  Fe30  1  0.000000  0.000000  0.000000  1
  Fe  Fe31  1  0.000000  0.000000  0.500000  1
  Os  Os32  1  0.500000  0.500000  0.000000  1
  Os  Os33  1  0.500000  0.500000  0.500000  1
  Ru  Ru34  1  0.500000  0.000000  0.000000  1
  Ru  Ru35  1  0.000000  0.500000  0.000000  1
  Ru  Ru36  1  0.500000  0.000000  0.500000  1
  Ru  Ru37  1  0.000000  0.500000  0.500000  1
