# generated using pymatgen
data_TbY(OsO3)6
_symmetry_space_group_name_H-M   'P 1'
_cell_length_a   7.38356100
_cell_length_b   5.21269694
_cell_length_c   8.21600436
_cell_angle_alpha   85.42734195
_cell_angle_beta   90.00000000
_cell_angle_gamma   90.00000000
_symmetry_Int_Tables_number   1
_chemical_formula_structural   TbY(OsO3)6
_chemical_formula_sum   'Tb1 Y1 Os6 O18'
_cell_volume   315.21324357
_cell_formula_units_Z   1
loop_
 _symmetry_equiv_pos_site_id
 _symmetry_equiv_pos_as_xyz
  1  'x, y, z'
loop_
 _atom_site_type_symbol
 _atom_site_label
 _atom_site_symmetry_multiplicity
 _atom_site_fract_x
 _atom_site_fract_y
 _atom_site_fract_z
 _atom_site_occupancy
  Tb  Tb0  1  0.250000  0.971420  0.427407  1
  Y  Y1  1  0.750000  0.029214  0.572496  1
  Os  Os2  1  0.999958  0.000019  0.999939  1
  Os  Os3  1  0.500042  0.000019  0.999939  1
  Os  Os4  1  0.495644  0.538486  0.692847  1
  Os  Os5  1  0.004356  0.538486  0.692847  1
  Os  Os6  1  0.995417  0.461729  0.307315  1
  Os  Os7  1  0.504583  0.461729  0.307315  1
  O  O8  1  0.250000  0.902012  0.984196  1
  O  O9  1  0.935060  0.852157  0.789282  1
  O  O10  1  0.564940  0.852157  0.789282  1
  O  O11  1  0.959930  0.739733  0.471077  1
  O  O12  1  0.540070  0.739733  0.471077  1
  O  O13  1  0.250000  0.663591  0.665202  1
  O  O14  1  0.956461  0.685284  0.121810  1
  O  O15  1  0.543539  0.685284  0.121810  1
  O  O16  1  0.250000  0.582004  0.311939  1
  O  O17  1  0.750000  0.417001  0.688243  1
  O  O18  1  0.043629  0.314894  0.878148  1
  O  O19  1  0.456371  0.314894  0.878148  1
  O  O20  1  0.750000  0.335137  0.335107  1
  O  O21  1  0.039479  0.260462  0.529066  1
  O  O22  1  0.460521  0.260462  0.529066  1
  O  O23  1  0.064653  0.148089  0.210398  1
  O  O24  1  0.435347  0.148089  0.210398  1
  O  O25  1  0.750000  0.097915  0.015648  1
