# generated using pymatgen
data_TmPaCo(Ni10B3)2
_symmetry_space_group_name_H-M   'P 1'
_cell_length_a   7.52561170
_cell_length_b   7.53139116
_cell_length_c   7.53139000
_cell_angle_alpha   59.99999631
_cell_angle_beta   59.97458874
_cell_angle_gamma   59.97459141
_symmetry_Int_Tables_number   1
_chemical_formula_structural   TmPaCo(Ni10B3)2
_chemical_formula_sum   'Tm1 Pa1 Co1 Ni20 B6'
_cell_volume   301.72426023
_cell_formula_units_Z   1
loop_
 _symmetry_equiv_pos_site_id
 _symmetry_equiv_pos_as_xyz
  1  'x, y, z'
loop_
 _atom_site_type_symbol
 _atom_site_label
 _atom_site_symmetry_multiplicity
 _atom_site_fract_x
 _atom_site_fract_y
 _atom_site_fract_z
 _atom_site_occupancy
  Tm  Tm0  1  0.749569  0.750144  0.750144  1
  Pa  Pa1  1  0.240574  0.253142  0.253142  1
  Co  Co2  1  0.850165  0.383278  0.383278  1
  Ni  Ni3  1  0.165007  0.611665  0.611665  1
  Ni  Ni4  1  0.612043  0.611710  0.611710  1
  Ni  Ni5  1  0.612043  0.611710  0.164538  1
  Ni  Ni6  1  0.386151  0.842220  0.385815  1
  Ni  Ni7  1  0.661457  0.336190  0.001177  1
  Ni  Ni8  1  0.999980  0.337424  0.663503  1
  Ni  Ni9  1  0.386151  0.385815  0.385815  1
  Ni  Ni10  1  0.999980  0.999095  0.337424  1
  Ni  Ni11  1  0.999980  0.999095  0.663503  1
  Ni  Ni12  1  0.999980  0.337424  0.999095  1
  Ni  Ni13  1  0.661457  0.001177  0.336190  1
  Ni  Ni14  1  0.337647  0.000101  0.000101  1
  Ni  Ni15  1  0.999980  0.663503  0.999095  1
  Ni  Ni16  1  0.337647  0.000101  0.662152  1
  Ni  Ni17  1  0.999980  0.663503  0.337424  1
  Ni  Ni18  1  0.337647  0.662152  0.000101  1
  Ni  Ni19  1  0.612043  0.164538  0.611710  1
  Ni  Ni20  1  0.000035  0.999988  0.999988  1
  Ni  Ni21  1  0.661457  0.001177  0.001177  1
  Ni  Ni22  1  0.386151  0.385815  0.842220  1
  B  B23  1  0.731488  0.727292  0.270610  1
  B  B24  1  0.731488  0.270610  0.727292  1
  B  B25  1  0.269473  0.730823  0.730823  1
  B  B26  1  0.269473  0.268882  0.730823  1
  B  B27  1  0.269473  0.730823  0.268882  1
  B  B28  1  0.731488  0.270610  0.270610  1
