# generated using pymatgen
data_TmU3(TcB6)2
_symmetry_space_group_name_H-M   'P 1'
_cell_length_a   3.62779700
_cell_length_b   9.27529851
_cell_length_c   11.37897201
_cell_angle_alpha   89.93505333
_cell_angle_beta   90.00000000
_cell_angle_gamma   90.00000000
_symmetry_Int_Tables_number   1
_chemical_formula_structural   TmU3(TcB6)2
_chemical_formula_sum   'Tm2 U6 Tc4 B24'
_cell_volume   382.88964663
_cell_formula_units_Z   2
loop_
 _symmetry_equiv_pos_site_id
 _symmetry_equiv_pos_as_xyz
  1  'x, y, z'
loop_
 _atom_site_type_symbol
 _atom_site_label
 _atom_site_symmetry_multiplicity
 _atom_site_fract_x
 _atom_site_fract_y
 _atom_site_fract_z
 _atom_site_occupancy
  Tm  Tm0  1  0.000000  0.336869  0.408114  1
  Tm  Tm1  1  0.000000  0.663131  0.591886  1
  U  U2  1  0.000000  0.837230  0.093080  1
  U  U3  1  0.000000  0.162770  0.906920  1
  U  U4  1  0.000000  0.956213  0.396381  1
  U  U5  1  0.000000  0.043787  0.603619  1
  U  U6  1  0.000000  0.457154  0.103839  1
  U  U7  1  0.000000  0.542846  0.896161  1
  Tc  Tc8  1  0.000000  0.645863  0.317688  1
  Tc  Tc9  1  0.000000  0.354137  0.682312  1
  Tc  Tc10  1  0.000000  0.144020  0.178655  1
  Tc  Tc11  1  0.000000  0.855980  0.821345  1
  B  B12  1  0.500000  0.550886  0.431542  1
  B  B13  1  0.500000  0.449114  0.568458  1
  B  B14  1  0.500000  0.049888  0.067601  1
  B  B15  1  0.500000  0.950112  0.932399  1
  B  B16  1  0.500000  0.741682  0.423839  1
  B  B17  1  0.500000  0.258318  0.576161  1
  B  B18  1  0.500000  0.242758  0.076479  1
  B  B19  1  0.500000  0.757242  0.923521  1
  B  B20  1  0.500000  0.803167  0.273926  1
  B  B21  1  0.500000  0.196833  0.726074  1
  B  B22  1  0.500000  0.302536  0.225806  1
  B  B23  1  0.500000  0.697464  0.774194  1
  B  B24  1  0.500000  0.644755  0.188499  1
  B  B25  1  0.500000  0.355245  0.811501  1
  B  B26  1  0.500000  0.144888  0.311616  1
  B  B27  1  0.500000  0.855112  0.688384  1
  B  B28  1  0.500000  0.986819  0.219318  1
  B  B29  1  0.500000  0.013181  0.780682  1
  B  B30  1  0.500000  0.487282  0.281570  1
  B  B31  1  0.500000  0.512718  0.718430  1
  B  B32  1  0.500000  0.643742  0.039732  1
  B  B33  1  0.500000  0.356258  0.960268  1
  B  B34  1  0.500000  0.142335  0.460452  1
  B  B35  1  0.500000  0.857665  0.539548  1
