# generated using pymatgen
data_YEr4In4PdRu
_symmetry_space_group_name_H-M   'P 1'
_cell_length_a   3.56165500
_cell_length_b   8.10268227
_cell_length_c   18.36437398
_cell_angle_alpha   90.05867814
_cell_angle_beta   90.00000000
_cell_angle_gamma   90.00000000
_symmetry_Int_Tables_number   1
_chemical_formula_structural   YEr4In4PdRu
_chemical_formula_sum   'Y2 Er8 In8 Pd2 Ru2'
_cell_volume   529.97643450
_cell_formula_units_Z   2
loop_
 _symmetry_equiv_pos_site_id
 _symmetry_equiv_pos_as_xyz
  1  'x, y, z'
loop_
 _atom_site_type_symbol
 _atom_site_label
 _atom_site_symmetry_multiplicity
 _atom_site_fract_x
 _atom_site_fract_y
 _atom_site_fract_z
 _atom_site_occupancy
  Y  Y0  1  0.500000  0.000000  0.000000  1
  Y  Y1  1  0.500000  0.500000  0.500000  1
  Er  Er2  1  0.500000  0.230765  0.778125  1
  Er  Er3  1  0.500000  0.769235  0.221875  1
  Er  Er4  1  0.500000  0.246359  0.279623  1
  Er  Er5  1  0.500000  0.753641  0.720377  1
  Er  Er6  1  0.500000  0.117510  0.587283  1
  Er  Er7  1  0.500000  0.882490  0.412717  1
  Er  Er8  1  0.500000  0.380354  0.085819  1
  Er  Er9  1  0.500000  0.619646  0.914181  1
  In  In10  1  0.000000  0.072635  0.150376  1
  In  In11  1  0.000000  0.927365  0.849624  1
  In  In12  1  0.000000  0.424219  0.650219  1
  In  In13  1  0.000000  0.575781  0.349781  1
  In  In14  1  0.000000  0.204543  0.431236  1
  In  In15  1  0.000000  0.795457  0.568764  1
  In  In16  1  0.000000  0.294874  0.932927  1
  In  In17  1  0.000000  0.705126  0.067073  1
  Pd  Pd18  1  0.000000  0.478816  0.195922  1
  Pd  Pd19  1  0.000000  0.521184  0.804078  1
  Ru  Ru20  1  0.000000  0.020025  0.695457  1
  Ru  Ru21  1  0.000000  0.979975  0.304543  1
