# generated using pymatgen
data_TbU8O18
_symmetry_space_group_name_H-M   'P 1'
_cell_length_a   6.62619928
_cell_length_b   6.63002056
_cell_length_c   8.56230770
_cell_angle_alpha   82.65053260
_cell_angle_beta   75.03654783
_cell_angle_gamma   80.44660532
_symmetry_Int_Tables_number   1
_chemical_formula_structural   TbU8O18
_chemical_formula_sum   'Tb1 U8 O18'
_cell_volume   356.93128345
_cell_formula_units_Z   1
loop_
 _symmetry_equiv_pos_site_id
 _symmetry_equiv_pos_as_xyz
  1  'x, y, z'
loop_
 _atom_site_type_symbol
 _atom_site_label
 _atom_site_symmetry_multiplicity
 _atom_site_fract_x
 _atom_site_fract_y
 _atom_site_fract_z
 _atom_site_occupancy
  Tb  Tb0  1  0.000000  0.000000  0.500000  1
  U  U1  1  0.333147  0.668404  0.167505  1
  U  U2  1  0.779175  0.555228  0.389950  1
  U  U3  1  0.111663  0.222308  0.056750  1
  U  U4  1  0.666853  0.331596  0.832495  1
  U  U5  1  0.220825  0.444772  0.610050  1
  U  U6  1  0.555359  0.110982  0.278742  1
  U  U7  1  0.888337  0.777692  0.943250  1
  U  U8  1  0.444641  0.889018  0.721258  1
  O  O9  1  0.582280  0.665895  0.916134  1
  O  O10  1  0.029237  0.556134  0.137140  1
  O  O11  1  0.417720  0.334105  0.083866  1
  O  O12  1  0.085231  0.662333  0.413877  1
  O  O13  1  0.805618  0.109979  0.028048  1
  O  O14  1  0.472668  0.446806  0.361089  1
  O  O15  1  0.859025  0.225956  0.303065  1
  O  O16  1  0.527332  0.553194  0.638911  1
  O  O17  1  0.254834  0.000365  0.246765  1
  O  O18  1  0.914769  0.337667  0.586123  1
  O  O19  1  0.194382  0.890021  0.971952  1
  O  O20  1  0.745166  0.999635  0.753235  1
  O  O21  1  0.689941  0.884791  0.471528  1
  O  O22  1  0.358994  0.223624  0.807587  1
  O  O23  1  0.641006  0.776376  0.192413  1
  O  O24  1  0.310059  0.115209  0.528472  1
  O  O25  1  0.970763  0.443866  0.862860  1
  O  O26  1  0.140975  0.774044  0.696935  1
