# generated using pymatgen
data_Be6Al9VRh16
_symmetry_space_group_name_H-M   'P 1'
_cell_length_a   8.85184534
_cell_length_b   8.85180511
_cell_length_c   8.85180500
_cell_angle_alpha   141.26716483
_cell_angle_beta   96.29165712
_cell_angle_gamma   96.33477957
_symmetry_Int_Tables_number   1
_chemical_formula_structural   Be6Al9VRh16
_chemical_formula_sum   'Be6 Al9 V1 Rh16'
_cell_volume   409.41195482
_cell_formula_units_Z   1
loop_
 _symmetry_equiv_pos_site_id
 _symmetry_equiv_pos_as_xyz
  1  'x, y, z'
loop_
 _atom_site_type_symbol
 _atom_site_label
 _atom_site_symmetry_multiplicity
 _atom_site_fract_x
 _atom_site_fract_y
 _atom_site_fract_z
 _atom_site_occupancy
  Be  Be0  1  0.877086  0.002051  0.875034  1
  Be  Be1  1  0.126078  0.998692  0.127385  1
  Be  Be2  1  0.621175  0.998638  0.622537  1
  Be  Be3  1  0.377583  0.002537  0.375045  1
  Be  Be4  1  0.872448  0.746540  0.125907  1
  Be  Be5  1  0.370655  0.746566  0.624089  1
  Al  Al6  1  0.127970  0.252973  0.874997  1
  Al  Al7  1  0.378658  0.252696  0.125963  1
  Al  Al8  1  0.876711  0.252668  0.624043  1
  Al  Al9  1  0.627345  0.252333  0.375012  1
  Al  Al10  1  0.373707  0.498728  0.874979  1
  Al  Al11  1  0.627265  0.501436  0.125830  1
  Al  Al12  1  0.125667  0.501483  0.624184  1
  Al  Al13  1  0.872014  0.497004  0.375009  1
  Al  Al14  1  0.622156  0.747140  0.875014  1
  V  V15  1  0.122644  0.747658  0.374987  1
  Rh  Rh16  1  0.124503  0.369449  0.246405  1
  Rh  Rh17  1  0.124503  0.878096  0.755052  1
  Rh  Rh18  1  0.873041  0.369426  0.994951  1
  Rh  Rh19  1  0.371449  0.877299  0.002572  1
  Rh  Rh20  1  0.873041  0.878090  0.503614  1
  Rh  Rh21  1  0.371449  0.368877  0.494150  1
  Rh  Rh22  1  0.624723  0.877260  0.255815  1
  Rh  Rh23  1  0.624723  0.368910  0.747463  1
  Rh  Rh24  1  0.879070  0.115990  0.240829  1
  Rh  Rh25  1  0.879070  0.638243  0.763080  1
  Rh  Rh26  1  0.625165  0.115971  0.986919  1
  Rh  Rh27  1  0.124898  0.637419  0.009786  1
  Rh  Rh28  1  0.625165  0.638247  0.509195  1
  Rh  Rh29  1  0.124898  0.115113  0.487480  1
  Rh  Rh30  1  0.377570  0.637371  0.262473  1
  Rh  Rh31  1  0.377570  0.115097  0.740197  1
