# generated using pymatgen
data_LuCu3AgPt
_symmetry_space_group_name_H-M   'P 1'
_cell_length_a   5.04497735
_cell_length_b   5.04497658
_cell_length_c   5.15326339
_cell_angle_alpha   60.69271025
_cell_angle_beta   60.69272001
_cell_angle_gamma   60.00001614
_symmetry_Int_Tables_number   1
_chemical_formula_structural   LuCu3AgPt
_chemical_formula_sum   'Lu1 Cu3 Ag1 Pt1'
_cell_volume   93.70322125
_cell_formula_units_Z   1
loop_
 _symmetry_equiv_pos_site_id
 _symmetry_equiv_pos_as_xyz
  1  'x, y, z'
loop_
 _atom_site_type_symbol
 _atom_site_label
 _atom_site_symmetry_multiplicity
 _atom_site_fract_x
 _atom_site_fract_y
 _atom_site_fract_z
 _atom_site_occupancy
  Lu  Lu0  1  0.997702  0.997702  0.006894  1
  Cu  Cu1  1  0.626110  0.128095  0.619685  1
  Cu  Cu2  1  0.128095  0.626110  0.619685  1
  Cu  Cu3  1  0.626110  0.626110  0.619685  1
  Ag  Ag4  1  0.245119  0.245119  0.264643  1
  Pt  Pt5  1  0.626864  0.626864  0.119408  1
