# generated using pymatgen
data_CaGd2Er(Pt2O7)2
_symmetry_space_group_name_H-M   'P 1'
_cell_length_a   7.31415879
_cell_length_b   7.33079997
_cell_length_c   7.31034400
_cell_angle_alpha   60.12387013
_cell_angle_beta   59.98273440
_cell_angle_gamma   60.07505407
_symmetry_Int_Tables_number   1
_chemical_formula_structural   CaGd2Er(Pt2O7)2
_chemical_formula_sum   'Ca1 Gd2 Er1 Pt4 O14'
_cell_volume   277.54462004
_cell_formula_units_Z   1
loop_
 _symmetry_equiv_pos_site_id
 _symmetry_equiv_pos_as_xyz
  1  'x, y, z'
loop_
 _atom_site_type_symbol
 _atom_site_label
 _atom_site_symmetry_multiplicity
 _atom_site_fract_x
 _atom_site_fract_y
 _atom_site_fract_z
 _atom_site_occupancy
  Ca  Ca0  1  0.625000  0.125000  0.625000  1
  Gd  Gd1  1  0.625000  0.625000  0.625000  1
  Gd  Gd2  1  0.125000  0.625000  0.625000  1
  Er  Er3  1  0.625000  0.625000  0.125000  1
  Pt  Pt4  1  0.625000  0.125000  0.125000  1
  Pt  Pt5  1  0.125000  0.125000  0.125000  1
  Pt  Pt6  1  0.125000  0.625000  0.125000  1
  Pt  Pt7  1  0.125000  0.125000  0.625000  1
  O  O8  1  0.037031  0.463610  0.462327  1
  O  O9  1  0.786833  0.786342  0.208891  1
  O  O10  1  0.788900  0.221289  0.200914  1
  O  O11  1  0.750964  0.742110  0.755963  1
  O  O12  1  0.032066  0.463658  0.041109  1
  O  O13  1  0.460571  0.032368  0.459905  1
  O  O14  1  0.047156  0.032368  0.459905  1
  O  O15  1  0.499036  0.507890  0.494037  1
  O  O16  1  0.202844  0.217632  0.790095  1
  O  O17  1  0.217934  0.786342  0.208891  1
  O  O18  1  0.789429  0.217632  0.790095  1
  O  O19  1  0.461100  0.028711  0.049086  1
  O  O20  1  0.463167  0.463658  0.041109  1
  O  O21  1  0.212969  0.786390  0.787673  1
