# generated using pymatgen
data_Tb2Co5Si2NiB2
_symmetry_space_group_name_H-M   'P 1'
_cell_length_a   5.12187090
_cell_length_b   5.11716666
_cell_length_c   6.48836700
_cell_angle_alpha   90.00008765
_cell_angle_beta   89.99986226
_cell_angle_gamma   119.76307788
_symmetry_Int_Tables_number   1
_chemical_formula_structural   Tb2Co5Si2NiB2
_chemical_formula_sum   'Tb2 Co5 Si2 Ni1 B2'
_cell_volume   147.62370917
_cell_formula_units_Z   1
loop_
 _symmetry_equiv_pos_site_id
 _symmetry_equiv_pos_as_xyz
  1  'x, y, z'
loop_
 _atom_site_type_symbol
 _atom_site_label
 _atom_site_symmetry_multiplicity
 _atom_site_fract_x
 _atom_site_fract_y
 _atom_site_fract_z
 _atom_site_occupancy
  Tb  Tb0  1  0.999977  0.000001  0.997083  1
  Tb  Tb1  1  0.999987  0.000000  0.501206  1
  Co  Co2  1  0.499986  0.000000  0.283290  1
  Co  Co3  1  0.999984  0.500000  0.283306  1
  Co  Co4  1  0.499986  0.000000  0.715642  1
  Co  Co5  1  0.499984  0.500000  0.719168  1
  Co  Co6  1  0.999984  0.499999  0.715628  1
  Si  Si7  1  0.331837  0.668379  0.998114  1
  Si  Si8  1  0.668124  0.331623  0.998114  1
  Ni  Ni9  1  0.499981  0.499999  0.283331  1
  B  B10  1  0.331566  0.668562  0.502559  1
  B  B11  1  0.668401  0.331438  0.502559  1
