# generated using pymatgen
data_Zr3Ti3Pb5
_symmetry_space_group_name_H-M   'P 1'
_cell_length_a   9.77536800
_cell_length_b   9.77536798
_cell_length_c   5.93716800
_cell_angle_alpha   90.00000000
_cell_angle_beta   90.00000000
_cell_angle_gamma   120.00000006
_symmetry_Int_Tables_number   1
_chemical_formula_structural   Zr3Ti3Pb5
_chemical_formula_sum   'Zr6 Ti6 Pb10'
_cell_volume   491.33330084
_cell_formula_units_Z   2
loop_
 _symmetry_equiv_pos_site_id
 _symmetry_equiv_pos_as_xyz
  1  'x, y, z'
loop_
 _atom_site_type_symbol
 _atom_site_label
 _atom_site_symmetry_multiplicity
 _atom_site_fract_x
 _atom_site_fract_y
 _atom_site_fract_z
 _atom_site_occupancy
  Zr  Zr0  1  0.844485  0.688970  0.750000  1
  Zr  Zr1  1  0.155515  0.844485  0.250000  1
  Zr  Zr2  1  0.688970  0.844485  0.250000  1
  Zr  Zr3  1  0.311030  0.155515  0.750000  1
  Zr  Zr4  1  0.844485  0.155515  0.750000  1
  Zr  Zr5  1  0.155515  0.311030  0.250000  1
  Ti  Ti6  1  0.500000  0.000000  0.500000  1
  Ti  Ti7  1  0.500000  0.500000  0.000000  1
  Ti  Ti8  1  0.000000  0.500000  0.000000  1
  Ti  Ti9  1  0.000000  0.500000  0.500000  1
  Ti  Ti10  1  0.500000  0.000000  0.000000  1
  Ti  Ti11  1  0.500000  0.500000  0.500000  1
  Pb  Pb12  1  0.210503  0.421007  0.750000  1
  Pb  Pb13  1  0.789497  0.210503  0.250000  1
  Pb  Pb14  1  0.421007  0.210503  0.250000  1
  Pb  Pb15  1  0.578993  0.789497  0.750000  1
  Pb  Pb16  1  0.210503  0.789497  0.750000  1
  Pb  Pb17  1  0.789497  0.578993  0.250000  1
  Pb  Pb18  1  0.666667  0.333333  0.750000  1
  Pb  Pb19  1  0.333333  0.666667  0.250000  1
  Pb  Pb20  1  0.000000  0.000000  0.500000  1
  Pb  Pb21  1  0.000000  0.000000  0.000000  1
