# generated using pymatgen
data_Cs2V2Cu4Se7S
_symmetry_space_group_name_H-M   'P 1'
_cell_length_a   10.39915404
_cell_length_b   10.37245804
_cell_length_c   7.84721509
_cell_angle_alpha   89.87957395
_cell_angle_beta   89.81942327
_cell_angle_gamma   148.63788797
_symmetry_Int_Tables_number   1
_chemical_formula_structural   Cs2V2Cu4Se7S
_chemical_formula_sum   'Cs2 V2 Cu4 Se7 S1'
_cell_volume   440.50373544
_cell_formula_units_Z   1
loop_
 _symmetry_equiv_pos_site_id
 _symmetry_equiv_pos_as_xyz
  1  'x, y, z'
loop_
 _atom_site_type_symbol
 _atom_site_label
 _atom_site_symmetry_multiplicity
 _atom_site_fract_x
 _atom_site_fract_y
 _atom_site_fract_z
 _atom_site_occupancy
  Cs  Cs0  1  0.174476  0.540728  0.747332  1
  Cs  Cs1  1  0.541791  0.172949  0.249973  1
  V  V2  1  0.704910  0.504872  0.749670  1
  V  V3  1  0.504818  0.705358  0.252544  1
  Cu  Cu4  1  0.622197  0.626057  0.500025  1
  Cu  Cu5  1  0.999476  0.199295  0.256922  1
  Cu  Cu6  1  0.204160  0.004104  0.748697  1
  Cu  Cu7  1  0.615303  0.615761  0.000908  1
  Se  Se8  1  0.741761  0.947240  0.007351  1
  Se  Se9  1  0.367388  0.361831  0.750752  1
  Se  Se10  1  0.357769  0.363882  0.252921  1
  Se  Se11  1  0.946145  0.742780  0.505105  1
  Se  Se12  1  0.562860  0.173763  0.749689  1
  Se  Se13  1  0.942569  0.737924  0.993608  1
  Se  Se14  1  0.173861  0.562998  0.255175  1
  S  S15  1  0.732320  0.932260  0.479329  1
