# generated using pymatgen
data_Nd5AlRuO12
_symmetry_space_group_name_H-M   'P 1'
_cell_length_a   7.02575495
_cell_length_b   7.02575566
_cell_length_c   7.58207533
_cell_angle_alpha   74.48233878
_cell_angle_beta   74.48233672
_cell_angle_gamma   50.34989856
_symmetry_Int_Tables_number   1
_chemical_formula_structural   Nd5AlRuO12
_chemical_formula_sum   'Nd5 Al1 Ru1 O12'
_cell_volume   275.28518201
_cell_formula_units_Z   1
loop_
 _symmetry_equiv_pos_site_id
 _symmetry_equiv_pos_as_xyz
  1  'x, y, z'
loop_
 _atom_site_type_symbol
 _atom_site_label
 _atom_site_symmetry_multiplicity
 _atom_site_fract_x
 _atom_site_fract_y
 _atom_site_fract_z
 _atom_site_occupancy
  Nd  Nd0  1  0.316130  0.297538  0.356757  1
  Nd  Nd1  1  0.702462  0.683870  0.643243  1
  Nd  Nd2  1  0.693163  0.693495  0.164718  1
  Nd  Nd3  1  0.306505  0.306837  0.835282  1
  Nd  Nd4  1  0.002722  0.997278  0.500000  1
  Al  Al5  1  0.746937  0.253063  0.000000  1
  Ru  Ru6  1  0.235154  0.764846  0.000000  1
  O  O7  1  0.099637  0.594579  0.576557  1
  O  O8  1  0.995812  0.002684  0.170986  1
  O  O9  1  0.405421  0.900363  0.423443  1
  O  O10  1  0.495941  0.505897  0.170562  1
  O  O11  1  0.100936  0.583456  0.078564  1
  O  O12  1  0.909409  0.400636  0.420598  1
  O  O13  1  0.997316  0.004188  0.829014  1
  O  O14  1  0.599364  0.090590  0.579402  1
  O  O15  1  0.494103  0.504059  0.829438  1
  O  O16  1  0.585801  0.103357  0.076695  1
  O  O17  1  0.416544  0.899064  0.921436  1
  O  O18  1  0.896643  0.414199  0.923305  1
