# generated using pymatgen
data_Ta12Al7Ga(CuC)4
_symmetry_space_group_name_H-M   'P 1'
_cell_length_a   8.28857456
_cell_length_b   8.28857516
_cell_length_c   8.28857307
_cell_angle_alpha   60.01214081
_cell_angle_beta   60.01213739
_cell_angle_gamma   60.01213653
_symmetry_Int_Tables_number   1
_chemical_formula_structural   Ta12Al7Ga(CuC)4
_chemical_formula_sum   'Ta12 Al7 Ga1 Cu4 C4'
_cell_volume   402.75783272
_cell_formula_units_Z   1
loop_
 _symmetry_equiv_pos_site_id
 _symmetry_equiv_pos_as_xyz
  1  'x, y, z'
loop_
 _atom_site_type_symbol
 _atom_site_label
 _atom_site_symmetry_multiplicity
 _atom_site_fract_x
 _atom_site_fract_y
 _atom_site_fract_z
 _atom_site_occupancy
  Ta  Ta0  1  0.567137  0.932773  0.567137  1
  Ta  Ta1  1  0.317682  0.682704  0.682704  1
  Ta  Ta2  1  0.682708  0.317027  0.317027  1
  Ta  Ta3  1  0.317027  0.682708  0.317027  1
  Ta  Ta4  1  0.682704  0.682704  0.317682  1
  Ta  Ta5  1  0.317027  0.317027  0.682708  1
  Ta  Ta6  1  0.567137  0.567137  0.932773  1
  Ta  Ta7  1  0.932773  0.567137  0.567137  1
  Ta  Ta8  1  0.567374  0.932743  0.932743  1
  Ta  Ta9  1  0.932743  0.932743  0.567374  1
  Ta  Ta10  1  0.682704  0.317682  0.682704  1
  Ta  Ta11  1  0.932743  0.567374  0.932743  1
  Al  Al12  1  0.999924  0.333253  0.333253  1
  Al  Al13  1  0.333253  0.999924  0.333253  1
  Al  Al14  1  0.333253  0.333253  0.999924  1
  Al  Al15  1  0.916352  0.250392  0.916352  1
  Al  Al16  1  0.916352  0.916352  0.250392  1
  Al  Al17  1  0.250392  0.916352  0.916352  1
  Al  Al18  1  0.333379  0.333379  0.333379  1
  Ga  Ga19  1  0.916078  0.916078  0.916078  1
  Cu  Cu20  1  0.124644  0.124644  0.124644  1
  Cu  Cu21  1  0.623940  0.126053  0.126053  1
  Cu  Cu22  1  0.126053  0.623940  0.126053  1
  Cu  Cu23  1  0.126053  0.126053  0.623940  1
  C  C24  1  0.624943  0.624943  0.624943  1
  C  C25  1  0.124968  0.625330  0.625330  1
  C  C26  1  0.625330  0.124968  0.625330  1
  C  C27  1  0.625330  0.625330  0.124968  1
