# generated using pymatgen
data_Ca2Si7Rh12
_symmetry_space_group_name_H-M   'P 1'
_cell_length_a   9.76470100
_cell_length_b   9.76470114
_cell_length_c   3.87452100
_cell_angle_alpha   90.00000000
_cell_angle_beta   90.00000000
_cell_angle_gamma   120.00000291
_symmetry_Int_Tables_number   1
_chemical_formula_structural   Ca2Si7Rh12
_chemical_formula_sum   'Ca2 Si7 Rh12'
_cell_volume   319.93852875
_cell_formula_units_Z   1
loop_
 _symmetry_equiv_pos_site_id
 _symmetry_equiv_pos_as_xyz
  1  'x, y, z'
loop_
 _atom_site_type_symbol
 _atom_site_label
 _atom_site_symmetry_multiplicity
 _atom_site_fract_x
 _atom_site_fract_y
 _atom_site_fract_z
 _atom_site_occupancy
  Ca  Ca0  1  0.000000  0.000000  0.748992  1
  Ca  Ca1  1  0.333333  0.666667  0.252094  1
  Si  Si2  1  0.666667  0.333333  0.525856  1
  Si  Si3  1  0.066020  0.622381  0.750616  1
  Si  Si4  1  0.377619  0.443638  0.750616  1
  Si  Si5  1  0.556362  0.933980  0.750616  1
  Si  Si6  1  0.267501  0.043882  0.250421  1
  Si  Si7  1  0.956118  0.223619  0.250421  1
  Si  Si8  1  0.776381  0.732499  0.250421  1
  Rh  Rh9  1  0.810201  0.595513  0.746250  1
  Rh  Rh10  1  0.404487  0.214687  0.746250  1
  Rh  Rh11  1  0.785313  0.189799  0.746250  1
  Rh  Rh12  1  0.525658  0.075729  0.255714  1
  Rh  Rh13  1  0.924271  0.449929  0.255714  1
  Rh  Rh14  1  0.550071  0.474342  0.255714  1
  Rh  Rh15  1  0.109255  0.395148  0.752365  1
  Rh  Rh16  1  0.604852  0.714107  0.752365  1
  Rh  Rh17  1  0.285893  0.890745  0.752365  1
  Rh  Rh18  1  0.224233  0.272709  0.248966  1
  Rh  Rh19  1  0.727291  0.951524  0.248966  1
  Rh  Rh20  1  0.048476  0.775767  0.248966  1
