# generated using pymatgen
data_Ac7Tm(AgSn)8
_symmetry_space_group_name_H-M   'P 1'
_cell_length_a   9.80090600
_cell_length_b   9.80090550
_cell_length_c   8.17165900
_cell_angle_alpha   90.00000000
_cell_angle_beta   90.00000000
_cell_angle_gamma   120.00000168
_symmetry_Int_Tables_number   1
_chemical_formula_structural   Ac7Tm(AgSn)8
_chemical_formula_sum   'Ac7 Tm1 Ag8 Sn8'
_cell_volume   679.78767373
_cell_formula_units_Z   1
loop_
 _symmetry_equiv_pos_site_id
 _symmetry_equiv_pos_as_xyz
  1  'x, y, z'
loop_
 _atom_site_type_symbol
 _atom_site_label
 _atom_site_symmetry_multiplicity
 _atom_site_fract_x
 _atom_site_fract_y
 _atom_site_fract_z
 _atom_site_occupancy
  Ac  Ac0  1  0.513790  0.027580  0.496062  1
  Ac  Ac1  1  0.513790  0.486210  0.496062  1
  Ac  Ac2  1  0.972420  0.486210  0.496062  1
  Ac  Ac3  1  0.485275  0.970551  0.995762  1
  Ac  Ac4  1  0.485275  0.514725  0.995762  1
  Ac  Ac5  1  0.029449  0.514725  0.995762  1
  Ac  Ac6  1  0.000000  0.000000  0.492079  1
  Tm  Tm7  1  0.000000  0.000000  0.991634  1
  Ag  Ag8  1  0.166050  0.332102  0.279472  1
  Ag  Ag9  1  0.166050  0.833950  0.279472  1
  Ag  Ag10  1  0.667898  0.833950  0.279472  1
  Ag  Ag11  1  0.838288  0.676575  0.812253  1
  Ag  Ag12  1  0.838288  0.161712  0.812253  1
  Ag  Ag13  1  0.323425  0.161712  0.812253  1
  Ag  Ag14  1  0.333333  0.666667  0.698373  1
  Ag  Ag15  1  0.666667  0.333333  0.195760  1
  Sn  Sn16  1  0.163755  0.327510  0.717973  1
  Sn  Sn17  1  0.163755  0.836245  0.717973  1
  Sn  Sn18  1  0.672490  0.836245  0.717973  1
  Sn  Sn19  1  0.838925  0.677850  0.201340  1
  Sn  Sn20  1  0.838925  0.161075  0.201340  1
  Sn  Sn21  1  0.322150  0.161075  0.201340  1
  Sn  Sn22  1  0.333333  0.666667  0.283454  1
  Sn  Sn23  1  0.666667  0.333333  0.772109  1
