# generated using pymatgen
data_Zr(FeP)2
_symmetry_space_group_name_H-M   'P 1'
_cell_length_a   3.72670604
_cell_length_b   3.72670685
_cell_length_c   5.32676700
_cell_angle_alpha   110.47565621
_cell_angle_beta   110.47566085
_cell_angle_gamma   90.00000279
_symmetry_Int_Tables_number   1
_chemical_formula_structural   Zr(FeP)2
_chemical_formula_sum   'Zr1 Fe2 P2'
_cell_volume   64.29308231
_cell_formula_units_Z   1
loop_
 _symmetry_equiv_pos_site_id
 _symmetry_equiv_pos_as_xyz
  1  'x, y, z'
loop_
 _atom_site_type_symbol
 _atom_site_label
 _atom_site_symmetry_multiplicity
 _atom_site_fract_x
 _atom_site_fract_y
 _atom_site_fract_z
 _atom_site_occupancy
  Zr  Zr0  1  0.000000  0.000000  0.000000  1
  Fe  Fe1  1  0.750000  0.250000  0.500000  1
  Fe  Fe2  1  0.250000  0.750000  0.500000  1
  P  P3  1  0.625474  0.625474  0.250948  1
  P  P4  1  0.374526  0.374526  0.749052  1
