# generated using pymatgen
data_Yb2Dy5Y(B6Os)4
_symmetry_space_group_name_H-M   'P 1'
_cell_length_a   3.65534700
_cell_length_b   9.17082674
_cell_length_c   11.56343207
_cell_angle_alpha   89.99742348
_cell_angle_beta   90.00000000
_cell_angle_gamma   90.00000000
_symmetry_Int_Tables_number   1
_chemical_formula_structural   Yb2Dy5Y(B6Os)4
_chemical_formula_sum   'Yb2 Dy5 Y1 B24 Os4'
_cell_volume   387.63577567
_cell_formula_units_Z   1
loop_
 _symmetry_equiv_pos_site_id
 _symmetry_equiv_pos_as_xyz
  1  'x, y, z'
loop_
 _atom_site_type_symbol
 _atom_site_label
 _atom_site_symmetry_multiplicity
 _atom_site_fract_x
 _atom_site_fract_y
 _atom_site_fract_z
 _atom_site_occupancy
  Yb  Yb0  1  0.000000  0.676887  0.585710  1
  Yb  Yb1  1  0.000000  0.822881  0.085699  1
  Dy  Dy2  1  0.000000  0.175758  0.914656  1
  Dy  Dy3  1  0.000000  0.940932  0.369170  1
  Dy  Dy4  1  0.000000  0.056351  0.629773  1
  Dy  Dy5  1  0.000000  0.443642  0.129905  1
  Dy  Dy6  1  0.000000  0.559147  0.869575  1
  Y  Y7  1  0.000000  0.323881  0.414739  1
  B  B8  1  0.500000  0.554308  0.433607  1
  B  B9  1  0.500000  0.446299  0.567813  1
  B  B10  1  0.500000  0.053776  0.067274  1
  B  B11  1  0.500000  0.946024  0.933319  1
  B  B12  1  0.500000  0.747539  0.418094  1
  B  B13  1  0.500000  0.251655  0.581987  1
  B  B14  1  0.500000  0.248298  0.081565  1
  B  B15  1  0.500000  0.752818  0.918205  1
  B  B16  1  0.500000  0.789377  0.265015  1
  B  B17  1  0.500000  0.209249  0.734928  1
  B  B18  1  0.500000  0.290557  0.234526  1
  B  B19  1  0.500000  0.710777  0.765132  1
  B  B20  1  0.500000  0.630905  0.185967  1
  B  B21  1  0.500000  0.368955  0.814237  1
  B  B22  1  0.500000  0.130701  0.313588  1
  B  B23  1  0.500000  0.869206  0.685813  1
  B  B24  1  0.500000  0.983276  0.211123  1
  B  B25  1  0.500000  0.016338  0.788604  1
  B  B26  1  0.500000  0.483789  0.288657  1
  B  B27  1  0.500000  0.516655  0.711716  1
  B  B28  1  0.500000  0.601461  0.027994  1
  B  B29  1  0.500000  0.398100  0.971659  1
  B  B30  1  0.500000  0.101619  0.471386  1
  B  B31  1  0.500000  0.898815  0.527580  1
  Os  Os32  1  0.000000  0.636850  0.321186  1
  Os  Os33  1  0.000000  0.360882  0.679625  1
  Os  Os34  1  0.000000  0.139027  0.179064  1
  Os  Os35  1  0.000000  0.863263  0.821111  1
