# generated using pymatgen
data_Dy5YAl24(Os3Pt)2
_symmetry_space_group_name_H-M   'P 1'
_cell_length_a   8.85283848
_cell_length_b   8.81868245
_cell_length_c   9.56381557
_cell_angle_alpha   89.99802428
_cell_angle_beta   90.20956255
_cell_angle_gamma   119.87100103
_symmetry_Int_Tables_number   1
_chemical_formula_structural   Dy5YAl24(Os3Pt)2
_chemical_formula_sum   'Dy5 Y1 Al24 Os6 Pt2'
_cell_volume   647.45159622
_cell_formula_units_Z   1
loop_
 _symmetry_equiv_pos_site_id
 _symmetry_equiv_pos_as_xyz
  1  'x, y, z'
loop_
 _atom_site_type_symbol
 _atom_site_label
 _atom_site_symmetry_multiplicity
 _atom_site_fract_x
 _atom_site_fract_y
 _atom_site_fract_z
 _atom_site_occupancy
  Dy  Dy0  1  0.809567  0.613410  0.747312  1
  Dy  Dy1  1  0.615211  0.807638  0.252515  1
  Dy  Dy2  1  0.384849  0.192432  0.747481  1
  Dy  Dy3  1  0.190432  0.803936  0.252697  1
  Dy  Dy4  1  0.809584  0.196158  0.747314  1
  Y  Y5  1  0.190454  0.386497  0.252596  1
  Al  Al6  1  0.328601  0.664337  0.026175  1
  Al  Al7  1  0.671405  0.335695  0.973760  1
  Al  Al8  1  0.666521  0.333276  0.522613  1
  Al  Al9  1  0.333488  0.666754  0.477438  1
  Al  Al10  1  0.164610  0.327880  0.575826  1
  Al  Al11  1  0.835391  0.672116  0.424240  1
  Al  Al12  1  0.672939  0.836459  0.575161  1
  Al  Al13  1  0.841458  0.674208  0.077608  1
  Al  Al14  1  0.327091  0.163518  0.424889  1
  Al  Al15  1  0.158531  0.325786  0.922331  1
  Al  Al16  1  0.164599  0.836723  0.575773  1
  Al  Al17  1  0.323426  0.161665  0.078732  1
  Al  Al18  1  0.835351  0.163252  0.424279  1
  Al  Al19  1  0.676608  0.838301  0.921217  1
  Al  Al20  1  0.841401  0.167229  0.077550  1
  Al  Al21  1  0.158536  0.832740  0.922388  1
  Al  Al22  1  0.561986  0.124874  0.251889  1
  Al  Al23  1  0.438006  0.875117  0.748103  1
  Al  Al24  1  0.876083  0.438079  0.248950  1
  Al  Al25  1  0.123921  0.561965  0.751066  1
  Al  Al26  1  0.562043  0.437144  0.251913  1
  Al  Al27  1  0.438000  0.562895  0.748094  1
  Al  Al28  1  0.997887  0.998785  0.250347  1
  Al  Al29  1  0.002015  0.001007  0.749650  1
  Os  Os30  1  0.999957  0.500018  0.999949  1
  Os  Os31  1  0.500001  0.999992  0.499983  1
  Os  Os32  1  0.999928  0.500046  0.500114  1
  Os  Os33  1  0.500064  0.500028  0.500063  1
  Os  Os34  1  0.000010  0.000011  0.000036  1
  Os  Os35  1  0.000013  0.000030  0.499958  1
  Pt  Pt36  1  0.500001  0.999999  0.000011  1
  Pt  Pt37  1  0.500034  0.500002  0.999980  1
