# generated using pymatgen
data_Zr3SiMo(AsRu)2
_symmetry_space_group_name_H-M   'P 1'
_cell_length_a   6.85308076
_cell_length_b   6.96795881
_cell_length_c   3.65784200
_cell_angle_alpha   90.00000000
_cell_angle_beta   90.00000000
_cell_angle_gamma   120.55608539
_symmetry_Int_Tables_number   1
_chemical_formula_structural   Zr3SiMo(AsRu)2
_chemical_formula_sum   'Zr3 Si1 Mo1 As2 Ru2'
_cell_volume   150.41323792
_cell_formula_units_Z   1
loop_
 _symmetry_equiv_pos_site_id
 _symmetry_equiv_pos_as_xyz
  1  'x, y, z'
loop_
 _atom_site_type_symbol
 _atom_site_label
 _atom_site_symmetry_multiplicity
 _atom_site_fract_x
 _atom_site_fract_y
 _atom_site_fract_z
 _atom_site_occupancy
  Zr  Zr0  1  0.402244  0.407296  0.500000  1
  Zr  Zr1  1  0.597756  0.005052  0.500000  1
  Zr  Zr2  1  0.000000  0.593477  0.500000  1
  Si  Si3  1  0.000000  0.988627  0.500000  1
  Mo  Mo4  1  0.000000  0.242749  0.000000  1
  As  As5  1  0.662948  0.335041  0.000000  1
  As  As6  1  0.337052  0.672094  0.000000  1
  Ru  Ru7  1  0.242959  0.999311  0.000000  1
  Ru  Ru8  1  0.757041  0.756352  0.000000  1
