# generated using pymatgen
data_ErSi4(PtRh)3
_symmetry_space_group_name_H-M   'P 1'
_cell_length_a   7.10967500
_cell_length_b   7.10967461
_cell_length_c   3.81216600
_cell_angle_alpha   90.00000000
_cell_angle_beta   90.00000000
_cell_angle_gamma   119.99999717
_symmetry_Int_Tables_number   1
_chemical_formula_structural   ErSi4(PtRh)3
_chemical_formula_sum   'Er1 Si4 Pt3 Rh3'
_cell_volume   166.87908928
_cell_formula_units_Z   1
loop_
 _symmetry_equiv_pos_site_id
 _symmetry_equiv_pos_as_xyz
  1  'x, y, z'
loop_
 _atom_site_type_symbol
 _atom_site_label
 _atom_site_symmetry_multiplicity
 _atom_site_fract_x
 _atom_site_fract_y
 _atom_site_fract_z
 _atom_site_occupancy
  Er  Er0  1  0.000000  0.000000  0.000000  1
  Si  Si1  1  0.333333  0.666667  0.000000  1
  Si  Si2  1  0.799766  0.200234  0.500000  1
  Si  Si3  1  0.799766  0.599531  0.500000  1
  Si  Si4  1  0.400469  0.200234  0.500000  1
  Pt  Pt5  1  0.192659  0.807341  0.500000  1
  Pt  Pt6  1  0.192659  0.385317  0.500000  1
  Pt  Pt7  1  0.614683  0.807341  0.500000  1
  Rh  Rh8  1  0.533384  0.466616  0.000000  1
  Rh  Rh9  1  0.533384  0.066766  0.000000  1
  Rh  Rh10  1  0.933234  0.466616  0.000000  1
