# generated using pymatgen
data_Al5ZnRu
_symmetry_space_group_name_H-M   'P 1'
_cell_length_a   5.00550459
_cell_length_b   5.00550566
_cell_length_c   8.89070700
_cell_angle_alpha   90.00000000
_cell_angle_beta   90.00000000
_cell_angle_gamma   98.46729844
_symmetry_Int_Tables_number   1
_chemical_formula_structural   Al5ZnRu
_chemical_formula_sum   'Al10 Zn2 Ru2'
_cell_volume   220.32934777
_cell_formula_units_Z   2
loop_
 _symmetry_equiv_pos_site_id
 _symmetry_equiv_pos_as_xyz
  1  'x, y, z'
loop_
 _atom_site_type_symbol
 _atom_site_label
 _atom_site_symmetry_multiplicity
 _atom_site_fract_x
 _atom_site_fract_y
 _atom_site_fract_z
 _atom_site_occupancy
  Al  Al0  1  0.672470  0.319630  0.001441  1
  Al  Al1  1  0.327530  0.680370  0.501441  1
  Al  Al2  1  0.319630  0.672470  0.001441  1
  Al  Al3  1  0.680370  0.327530  0.501441  1
  Al  Al4  1  0.134391  0.134391  0.396417  1
  Al  Al5  1  0.865609  0.865609  0.896417  1
  Al  Al6  1  0.976589  0.612559  0.249740  1
  Al  Al7  1  0.023411  0.387441  0.749740  1
  Al  Al8  1  0.612559  0.976589  0.249740  1
  Al  Al9  1  0.387441  0.023411  0.749740  1
  Zn  Zn10  1  0.125973  0.125973  0.099245  1
  Zn  Zn11  1  0.874027  0.874027  0.599245  1
  Ru  Ru12  1  0.463575  0.463575  0.251974  1
  Ru  Ru13  1  0.536425  0.536425  0.751974  1
