# generated using pymatgen
data_YTm11Tc3Pt
_symmetry_space_group_name_H-M   'P 1'
_cell_length_a   6.22457358
_cell_length_b   7.34719483
_cell_length_c   9.02365900
_cell_angle_alpha   90.00000000
_cell_angle_beta   90.00000000
_cell_angle_gamma   89.83242861
_symmetry_Int_Tables_number   1
_chemical_formula_structural   YTm11Tc3Pt
_chemical_formula_sum   'Y1 Tm11 Tc3 Pt1'
_cell_volume   412.67862948
_cell_formula_units_Z   1
loop_
 _symmetry_equiv_pos_site_id
 _symmetry_equiv_pos_as_xyz
  1  'x, y, z'
loop_
 _atom_site_type_symbol
 _atom_site_label
 _atom_site_symmetry_multiplicity
 _atom_site_fract_x
 _atom_site_fract_y
 _atom_site_fract_z
 _atom_site_occupancy
  Y  Y0  1  0.125835  0.457125  0.750000  1
  Tm  Tm1  1  0.331647  0.676528  0.066859  1
  Tm  Tm2  1  0.163280  0.176520  0.436213  1
  Tm  Tm3  1  0.664232  0.317921  0.557903  1
  Tm  Tm4  1  0.838691  0.828514  0.941253  1
  Tm  Tm5  1  0.664232  0.317921  0.942097  1
  Tm  Tm6  1  0.838691  0.828514  0.558747  1
  Tm  Tm7  1  0.331647  0.676528  0.433141  1
  Tm  Tm8  1  0.163280  0.176520  0.063787  1
  Tm  Tm9  1  0.874245  0.542075  0.250000  1
  Tm  Tm10  1  0.621940  0.037409  0.250000  1
  Tm  Tm11  1  0.373449  0.964664  0.750000  1
  Tc  Tc12  1  0.037627  0.884653  0.250000  1
  Tc  Tc13  1  0.464540  0.385753  0.250000  1
  Tc  Tc14  1  0.957282  0.113809  0.750000  1
  Pt  Pt15  1  0.549379  0.615547  0.750000  1
