# generated using pymatgen
data_Sr10Mg5Mo(Ru2O15)2
_symmetry_space_group_name_H-M   'P 1'
_cell_length_a   5.61266661
_cell_length_b   5.63432774
_cell_length_c   23.19229194
_cell_angle_alpha   89.66005042
_cell_angle_beta   96.87940483
_cell_angle_gamma   119.58212166
_symmetry_Int_Tables_number   1
_chemical_formula_structural   Sr10Mg5Mo(Ru2O15)2
_chemical_formula_sum   'Sr10 Mg5 Mo1 Ru4 O30'
_cell_volume   632.02611114
_cell_formula_units_Z   1
loop_
 _symmetry_equiv_pos_site_id
 _symmetry_equiv_pos_as_xyz
  1  'x, y, z'
loop_
 _atom_site_type_symbol
 _atom_site_label
 _atom_site_symmetry_multiplicity
 _atom_site_fract_x
 _atom_site_fract_y
 _atom_site_fract_z
 _atom_site_occupancy
  Sr  Sr0  1  0.498341  0.248479  0.750500  1
  Sr  Sr1  1  0.698311  0.848511  0.550149  1
  Sr  Sr2  1  0.898601  0.448947  0.350338  1
  Sr  Sr3  1  0.098712  0.048159  0.151206  1
  Sr  Sr4  1  0.297995  0.648692  0.948860  1
  Sr  Sr5  1  0.901288  0.951841  0.848794  1
  Sr  Sr6  1  0.101399  0.551053  0.649662  1
  Sr  Sr7  1  0.301689  0.151489  0.449851  1
  Sr  Sr8  1  0.501659  0.751521  0.249500  1
  Sr  Sr9  1  0.702005  0.351308  0.051140  1
  Mg  Mg10  1  0.599719  0.299880  0.900299  1
  Mg  Mg11  1  0.799716  0.899871  0.699786  1
  Mg  Mg12  1  0.000000  0.500000  0.500000  1
  Mg  Mg13  1  0.200284  0.100129  0.300214  1
  Mg  Mg14  1  0.400281  0.700120  0.099701  1
  Mo  Mo15  1  0.000000  0.000000  0.000000  1
  Ru  Ru16  1  0.199760  0.599813  0.799543  1
  Ru  Ru17  1  0.399989  0.199991  0.600136  1
  Ru  Ru18  1  0.600011  0.800009  0.399864  1
  Ru  Ru19  1  0.800240  0.400187  0.200457  1
  O  O20  1  0.013900  0.250736  0.754482  1
  O  O21  1  0.214465  0.851412  0.554781  1
  O  O22  1  0.414755  0.451564  0.354855  1
  O  O23  1  0.614736  0.051168  0.155220  1
  O  O24  1  0.814660  0.650753  0.954845  1
  O  O25  1  0.385264  0.948832  0.844780  1
  O  O26  1  0.585245  0.548436  0.645145  1
  O  O27  1  0.785535  0.148588  0.445219  1
  O  O28  1  0.986100  0.749264  0.245518  1
  O  O29  1  0.185340  0.349247  0.045155  1
  O  O30  1  0.138326  0.039726  0.655630  1
  O  O31  1  0.338705  0.639896  0.455632  1
  O  O32  1  0.538053  0.239910  0.255929  1
  O  O33  1  0.740436  0.839235  0.056190  1
  O  O34  1  0.939059  0.439447  0.855342  1
  O  O35  1  0.259564  0.160765  0.943810  1
  O  O36  1  0.461947  0.760090  0.744071  1
  O  O37  1  0.661295  0.360104  0.544368  1
  O  O38  1  0.861674  0.960274  0.344370  1
  O  O39  1  0.060941  0.560553  0.144658  1
  O  O40  1  0.642182  0.091592  0.644333  1
  O  O41  1  0.842737  0.691952  0.444380  1
  O  O42  1  0.042703  0.291991  0.244713  1
  O  O43  1  0.244925  0.893203  0.044196  1
  O  O44  1  0.443610  0.492965  0.843881  1
  O  O45  1  0.755075  0.106797  0.955804  1
  O  O46  1  0.957297  0.708009  0.755287  1
  O  O47  1  0.157263  0.308048  0.555620  1
  O  O48  1  0.357818  0.908408  0.355667  1
  O  O49  1  0.556390  0.507035  0.156119  1
