# generated using pymatgen
data_KPr(SbSe3)2
_symmetry_space_group_name_H-M   'P 1'
_cell_length_a   4.29252921
_cell_length_b   15.30015700
_cell_length_c   17.29097500
_cell_angle_alpha   90.00000000
_cell_angle_beta   92.70451904
_cell_angle_gamma   90.00000000
_symmetry_Int_Tables_number   1
_chemical_formula_structural   KPr(SbSe3)2
_chemical_formula_sum   'K4 Pr4 Sb8 Se24'
_cell_volume   1134.34359503
_cell_formula_units_Z   4
loop_
 _symmetry_equiv_pos_site_id
 _symmetry_equiv_pos_as_xyz
  1  'x, y, z'
loop_
 _atom_site_type_symbol
 _atom_site_label
 _atom_site_symmetry_multiplicity
 _atom_site_fract_x
 _atom_site_fract_y
 _atom_site_fract_z
 _atom_site_occupancy
  K  K0  1  0.266141  0.715541  0.667074  1
  K  K1  1  0.266141  0.784459  0.167074  1
  K  K2  1  0.733859  0.284459  0.332926  1
  K  K3  1  0.733859  0.215541  0.832926  1
  Pr  Pr4  1  0.717040  0.137104  0.092675  1
  Pr  Pr5  1  0.282960  0.862896  0.907325  1
  Pr  Pr6  1  0.717040  0.362896  0.592675  1
  Pr  Pr7  1  0.282960  0.637104  0.407325  1
  Sb  Sb8  1  0.266250  0.122683  0.525426  1
  Sb  Sb9  1  0.266250  0.377317  0.025426  1
  Sb  Sb10  1  0.733750  0.622683  0.974574  1
  Sb  Sb11  1  0.259472  0.030013  0.292159  1
  Sb  Sb12  1  0.740528  0.530013  0.207841  1
  Sb  Sb13  1  0.740528  0.969987  0.707841  1
  Sb  Sb14  1  0.733750  0.877317  0.474574  1
  Sb  Sb15  1  0.259472  0.469987  0.792159  1
  Se  Se16  1  0.310972  0.469237  0.305548  1
  Se  Se17  1  0.689028  0.969237  0.194452  1
  Se  Se18  1  0.310972  0.030763  0.805548  1
  Se  Se19  1  0.246285  0.842968  0.374097  1
  Se  Se20  1  0.753715  0.157032  0.625903  1
  Se  Se21  1  0.709589  0.074031  0.406157  1
  Se  Se22  1  0.290411  0.925969  0.593843  1
  Se  Se23  1  0.219639  0.212040  0.983984  1
  Se  Se24  1  0.246285  0.657032  0.874097  1
  Se  Se25  1  0.219639  0.287960  0.483984  1
  Se  Se26  1  0.753715  0.342968  0.125903  1
  Se  Se27  1  0.290411  0.574031  0.093843  1
  Se  Se28  1  0.189514  0.987459  0.054990  1
  Se  Se29  1  0.768678  0.819396  0.784793  1
  Se  Se30  1  0.689028  0.530763  0.694452  1
  Se  Se31  1  0.768678  0.680604  0.284793  1
  Se  Se32  1  0.709589  0.425969  0.906157  1
  Se  Se33  1  0.231322  0.180604  0.215207  1
  Se  Se34  1  0.231322  0.319396  0.715207  1
  Se  Se35  1  0.780361  0.787960  0.016016  1
  Se  Se36  1  0.810486  0.012541  0.945010  1
  Se  Se37  1  0.189514  0.512541  0.554990  1
  Se  Se38  1  0.810486  0.487459  0.445010  1
  Se  Se39  1  0.780361  0.712040  0.516016  1
