# generated using pymatgen
data_Pr3(WC3)2
_symmetry_space_group_name_H-M   'P 1'
_cell_length_a   8.60534500
_cell_length_b   8.60534515
_cell_length_c   5.33247600
_cell_angle_alpha   90.00000000
_cell_angle_beta   90.00000000
_cell_angle_gamma   119.99998684
_symmetry_Int_Tables_number   1
_chemical_formula_structural   Pr3(WC3)2
_chemical_formula_sum   'Pr6 W4 C12'
_cell_volume   341.97643412
_cell_formula_units_Z   2
loop_
 _symmetry_equiv_pos_site_id
 _symmetry_equiv_pos_as_xyz
  1  'x, y, z'
loop_
 _atom_site_type_symbol
 _atom_site_label
 _atom_site_symmetry_multiplicity
 _atom_site_fract_x
 _atom_site_fract_y
 _atom_site_fract_z
 _atom_site_occupancy
  Pr  Pr0  1  0.615942  0.690414  0.750000  1
  Pr  Pr1  1  0.925527  0.615942  0.250000  1
  Pr  Pr2  1  0.690414  0.074473  0.250000  1
  Pr  Pr3  1  0.309586  0.925527  0.750000  1
  Pr  Pr4  1  0.074473  0.384058  0.750000  1
  Pr  Pr5  1  0.384058  0.309586  0.250000  1
  W  W6  1  0.000000  0.000000  0.500000  1
  W  W7  1  0.000000  0.000000  0.000000  1
  W  W8  1  0.666667  0.333333  0.750000  1
  W  W9  1  0.333333  0.666667  0.250000  1
  C  C10  1  0.956707  0.773317  0.750000  1
  C  C11  1  0.183390  0.956707  0.250000  1
  C  C12  1  0.773317  0.816610  0.250000  1
  C  C13  1  0.226683  0.183390  0.750000  1
  C  C14  1  0.816610  0.043293  0.750000  1
  C  C15  1  0.043293  0.226683  0.250000  1
  C  C16  1  0.862120  0.587538  0.750000  1
  C  C17  1  0.274581  0.862120  0.250000  1
  C  C18  1  0.587538  0.725419  0.250000  1
  C  C19  1  0.412462  0.274581  0.750000  1
  C  C20  1  0.137880  0.412462  0.250000  1
  C  C21  1  0.725419  0.137880  0.750000  1
