# generated using pymatgen
data_Dy16Tm4Ir5Rh7
_symmetry_space_group_name_H-M   'P 1'
_cell_length_a   10.84870995
_cell_length_b   10.84870995
_cell_length_c   6.34573801
_cell_angle_alpha   89.99456350
_cell_angle_beta   89.99456350
_cell_angle_gamma   90.04756366
_symmetry_Int_Tables_number   1
_chemical_formula_structural   Dy16Tm4Ir5Rh7
_chemical_formula_sum   'Dy16 Tm4 Ir5 Rh7'
_cell_volume   746.85824630
_cell_formula_units_Z   1
loop_
 _symmetry_equiv_pos_site_id
 _symmetry_equiv_pos_as_xyz
  1  'x, y, z'
loop_
 _atom_site_type_symbol
 _atom_site_label
 _atom_site_symmetry_multiplicity
 _atom_site_fract_x
 _atom_site_fract_y
 _atom_site_fract_z
 _atom_site_occupancy
  Dy  Dy0  1  0.290049  0.087836  0.377455  1
  Dy  Dy1  1  0.289924  0.910501  0.878681  1
  Dy  Dy2  1  0.709445  0.089176  0.878139  1
  Dy  Dy3  1  0.709298  0.910780  0.377661  1
  Dy  Dy4  1  0.587087  0.789268  0.878774  1
  Dy  Dy5  1  0.586950  0.210699  0.378641  1
  Dy  Dy6  1  0.411600  0.789543  0.378633  1
  Dy  Dy7  1  0.412852  0.210654  0.878570  1
  Dy  Dy8  1  0.210732  0.412913  0.621226  1
  Dy  Dy9  1  0.210457  0.588400  0.121367  1
  Dy  Dy10  1  0.789301  0.413050  0.121359  1
  Dy  Dy11  1  0.789346  0.587148  0.621430  1
  Dy  Dy12  1  0.912164  0.709951  0.122545  1
  Dy  Dy13  1  0.910824  0.290555  0.621861  1
  Dy  Dy14  1  0.089499  0.710076  0.621319  1
  Dy  Dy15  1  0.089220  0.290702  0.122339  1
  Tm  Tm16  1  0.000207  0.999757  0.499969  1
  Tm  Tm17  1  0.000243  0.999793  0.000031  1
  Tm  Tm18  1  0.499949  0.499851  0.000087  1
  Tm  Tm19  1  0.500149  0.500051  0.499913  1
  Ir  Ir20  1  0.151941  0.848059  0.250000  1
  Ir  Ir21  1  0.653251  0.346749  0.750000  1
  Ir  Ir22  1  0.653295  0.653133  0.249902  1
  Ir  Ir23  1  0.346867  0.346705  0.250098  1
  Ir  Ir24  1  0.347370  0.652630  0.750000  1
  Rh  Rh25  1  0.848058  0.151942  0.250000  1
  Rh  Rh26  1  0.847501  0.848089  0.749848  1
  Rh  Rh27  1  0.151911  0.152499  0.750152  1
  Rh  Rh28  1  0.500542  0.000226  0.122328  1
  Rh  Rh29  1  0.500404  0.000208  0.622785  1
  Rh  Rh30  1  0.999792  0.499596  0.877215  1
  Rh  Rh31  1  0.999774  0.499458  0.377672  1
