# generated using pymatgen
data_Tb2Nd3Pb3Br
_symmetry_space_group_name_H-M   'P 1'
_cell_length_a   9.48414700
_cell_length_b   9.48414705
_cell_length_c   6.77747300
_cell_angle_alpha   90.00000000
_cell_angle_beta   90.00000000
_cell_angle_gamma   120.00000333
_symmetry_Int_Tables_number   1
_chemical_formula_structural   Tb2Nd3Pb3Br
_chemical_formula_sum   'Tb4 Nd6 Pb6 Br2'
_cell_volume   527.95264358
_cell_formula_units_Z   2
loop_
 _symmetry_equiv_pos_site_id
 _symmetry_equiv_pos_as_xyz
  1  'x, y, z'
loop_
 _atom_site_type_symbol
 _atom_site_label
 _atom_site_symmetry_multiplicity
 _atom_site_fract_x
 _atom_site_fract_y
 _atom_site_fract_z
 _atom_site_occupancy
  Tb  Tb0  1  0.333333  0.666667  0.000000  1
  Tb  Tb1  1  0.666667  0.333333  0.000000  1
  Tb  Tb2  1  0.666667  0.333333  0.500000  1
  Tb  Tb3  1  0.333333  0.666667  0.500000  1
  Nd  Nd4  1  0.265997  0.000000  0.250000  1
  Nd  Nd5  1  0.734003  0.000000  0.750000  1
  Nd  Nd6  1  0.000000  0.265997  0.250000  1
  Nd  Nd7  1  0.000000  0.734003  0.750000  1
  Nd  Nd8  1  0.734003  0.734003  0.250000  1
  Nd  Nd9  1  0.265997  0.265997  0.750000  1
  Pb  Pb10  1  0.609797  0.000000  0.250000  1
  Pb  Pb11  1  0.390203  0.000000  0.750000  1
  Pb  Pb12  1  0.000000  0.609797  0.250000  1
  Pb  Pb13  1  0.000000  0.390203  0.750000  1
  Pb  Pb14  1  0.390203  0.390203  0.250000  1
  Pb  Pb15  1  0.609797  0.609797  0.750000  1
  Br  Br16  1  0.000000  0.000000  0.000000  1
  Br  Br17  1  0.000000  0.000000  0.500000  1
