# generated using pymatgen
data_Ho6Er10Ga6FeCo
_symmetry_space_group_name_H-M   'P 1'
_cell_length_a   9.93090210
_cell_length_b   9.92374104
_cell_length_c   6.93138703
_cell_angle_alpha   89.99433436
_cell_angle_beta   89.99522263
_cell_angle_gamma   120.00927139
_symmetry_Int_Tables_number   1
_chemical_formula_structural   Ho6Er10Ga6FeCo
_chemical_formula_sum   'Ho6 Er10 Ga6 Fe1 Co1'
_cell_volume   591.52664974
_cell_formula_units_Z   1
loop_
 _symmetry_equiv_pos_site_id
 _symmetry_equiv_pos_as_xyz
  1  'x, y, z'
loop_
 _atom_site_type_symbol
 _atom_site_label
 _atom_site_symmetry_multiplicity
 _atom_site_fract_x
 _atom_site_fract_y
 _atom_site_fract_z
 _atom_site_occupancy
  Ho  Ho0  1  0.462657  0.925316  0.208138  1
  Ho  Ho1  1  0.535995  0.464083  0.707130  1
  Ho  Ho2  1  0.928051  0.464002  0.707163  1
  Ho  Ho3  1  0.536099  0.072184  0.707379  1
  Ho  Ho4  1  0.000054  0.000173  0.231998  1
  Ho  Ho5  1  0.999974  0.999823  0.733107  1
  Er  Er6  1  0.173031  0.826579  0.511005  1
  Er  Er7  1  0.653500  0.826599  0.510967  1
  Er  Er8  1  0.173425  0.346807  0.510811  1
  Er  Er9  1  0.826712  0.173636  0.012403  1
  Er  Er10  1  0.346980  0.173610  0.012369  1
  Er  Er11  1  0.826401  0.652901  0.012632  1
  Er  Er12  1  0.333228  0.666423  0.829779  1
  Er  Er13  1  0.666767  0.333490  0.328382  1
  Er  Er14  1  0.462575  0.537359  0.207614  1
  Er  Er15  1  0.074771  0.537363  0.207670  1
  Ga  Ga16  1  0.163221  0.836545  0.957763  1
  Ga  Ga17  1  0.673393  0.836609  0.957817  1
  Ga  Ga18  1  0.163353  0.326739  0.957783  1
  Ga  Ga19  1  0.836124  0.163835  0.457251  1
  Ga  Ga20  1  0.327694  0.163835  0.457228  1
  Ga  Ga21  1  0.836152  0.672298  0.457209  1
  Fe  Fe22  1  0.333162  0.666380  0.446124  1
  Co  Co23  1  0.666681  0.333410  0.944320  1
