# generated using pymatgen
data_HfZr5Pa4(FeSb3)2
_symmetry_space_group_name_H-M   'P 1'
_cell_length_a   8.94330537
_cell_length_b   8.95896802
_cell_length_c   5.93283300
_cell_angle_alpha   90.00000000
_cell_angle_beta   90.00000000
_cell_angle_gamma   121.57330567
_symmetry_Int_Tables_number   1
_chemical_formula_structural   HfZr5Pa4(FeSb3)2
_chemical_formula_sum   'Hf1 Zr5 Pa4 Fe2 Sb6'
_cell_volume   404.98875664
_cell_formula_units_Z   1
loop_
 _symmetry_equiv_pos_site_id
 _symmetry_equiv_pos_as_xyz
  1  'x, y, z'
loop_
 _atom_site_type_symbol
 _atom_site_label
 _atom_site_symmetry_multiplicity
 _atom_site_fract_x
 _atom_site_fract_y
 _atom_site_fract_z
 _atom_site_occupancy
  Hf  Hf0  1  0.743905  0.010994  0.250000  1
  Zr  Zr1  1  0.009970  0.739246  0.250000  1
  Zr  Zr2  1  0.665857  0.336076  0.000294  1
  Zr  Zr3  1  0.337334  0.666293  0.000213  1
  Zr  Zr4  1  0.337334  0.666293  0.499787  1
  Zr  Zr5  1  0.665857  0.336076  0.499706  1
  Pa  Pa6  1  0.771140  0.772393  0.750000  1
  Pa  Pa7  1  0.243837  0.002878  0.750000  1
  Pa  Pa8  1  0.001690  0.243632  0.750000  1
  Pa  Pa9  1  0.223916  0.224820  0.250000  1
  Fe  Fe10  1  0.993300  0.993790  0.019374  1
  Fe  Fe11  1  0.993300  0.993790  0.480626  1
  Sb  Sb12  1  0.404722  0.404747  0.750000  1
  Sb  Sb13  1  0.599831  0.002085  0.750000  1
  Sb  Sb14  1  0.001804  0.600862  0.750000  1
  Sb  Sb15  1  0.615308  0.616030  0.250000  1
  Sb  Sb16  1  0.396270  0.995484  0.250000  1
  Sb  Sb17  1  0.994621  0.394507  0.250000  1
