# generated using pymatgen
data_HfZr5Zn15GeAu8
_symmetry_space_group_name_H-M   'P 1'
_cell_length_a   8.94075621
_cell_length_b   8.94084946
_cell_length_c   8.94084917
_cell_angle_alpha   59.98852883
_cell_angle_beta   59.99252257
_cell_angle_gamma   59.99253908
_symmetry_Int_Tables_number   1
_chemical_formula_structural   HfZr5Zn15GeAu8
_chemical_formula_sum   'Hf1 Zr5 Zn15 Ge1 Au8'
_cell_volume   505.27767564
_cell_formula_units_Z   1
loop_
 _symmetry_equiv_pos_site_id
 _symmetry_equiv_pos_as_xyz
  1  'x, y, z'
loop_
 _atom_site_type_symbol
 _atom_site_label
 _atom_site_symmetry_multiplicity
 _atom_site_fract_x
 _atom_site_fract_y
 _atom_site_fract_z
 _atom_site_occupancy
  Hf  Hf0  1  0.715022  0.284966  0.284966  1
  Zr  Zr1  1  0.288027  0.712002  0.712002  1
  Zr  Zr2  1  0.286557  0.713350  0.286714  1
  Zr  Zr3  1  0.713346  0.286725  0.713392  1
  Zr  Zr4  1  0.286556  0.286714  0.713351  1
  Zr  Zr5  1  0.713346  0.713392  0.286725  1
  Zn  Zn6  1  0.499845  0.000151  0.000149  1
  Zn  Zn7  1  0.999855  0.500150  0.500151  1
  Zn  Zn8  1  0.000284  0.500575  0.999715  1
  Zn  Zn9  1  0.499434  0.999708  0.500564  1
  Zn  Zn10  1  0.000283  0.999716  0.500576  1
  Zn  Zn11  1  0.499434  0.500564  0.999708  1
  Zn  Zn12  1  0.338929  0.338298  0.338298  1
  Zn  Zn13  1  0.662345  0.661949  0.661949  1
  Zn  Zn14  1  0.338050  0.337658  0.986222  1
  Zn  Zn15  1  0.338049  0.986223  0.337659  1
  Zn  Zn16  1  0.661700  0.661065  0.015544  1
  Zn  Zn17  1  0.661699  0.015544  0.661065  1
  Zn  Zn18  1  0.984476  0.338291  0.338290  1
  Zn  Zn19  1  0.013757  0.661954  0.661954  1
  Zn  Zn20  1  0.000832  0.999161  0.999161  1
  Ge  Ge21  1  0.501929  0.498077  0.498079  1
  Au  Au22  1  0.120198  0.123375  0.123375  1
  Au  Au23  1  0.877124  0.877560  0.877560  1
  Au  Au24  1  0.122425  0.122884  0.632287  1
  Au  Au25  1  0.122425  0.632288  0.122884  1
  Au  Au26  1  0.876640  0.879798  0.366913  1
  Au  Au27  1  0.876640  0.366912  0.879798  1
  Au  Au28  1  0.633055  0.123382  0.123382  1
  Au  Au29  1  0.367734  0.877567  0.877567  1
