# generated using pymatgen
data_Dy10HoScPb10
_symmetry_space_group_name_H-M   'P 1'
_cell_length_a   11.75199457
_cell_length_b   11.75121660
_cell_length_c   11.76399852
_cell_angle_alpha   147.47577016
_cell_angle_beta   132.67595136
_cell_angle_gamma   58.50402830
_symmetry_Int_Tables_number   1
_chemical_formula_structural   Dy10HoScPb10
_chemical_formula_sum   'Dy10 Ho1 Sc1 Pb10'
_cell_volume   637.20969217
_cell_formula_units_Z   1
loop_
 _symmetry_equiv_pos_site_id
 _symmetry_equiv_pos_as_xyz
  1  'x, y, z'
loop_
 _atom_site_type_symbol
 _atom_site_label
 _atom_site_symmetry_multiplicity
 _atom_site_fract_x
 _atom_site_fract_y
 _atom_site_fract_z
 _atom_site_occupancy
  Dy  Dy0  1  0.696485  0.946597  0.250011  1
  Dy  Dy1  1  0.251446  0.639179  0.610713  1
  Dy  Dy2  1  0.675403  0.941057  0.733701  1
  Dy  Dy3  1  0.028358  0.140688  0.889143  1
  Dy  Dy4  1  0.970694  0.858399  0.110816  1
  Dy  Dy5  1  0.792493  0.559974  0.233701  1
  Dy  Dy6  1  0.207660  0.441780  0.766658  1
  Dy  Dy7  1  0.303326  0.053311  0.750022  1
  Dy  Dy8  1  0.326091  0.058727  0.266113  1
  Dy  Dy9  1  0.303886  0.553862  0.249959  1
  Ho  Ho10  1  0.747496  0.359920  0.389219  1
  Sc  Sc11  1  0.694945  0.444973  0.749983  1
  Pb  Pb12  1  0.480371  0.569082  0.895402  1
  Pb  Pb13  1  0.598959  0.786131  0.798774  1
  Pb  Pb14  1  0.673610  0.084995  0.604575  1
  Pb  Pb15  1  0.000312  0.749916  0.749678  1
  Pb  Pb16  1  0.987092  0.300181  0.700745  1
  Pb  Pb17  1  0.523501  0.423917  0.098176  1
  Pb  Pb18  1  0.006049  0.701838  0.296315  1
  Pb  Pb19  1  0.405529  0.209758  0.203690  1
  Pb  Pb20  1  0.326395  0.925338  0.402344  1
  Pb  Pb21  1  0.999897  0.250376  0.250263  1
