# generated using pymatgen
data_Ho9ErIn8(CuPt)2
_symmetry_space_group_name_H-M   'P 1'
_cell_length_a   3.62876300
_cell_length_b   8.07563771
_cell_length_c   18.12964804
_cell_angle_alpha   90.09269705
_cell_angle_beta   90.00000000
_cell_angle_gamma   90.00000000
_symmetry_Int_Tables_number   1
_chemical_formula_structural   Ho9ErIn8(CuPt)2
_chemical_formula_sum   'Ho9 Er1 In8 Cu2 Pt2'
_cell_volume   531.28094147
_cell_formula_units_Z   1
loop_
 _symmetry_equiv_pos_site_id
 _symmetry_equiv_pos_as_xyz
  1  'x, y, z'
loop_
 _atom_site_type_symbol
 _atom_site_label
 _atom_site_symmetry_multiplicity
 _atom_site_fract_x
 _atom_site_fract_y
 _atom_site_fract_z
 _atom_site_occupancy
  Ho  Ho0  1  0.000000  0.116798  0.416104  1
  Ho  Ho1  1  0.000000  0.882912  0.583750  1
  Ho  Ho2  1  0.000000  0.382419  0.915992  1
  Ho  Ho3  1  0.000000  0.617770  0.084209  1
  Ho  Ho4  1  0.000000  0.247926  0.219790  1
  Ho  Ho5  1  0.000000  0.751918  0.780523  1
  Ho  Ho6  1  0.000000  0.261653  0.719809  1
  Ho  Ho7  1  0.000000  0.000159  0.000103  1
  Ho  Ho8  1  0.000000  0.499958  0.500007  1
  Er  Er9  1  0.000000  0.738461  0.279899  1
  In  In10  1  0.500000  0.420417  0.352427  1
  In  In11  1  0.500000  0.580301  0.647623  1
  In  In12  1  0.500000  0.073693  0.848958  1
  In  In13  1  0.500000  0.926286  0.151194  1
  In  In14  1  0.500000  0.291793  0.066965  1
  In  In15  1  0.500000  0.708563  0.933321  1
  In  In16  1  0.500000  0.207494  0.568530  1
  In  In17  1  0.500000  0.791865  0.430982  1
  Cu  Cu18  1  0.500000  0.026000  0.302516  1
  Cu  Cu19  1  0.500000  0.972819  0.696953  1
  Pt  Pt20  1  0.500000  0.471789  0.802709  1
  Pt  Pt21  1  0.500000  0.529007  0.197634  1
