# generated using pymatgen
data_B(S8F)3
_symmetry_space_group_name_H-M   'P 1'
_cell_length_a   14.70174349
_cell_length_b   14.70174328
_cell_length_c   14.70174330
_cell_angle_alpha   118.59617530
_cell_angle_beta   118.59617451
_cell_angle_gamma   118.59616149
_symmetry_Int_Tables_number   1
_chemical_formula_structural   B(S8F)3
_chemical_formula_sum   'B1 S24 F3'
_cell_volume   971.29681401
_cell_formula_units_Z   1
loop_
 _symmetry_equiv_pos_site_id
 _symmetry_equiv_pos_as_xyz
  1  'x, y, z'
loop_
 _atom_site_type_symbol
 _atom_site_label
 _atom_site_symmetry_multiplicity
 _atom_site_fract_x
 _atom_site_fract_y
 _atom_site_fract_z
 _atom_site_occupancy
  B  B0  1  0.941032  0.941032  0.941032  1
  S  S1  1  0.800640  0.523882  0.523882  1
  S  S2  1  0.523882  0.523882  0.800640  1
  S  S3  1  0.523882  0.800640  0.523882  1
  S  S4  1  0.250308  0.383546  0.636876  1
  S  S5  1  0.342576  0.945625  0.342576  1
  S  S6  1  0.342576  0.342576  0.945625  1
  S  S7  1  0.945625  0.342576  0.342576  1
  S  S8  1  0.122474  0.737763  0.255060  1
  S  S9  1  0.255060  0.122474  0.737763  1
  S  S10  1  0.737763  0.255060  0.122474  1
  S  S11  1  0.737763  0.122474  0.255060  1
  S  S12  1  0.255060  0.737763  0.122474  1
  S  S13  1  0.122474  0.255060  0.737763  1
  S  S14  1  0.344624  0.878312  0.531718  1
  S  S15  1  0.531718  0.344624  0.878312  1
  S  S16  1  0.878312  0.531718  0.344624  1
  S  S17  1  0.878312  0.344624  0.531718  1
  S  S18  1  0.531718  0.878312  0.344624  1
  S  S19  1  0.344624  0.531718  0.878312  1
  S  S20  1  0.250308  0.636876  0.383546  1
  S  S21  1  0.383546  0.250308  0.636876  1
  S  S22  1  0.636876  0.383546  0.250308  1
  S  S23  1  0.636876  0.250308  0.383546  1
  S  S24  1  0.383546  0.636876  0.250308  1
  F  F25  1  0.880567  0.971577  0.971577  1
  F  F26  1  0.971577  0.971577  0.880567  1
  F  F27  1  0.971577  0.880567  0.971577  1
