# generated using pymatgen
data_K6VTe4Cl
_symmetry_space_group_name_H-M   'P 1'
_cell_length_a   11.29018400
_cell_length_b   11.29018386
_cell_length_c   8.28414100
_cell_angle_alpha   90.00000000
_cell_angle_beta   90.00000000
_cell_angle_gamma   120.00000040
_symmetry_Int_Tables_number   1
_chemical_formula_structural   K6VTe4Cl
_chemical_formula_sum   'K12 V2 Te8 Cl2'
_cell_volume   914.49249681
_cell_formula_units_Z   2
loop_
 _symmetry_equiv_pos_site_id
 _symmetry_equiv_pos_as_xyz
  1  'x, y, z'
loop_
 _atom_site_type_symbol
 _atom_site_label
 _atom_site_symmetry_multiplicity
 _atom_site_fract_x
 _atom_site_fract_y
 _atom_site_fract_z
 _atom_site_occupancy
  K  K0  1  0.123531  0.876469  0.513705  1
  K  K1  1  0.752936  0.876469  0.513705  1
  K  K2  1  0.949146  0.474573  0.318584  1
  K  K3  1  0.525427  0.474573  0.318584  1
  K  K4  1  0.876469  0.752936  0.013705  1
  K  K5  1  0.247064  0.123531  0.013705  1
  K  K6  1  0.525427  0.050854  0.318584  1
  K  K7  1  0.123531  0.247064  0.513705  1
  K  K8  1  0.876469  0.123531  0.013705  1
  K  K9  1  0.050854  0.525427  0.818584  1
  K  K10  1  0.474573  0.949146  0.818584  1
  K  K11  1  0.474573  0.525427  0.818584  1
  V  V12  1  0.666667  0.333333  0.710568  1
  V  V13  1  0.333333  0.666667  0.210568  1
  Te  Te14  1  0.408802  0.204402  0.608967  1
  Te  Te15  1  0.591198  0.795598  0.108967  1
  Te  Te16  1  0.666667  0.333333  0.030670  1
  Te  Te17  1  0.795598  0.591198  0.608967  1
  Te  Te18  1  0.204402  0.408802  0.108967  1
  Te  Te19  1  0.333333  0.666667  0.530670  1
  Te  Te20  1  0.204402  0.795598  0.108967  1
  Te  Te21  1  0.795598  0.204402  0.608967  1
  Cl  Cl22  1  0.000000  0.000000  0.275594  1
  Cl  Cl23  1  0.000000  0.000000  0.775594  1
