# generated using pymatgen
data_Ho2Pa(GaPt)3
_symmetry_space_group_name_H-M   'P 1'
_cell_length_a   7.29131440
_cell_length_b   7.29131349
_cell_length_c   3.88921800
_cell_angle_alpha   90.00000000
_cell_angle_beta   90.00000000
_cell_angle_gamma   119.89720594
_symmetry_Int_Tables_number   1
_chemical_formula_structural   Ho2Pa(GaPt)3
_chemical_formula_sum   'Ho2 Pa1 Ga3 Pt3'
_cell_volume   179.24763546
_cell_formula_units_Z   1
loop_
 _symmetry_equiv_pos_site_id
 _symmetry_equiv_pos_as_xyz
  1  'x, y, z'
loop_
 _atom_site_type_symbol
 _atom_site_label
 _atom_site_symmetry_multiplicity
 _atom_site_fract_x
 _atom_site_fract_y
 _atom_site_fract_z
 _atom_site_occupancy
  Ho  Ho0  1  0.408869  0.000920  0.500000  1
  Ho  Ho1  1  0.000920  0.408869  0.500000  1
  Pa  Pa2  1  0.585429  0.585429  0.500000  1
  Ga  Ga3  1  0.748956  0.010427  0.000000  1
  Ga  Ga4  1  0.010427  0.748956  0.000000  1
  Ga  Ga5  1  0.241491  0.241491  0.000000  1
  Pt  Pt6  1  0.348440  0.666192  0.000000  1
  Pt  Pt7  1  0.666192  0.348440  0.000000  1
  Pt  Pt8  1  0.989275  0.989275  0.500000  1
