# generated using pymatgen
data_NdSmDy4Ta2O14
_symmetry_space_group_name_H-M   'P 1'
_cell_length_a   6.50457506
_cell_length_b   6.50457413
_cell_length_c   7.59878409
_cell_angle_alpha   89.98532380
_cell_angle_beta   90.01467659
_cell_angle_gamma   109.33484090
_symmetry_Int_Tables_number   1
_chemical_formula_structural   NdSmDy4Ta2O14
_chemical_formula_sum   'Nd1 Sm1 Dy4 Ta2 O14'
_cell_volume   303.36796536
_cell_formula_units_Z   1
loop_
 _symmetry_equiv_pos_site_id
 _symmetry_equiv_pos_as_xyz
  1  'x, y, z'
loop_
 _atom_site_type_symbol
 _atom_site_label
 _atom_site_symmetry_multiplicity
 _atom_site_fract_x
 _atom_site_fract_y
 _atom_site_fract_z
 _atom_site_occupancy
  Nd  Nd0  1  0.500000  0.500000  0.500000  1
  Sm  Sm1  1  0.500000  0.500000  0.000000  1
  Dy  Dy2  1  0.533790  0.000774  0.750938  1
  Dy  Dy3  1  0.000774  0.533790  0.249062  1
  Dy  Dy4  1  0.466210  0.999226  0.249062  1
  Dy  Dy5  1  0.999226  0.466210  0.750938  1
  Ta  Ta6  1  0.000000  0.000000  0.500000  1
  Ta  Ta7  1  0.000000  0.000000  0.000000  1
  O  O8  1  0.679772  0.931001  0.467761  1
  O  O9  1  0.931001  0.679772  0.532239  1
  O  O10  1  0.679818  0.929957  0.032093  1
  O  O11  1  0.929957  0.679818  0.967907  1
  O  O12  1  0.320228  0.068999  0.532239  1
  O  O13  1  0.068999  0.320228  0.467761  1
  O  O14  1  0.320182  0.070043  0.967907  1
  O  O15  1  0.070043  0.320182  0.032093  1
  O  O16  1  0.935567  0.064433  0.749959  1
  O  O17  1  0.064433  0.935567  0.250041  1
  O  O18  1  0.365195  0.634804  0.753226  1
  O  O19  1  0.634804  0.365195  0.246774  1
  O  O20  1  0.641374  0.358626  0.752739  1
  O  O21  1  0.358626  0.641374  0.247261  1
