# generated using pymatgen
data_Sm2PaAs4Pd7
_symmetry_space_group_name_H-M   'P 1'
_cell_length_a   8.17031202
_cell_length_b   8.17031217
_cell_length_c   9.66171624
_cell_angle_alpha   55.89960867
_cell_angle_beta   55.89960822
_cell_angle_gamma   29.64455156
_symmetry_Int_Tables_number   1
_chemical_formula_structural   Sm2PaAs4Pd7
_chemical_formula_sum   'Sm2 Pa1 As4 Pd7'
_cell_volume   259.88200566
_cell_formula_units_Z   1
loop_
 _symmetry_equiv_pos_site_id
 _symmetry_equiv_pos_as_xyz
  1  'x, y, z'
loop_
 _atom_site_type_symbol
 _atom_site_label
 _atom_site_symmetry_multiplicity
 _atom_site_fract_x
 _atom_site_fract_y
 _atom_site_fract_z
 _atom_site_occupancy
  Sm  Sm0  1  0.318614  0.318614  0.675984  1
  Sm  Sm1  1  0.002767  0.002767  0.996156  1
  Pa  Pa2  1  0.677153  0.677153  0.331671  1
  As  As3  1  0.338192  0.338192  0.254847  1
  As  As4  1  0.658699  0.658699  0.748879  1
  As  As5  1  0.891656  0.891656  0.824515  1
  As  As6  1  0.108880  0.108880  0.178562  1
  Pd  Pd7  1  0.309764  0.309764  0.023737  1
  Pd  Pd8  1  0.691287  0.691287  0.981976  1
  Pd  Pd9  1  0.513771  0.513771  0.699370  1
  Pd  Pd10  1  0.834254  0.834254  0.425269  1
  Pd  Pd11  1  0.488555  0.488555  0.293513  1
  Pd  Pd12  1  0.162951  0.162951  0.565069  1
  Pd  Pd13  1  0.003456  0.003456  0.500454  1
