# generated using pymatgen
data_Sm2TlCd2Pb3
_symmetry_space_group_name_H-M   'P 1'
_cell_length_a   4.79449400
_cell_length_b   4.86898800
_cell_length_c   9.29044200
_cell_angle_alpha   90.00000000
_cell_angle_beta   90.00000000
_cell_angle_gamma   90.00000000
_symmetry_Int_Tables_number   1
_chemical_formula_structural   Sm2TlCd2Pb3
_chemical_formula_sum   'Sm2 Tl1 Cd2 Pb3'
_cell_volume   216.87917875
_cell_formula_units_Z   1
loop_
 _symmetry_equiv_pos_site_id
 _symmetry_equiv_pos_as_xyz
  1  'x, y, z'
loop_
 _atom_site_type_symbol
 _atom_site_label
 _atom_site_symmetry_multiplicity
 _atom_site_fract_x
 _atom_site_fract_y
 _atom_site_fract_z
 _atom_site_occupancy
  Sm  Sm0  1  0.000000  0.000000  0.248054  1
  Sm  Sm1  1  0.000000  0.000000  0.751946  1
  Tl  Tl2  1  0.000000  0.500000  0.500000  1
  Cd  Cd3  1  0.500000  0.500000  0.254391  1
  Cd  Cd4  1  0.500000  0.500000  0.745609  1
  Pb  Pb5  1  0.000000  0.500000  0.000000  1
  Pb  Pb6  1  0.500000  0.000000  0.500000  1
  Pb  Pb7  1  0.500000  0.000000  0.000000  1
