# generated using pymatgen
data_Hf18CoCu(Re3W)2
_symmetry_space_group_name_H-M   'P 1'
_cell_length_a   8.65651700
_cell_length_b   8.65651757
_cell_length_c   8.47550800
_cell_angle_alpha   90.00000000
_cell_angle_beta   90.00000000
_cell_angle_gamma   120.00000164
_symmetry_Int_Tables_number   1
_chemical_formula_structural   Hf18CoCu(Re3W)2
_chemical_formula_sum   'Hf18 Co1 Cu1 Re6 W2'
_cell_volume   550.02542307
_cell_formula_units_Z   1
loop_
 _symmetry_equiv_pos_site_id
 _symmetry_equiv_pos_as_xyz
  1  'x, y, z'
loop_
 _atom_site_type_symbol
 _atom_site_label
 _atom_site_symmetry_multiplicity
 _atom_site_fract_x
 _atom_site_fract_y
 _atom_site_fract_z
 _atom_site_occupancy
  Hf  Hf0  1  0.196055  0.803945  0.445279  1
  Hf  Hf1  1  0.196055  0.392109  0.445279  1
  Hf  Hf2  1  0.607891  0.803945  0.445279  1
  Hf  Hf3  1  0.799476  0.200524  0.558694  1
  Hf  Hf4  1  0.799476  0.598953  0.558694  1
  Hf  Hf5  1  0.401047  0.200524  0.558694  1
  Hf  Hf6  1  0.799476  0.200524  0.941306  1
  Hf  Hf7  1  0.799476  0.598953  0.941306  1
  Hf  Hf8  1  0.401047  0.200524  0.941306  1
  Hf  Hf9  1  0.196055  0.803945  0.054721  1
  Hf  Hf10  1  0.196055  0.392109  0.054721  1
  Hf  Hf11  1  0.607891  0.803945  0.054721  1
  Hf  Hf12  1  0.542008  0.457992  0.250000  1
  Hf  Hf13  1  0.542008  0.084016  0.250000  1
  Hf  Hf14  1  0.915984  0.457992  0.250000  1
  Hf  Hf15  1  0.458392  0.541608  0.750000  1
  Hf  Hf16  1  0.458392  0.916785  0.750000  1
  Hf  Hf17  1  0.083215  0.541608  0.750000  1
  Co  Co18  1  0.666667  0.333333  0.750000  1
  Cu  Cu19  1  0.333333  0.666667  0.250000  1
  Re  Re20  1  0.888482  0.111518  0.250000  1
  Re  Re21  1  0.888482  0.776965  0.250000  1
  Re  Re22  1  0.223035  0.111518  0.250000  1
  Re  Re23  1  0.111414  0.888586  0.750000  1
  Re  Re24  1  0.111414  0.222827  0.750000  1
  Re  Re25  1  0.777173  0.888586  0.750000  1
  W  W26  1  0.000000  0.000000  0.499988  1
  W  W27  1  0.000000  0.000000  0.000012  1
