# generated using pymatgen
data_Hf3Th8Si16Mo9
_symmetry_space_group_name_H-M   'P 1'
_cell_length_a   7.11513609
_cell_length_b   7.11513609
_cell_length_c   13.27292140
_cell_angle_alpha   90.20613467
_cell_angle_beta   89.79386598
_cell_angle_gamma   89.94974387
_symmetry_Int_Tables_number   1
_chemical_formula_structural   Hf3Th8Si16Mo9
_chemical_formula_sum   'Hf3 Th8 Si16 Mo9'
_cell_volume   671.93482695
_cell_formula_units_Z   1
loop_
 _symmetry_equiv_pos_site_id
 _symmetry_equiv_pos_as_xyz
  1  'x, y, z'
loop_
 _atom_site_type_symbol
 _atom_site_label
 _atom_site_symmetry_multiplicity
 _atom_site_fract_x
 _atom_site_fract_y
 _atom_site_fract_z
 _atom_site_occupancy
  Hf  Hf0  1  0.832975  0.832975  0.500000  1
  Hf  Hf1  1  0.333769  0.662904  0.246476  1
  Hf  Hf2  1  0.662904  0.333769  0.753524  1
  Th  Th3  1  0.006395  0.332147  0.217840  1
  Th  Th4  1  0.000510  0.668788  0.721017  1
  Th  Th5  1  0.163127  0.501307  0.470478  1
  Th  Th6  1  0.497634  0.839820  0.029441  1
  Th  Th7  1  0.839820  0.497634  0.970559  1
  Th  Th8  1  0.501307  0.163127  0.529522  1
  Th  Th9  1  0.332147  0.006395  0.782160  1
  Th  Th10  1  0.668788  0.000510  0.278983  1
  Si  Si11  1  0.380724  0.294642  0.316766  1
  Si  Si12  1  0.617326  0.704718  0.814275  1
  Si  Si13  1  0.202389  0.882497  0.564281  1
  Si  Si14  1  0.112317  0.808147  0.937577  1
  Si  Si15  1  0.808147  0.112317  0.062423  1
  Si  Si16  1  0.882497  0.202389  0.435719  1
  Si  Si17  1  0.294642  0.380724  0.683234  1
  Si  Si18  1  0.704718  0.617326  0.185725  1
  Si  Si19  1  0.284422  0.034975  0.184377  1
  Si  Si20  1  0.712173  0.966161  0.687959  1
  Si  Si21  1  0.464354  0.783930  0.435865  1
  Si  Si22  1  0.234508  0.514641  0.055116  1
  Si  Si23  1  0.514641  0.234508  0.944884  1
  Si  Si24  1  0.783930  0.464354  0.564135  1
  Si  Si25  1  0.034975  0.284422  0.815623  1
  Si  Si26  1  0.966161  0.712173  0.312041  1
  Mo  Mo27  1  0.165000  0.165000  0.000000  1
  Mo  Mo28  1  0.169416  0.997795  0.375164  1
  Mo  Mo29  1  0.825676  0.003029  0.874839  1
  Mo  Mo30  1  0.500095  0.668880  0.624762  1
  Mo  Mo31  1  0.321185  0.511625  0.864748  1
  Mo  Mo32  1  0.511625  0.321185  0.135252  1
  Mo  Mo33  1  0.668880  0.500095  0.375238  1
  Mo  Mo34  1  0.997795  0.169416  0.624836  1
  Mo  Mo35  1  0.003029  0.825676  0.125161  1
