# generated using pymatgen
data_Rb4CePaTe6
_symmetry_space_group_name_H-M   'P 1'
_cell_length_a   8.32513562
_cell_length_b   8.32513717
_cell_length_c   8.99192271
_cell_angle_alpha   80.88591448
_cell_angle_beta   80.88591156
_cell_angle_gamma   119.89408436
_symmetry_Int_Tables_number   1
_chemical_formula_structural   Rb4CePaTe6
_chemical_formula_sum   'Rb4 Ce1 Pa1 Te6'
_cell_volume   512.55368692
_cell_formula_units_Z   1
loop_
 _symmetry_equiv_pos_site_id
 _symmetry_equiv_pos_as_xyz
  1  'x, y, z'
loop_
 _atom_site_type_symbol
 _atom_site_label
 _atom_site_symmetry_multiplicity
 _atom_site_fract_x
 _atom_site_fract_y
 _atom_site_fract_z
 _atom_site_occupancy
  Rb  Rb0  1  0.499929  0.500071  0.000000  1
  Rb  Rb1  1  0.654330  0.345670  0.500000  1
  Rb  Rb2  1  0.345116  0.654884  0.500000  1
  Rb  Rb3  1  0.000235  0.999765  0.500000  1
  Ce  Ce4  1  0.167815  0.832185  0.000000  1
  Pa  Pa5  1  0.832358  0.167642  0.000000  1
  Te  Te6  1  0.799371  0.815294  0.202685  1
  Te  Te7  1  0.184706  0.200629  0.797315  1
  Te  Te8  1  0.446353  0.060989  0.205936  1
  Te  Te9  1  0.586867  0.956089  0.794855  1
  Te  Te10  1  0.939011  0.553647  0.794064  1
  Te  Te11  1  0.043911  0.413133  0.205145  1
