# generated using pymatgen
data_Dy2Ti2Fe10P7
_symmetry_space_group_name_H-M   'P 1'
_cell_length_a   9.17414728
_cell_length_b   9.07799531
_cell_length_c   3.64174200
_cell_angle_alpha   90.00000000
_cell_angle_beta   90.00000000
_cell_angle_gamma   119.18818002
_symmetry_Int_Tables_number   1
_chemical_formula_structural   Dy2Ti2Fe10P7
_chemical_formula_sum   'Dy2 Ti2 Fe10 P7'
_cell_volume   264.78316809
_cell_formula_units_Z   1
loop_
 _symmetry_equiv_pos_site_id
 _symmetry_equiv_pos_as_xyz
  1  'x, y, z'
loop_
 _atom_site_type_symbol
 _atom_site_label
 _atom_site_symmetry_multiplicity
 _atom_site_fract_x
 _atom_site_fract_y
 _atom_site_fract_z
 _atom_site_occupancy
  Dy  Dy0  1  0.658893  0.324773  0.000000  1
  Dy  Dy1  1  0.336559  0.672551  0.500000  1
  Ti  Ti2  1  0.110739  0.220977  0.500000  1
  Ti  Ti3  1  0.782730  0.885022  0.500000  1
  Fe  Fe4  1  0.368387  0.946270  0.000000  1
  Fe  Fe5  1  0.050503  0.433552  0.000000  1
  Fe  Fe6  1  0.574396  0.624986  0.000000  1
  Fe  Fe7  1  0.881070  0.715722  0.000000  1
  Fe  Fe8  1  0.276779  0.156216  0.000000  1
  Fe  Fe9  1  0.845704  0.120855  0.000000  1
  Fe  Fe10  1  0.955156  0.564224  0.500000  1
  Fe  Fe11  1  0.436219  0.389270  0.500000  1
  Fe  Fe12  1  0.609368  0.046939  0.500000  1
  Fe  Fe13  1  0.119997  0.905547  0.500000  1
  P  P14  1  0.121924  0.717913  0.000000  1
  P  P15  1  0.306122  0.417375  0.000000  1
  P  P16  1  0.584785  0.892914  0.000000  1
  P  P17  1  0.710462  0.584209  0.500000  1
  P  P18  1  0.397227  0.109910  0.500000  1
  P  P19  1  0.867168  0.276145  0.500000  1
  P  P20  1  0.005809  0.994628  0.000000  1
