# generated using pymatgen
data_Li2Yb2Zn19Ni
_symmetry_space_group_name_H-M   'P 1'
_cell_length_a   8.33460928
_cell_length_b   8.33089158
_cell_length_c   8.33089200
_cell_angle_alpha   99.03810089
_cell_angle_beta   99.71269217
_cell_angle_gamma   132.36298413
_symmetry_Int_Tables_number   1
_chemical_formula_structural   Li2Yb2Zn19Ni
_chemical_formula_sum   'Li2 Yb2 Zn19 Ni1'
_cell_volume   391.08894894
_cell_formula_units_Z   1
loop_
 _symmetry_equiv_pos_site_id
 _symmetry_equiv_pos_as_xyz
  1  'x, y, z'
loop_
 _atom_site_type_symbol
 _atom_site_label
 _atom_site_symmetry_multiplicity
 _atom_site_fract_x
 _atom_site_fract_y
 _atom_site_fract_z
 _atom_site_occupancy
  Li  Li0  1  0.760983  0.255136  0.505847  1
  Li  Li1  1  0.489017  0.494864  0.994153  1
  Yb  Yb2  1  0.000918  0.000095  0.000822  1
  Yb  Yb3  1  0.249082  0.749905  0.499178  1
  Zn  Zn4  1  0.625000  0.875000  0.250000  1
  Zn  Zn5  1  0.625000  0.375000  0.750000  1
  Zn  Zn6  1  0.625000  0.375000  0.250000  1
  Zn  Zn7  1  0.185874  0.507195  0.073410  1
  Zn  Zn8  1  0.185874  0.112464  0.678680  1
  Zn  Zn9  1  0.769460  0.942808  0.590460  1
  Zn  Zn10  1  0.769460  0.179000  0.826655  1
  Zn  Zn11  1  0.425276  0.513248  0.329821  1
  Zn  Zn12  1  0.425276  0.095453  0.912028  1
  Zn  Zn13  1  0.349008  0.934291  0.172746  1
  Zn  Zn14  1  0.349008  0.176264  0.414718  1
  Zn  Zn15  1  0.064126  0.242805  0.426590  1
  Zn  Zn16  1  0.064126  0.637536  0.821320  1
  Zn  Zn17  1  0.480540  0.807192  0.909540  1
  Zn  Zn18  1  0.480540  0.571000  0.673345  1
  Zn  Zn19  1  0.824724  0.236752  0.170179  1
  Zn  Zn20  1  0.824724  0.654547  0.587972  1
  Zn  Zn21  1  0.900992  0.815709  0.327254  1
  Zn  Zn22  1  0.900992  0.573736  0.085282  1
  Ni  Ni23  1  0.125000  0.375000  0.750000  1
