# generated using pymatgen
data_Al4SnGeI16
_symmetry_space_group_name_H-M   'P 1'
_cell_length_a   8.29604007
_cell_length_b   8.36901778
_cell_length_c   15.45037481
_cell_angle_alpha   87.43606876
_cell_angle_beta   90.07023652
_cell_angle_gamma   90.73759881
_symmetry_Int_Tables_number   1
_chemical_formula_structural   Al4SnGeI16
_chemical_formula_sum   'Al4 Sn1 Ge1 I16'
_cell_volume   1071.55210290
_cell_formula_units_Z   1
loop_
 _symmetry_equiv_pos_site_id
 _symmetry_equiv_pos_as_xyz
  1  'x, y, z'
loop_
 _atom_site_type_symbol
 _atom_site_label
 _atom_site_symmetry_multiplicity
 _atom_site_fract_x
 _atom_site_fract_y
 _atom_site_fract_z
 _atom_site_occupancy
  Al  Al0  1  0.932574  0.214286  0.584949  1
  Al  Al1  1  0.060160  0.220667  0.075035  1
  Al  Al2  1  0.574679  0.642927  0.778961  1
  Al  Al3  1  0.430525  0.641852  0.277989  1
  Sn  Sn4  1  0.244138  0.073132  0.307785  1
  Ge  Ge5  1  0.756191  0.064430  0.803208  1
  I  I6  1  0.427700  0.617329  0.638783  1
  I  I7  1  0.574132  0.617329  0.137431  1
  I  I8  1  0.873615  0.748221  0.759560  1
  I  I9  1  0.130641  0.726344  0.259196  1
  I  I10  1  0.935388  0.475484  0.500790  1
  I  I11  1  0.066048  0.487288  0.995904  1
  I  I12  1  0.917169  0.997483  0.992263  1
  I  I13  1  0.071344  0.989483  0.505719  1
  I  I14  1  0.637277  0.123439  0.625494  1
  I  I15  1  0.352661  0.125855  0.114002  1
  I  I16  1  0.578298  0.380984  0.872660  1
  I  I17  1  0.440147  0.386796  0.378470  1
  I  I18  1  0.454505  0.874002  0.864818  1
  I  I19  1  0.558050  0.869816  0.366131  1
  I  I20  1  0.924536  0.229354  0.226778  1
  I  I21  1  0.060221  0.228298  0.738477  1
