# generated using pymatgen
data_Ca4YHoTa2(Co4P3)4
_symmetry_space_group_name_H-M   'P 1'
_cell_length_a   3.71030000
_cell_length_b   10.64609923
_cell_length_c   12.33818200
_cell_angle_alpha   90.02754434
_cell_angle_beta   90.00000000
_cell_angle_gamma   90.00000000
_symmetry_Int_Tables_number   1
_chemical_formula_structural   Ca4YHoTa2(Co4P3)4
_chemical_formula_sum   'Ca4 Y1 Ho1 Ta2 Co16 P12'
_cell_volume   487.36087144
_cell_formula_units_Z   1
loop_
 _symmetry_equiv_pos_site_id
 _symmetry_equiv_pos_as_xyz
  1  'x, y, z'
loop_
 _atom_site_type_symbol
 _atom_site_label
 _atom_site_symmetry_multiplicity
 _atom_site_fract_x
 _atom_site_fract_y
 _atom_site_fract_z
 _atom_site_occupancy
  Ca  Ca0  1  0.000000  0.500132  0.526494  1
  Ca  Ca1  1  0.500000  0.999948  0.473698  1
  Ca  Ca2  1  0.500000  0.178986  0.205180  1
  Ca  Ca3  1  0.000000  0.679260  0.794741  1
  Y  Y4  1  0.000000  0.321319  0.794490  1
  Ho  Ho5  1  0.500000  0.821854  0.205340  1
  Ta  Ta6  1  0.500000  0.500160  0.155629  1
  Ta  Ta7  1  0.000000  0.999746  0.844304  1
  Co  Co8  1  0.500000  0.498391  0.702724  1
  Co  Co9  1  0.000000  0.997650  0.296898  1
  Co  Co10  1  0.000000  0.499093  0.986955  1
  Co  Co11  1  0.500000  0.998475  0.013357  1
  Co  Co12  1  0.500000  0.332650  0.992587  1
  Co  Co13  1  0.500000  0.668675  0.993551  1
  Co  Co14  1  0.000000  0.168046  0.006697  1
  Co  Co15  1  0.000000  0.832628  0.007732  1
  Co  Co16  1  0.500000  0.295451  0.432215  1
  Co  Co17  1  0.500000  0.704851  0.431682  1
  Co  Co18  1  0.000000  0.204652  0.568202  1
  Co  Co19  1  0.000000  0.795481  0.567728  1
  Co  Co20  1  0.500000  0.879143  0.704650  1
  Co  Co21  1  0.500000  0.122064  0.705650  1
  Co  Co22  1  0.000000  0.622609  0.294001  1
  Co  Co23  1  0.000000  0.379197  0.295278  1
  P  P24  1  0.500000  0.500948  0.881940  1
  P  P25  1  0.000000  0.000349  0.118359  1
  P  P26  1  0.500000  0.499497  0.354899  1
  P  P27  1  0.000000  0.999569  0.645195  1
  P  P28  1  0.500000  0.309488  0.615388  1
  P  P29  1  0.500000  0.690689  0.615626  1
  P  P30  1  0.000000  0.190495  0.384129  1
  P  P31  1  0.000000  0.809568  0.384102  1
  P  P32  1  0.500000  0.841321  0.892884  1
  P  P33  1  0.500000  0.157808  0.893753  1
  P  P34  1  0.000000  0.658423  0.106724  1
  P  P35  1  0.000000  0.341388  0.107221  1
