# generated using pymatgen
data_Tc13B6W
_symmetry_space_group_name_H-M   'P 1'
_cell_length_a   7.51185851
_cell_length_b   7.51185908
_cell_length_c   4.89753095
_cell_angle_alpha   89.89101810
_cell_angle_beta   90.10898608
_cell_angle_gamma   119.77799891
_symmetry_Int_Tables_number   1
_chemical_formula_structural   Tc13B6W
_chemical_formula_sum   'Tc13 B6 W1'
_cell_volume   239.86605459
_cell_formula_units_Z   1
loop_
 _symmetry_equiv_pos_site_id
 _symmetry_equiv_pos_as_xyz
  1  'x, y, z'
loop_
 _atom_site_type_symbol
 _atom_site_label
 _atom_site_symmetry_multiplicity
 _atom_site_fract_x
 _atom_site_fract_y
 _atom_site_fract_z
 _atom_site_occupancy
  Tc  Tc0  1  0.453345  0.546655  0.542704  1
  Tc  Tc1  1  0.544560  0.089959  0.051782  1
  Tc  Tc2  1  0.910041  0.455440  0.051782  1
  Tc  Tc3  1  0.090756  0.546127  0.551064  1
  Tc  Tc4  1  0.453873  0.909244  0.551064  1
  Tc  Tc5  1  0.123323  0.876677  0.250343  1
  Tc  Tc6  1  0.875847  0.124153  0.755119  1
  Tc  Tc7  1  0.123108  0.245913  0.253310  1
  Tc  Tc8  1  0.754087  0.876892  0.253310  1
  Tc  Tc9  1  0.245034  0.122837  0.750217  1
  Tc  Tc10  1  0.877163  0.754966  0.750217  1
  Tc  Tc11  1  0.332157  0.667843  0.088487  1
  Tc  Tc12  1  0.668619  0.331381  0.583944  1
  B  B13  1  0.813219  0.621031  0.343270  1
  B  B14  1  0.188858  0.811142  0.840362  1
  B  B15  1  0.810641  0.189359  0.339315  1
  B  B16  1  0.378969  0.186781  0.343270  1
  B  B17  1  0.620498  0.808748  0.841936  1
  B  B18  1  0.191252  0.379502  0.841936  1
  W  W19  1  0.544650  0.455350  0.040527  1
