# generated using pymatgen
data_NaSrNiF6
_symmetry_space_group_name_H-M   'P 1'
_cell_length_a   5.41995400
_cell_length_b   9.43193700
_cell_length_c   10.41846800
_cell_angle_alpha   90.00000000
_cell_angle_beta   90.00000000
_cell_angle_gamma   90.00000000
_symmetry_Int_Tables_number   1
_chemical_formula_structural   NaSrNiF6
_chemical_formula_sum   'Na4 Sr4 Ni4 F24'
_cell_volume   532.59900901
_cell_formula_units_Z   4
loop_
 _symmetry_equiv_pos_site_id
 _symmetry_equiv_pos_as_xyz
  1  'x, y, z'
loop_
 _atom_site_type_symbol
 _atom_site_label
 _atom_site_symmetry_multiplicity
 _atom_site_fract_x
 _atom_site_fract_y
 _atom_site_fract_z
 _atom_site_occupancy
  Na  Na0  1  0.042960  0.650314  0.086416  1
  Na  Na1  1  0.457040  0.349686  0.586416  1
  Na  Na2  1  0.957040  0.150314  0.413584  1
  Na  Na3  1  0.542960  0.849686  0.913584  1
  Sr  Sr4  1  0.508034  0.315303  0.173237  1
  Sr  Sr5  1  0.991966  0.684697  0.673237  1
  Sr  Sr6  1  0.491966  0.815303  0.326763  1
  Sr  Sr7  1  0.008034  0.184697  0.826763  1
  Ni  Ni8  1  0.036544  0.999523  0.127134  1
  Ni  Ni9  1  0.463456  0.000477  0.627134  1
  Ni  Ni10  1  0.963456  0.499523  0.372866  1
  Ni  Ni11  1  0.536544  0.500477  0.872866  1
  F  F12  1  0.214681  0.139743  0.583687  1
  F  F13  1  0.285319  0.860257  0.083687  1
  F  F14  1  0.785319  0.639743  0.916313  1
  F  F15  1  0.714681  0.360257  0.416313  1
  F  F16  1  0.206289  0.623580  0.300554  1
  F  F17  1  0.293711  0.376420  0.800554  1
  F  F18  1  0.793711  0.123580  0.199446  1
  F  F19  1  0.706289  0.876420  0.699446  1
  F  F20  1  0.213788  0.158537  0.051184  1
  F  F21  1  0.286212  0.841463  0.551184  1
  F  F22  1  0.786212  0.658537  0.448816  1
  F  F23  1  0.713788  0.341463  0.948816  1
  F  F24  1  0.155409  0.341908  0.313842  1
  F  F25  1  0.344591  0.658092  0.813842  1
  F  F26  1  0.844591  0.841908  0.186158  1
  F  F27  1  0.655409  0.158092  0.686158  1
  F  F28  1  0.368116  0.510792  0.033102  1
  F  F29  1  0.131884  0.489208  0.533102  1
  F  F30  1  0.631884  0.010792  0.466898  1
  F  F31  1  0.868116  0.989208  0.966898  1
  F  F32  1  0.214880  0.018885  0.284035  1
  F  F33  1  0.285120  0.981115  0.784035  1
  F  F34  1  0.785120  0.518885  0.215965  1
  F  F35  1  0.714880  0.481115  0.715965  1
