# generated using pymatgen
data_NaLi3(Mo3S4)2
_symmetry_space_group_name_H-M   'P 1'
_cell_length_a   6.74769999
_cell_length_b   6.77624758
_cell_length_c   6.75577900
_cell_angle_alpha   95.05724503
_cell_angle_beta   93.56366283
_cell_angle_gamma   91.95028259
_symmetry_Int_Tables_number   1
_chemical_formula_structural   NaLi3(Mo3S4)2
_chemical_formula_sum   'Na1 Li3 Mo6 S8'
_cell_volume   306.86168834
_cell_formula_units_Z   1
loop_
 _symmetry_equiv_pos_site_id
 _symmetry_equiv_pos_as_xyz
  1  'x, y, z'
loop_
 _atom_site_type_symbol
 _atom_site_label
 _atom_site_symmetry_multiplicity
 _atom_site_fract_x
 _atom_site_fract_y
 _atom_site_fract_z
 _atom_site_occupancy
  Na  Na0  1  0.001370  0.905551  0.098545  1
  Li  Li1  1  0.969270  0.397881  0.017342  1
  Li  Li2  1  0.967402  0.035590  0.605720  1
  Li  Li3  1  0.450166  0.011723  0.971690  1
  Mo  Mo4  1  0.580927  0.763393  0.448213  1
  Mo  Mo5  1  0.234863  0.552687  0.411658  1
  Mo  Mo6  1  0.447426  0.589894  0.760793  1
  Mo  Mo7  1  0.549868  0.411896  0.232081  1
  Mo  Mo8  1  0.762053  0.450257  0.582420  1
  Mo  Mo9  1  0.414834  0.238116  0.542276  1
  S  S10  1  0.282188  0.876918  0.622912  1
  S  S11  1  0.373998  0.710932  0.129371  1
  S  S12  1  0.768436  0.777963  0.773179  1
  S  S13  1  0.866559  0.612420  0.291213  1
  S  S14  1  0.129568  0.384023  0.707667  1
  S  S15  1  0.229619  0.227053  0.213615  1
  S  S16  1  0.624822  0.291943  0.864869  1
  S  S17  1  0.713633  0.124760  0.367435  1
