# generated using pymatgen
data_Er2Cr(Fe3P2)3
_symmetry_space_group_name_H-M   'P 1'
_cell_length_a   3.65364200
_cell_length_b   10.29748700
_cell_length_c   11.83998000
_cell_angle_alpha   90.00000000
_cell_angle_beta   90.00000000
_cell_angle_gamma   90.00000000
_symmetry_Int_Tables_number   1
_chemical_formula_structural   Er2Cr(Fe3P2)3
_chemical_formula_sum   'Er4 Cr2 Fe18 P12'
_cell_volume   445.45948655
_cell_formula_units_Z   2
loop_
 _symmetry_equiv_pos_site_id
 _symmetry_equiv_pos_as_xyz
  1  'x, y, z'
loop_
 _atom_site_type_symbol
 _atom_site_label
 _atom_site_symmetry_multiplicity
 _atom_site_fract_x
 _atom_site_fract_y
 _atom_site_fract_z
 _atom_site_occupancy
  Er  Er0  1  0.250000  0.580976  0.704360  1
  Er  Er1  1  0.250000  0.919024  0.204360  1
  Er  Er2  1  0.750000  0.419970  0.295466  1
  Er  Er3  1  0.750000  0.080030  0.795466  1
  Cr  Cr4  1  0.250000  0.702968  0.989740  1
  Cr  Cr5  1  0.250000  0.797032  0.489740  1
  Fe  Fe6  1  0.750000  0.292482  0.011450  1
  Fe  Fe7  1  0.750000  0.207518  0.511450  1
  Fe  Fe8  1  0.250000  0.404613  0.489887  1
  Fe  Fe9  1  0.250000  0.095388  0.989887  1
  Fe  Fe10  1  0.750000  0.594605  0.510121  1
  Fe  Fe11  1  0.750000  0.905395  0.010121  1
  Fe  Fe12  1  0.250000  0.219721  0.175983  1
  Fe  Fe13  1  0.250000  0.280279  0.675983  1
  Fe  Fe14  1  0.750000  0.781665  0.824564  1
  Fe  Fe15  1  0.750000  0.718335  0.324564  1
  Fe  Fe16  1  0.250000  0.875565  0.701639  1
  Fe  Fe17  1  0.250000  0.624435  0.201639  1
  Fe  Fe18  1  0.750000  0.124920  0.299114  1
  Fe  Fe19  1  0.750000  0.375080  0.799114  1
  Fe  Fe20  1  0.250000  0.461515  0.932374  1
  Fe  Fe21  1  0.250000  0.038485  0.432374  1
  Fe  Fe22  1  0.750000  0.534048  0.066340  1
  Fe  Fe23  1  0.750000  0.965952  0.566340  1
  P  P24  1  0.250000  0.422873  0.113441  1
  P  P25  1  0.250000  0.077127  0.613441  1
  P  P26  1  0.750000  0.577434  0.886162  1
  P  P27  1  0.750000  0.922566  0.386162  1
  P  P28  1  0.250000  0.264159  0.870630  1
  P  P29  1  0.250000  0.235841  0.370630  1
  P  P30  1  0.750000  0.733338  0.130995  1
  P  P31  1  0.750000  0.766662  0.630995  1
  P  P32  1  0.250000  0.597256  0.393822  1
  P  P33  1  0.250000  0.902744  0.893822  1
  P  P34  1  0.750000  0.398801  0.603912  1
  P  P35  1  0.750000  0.101199  0.103912  1
