# generated using pymatgen
data_Tm6Sc14GaBi11
_symmetry_space_group_name_H-M   'P 1'
_cell_length_a   7.84276412
_cell_length_b   9.06676300
_cell_length_c   11.57818743
_cell_angle_alpha   90.00000000
_cell_angle_beta   89.70521575
_cell_angle_gamma   90.00000000
_symmetry_Int_Tables_number   1
_chemical_formula_structural   Tm6Sc14GaBi11
_chemical_formula_sum   'Tm6 Sc14 Ga1 Bi11'
_cell_volume   823.29645343
_cell_formula_units_Z   1
loop_
 _symmetry_equiv_pos_site_id
 _symmetry_equiv_pos_as_xyz
  1  'x, y, z'
loop_
 _atom_site_type_symbol
 _atom_site_label
 _atom_site_symmetry_multiplicity
 _atom_site_fract_x
 _atom_site_fract_y
 _atom_site_fract_z
 _atom_site_occupancy
  Tm  Tm0  1  0.352709  0.250000  0.293403  1
  Tm  Tm1  1  0.849251  0.250000  0.217157  1
  Tm  Tm2  1  0.193207  0.250000  0.774324  1
  Tm  Tm3  1  0.813678  0.750000  0.218988  1
  Tm  Tm4  1  0.315889  0.750000  0.280286  1
  Tm  Tm5  1  0.675055  0.250000  0.711636  1
  Sc  Sc6  1  0.031755  0.250000  0.511741  1
  Sc  Sc7  1  0.983008  0.750000  0.492407  1
  Sc  Sc8  1  0.479916  0.750000  0.008844  1
  Sc  Sc9  1  0.519942  0.250000  0.987695  1
  Sc  Sc10  1  0.652903  0.750000  0.719258  1
  Sc  Sc11  1  0.150471  0.750000  0.780041  1
  Sc  Sc12  1  0.193892  0.066974  0.059461  1
  Sc  Sc13  1  0.805483  0.932607  0.938652  1
  Sc  Sc14  1  0.308427  0.948471  0.560458  1
  Sc  Sc15  1  0.805483  0.567393  0.938652  1
  Sc  Sc16  1  0.684319  0.073512  0.446851  1
  Sc  Sc17  1  0.193892  0.433026  0.059461  1
  Sc  Sc18  1  0.684319  0.426488  0.446851  1
  Sc  Sc19  1  0.308427  0.551529  0.560458  1
  Ga  Ga20  1  0.404492  0.250000  0.539238  1
  Bi  Bi21  1  0.594495  0.750000  0.465628  1
  Bi  Bi22  1  0.095929  0.750000  0.034790  1
  Bi  Bi23  1  0.905667  0.250000  0.955740  1
  Bi  Bi24  1  0.061784  0.003251  0.330245  1
  Bi  Bi25  1  0.936999  0.992247  0.672634  1
  Bi  Bi26  1  0.437084  0.990695  0.826849  1
  Bi  Bi27  1  0.936999  0.507753  0.672634  1
  Bi  Bi28  1  0.562827  0.004697  0.169260  1
  Bi  Bi29  1  0.061784  0.496749  0.330245  1
  Bi  Bi30  1  0.562827  0.495303  0.169260  1
  Bi  Bi31  1  0.437084  0.509305  0.826849  1
