# generated using pymatgen
data_Nd4Al4IrPt2Rh
_symmetry_space_group_name_H-M   'P 1'
_cell_length_a   4.45299500
_cell_length_b   7.08160484
_cell_length_c   7.95204287
_cell_angle_alpha   89.74330414
_cell_angle_beta   90.00000000
_cell_angle_gamma   90.00000000
_symmetry_Int_Tables_number   1
_chemical_formula_structural   Nd4Al4IrPt2Rh
_chemical_formula_sum   'Nd4 Al4 Ir1 Pt2 Rh1'
_cell_volume   250.75999396
_cell_formula_units_Z   1
loop_
 _symmetry_equiv_pos_site_id
 _symmetry_equiv_pos_as_xyz
  1  'x, y, z'
loop_
 _atom_site_type_symbol
 _atom_site_label
 _atom_site_symmetry_multiplicity
 _atom_site_fract_x
 _atom_site_fract_y
 _atom_site_fract_z
 _atom_site_occupancy
  Nd  Nd0  1  0.750000  0.466621  0.179382  1
  Nd  Nd1  1  0.250000  0.028692  0.685315  1
  Nd  Nd2  1  0.750000  0.966498  0.321457  1
  Nd  Nd3  1  0.250000  0.526315  0.815494  1
  Al  Al4  1  0.750000  0.859791  0.934858  1
  Al  Al5  1  0.250000  0.643584  0.435577  1
  Al  Al6  1  0.750000  0.358188  0.567775  1
  Al  Al7  1  0.250000  0.145193  0.063380  1
  Ir  Ir8  1  0.750000  0.222987  0.885247  1
  Pt  Pt9  1  0.250000  0.279387  0.384974  1
  Pt  Pt10  1  0.250000  0.779423  0.114866  1
  Rh  Rh11  1  0.750000  0.723320  0.611674  1
