# generated using pymatgen
data_NdPa3InGaRh4
_symmetry_space_group_name_H-M   'P 1'
_cell_length_a   7.61677893
_cell_length_b   7.70640930
_cell_length_c   3.65542500
_cell_angle_alpha   90.00000000
_cell_angle_beta   90.00000000
_cell_angle_gamma   92.84358661
_symmetry_Int_Tables_number   1
_chemical_formula_structural   NdPa3InGaRh4
_chemical_formula_sum   'Nd1 Pa3 In1 Ga1 Rh4'
_cell_volume   214.30199683
_cell_formula_units_Z   1
loop_
 _symmetry_equiv_pos_site_id
 _symmetry_equiv_pos_as_xyz
  1  'x, y, z'
loop_
 _atom_site_type_symbol
 _atom_site_label
 _atom_site_symmetry_multiplicity
 _atom_site_fract_x
 _atom_site_fract_y
 _atom_site_fract_z
 _atom_site_occupancy
  Nd  Nd0  1  0.184285  0.335235  0.500000  1
  Pa  Pa1  1  0.657551  0.186779  0.500000  1
  Pa  Pa2  1  0.339074  0.811674  0.500000  1
  Pa  Pa3  1  0.820453  0.666346  0.500000  1
  In  In4  1  0.996699  0.008038  0.000000  1
  Ga  Ga5  1  0.503726  0.501379  0.000000  1
  Rh  Rh6  1  0.394083  0.113954  0.000000  1
  Rh  Rh7  1  0.124429  0.658314  0.000000  1
  Rh  Rh8  1  0.845588  0.373389  0.000000  1
  Rh  Rh9  1  0.634110  0.844893  0.000000  1
