# generated using pymatgen
data_Er6P13IrRh19
_symmetry_space_group_name_H-M   'P 1'
_cell_length_a   13.32041300
_cell_length_b   13.32041358
_cell_length_c   3.91438700
_cell_angle_alpha   90.00000000
_cell_angle_beta   90.00000000
_cell_angle_gamma   119.99999609
_symmetry_Int_Tables_number   1
_chemical_formula_structural   Er6P13IrRh19
_chemical_formula_sum   'Er6 P13 Ir1 Rh19'
_cell_volume   601.49193525
_cell_formula_units_Z   1
loop_
 _symmetry_equiv_pos_site_id
 _symmetry_equiv_pos_as_xyz
  1  'x, y, z'
loop_
 _atom_site_type_symbol
 _atom_site_label
 _atom_site_symmetry_multiplicity
 _atom_site_fract_x
 _atom_site_fract_y
 _atom_site_fract_z
 _atom_site_occupancy
  Er  Er0  1  0.528470  0.717490  0.248219  1
  Er  Er1  1  0.282510  0.810978  0.248219  1
  Er  Er2  1  0.189022  0.471530  0.248219  1
  Er  Er3  1  0.470974  0.282103  0.751840  1
  Er  Er4  1  0.717897  0.188871  0.751840  1
  Er  Er5  1  0.811129  0.529026  0.751840  1
  P  P6  1  0.526309  0.139351  0.250509  1
  P  P7  1  0.860649  0.386959  0.250509  1
  P  P8  1  0.613041  0.473691  0.250509  1
  P  P9  1  0.943708  0.713856  0.254771  1
  P  P10  1  0.286144  0.229851  0.254771  1
  P  P11  1  0.770149  0.056292  0.254771  1
  P  P12  1  0.386621  0.526109  0.749208  1
  P  P13  1  0.473891  0.860511  0.749208  1
  P  P14  1  0.139489  0.613379  0.749208  1
  P  P15  1  0.713725  0.770261  0.745170  1
  P  P16  1  0.229739  0.943464  0.745170  1
  P  P17  1  0.056536  0.286275  0.745170  1
  P  P18  1  0.000000  0.000000  0.000580  1
  Ir  Ir19  1  0.333333  0.666667  0.751440  1
  Rh  Rh20  1  0.921888  0.251092  0.252937  1
  Rh  Rh21  1  0.748908  0.670797  0.252937  1
  Rh  Rh22  1  0.329203  0.078112  0.252937  1
  Rh  Rh23  1  0.437725  0.021362  0.751404  1
  Rh  Rh24  1  0.978638  0.416364  0.751404  1
  Rh  Rh25  1  0.583636  0.562275  0.751404  1
  Rh  Rh26  1  0.666667  0.333333  0.249001  1
  Rh  Rh27  1  0.095006  0.187148  0.247877  1
  Rh  Rh28  1  0.812852  0.907858  0.247877  1
  Rh  Rh29  1  0.092142  0.904994  0.247877  1
  Rh  Rh30  1  0.021163  0.583451  0.248476  1
  Rh  Rh31  1  0.416549  0.437712  0.248476  1
  Rh  Rh32  1  0.562288  0.978837  0.248476  1
  Rh  Rh33  1  0.670838  0.922012  0.747033  1
  Rh  Rh34  1  0.077988  0.748827  0.747033  1
  Rh  Rh35  1  0.251173  0.329162  0.747033  1
  Rh  Rh36  1  0.904709  0.813017  0.752216  1
  Rh  Rh37  1  0.186983  0.091691  0.752216  1
  Rh  Rh38  1  0.908309  0.095291  0.752216  1
