# generated using pymatgen
data_TlReF6
_symmetry_space_group_name_H-M   'P 1'
_cell_length_a   6.10174500
_cell_length_b   6.10174500
_cell_length_c   10.03289900
_cell_angle_alpha   90.00000000
_cell_angle_beta   90.00000000
_cell_angle_gamma   90.00000000
_symmetry_Int_Tables_number   1
_chemical_formula_structural   TlReF6
_chemical_formula_sum   'Tl2 Re2 F12'
_cell_volume   373.53779273
_cell_formula_units_Z   2
loop_
 _symmetry_equiv_pos_site_id
 _symmetry_equiv_pos_as_xyz
  1  'x, y, z'
loop_
 _atom_site_type_symbol
 _atom_site_label
 _atom_site_symmetry_multiplicity
 _atom_site_fract_x
 _atom_site_fract_y
 _atom_site_fract_z
 _atom_site_occupancy
  Tl  Tl0  1  0.000000  0.500000  0.331345  1
  Tl  Tl1  1  0.500000  0.000000  0.668655  1
  Re  Re2  1  0.500000  0.000000  0.228535  1
  Re  Re3  1  0.000000  0.500000  0.771466  1
  F  F4  1  0.662374  0.162377  0.103912  1
  F  F5  1  0.337625  0.837625  0.103912  1
  F  F6  1  0.162377  0.337625  0.896088  1
  F  F7  1  0.837625  0.662374  0.896088  1
  F  F8  1  0.273503  0.226499  0.227545  1
  F  F9  1  0.726497  0.773500  0.227545  1
  F  F10  1  0.651898  0.151898  0.370598  1
  F  F11  1  0.348102  0.848102  0.370598  1
  F  F12  1  0.151898  0.348102  0.629403  1
  F  F13  1  0.848102  0.651898  0.629403  1
  F  F14  1  0.773500  0.273503  0.772454  1
  F  F15  1  0.226499  0.726497  0.772454  1
