# generated using pymatgen
data_PrC4O3
_symmetry_space_group_name_H-M   'P 1'
_cell_length_a   1.34604186
_cell_length_b   8.06900215
_cell_length_c   9.68388107
_cell_angle_alpha   82.39260258
_cell_angle_beta   90.75993673
_cell_angle_gamma   94.21283717
_symmetry_Int_Tables_number   1
_chemical_formula_structural   PrC4O3
_chemical_formula_sum   'Pr1 C4 O3'
_cell_volume   103.97062348
_cell_formula_units_Z   1
loop_
 _symmetry_equiv_pos_site_id
 _symmetry_equiv_pos_as_xyz
  1  'x, y, z'
loop_
 _atom_site_type_symbol
 _atom_site_label
 _atom_site_symmetry_multiplicity
 _atom_site_fract_x
 _atom_site_fract_y
 _atom_site_fract_z
 _atom_site_occupancy
  Pr  Pr0  1  0.186507  0.533262  0.253279  1
  C  C1  1  0.894077  0.222131  0.316031  1
  C  C2  1  0.843486  0.444818  0.585271  1
  C  C3  1  0.359845  0.489895  0.726109  1
  C  C4  1  0.845987  0.733157  0.076976  1
  O  O5  1  0.939076  0.049405  0.725595  1
  O  O6  1  0.871987  0.198335  0.999625  1
  O  O7  1  0.794065  0.849940  0.481904  1
