# generated using pymatgen
data_Zr3MnAl3Cu2
_symmetry_space_group_name_H-M   'P 1'
_cell_length_a   7.13515700
_cell_length_b   7.13515656
_cell_length_c   3.39254500
_cell_angle_alpha   90.00000000
_cell_angle_beta   90.00000000
_cell_angle_gamma   119.99999741
_symmetry_Int_Tables_number   1
_chemical_formula_structural   Zr3MnAl3Cu2
_chemical_formula_sum   'Zr3 Mn1 Al3 Cu2'
_cell_volume   149.57647714
_cell_formula_units_Z   1
loop_
 _symmetry_equiv_pos_site_id
 _symmetry_equiv_pos_as_xyz
  1  'x, y, z'
loop_
 _atom_site_type_symbol
 _atom_site_label
 _atom_site_symmetry_multiplicity
 _atom_site_fract_x
 _atom_site_fract_y
 _atom_site_fract_z
 _atom_site_occupancy
  Zr  Zr0  1  0.018696  0.412251  0.500000  1
  Zr  Zr1  1  0.587749  0.606445  0.500000  1
  Zr  Zr2  1  0.393555  0.981304  0.500000  1
  Mn  Mn3  1  0.333333  0.666667  0.000000  1
  Al  Al4  1  0.997284  0.738501  0.000000  1
  Al  Al5  1  0.261499  0.258783  0.000000  1
  Al  Al6  1  0.741217  0.002716  0.000000  1
  Cu  Cu7  1  0.000000  0.000000  0.500000  1
  Cu  Cu8  1  0.666667  0.333333  0.000000  1
