# generated using pymatgen
data_Y5Ho5(ErOs2)2
_symmetry_space_group_name_H-M   'P 1'
_cell_length_a   6.29876614
_cell_length_b   7.40497392
_cell_length_c   9.03117224
_cell_angle_alpha   90.00230142
_cell_angle_beta   90.19454024
_cell_angle_gamma   90.06076852
_symmetry_Int_Tables_number   1
_chemical_formula_structural   Y5Ho5(ErOs2)2
_chemical_formula_sum   'Y5 Ho5 Er2 Os4'
_cell_volume   421.23106723
_cell_formula_units_Z   1
loop_
 _symmetry_equiv_pos_site_id
 _symmetry_equiv_pos_as_xyz
  1  'x, y, z'
loop_
 _atom_site_type_symbol
 _atom_site_label
 _atom_site_symmetry_multiplicity
 _atom_site_fract_x
 _atom_site_fract_y
 _atom_site_fract_z
 _atom_site_occupancy
  Y  Y0  1  0.332827  0.675551  0.062839  1
  Y  Y1  1  0.870671  0.538496  0.250454  1
  Y  Y2  1  0.628933  0.038684  0.250148  1
  Y  Y3  1  0.129256  0.461412  0.749451  1
  Y  Y4  1  0.370924  0.961670  0.749523  1
  Ho  Ho5  1  0.167168  0.175230  0.436740  1
  Ho  Ho6  1  0.667069  0.325020  0.562853  1
  Ho  Ho7  1  0.832716  0.825520  0.936769  1
  Ho  Ho8  1  0.667601  0.324696  0.936781  1
  Ho  Ho9  1  0.832969  0.825014  0.562884  1
  Er  Er10  1  0.332978  0.674634  0.437084  1
  Er  Er11  1  0.167084  0.174722  0.063185  1
  Os  Os12  1  0.043051  0.883353  0.250903  1
  Os  Os13  1  0.456222  0.381838  0.251121  1
  Os  Os14  1  0.956295  0.117121  0.750560  1
  Os  Os15  1  0.544233  0.617042  0.748704  1
