# generated using pymatgen
data_Cs2Cr(WO4)3
_symmetry_space_group_name_H-M   'P 1'
_cell_length_a   7.28631316
_cell_length_b   7.28631335
_cell_length_c   7.28631382
_cell_angle_alpha   60.96964119
_cell_angle_beta   60.96964194
_cell_angle_gamma   60.96964256
_symmetry_Int_Tables_number   1
_chemical_formula_structural   Cs2Cr(WO4)3
_chemical_formula_sum   'Cs2 Cr1 W3 O12'
_cell_volume   279.50771998
_cell_formula_units_Z   1
loop_
 _symmetry_equiv_pos_site_id
 _symmetry_equiv_pos_as_xyz
  1  'x, y, z'
loop_
 _atom_site_type_symbol
 _atom_site_label
 _atom_site_symmetry_multiplicity
 _atom_site_fract_x
 _atom_site_fract_y
 _atom_site_fract_z
 _atom_site_occupancy
  Cs  Cs0  1  0.631944  0.631944  0.631944  1
  Cs  Cs1  1  0.368056  0.368056  0.368056  1
  Cr  Cr2  1  0.000000  0.000000  0.000000  1
  W  W3  1  0.500000  0.000000  0.000000  1
  W  W4  1  0.000000  0.000000  0.500000  1
  W  W5  1  0.000000  0.500000  0.000000  1
  O  O6  1  0.942473  0.314029  0.314029  1
  O  O7  1  0.307641  0.942665  0.942665  1
  O  O8  1  0.314029  0.314029  0.942473  1
  O  O9  1  0.942665  0.942665  0.307641  1
  O  O10  1  0.942665  0.307641  0.942665  1
  O  O11  1  0.314029  0.942473  0.314029  1
  O  O12  1  0.057527  0.685971  0.685971  1
  O  O13  1  0.692359  0.057335  0.057335  1
  O  O14  1  0.685971  0.685971  0.057527  1
  O  O15  1  0.057335  0.057335  0.692359  1
  O  O16  1  0.057335  0.692359  0.057335  1
  O  O17  1  0.685971  0.057527  0.685971  1
