# generated using pymatgen
data_YbHo5(Ni7B2)2
_symmetry_space_group_name_H-M   'P 1'
_cell_length_a   5.02982272
_cell_length_b   5.03572622
_cell_length_c   14.35476928
_cell_angle_alpha   90.05073464
_cell_angle_beta   89.93906113
_cell_angle_gamma   119.96038663
_symmetry_Int_Tables_number   1
_chemical_formula_structural   YbHo5(Ni7B2)2
_chemical_formula_sum   'Yb1 Ho5 Ni14 B4'
_cell_volume   315.00291616
_cell_formula_units_Z   1
loop_
 _symmetry_equiv_pos_site_id
 _symmetry_equiv_pos_as_xyz
  1  'x, y, z'
loop_
 _atom_site_type_symbol
 _atom_site_label
 _atom_site_symmetry_multiplicity
 _atom_site_fract_x
 _atom_site_fract_y
 _atom_site_fract_z
 _atom_site_occupancy
  Yb  Yb0  1  0.666565  0.333155  0.030932  1
  Ho  Ho1  1  0.666503  0.332930  0.245928  1
  Ho  Ho2  1  0.666554  0.333187  0.465601  1
  Ho  Ho3  1  0.333258  0.666805  0.533259  1
  Ho  Ho4  1  0.333555  0.667109  0.751757  1
  Ho  Ho5  1  0.333446  0.666817  0.970880  1
  Ni  Ni6  1  0.000170  0.999918  0.000839  1
  Ni  Ni7  1  0.164884  0.833892  0.148528  1
  Ni  Ni8  1  0.668683  0.833731  0.148533  1
  Ni  Ni9  1  0.165522  0.330469  0.148300  1
  Ni  Ni10  1  0.165319  0.330852  0.350391  1
  Ni  Ni11  1  0.166256  0.833585  0.350284  1
  Ni  Ni12  1  0.668395  0.833878  0.350264  1
  Ni  Ni13  1  0.999525  0.999832  0.500208  1
  Ni  Ni14  1  0.331472  0.166548  0.649465  1
  Ni  Ni15  1  0.833491  0.166281  0.649490  1
  Ni  Ni16  1  0.834522  0.669501  0.649445  1
  Ni  Ni17  1  0.834651  0.669972  0.851818  1
  Ni  Ni18  1  0.331113  0.165477  0.851586  1
  Ni  Ni19  1  0.835880  0.165935  0.851585  1
  B  B20  1  0.999846  0.999698  0.249685  1
  B  B21  1  0.333215  0.666309  0.249090  1
  B  B22  1  0.000329  0.000492  0.750829  1
  B  B23  1  0.666849  0.333626  0.751303  1
