# generated using pymatgen
data_HoEr7(TcB6)4
_symmetry_space_group_name_H-M   'P 1'
_cell_length_a   3.66128800
_cell_length_b   9.11823300
_cell_length_c   11.48876600
_cell_angle_alpha   90.00119540
_cell_angle_beta   90.00000000
_cell_angle_gamma   90.00000000
_symmetry_Int_Tables_number   1
_chemical_formula_structural   HoEr7(TcB6)4
_chemical_formula_sum   'Ho1 Er7 Tc4 B24'
_cell_volume   383.54644498
_cell_formula_units_Z   1
loop_
 _symmetry_equiv_pos_site_id
 _symmetry_equiv_pos_as_xyz
  1  'x, y, z'
loop_
 _atom_site_type_symbol
 _atom_site_label
 _atom_site_symmetry_multiplicity
 _atom_site_fract_x
 _atom_site_fract_y
 _atom_site_fract_z
 _atom_site_occupancy
  Ho  Ho0  1  0.000000  0.323845  0.414125  1
  Er  Er1  1  0.000000  0.676094  0.585898  1
  Er  Er2  1  0.000000  0.823932  0.085829  1
  Er  Er3  1  0.000000  0.176066  0.914133  1
  Er  Er4  1  0.000000  0.942949  0.369411  1
  Er  Er5  1  0.000000  0.056978  0.630649  1
  Er  Er6  1  0.000000  0.442961  0.130459  1
  Er  Er7  1  0.000000  0.557059  0.869479  1
  Tc  Tc8  1  0.000000  0.639033  0.320458  1
  Tc  Tc9  1  0.000000  0.361107  0.679603  1
  Tc  Tc10  1  0.000000  0.138805  0.179375  1
  Tc  Tc11  1  0.000000  0.861102  0.820529  1
  B  B12  1  0.500000  0.553496  0.433203  1
  B  B13  1  0.500000  0.446783  0.566991  1
  B  B14  1  0.500000  0.053260  0.066755  1
  B  B15  1  0.500000  0.946695  0.933192  1
  B  B16  1  0.500000  0.749502  0.419047  1
  B  B17  1  0.500000  0.250539  0.581241  1
  B  B18  1  0.500000  0.249409  0.080934  1
  B  B19  1  0.500000  0.750609  0.919004  1
  B  B20  1  0.500000  0.792482  0.265066  1
  B  B21  1  0.500000  0.207544  0.734977  1
  B  B22  1  0.500000  0.292350  0.234710  1
  B  B23  1  0.500000  0.707581  0.765106  1
  B  B24  1  0.500000  0.630978  0.185112  1
  B  B25  1  0.500000  0.369081  0.814872  1
  B  B26  1  0.500000  0.130770  0.314672  1
  B  B27  1  0.500000  0.869051  0.685204  1
  B  B28  1  0.500000  0.981771  0.211618  1
  B  B29  1  0.500000  0.018142  0.788378  1
  B  B30  1  0.500000  0.482044  0.288205  1
  B  B31  1  0.500000  0.518212  0.711708  1
  B  B32  1  0.500000  0.600165  0.027947  1
  B  B33  1  0.500000  0.399861  0.972015  1
  B  B34  1  0.500000  0.099838  0.472142  1
  B  B35  1  0.500000  0.899907  0.527955  1
