# generated using pymatgen
data_HoZr11(Si3Ru)4
_symmetry_space_group_name_H-M   'P 1'
_cell_length_a   3.96369100
_cell_length_b   10.37344212
_cell_length_c   11.87959844
_cell_angle_alpha   90.17377260
_cell_angle_beta   90.00000000
_cell_angle_gamma   90.00000000
_symmetry_Int_Tables_number   1
_chemical_formula_structural   HoZr11(Si3Ru)4
_chemical_formula_sum   'Ho1 Zr11 Si12 Ru4'
_cell_volume   488.45261809
_cell_formula_units_Z   1
loop_
 _symmetry_equiv_pos_site_id
 _symmetry_equiv_pos_as_xyz
  1  'x, y, z'
loop_
 _atom_site_type_symbol
 _atom_site_label
 _atom_site_symmetry_multiplicity
 _atom_site_fract_x
 _atom_site_fract_y
 _atom_site_fract_z
 _atom_site_occupancy
  Ho  Ho0  1  0.750000  0.157975  0.697674  1
  Zr  Zr1  1  0.250000  0.874472  0.023157  1
  Zr  Zr2  1  0.250000  0.625866  0.521314  1
  Zr  Zr3  1  0.750000  0.123359  0.981685  1
  Zr  Zr4  1  0.750000  0.377979  0.476089  1
  Zr  Zr5  1  0.250000  0.922331  0.595272  1
  Zr  Zr6  1  0.250000  0.575349  0.098359  1
  Zr  Zr7  1  0.750000  0.074511  0.398112  1
  Zr  Zr8  1  0.750000  0.424276  0.905428  1
  Zr  Zr9  1  0.250000  0.658193  0.801089  1
  Zr  Zr10  1  0.250000  0.840761  0.300822  1
  Zr  Zr11  1  0.750000  0.342821  0.198843  1
  Si  Si12  1  0.250000  0.011303  0.828557  1
  Si  Si13  1  0.250000  0.487381  0.325246  1
  Si  Si14  1  0.750000  0.984173  0.174456  1
  Si  Si15  1  0.750000  0.513485  0.674313  1
  Si  Si16  1  0.250000  0.252245  0.844891  1
  Si  Si17  1  0.250000  0.251135  0.338954  1
  Si  Si18  1  0.750000  0.748950  0.158962  1
  Si  Si19  1  0.750000  0.751082  0.659464  1
  Si  Si20  1  0.250000  0.197326  0.537567  1
  Si  Si21  1  0.250000  0.305769  0.045199  1
  Si  Si22  1  0.750000  0.805963  0.455665  1
  Si  Si23  1  0.750000  0.694420  0.956873  1
  Ru  Ru24  1  0.250000  0.387953  0.679635  1
  Ru  Ru25  1  0.250000  0.112811  0.178857  1
  Ru  Ru26  1  0.750000  0.613417  0.319926  1
  Ru  Ru27  1  0.750000  0.884695  0.823591  1
