# generated using pymatgen
data_Tb3TmAl18(PtRh)3
_symmetry_space_group_name_H-M   'P 1'
_cell_length_a   7.59869910
_cell_length_b   7.59870049
_cell_length_c   9.44228900
_cell_angle_alpha   89.99071800
_cell_angle_beta   89.99071800
_cell_angle_gamma   119.58513259
_symmetry_Int_Tables_number   1
_chemical_formula_structural   Tb3TmAl18(PtRh)3
_chemical_formula_sum   'Tb3 Tm1 Al18 Pt3 Rh3'
_cell_volume   474.11849072
_cell_formula_units_Z   1
loop_
 _symmetry_equiv_pos_site_id
 _symmetry_equiv_pos_as_xyz
  1  'x, y, z'
loop_
 _atom_site_type_symbol
 _atom_site_label
 _atom_site_symmetry_multiplicity
 _atom_site_fract_x
 _atom_site_fract_y
 _atom_site_fract_z
 _atom_site_occupancy
  Tb  Tb0  1  0.995994  0.669901  0.250226  1
  Tb  Tb1  1  0.005940  0.331584  0.750017  1
  Tb  Tb2  1  0.668146  0.993885  0.249999  1
  Tm  Tm3  1  0.329702  0.004101  0.749683  1
  Al  Al4  1  0.125019  0.125667  0.250705  1
  Al  Al5  1  0.874939  0.875249  0.749331  1
  Al  Al6  1  0.000002  0.330869  0.076259  1
  Al  Al7  1  0.999758  0.670064  0.922962  1
  Al  Al8  1  0.996956  0.665713  0.575479  1
  Al  Al9  1  0.334958  0.003692  0.425698  1
  Al  Al10  1  0.996215  0.330916  0.425104  1
  Al  Al11  1  0.668374  0.003786  0.575477  1
  Al  Al12  1  0.668492  0.000015  0.923267  1
  Al  Al13  1  0.330618  0.000952  0.075964  1
  Al  Al14  1  0.332373  0.328427  0.552872  1
  Al  Al15  1  0.671095  0.667670  0.447893  1
  Al  Al16  1  0.670036  0.669965  0.054807  1
  Al  Al17  1  0.330077  0.329450  0.944564  1
  Al  Al18  1  0.340037  0.544338  0.250518  1
  Al  Al19  1  0.658790  0.450837  0.746602  1
  Al  Al20  1  0.548296  0.340409  0.253453  1
  Al  Al21  1  0.455528  0.660424  0.749491  1
  Pt  Pt22  1  0.671730  0.327805  0.999530  1
  Pt  Pt23  1  0.327462  0.673093  0.999563  1
  Pt  Pt24  1  0.327594  0.673012  0.500410  1
  Rh  Rh25  1  0.671723  0.328112  0.500125  1
  Rh  Rh26  1  0.999918  0.000239  0.999912  1
  Rh  Rh27  1  0.000233  0.999825  0.500088  1
