# generated using pymatgen
data_Dy17Y3(Ir2Rh)4
_symmetry_space_group_name_H-M   'P 1'
_cell_length_a   10.87006627
_cell_length_b   10.87738045
_cell_length_c   6.39894365
_cell_angle_alpha   90.01830774
_cell_angle_beta   90.04820932
_cell_angle_gamma   89.97277020
_symmetry_Int_Tables_number   1
_chemical_formula_structural   Dy17Y3(Ir2Rh)4
_chemical_formula_sum   'Dy17 Y3 Ir8 Rh4'
_cell_volume   756.59692356
_cell_formula_units_Z   1
loop_
 _symmetry_equiv_pos_site_id
 _symmetry_equiv_pos_as_xyz
  1  'x, y, z'
loop_
 _atom_site_type_symbol
 _atom_site_label
 _atom_site_symmetry_multiplicity
 _atom_site_fract_x
 _atom_site_fract_y
 _atom_site_fract_z
 _atom_site_occupancy
  Dy  Dy0  1  0.709240  0.910299  0.381887  1
  Dy  Dy1  1  0.589467  0.790602  0.881533  1
  Dy  Dy2  1  0.589405  0.209280  0.381986  1
  Dy  Dy3  1  0.410531  0.790478  0.381813  1
  Dy  Dy4  1  0.410588  0.209181  0.881939  1
  Dy  Dy5  1  0.209075  0.410629  0.618012  1
  Dy  Dy6  1  0.209146  0.589375  0.118015  1
  Dy  Dy7  1  0.790846  0.410555  0.118281  1
  Dy  Dy8  1  0.790873  0.589445  0.618085  1
  Dy  Dy9  1  0.910670  0.709180  0.118196  1
  Dy  Dy10  1  0.910880  0.291460  0.618216  1
  Dy  Dy11  1  0.089266  0.708662  0.618436  1
  Dy  Dy12  1  0.089093  0.291322  0.118496  1
  Dy  Dy13  1  0.999889  0.999908  0.500642  1
  Dy  Dy14  1  0.000001  0.999893  0.000518  1
  Dy  Dy15  1  0.500125  0.500108  0.999571  1
  Dy  Dy16  1  0.499927  0.500031  0.499352  1
  Y  Y17  1  0.289726  0.089563  0.380706  1
  Y  Y18  1  0.290125  0.910634  0.880888  1
  Y  Y19  1  0.710168  0.089594  0.880359  1
  Ir  Ir20  1  0.846692  0.154222  0.252022  1
  Ir  Ir21  1  0.846393  0.845335  0.749622  1
  Ir  Ir22  1  0.152660  0.154918  0.751875  1
  Ir  Ir23  1  0.152688  0.844984  0.251729  1
  Ir  Ir24  1  0.654076  0.347307  0.749315  1
  Ir  Ir25  1  0.654112  0.653908  0.250050  1
  Ir  Ir26  1  0.345909  0.347394  0.249237  1
  Ir  Ir27  1  0.345972  0.652555  0.749283  1
  Rh  Rh28  1  0.501202  0.999533  0.126978  1
  Rh  Rh29  1  0.501210  0.999472  0.624846  1
  Rh  Rh30  1  0.999974  0.500083  0.873997  1
  Rh  Rh31  1  0.000069  0.500092  0.374114  1
