# generated using pymatgen
data_Li2Tb6Zn21As
_symmetry_space_group_name_H-M   'P 1'
_cell_length_a   9.02257486
_cell_length_b   9.04815416
_cell_length_c   9.04815500
_cell_angle_alpha   60.00000059
_cell_angle_beta   59.90617403
_cell_angle_gamma   59.90617737
_symmetry_Int_Tables_number   1
_chemical_formula_structural   Li2Tb6Zn21As
_chemical_formula_sum   'Li2 Tb6 Zn21 As1'
_cell_volume   521.57668140
_cell_formula_units_Z   1
loop_
 _symmetry_equiv_pos_site_id
 _symmetry_equiv_pos_as_xyz
  1  'x, y, z'
loop_
 _atom_site_type_symbol
 _atom_site_label
 _atom_site_symmetry_multiplicity
 _atom_site_fract_x
 _atom_site_fract_y
 _atom_site_fract_z
 _atom_site_occupancy
  Li  Li0  1  0.624123  0.125293  0.125293  1
  Li  Li1  1  0.006151  0.997949  0.997949  1
  Tb  Tb2  1  0.716762  0.284700  0.284700  1
  Tb  Tb3  1  0.716762  0.284700  0.713840  1
  Tb  Tb4  1  0.716762  0.713840  0.284700  1
  Tb  Tb5  1  0.281764  0.718053  0.718053  1
  Tb  Tb6  1  0.281764  0.718053  0.282131  1
  Tb  Tb7  1  0.281764  0.282131  0.718053  1
  Zn  Zn8  1  0.123869  0.627177  0.124478  1
  Zn  Zn9  1  0.123869  0.124478  0.627177  1
  Zn  Zn10  1  0.123869  0.124478  0.124478  1
  Zn  Zn11  1  0.376307  0.874564  0.874564  1
  Zn  Zn12  1  0.871585  0.371113  0.878651  1
  Zn  Zn13  1  0.871585  0.878651  0.371113  1
  Zn  Zn14  1  0.871585  0.878651  0.878651  1
  Zn  Zn15  1  0.501591  0.000492  0.000492  1
  Zn  Zn16  1  0.501591  0.000492  0.497426  1
  Zn  Zn17  1  0.501591  0.497426  0.000492  1
  Zn  Zn18  1  0.001202  0.500179  0.500179  1
  Zn  Zn19  1  0.001202  0.500179  0.998441  1
  Zn  Zn20  1  0.001202  0.998441  0.500179  1
  Zn  Zn21  1  0.010122  0.329959  0.329959  1
  Zn  Zn22  1  0.331883  0.010995  0.328561  1
  Zn  Zn23  1  0.331883  0.328561  0.010995  1
  Zn  Zn24  1  0.331883  0.328561  0.328561  1
  Zn  Zn25  1  0.990441  0.669853  0.669853  1
  Zn  Zn26  1  0.670246  0.989739  0.670009  1
  Zn  Zn27  1  0.670246  0.670009  0.989739  1
  Zn  Zn28  1  0.670246  0.670009  0.670009  1
  As  As29  1  0.496154  0.501282  0.501282  1
