# generated using pymatgen
data_HoTa3(BOs)4
_symmetry_space_group_name_H-M   'P 1'
_cell_length_a   3.16453300
_cell_length_b   9.16859071
_cell_length_c   15.99046401
_cell_angle_alpha   90.10102889
_cell_angle_beta   90.00000000
_cell_angle_gamma   90.00000000
_symmetry_Int_Tables_number   1
_chemical_formula_structural   HoTa3(BOs)4
_chemical_formula_sum   'Ho3 Ta9 B12 Os12'
_cell_volume   463.95152417
_cell_formula_units_Z   3
loop_
 _symmetry_equiv_pos_site_id
 _symmetry_equiv_pos_as_xyz
  1  'x, y, z'
loop_
 _atom_site_type_symbol
 _atom_site_label
 _atom_site_symmetry_multiplicity
 _atom_site_fract_x
 _atom_site_fract_y
 _atom_site_fract_z
 _atom_site_occupancy
  Ho  Ho0  1  0.000000  0.320143  0.791199  1
  Ho  Ho1  1  0.000000  0.181514  0.290979  1
  Ho  Ho2  1  0.000000  0.819885  0.708980  1
  Ta  Ta3  1  0.000000  0.801359  0.493487  1
  Ta  Ta4  1  0.000000  0.197801  0.504668  1
  Ta  Ta5  1  0.000000  0.300624  0.005071  1
  Ta  Ta6  1  0.000000  0.698732  0.996172  1
  Ta  Ta7  1  0.000000  0.515141  0.593897  1
  Ta  Ta8  1  0.000000  0.484874  0.406157  1
  Ta  Ta9  1  0.000000  0.013803  0.906130  1
  Ta  Ta10  1  0.000000  0.984961  0.094606  1
  Ta  Ta11  1  0.000000  0.683782  0.204585  1
  B  B12  1  0.500000  0.603724  0.494996  1
  B  B13  1  0.500000  0.396640  0.503017  1
  B  B14  1  0.500000  0.102629  0.004404  1
  B  B15  1  0.500000  0.895825  0.998536  1
  B  B16  1  0.000000  0.608231  0.833414  1
  B  B17  1  0.000000  0.393346  0.168069  1
  B  B18  1  0.000000  0.108044  0.666762  1
  B  B19  1  0.000000  0.889380  0.333889  1
  B  B20  1  0.500000  0.712350  0.592310  1
  B  B21  1  0.500000  0.288730  0.406241  1
  B  B22  1  0.500000  0.209501  0.906679  1
  B  B23  1  0.500000  0.785049  0.099564  1
  Os  Os24  1  0.500000  0.717163  0.356939  1
  Os  Os25  1  0.500000  0.278425  0.635917  1
  Os  Os26  1  0.500000  0.223753  0.137327  1
  Os  Os27  1  0.500000  0.778090  0.865388  1
  Os  Os28  1  0.500000  0.520904  0.096002  1
  Os  Os29  1  0.500000  0.488134  0.912279  1
  Os  Os30  1  0.500000  0.009703  0.406035  1
  Os  Os31  1  0.500000  0.987522  0.589740  1
  Os  Os32  1  0.500000  0.565010  0.735761  1
  Os  Os33  1  0.500000  0.446522  0.263393  1
  Os  Os34  1  0.500000  0.065525  0.765916  1
  Os  Os35  1  0.500000  0.923185  0.231495  1
