# generated using pymatgen
data_Tb20IrRu11
_symmetry_space_group_name_H-M   'P 1'
_cell_length_a   10.86002113
_cell_length_b   10.86002113
_cell_length_c   6.39560816
_cell_angle_alpha   89.98213068
_cell_angle_beta   89.98213068
_cell_angle_gamma   90.00254157
_symmetry_Int_Tables_number   1
_chemical_formula_structural   Tb20IrRu11
_chemical_formula_sum   'Tb20 Ir1 Ru11'
_cell_volume   754.29832939
_cell_formula_units_Z   1
loop_
 _symmetry_equiv_pos_site_id
 _symmetry_equiv_pos_as_xyz
  1  'x, y, z'
loop_
 _atom_site_type_symbol
 _atom_site_label
 _atom_site_symmetry_multiplicity
 _atom_site_fract_x
 _atom_site_fract_y
 _atom_site_fract_z
 _atom_site_occupancy
  Tb  Tb0  1  0.292163  0.086987  0.377643  1
  Tb  Tb1  1  0.292201  0.914008  0.877898  1
  Tb  Tb2  1  0.708064  0.087008  0.877761  1
  Tb  Tb3  1  0.708059  0.913091  0.377901  1
  Tb  Tb4  1  0.587285  0.792550  0.877546  1
  Tb  Tb5  1  0.586998  0.207331  0.377405  1
  Tb  Tb6  1  0.413436  0.792920  0.377332  1
  Tb  Tb7  1  0.413033  0.208215  0.877645  1
  Tb  Tb8  1  0.207450  0.412715  0.622454  1
  Tb  Tb9  1  0.207080  0.586564  0.122668  1
  Tb  Tb10  1  0.792669  0.413002  0.122595  1
  Tb  Tb11  1  0.791785  0.586967  0.622355  1
  Tb  Tb12  1  0.913013  0.707837  0.122357  1
  Tb  Tb13  1  0.912992  0.291936  0.622239  1
  Tb  Tb14  1  0.085992  0.707799  0.622102  1
  Tb  Tb15  1  0.086909  0.291941  0.122099  1
  Tb  Tb16  1  0.000083  0.000177  0.500070  1
  Tb  Tb17  1  0.999823  0.999917  0.999930  1
  Tb  Tb18  1  0.501279  0.499476  0.000896  1
  Tb  Tb19  1  0.500524  0.498721  0.499104  1
  Ir  Ir20  1  0.346281  0.653719  0.750000  1
  Ru  Ru21  1  0.847225  0.152775  0.250000  1
  Ru  Ru22  1  0.847111  0.846924  0.749724  1
  Ru  Ru23  1  0.153076  0.152889  0.750276  1
  Ru  Ru24  1  0.153647  0.846353  0.250000  1
  Ru  Ru25  1  0.652682  0.347318  0.750000  1
  Ru  Ru26  1  0.651964  0.653073  0.250302  1
  Ru  Ru27  1  0.346927  0.348036  0.249698  1
  Ru  Ru28  1  0.500073  0.999593  0.122901  1
  Ru  Ru29  1  0.499941  0.000174  0.623473  1
  Ru  Ru30  1  0.999826  0.500059  0.876527  1
  Ru  Ru31  1  0.000407  0.499927  0.377099  1
