# generated using pymatgen
data_Yb(GdCu6)2
_symmetry_space_group_name_H-M   'P 1'
_cell_length_a   5.00094138
_cell_length_b   4.98503647
_cell_length_c   10.55439112
_cell_angle_alpha   85.15533484
_cell_angle_beta   80.30684145
_cell_angle_gamma   59.89439965
_symmetry_Int_Tables_number   1
_chemical_formula_structural   Yb(GdCu6)2
_chemical_formula_sum   'Yb1 Gd2 Cu12'
_cell_volume   224.37576635
_cell_formula_units_Z   1
loop_
 _symmetry_equiv_pos_site_id
 _symmetry_equiv_pos_as_xyz
  1  'x, y, z'
loop_
 _atom_site_type_symbol
 _atom_site_label
 _atom_site_symmetry_multiplicity
 _atom_site_fract_x
 _atom_site_fract_y
 _atom_site_fract_z
 _atom_site_occupancy
  Yb  Yb0  1  0.000000  0.000000  0.000000  1
  Gd  Gd1  1  0.866580  0.000000  0.357867  1
  Gd  Gd2  1  0.133420  0.000000  0.642133  1
  Cu  Cu3  1  0.338398  0.323205  0.000000  1
  Cu  Cu4  1  0.661602  0.676795  0.000000  1
  Cu  Cu5  1  0.428642  0.000000  0.201099  1
  Cu  Cu6  1  0.571358  0.000000  0.798901  1
  Cu  Cu7  1  0.932439  0.498701  0.194346  1
  Cu  Cu8  1  0.431140  0.501299  0.194346  1
  Cu  Cu9  1  0.067561  0.501299  0.805654  1
  Cu  Cu10  1  0.568860  0.498701  0.805654  1
  Cu  Cu11  1  0.190059  0.337463  0.405263  1
  Cu  Cu12  1  0.527522  0.662537  0.405263  1
  Cu  Cu13  1  0.809941  0.662537  0.594737  1
  Cu  Cu14  1  0.472478  0.337463  0.594737  1
