# generated using pymatgen
data_Ho9Er3(PdRh)2
_symmetry_space_group_name_H-M   'P 1'
_cell_length_a   6.38263520
_cell_length_b   7.07675705
_cell_length_c   9.46867433
_cell_angle_alpha   89.98914468
_cell_angle_beta   89.97198461
_cell_angle_gamma   89.99259298
_symmetry_Int_Tables_number   1
_chemical_formula_structural   Ho9Er3(PdRh)2
_chemical_formula_sum   'Ho9 Er3 Pd2 Rh2'
_cell_volume   427.68441556
_cell_formula_units_Z   1
loop_
 _symmetry_equiv_pos_site_id
 _symmetry_equiv_pos_as_xyz
  1  'x, y, z'
loop_
 _atom_site_type_symbol
 _atom_site_label
 _atom_site_symmetry_multiplicity
 _atom_site_fract_x
 _atom_site_fract_y
 _atom_site_fract_z
 _atom_site_occupancy
  Ho  Ho0  1  0.675848  0.185170  0.060267  1
  Ho  Ho1  1  0.175646  0.315019  0.939989  1
  Ho  Ho2  1  0.829450  0.676819  0.437829  1
  Ho  Ho3  1  0.329277  0.823000  0.561807  1
  Ho  Ho4  1  0.329546  0.822748  0.938411  1
  Ho  Ho5  1  0.862299  0.974339  0.749974  1
  Ho  Ho6  1  0.362386  0.525535  0.249974  1
  Ho  Ho7  1  0.626937  0.466602  0.749927  1
  Ho  Ho8  1  0.126778  0.033512  0.250186  1
  Er  Er9  1  0.829636  0.677107  0.062223  1
  Er  Er10  1  0.175744  0.315257  0.560027  1
  Er  Er11  1  0.675644  0.184857  0.439816  1
  Pd  Pd12  1  0.054397  0.610973  0.750002  1
  Pd  Pd13  1  0.554899  0.888833  0.250009  1
  Rh  Rh14  1  0.445749  0.114792  0.749462  1
  Rh  Rh15  1  0.945765  0.385437  0.250095  1
