# generated using pymatgen
data_K3Ca5(MoN3)4
_symmetry_space_group_name_H-M   'P 1'
_cell_length_a   6.27839053
_cell_length_b   6.28758087
_cell_length_c   12.21129785
_cell_angle_alpha   90.49658223
_cell_angle_beta   89.90049915
_cell_angle_gamma   123.02967747
_symmetry_Int_Tables_number   1
_chemical_formula_structural   K3Ca5(MoN3)4
_chemical_formula_sum   'K3 Ca5 Mo4 N12'
_cell_volume   404.12889169
_cell_formula_units_Z   1
loop_
 _symmetry_equiv_pos_site_id
 _symmetry_equiv_pos_as_xyz
  1  'x, y, z'
loop_
 _atom_site_type_symbol
 _atom_site_label
 _atom_site_symmetry_multiplicity
 _atom_site_fract_x
 _atom_site_fract_y
 _atom_site_fract_z
 _atom_site_occupancy
  K  K0  1  0.573763  0.984764  0.857258  1
  K  K1  1  0.017099  0.439506  0.649043  1
  K  K2  1  0.424654  0.994688  0.142116  1
  Ca  Ca3  1  0.933087  0.538914  0.371063  1
  Ca  Ca4  1  0.327343  0.108184  0.583884  1
  Ca  Ca5  1  0.909200  0.686306  0.915824  1
  Ca  Ca6  1  0.680546  0.912127  0.417127  1
  Ca  Ca7  1  0.093258  0.302951  0.080105  1
  Mo  Mo8  1  0.732090  0.760391  0.653292  1
  Mo  Mo9  1  0.248792  0.278146  0.838877  1
  Mo  Mo10  1  0.270781  0.252647  0.339990  1
  Mo  Mo11  1  0.752681  0.708608  0.162084  1
  N  N12  1  0.552661  0.455856  0.743776  1
  N  N13  1  0.429637  0.542817  0.244490  1
  N  N14  1  0.547935  0.891354  0.612781  1
  N  N15  1  0.114681  0.457376  0.886499  1
  N  N16  1  0.493763  0.166987  0.392062  1
  N  N17  1  0.877888  0.514221  0.128047  1
  N  N18  1  0.732913  0.857251  0.039281  1
  N  N19  1  0.113471  0.314111  0.450593  1
  N  N20  1  0.291635  0.138918  0.959111  1
  N  N21  1  0.874376  0.723876  0.527328  1
  N  N22  1  0.014027  0.992725  0.745938  1
  N  N23  1  0.993718  0.977276  0.259433  1
