# generated using pymatgen
data_SmTh3Re16Si7Ge
_symmetry_space_group_name_H-M   'P 1'
_cell_length_a   4.17342300
_cell_length_b   7.30395060
_cell_length_c   15.68021444
_cell_angle_alpha   89.79744718
_cell_angle_beta   90.00000000
_cell_angle_gamma   90.00000000
_symmetry_Int_Tables_number   1
_chemical_formula_structural   SmTh3Re16Si7Ge
_chemical_formula_sum   'Sm1 Th3 Re16 Si7 Ge1'
_cell_volume   477.96876435
_cell_formula_units_Z   1
loop_
 _symmetry_equiv_pos_site_id
 _symmetry_equiv_pos_as_xyz
  1  'x, y, z'
loop_
 _atom_site_type_symbol
 _atom_site_label
 _atom_site_symmetry_multiplicity
 _atom_site_fract_x
 _atom_site_fract_y
 _atom_site_fract_z
 _atom_site_occupancy
  Sm  Sm0  1  0.500000  0.088469  0.380734  1
  Th  Th1  1  0.000000  0.583797  0.119115  1
  Th  Th2  1  0.000000  0.412992  0.882301  1
  Th  Th3  1  0.500000  0.916396  0.618726  1
  Re  Re4  1  0.000000  0.138901  0.050779  1
  Re  Re5  1  0.000000  0.856644  0.949164  1
  Re  Re6  1  0.500000  0.638331  0.447159  1
  Re  Re7  1  0.500000  0.361995  0.551703  1
  Re  Re8  1  0.000000  0.735057  0.319653  1
  Re  Re9  1  0.000000  0.262258  0.679052  1
  Re  Re10  1  0.500000  0.235664  0.179179  1
  Re  Re11  1  0.500000  0.761352  0.821090  1
  Re  Re12  1  0.000000  0.433769  0.418613  1
  Re  Re13  1  0.000000  0.569147  0.580312  1
  Re  Re14  1  0.500000  0.928549  0.080360  1
  Re  Re15  1  0.500000  0.068753  0.919766  1
  Re  Re16  1  0.000000  0.997187  0.206356  1
  Re  Re17  1  0.000000  0.000397  0.793573  1
  Re  Re18  1  0.500000  0.495053  0.292759  1
  Re  Re19  1  0.500000  0.501641  0.706485  1
  Si  Si20  1  0.000000  0.179165  0.524819  1
  Si  Si21  1  0.500000  0.326483  0.025577  1
  Si  Si22  1  0.500000  0.670390  0.975207  1
  Si  Si23  1  0.000000  0.296809  0.274850  1
  Si  Si24  1  0.000000  0.696526  0.726665  1
  Si  Si25  1  0.500000  0.803038  0.227947  1
  Si  Si26  1  0.500000  0.196970  0.773606  1
  Ge  Ge27  1  0.000000  0.844268  0.474449  1
