# generated using pymatgen
data_Tm8Sc12Ga4Si11As
_symmetry_space_group_name_H-M   'P 1'
_cell_length_a   7.09587278
_cell_length_b   7.37851289
_cell_length_c   14.05779802
_cell_angle_alpha   90.05282771
_cell_angle_beta   89.88259841
_cell_angle_gamma   90.37246699
_symmetry_Int_Tables_number   1
_chemical_formula_structural   Tm8Sc12Ga4Si11As
_chemical_formula_sum   'Tm8 Sc12 Ga4 Si11 As1'
_cell_volume   736.00657161
_cell_formula_units_Z   1
loop_
 _symmetry_equiv_pos_site_id
 _symmetry_equiv_pos_as_xyz
  1  'x, y, z'
loop_
 _atom_site_type_symbol
 _atom_site_label
 _atom_site_symmetry_multiplicity
 _atom_site_fract_x
 _atom_site_fract_y
 _atom_site_fract_z
 _atom_site_occupancy
  Tm  Tm0  1  0.012701  0.174087  0.096409  1
  Tm  Tm1  1  0.990947  0.824037  0.901429  1
  Tm  Tm2  1  0.489000  0.676749  0.903184  1
  Tm  Tm3  1  0.990787  0.825810  0.601558  1
  Tm  Tm4  1  0.510306  0.320005  0.096551  1
  Tm  Tm5  1  0.008648  0.175415  0.400544  1
  Tm  Tm6  1  0.510404  0.323510  0.400328  1
  Tm  Tm7  1  0.491961  0.675512  0.599866  1
  Sc  Sc8  1  0.161826  0.503705  0.751926  1
  Sc  Sc9  1  0.836472  0.497480  0.249682  1
  Sc  Sc10  1  0.336019  0.003052  0.247771  1
  Sc  Sc11  1  0.659848  0.997057  0.750727  1
  Sc  Sc12  1  0.334676  0.173321  0.628753  1
  Sc  Sc13  1  0.668356  0.826826  0.373488  1
  Sc  Sc14  1  0.169232  0.673066  0.372846  1
  Sc  Sc15  1  0.667681  0.826609  0.124971  1
  Sc  Sc16  1  0.825663  0.328936  0.625460  1
  Sc  Sc17  1  0.332546  0.174003  0.874439  1
  Sc  Sc18  1  0.825378  0.326417  0.875544  1
  Sc  Sc19  1  0.172827  0.675575  0.124139  1
  Ga  Ga20  1  0.162809  0.460526  0.539963  1
  Ga  Ga21  1  0.837831  0.539243  0.461068  1
  Ga  Ga22  1  0.337862  0.962017  0.461480  1
  Ga  Ga23  1  0.839089  0.539062  0.039265  1
  Si  Si24  1  0.966373  0.884654  0.249303  1
  Si  Si25  1  0.467073  0.612902  0.248136  1
  Si  Si26  1  0.531272  0.386252  0.751524  1
  Si  Si27  1  0.297277  0.858463  0.751572  1
  Si  Si28  1  0.715200  0.129573  0.248301  1
  Si  Si29  1  0.213665  0.369726  0.248339  1
  Si  Si30  1  0.787969  0.632863  0.751811  1
  Si  Si31  1  0.660279  0.036550  0.539768  1
  Si  Si32  1  0.158699  0.462424  0.960635  1
  Si  Si33  1  0.660880  0.036106  0.961104  1
  Si  Si34  1  0.340808  0.963960  0.037471  1
  As  As35  1  0.027636  0.124512  0.750649  1
