# generated using pymatgen
data_Cs4Sr(EuI4)3
_symmetry_space_group_name_H-M   'P 1'
_cell_length_a   4.89882000
_cell_length_b   10.86767941
_cell_length_c   18.39892400
_cell_angle_alpha   90.40790787
_cell_angle_beta   90.00000000
_cell_angle_gamma   90.00000000
_symmetry_Int_Tables_number   1
_chemical_formula_structural   Cs4Sr(EuI4)3
_chemical_formula_sum   'Cs4 Sr1 Eu3 I12'
_cell_volume   979.51190806
_cell_formula_units_Z   1
loop_
 _symmetry_equiv_pos_site_id
 _symmetry_equiv_pos_as_xyz
  1  'x, y, z'
loop_
 _atom_site_type_symbol
 _atom_site_label
 _atom_site_symmetry_multiplicity
 _atom_site_fract_x
 _atom_site_fract_y
 _atom_site_fract_z
 _atom_site_occupancy
  Cs  Cs0  1  0.750000  0.578754  0.173067  1
  Cs  Cs1  1  0.250000  0.421369  0.826743  1
  Cs  Cs2  1  0.750000  0.079109  0.326054  1
  Cs  Cs3  1  0.250000  0.921636  0.673856  1
  Sr  Sr4  1  0.750000  0.836825  0.941395  1
  Eu  Eu5  1  0.250000  0.662827  0.441356  1
  Eu  Eu6  1  0.750000  0.337494  0.558951  1
  Eu  Eu7  1  0.250000  0.163118  0.058755  1
  I  I8  1  0.750000  0.833047  0.503934  1
  I  I9  1  0.250000  0.167249  0.496269  1
  I  I10  1  0.750000  0.332133  0.996818  1
  I  I11  1  0.250000  0.664837  0.003154  1
  I  I12  1  0.250000  0.528744  0.603864  1
  I  I13  1  0.750000  0.471577  0.396506  1
  I  I14  1  0.250000  0.028465  0.895972  1
  I  I15  1  0.750000  0.972963  0.104466  1
  I  I16  1  0.250000  0.794685  0.287289  1
  I  I17  1  0.750000  0.205720  0.712974  1
  I  I18  1  0.250000  0.295589  0.213145  1
  I  I19  1  0.750000  0.703857  0.785431  1
