# generated using pymatgen
data_Sr12ZnGe11Au12
_symmetry_space_group_name_H-M   'P 1'
_cell_length_a   4.67666100
_cell_length_b   8.02914056
_cell_length_c   23.22901300
_cell_angle_alpha   89.88364778
_cell_angle_beta   90.00000000
_cell_angle_gamma   90.00000000
_symmetry_Int_Tables_number   1
_chemical_formula_structural   Sr12ZnGe11Au12
_chemical_formula_sum   'Sr12 Zn1 Ge11 Au12'
_cell_volume   872.23761632
_cell_formula_units_Z   1
loop_
 _symmetry_equiv_pos_site_id
 _symmetry_equiv_pos_as_xyz
  1  'x, y, z'
loop_
 _atom_site_type_symbol
 _atom_site_label
 _atom_site_symmetry_multiplicity
 _atom_site_fract_x
 _atom_site_fract_y
 _atom_site_fract_z
 _atom_site_occupancy
  Sr  Sr0  1  0.750000  0.211245  0.498410  1
  Sr  Sr1  1  0.250000  0.794663  0.166554  1
  Sr  Sr2  1  0.250000  0.787225  0.500674  1
  Sr  Sr3  1  0.250000  0.797083  0.832467  1
  Sr  Sr4  1  0.250000  0.704328  0.332469  1
  Sr  Sr5  1  0.750000  0.202454  0.834560  1
  Sr  Sr6  1  0.750000  0.285668  0.999092  1
  Sr  Sr7  1  0.750000  0.292838  0.667654  1
  Sr  Sr8  1  0.750000  0.293927  0.333675  1
  Sr  Sr9  1  0.250000  0.710618  0.666153  1
  Sr  Sr10  1  0.250000  0.715180  0.001549  1
  Sr  Sr11  1  0.750000  0.204497  0.167855  1
  Zn  Zn12  1  0.750000  0.913438  0.726033  1
  Ge  Ge13  1  0.250000  0.411133  0.565293  1
  Ge  Ge14  1  0.250000  0.081967  0.392643  1
  Ge  Ge15  1  0.250000  0.090387  0.067987  1
  Ge  Ge16  1  0.250000  0.418882  0.893342  1
  Ge  Ge17  1  0.750000  0.582682  0.106942  1
  Ge  Ge18  1  0.250000  0.420498  0.774335  1
  Ge  Ge19  1  0.750000  0.580554  0.225907  1
  Ge  Ge20  1  0.750000  0.587144  0.432387  1
  Ge  Ge21  1  0.750000  0.910652  0.935168  1
  Ge  Ge22  1  0.250000  0.081038  0.273990  1
  Ge  Ge23  1  0.750000  0.917779  0.603570  1
  Au  Au24  1  0.250000  0.086459  0.594538  1
  Au  Au25  1  0.250000  0.088500  0.738445  1
  Au  Au26  1  0.750000  0.585998  0.905345  1
  Au  Au27  1  0.750000  0.913952  0.403245  1
  Au  Au28  1  0.750000  0.580138  0.567392  1
  Au  Au29  1  0.750000  0.586158  0.763778  1
  Au  Au30  1  0.250000  0.418124  0.431822  1
  Au  Au31  1  0.250000  0.414110  0.237313  1
  Au  Au32  1  0.750000  0.918546  0.068500  1
  Au  Au33  1  0.250000  0.415301  0.096063  1
  Au  Au34  1  0.250000  0.082966  0.932227  1
  Au  Au35  1  0.750000  0.913869  0.262624  1
