# generated using pymatgen
data_Ag2(P2Pd7)3
_symmetry_space_group_name_H-M   'P 1'
_cell_length_a   8.58203174
_cell_length_b   8.58203079
_cell_length_c   8.58203000
_cell_angle_alpha   60.00000304
_cell_angle_beta   60.00000669
_cell_angle_gamma   60.00000304
_symmetry_Int_Tables_number   1
_chemical_formula_structural   Ag2(P2Pd7)3
_chemical_formula_sum   'Ag2 P6 Pd21'
_cell_volume   446.94620788
_cell_formula_units_Z   1
loop_
 _symmetry_equiv_pos_site_id
 _symmetry_equiv_pos_as_xyz
  1  'x, y, z'
loop_
 _atom_site_type_symbol
 _atom_site_label
 _atom_site_symmetry_multiplicity
 _atom_site_fract_x
 _atom_site_fract_y
 _atom_site_fract_z
 _atom_site_occupancy
  Ag  Ag0  1  0.250000  0.250000  0.250000  1
  Ag  Ag1  1  0.750000  0.750000  0.750000  1
  P  P2  1  0.734483  0.265517  0.265517  1
  P  P3  1  0.265517  0.734483  0.734483  1
  P  P4  1  0.265517  0.734483  0.265517  1
  P  P5  1  0.734483  0.265517  0.734483  1
  P  P6  1  0.265517  0.265517  0.734483  1
  P  P7  1  0.734483  0.734483  0.265517  1
  Pd  Pd8  1  0.000000  0.000000  0.000000  1
  Pd  Pd9  1  0.383714  0.383714  0.383714  1
  Pd  Pd10  1  0.616286  0.616286  0.616286  1
  Pd  Pd11  1  0.383714  0.383714  0.848857  1
  Pd  Pd12  1  0.383714  0.848857  0.383714  1
  Pd  Pd13  1  0.616286  0.616286  0.151143  1
  Pd  Pd14  1  0.616286  0.151143  0.616286  1
  Pd  Pd15  1  0.848857  0.383714  0.383714  1
  Pd  Pd16  1  0.151143  0.616286  0.616286  1
  Pd  Pd17  1  0.341939  0.000000  0.000000  1
  Pd  Pd18  1  0.658061  0.000000  0.000000  1
  Pd  Pd19  1  0.000000  0.341939  0.658061  1
  Pd  Pd20  1  0.000000  0.658061  0.341939  1
  Pd  Pd21  1  0.000000  0.341939  0.000000  1
  Pd  Pd22  1  0.658061  0.000000  0.341939  1
  Pd  Pd23  1  0.000000  0.658061  0.000000  1
  Pd  Pd24  1  0.341939  0.000000  0.658061  1
  Pd  Pd25  1  0.000000  0.000000  0.341939  1
  Pd  Pd26  1  0.000000  0.000000  0.658061  1
  Pd  Pd27  1  0.658061  0.341939  0.000000  1
  Pd  Pd28  1  0.341939  0.658061  0.000000  1
