# generated using pymatgen
data_Pr2CrSbO7
_symmetry_space_group_name_H-M   'P 1'
_cell_length_a   7.46809083
_cell_length_b   7.46115062
_cell_length_c   7.51553900
_cell_angle_alpha   90.00002051
_cell_angle_beta   59.79034999
_cell_angle_gamma   119.96923290
_symmetry_Int_Tables_number   1
_chemical_formula_structural   Pr2CrSbO7
_chemical_formula_sum   'Pr4 Cr2 Sb2 O14'
_cell_volume   295.31139179
_cell_formula_units_Z   2
loop_
 _symmetry_equiv_pos_site_id
 _symmetry_equiv_pos_as_xyz
  1  'x, y, z'
loop_
 _atom_site_type_symbol
 _atom_site_label
 _atom_site_symmetry_multiplicity
 _atom_site_fract_x
 _atom_site_fract_y
 _atom_site_fract_z
 _atom_site_occupancy
  Pr  Pr0  1  0.500005  0.499995  0.999984  1
  Pr  Pr1  1  0.500000  0.999993  0.000021  1
  Pr  Pr2  1  0.000004  0.999985  0.499999  1
  Pr  Pr3  1  0.999998  0.000001  0.000006  1
  Cr  Cr4  1  0.499973  0.000021  0.499971  1
  Cr  Cr5  1  0.499957  0.500005  0.500009  1
  Sb  Sb6  1  0.000005  0.499992  0.999997  1
  Sb  Sb7  1  0.000014  0.500015  0.499999  1
  O  O8  1  0.253466  0.126729  0.123279  1
  O  O9  1  0.746544  0.873266  0.876720  1
  O  O10  1  0.667876  0.833942  0.416067  1
  O  O11  1  0.847496  0.423742  0.826248  1
  O  O12  1  0.250135  0.823857  0.832876  1
  O  O13  1  0.250133  0.426283  0.416985  1
  O  O14  1  0.250139  0.426280  0.832847  1
  O  O15  1  0.250155  0.823855  0.417007  1
  O  O16  1  0.332133  0.166069  0.583938  1
  O  O17  1  0.152511  0.576249  0.173749  1
  O  O18  1  0.749861  0.176144  0.167163  1
  O  O19  1  0.749855  0.573703  0.582998  1
  O  O20  1  0.749879  0.573723  0.167122  1
  O  O21  1  0.749863  0.176151  0.583015  1
