# generated using pymatgen
data_Y2(TcB2)3
_symmetry_space_group_name_H-M   'P 1'
_cell_length_a   6.20051808
_cell_length_b   6.20051904
_cell_length_c   7.50231567
_cell_angle_alpha   89.34780551
_cell_angle_beta   89.34780183
_cell_angle_gamma   113.81982894
_symmetry_Int_Tables_number   1
_chemical_formula_structural   Y2(TcB2)3
_chemical_formula_sum   'Y4 Tc6 B12'
_cell_volume   263.81080250
_cell_formula_units_Z   2
loop_
 _symmetry_equiv_pos_site_id
 _symmetry_equiv_pos_as_xyz
  1  'x, y, z'
loop_
 _atom_site_type_symbol
 _atom_site_label
 _atom_site_symmetry_multiplicity
 _atom_site_fract_x
 _atom_site_fract_y
 _atom_site_fract_z
 _atom_site_occupancy
  Y  Y0  1  0.900498  0.559097  0.322213  1
  Y  Y1  1  0.440903  0.099502  0.177787  1
  Y  Y2  1  0.099502  0.440903  0.677787  1
  Y  Y3  1  0.559097  0.900498  0.822213  1
  Tc  Tc4  1  0.411984  0.588016  0.250000  1
  Tc  Tc5  1  0.588016  0.411984  0.750000  1
  Tc  Tc6  1  0.010213  0.195251  0.089025  1
  Tc  Tc7  1  0.804749  0.989787  0.410975  1
  Tc  Tc8  1  0.989787  0.804749  0.910975  1
  Tc  Tc9  1  0.195251  0.010213  0.589025  1
  B  B10  1  0.754175  0.848167  0.129702  1
  B  B11  1  0.151833  0.245825  0.370298  1
  B  B12  1  0.245825  0.151833  0.870298  1
  B  B13  1  0.848167  0.754175  0.629702  1
  B  B14  1  0.414475  0.841070  0.481630  1
  B  B15  1  0.158930  0.585525  0.018370  1
  B  B16  1  0.585525  0.158930  0.518370  1
  B  B17  1  0.841070  0.414475  0.981630  1
  B  B18  1  0.556770  0.649532  0.534556  1
  B  B19  1  0.350468  0.443230  0.965444  1
  B  B20  1  0.443230  0.350468  0.465444  1
  B  B21  1  0.649532  0.556770  0.034556  1
