# generated using pymatgen
data_Nd2ThBi3
_symmetry_space_group_name_H-M   'P 1'
_cell_length_a   4.62001700
_cell_length_b   4.62001717
_cell_length_c   11.21073000
_cell_angle_alpha   90.00000000
_cell_angle_beta   90.00000000
_cell_angle_gamma   120.00000592
_symmetry_Int_Tables_number   1
_chemical_formula_structural   Nd2ThBi3
_chemical_formula_sum   'Nd2 Th1 Bi3'
_cell_volume   207.22953977
_cell_formula_units_Z   1
loop_
 _symmetry_equiv_pos_site_id
 _symmetry_equiv_pos_as_xyz
  1  'x, y, z'
loop_
 _atom_site_type_symbol
 _atom_site_label
 _atom_site_symmetry_multiplicity
 _atom_site_fract_x
 _atom_site_fract_y
 _atom_site_fract_z
 _atom_site_occupancy
  Nd  Nd0  1  0.333333  0.666667  0.662981  1
  Nd  Nd1  1  0.666667  0.333333  0.337019  1
  Th  Th2  1  0.000000  0.000000  0.000000  1
  Bi  Bi3  1  0.333333  0.666667  0.165494  1
  Bi  Bi4  1  0.666667  0.333333  0.834506  1
  Bi  Bi5  1  0.000000  0.000000  0.500000  1
