# generated using pymatgen
data_NpPa5(Ni3Bi4)2
_symmetry_space_group_name_H-M   'P 1'
_cell_length_a   8.37473648
_cell_length_b   8.37473652
_cell_length_c   8.37473700
_cell_angle_alpha   109.62211877
_cell_angle_beta   109.39582252
_cell_angle_gamma   109.39582801
_symmetry_Int_Tables_number   1
_chemical_formula_structural   NpPa5(Ni3Bi4)2
_chemical_formula_sum   'Np1 Pa5 Ni6 Bi8'
_cell_volume   452.15706281
_cell_formula_units_Z   1
loop_
 _symmetry_equiv_pos_site_id
 _symmetry_equiv_pos_as_xyz
  1  'x, y, z'
loop_
 _atom_site_type_symbol
 _atom_site_label
 _atom_site_symmetry_multiplicity
 _atom_site_fract_x
 _atom_site_fract_y
 _atom_site_fract_z
 _atom_site_occupancy
  Np  Np0  1  0.750000  0.375000  0.625000  1
  Pa  Pa1  1  0.127413  0.875930  0.251310  1
  Pa  Pa2  1  0.372587  0.623896  0.748517  1
  Pa  Pa3  1  0.875380  0.251483  0.124070  1
  Pa  Pa4  1  0.624620  0.748690  0.376104  1
  Pa  Pa5  1  0.250000  0.125000  0.875000  1
  Ni  Ni6  1  0.616415  0.371175  0.235421  1
  Ni  Ni7  1  0.883585  0.119004  0.754760  1
  Ni  Ni8  1  0.364245  0.245240  0.628825  1
  Ni  Ni9  1  0.135755  0.764579  0.880996  1
  Ni  Ni10  1  0.250000  0.625000  0.375000  1
  Ni  Ni11  1  0.750000  0.875000  0.125000  1
  Bi  Bi12  1  0.332443  0.330815  0.333360  1
  Bi  Bi13  1  0.167557  0.500917  0.998373  1
  Bi  Bi14  1  0.996661  0.167186  0.498489  1
  Bi  Bi15  1  0.831303  0.829475  0.832814  1
  Bi  Bi16  1  0.503339  0.001827  0.170525  1
  Bi  Bi17  1  0.668697  0.501511  0.998173  1
  Bi  Bi18  1  0.502545  0.001627  0.669185  1
  Bi  Bi19  1  0.997455  0.666640  0.499083  1
