# generated using pymatgen
data_YEr9In8Pd3Rh
_symmetry_space_group_name_H-M   'P 1'
_cell_length_a   3.59981100
_cell_length_b   8.10527989
_cell_length_c   18.21544016
_cell_angle_alpha   90.00636082
_cell_angle_beta   90.00000000
_cell_angle_gamma   90.00000000
_symmetry_Int_Tables_number   1
_chemical_formula_structural   YEr9In8Pd3Rh
_chemical_formula_sum   'Y1 Er9 In8 Pd3 Rh1'
_cell_volume   531.48055910
_cell_formula_units_Z   1
loop_
 _symmetry_equiv_pos_site_id
 _symmetry_equiv_pos_as_xyz
  1  'x, y, z'
loop_
 _atom_site_type_symbol
 _atom_site_label
 _atom_site_symmetry_multiplicity
 _atom_site_fract_x
 _atom_site_fract_y
 _atom_site_fract_z
 _atom_site_occupancy
  Y  Y0  1  0.500000  0.499859  0.500461  1
  Er  Er1  1  0.500000  0.232826  0.778291  1
  Er  Er2  1  0.500000  0.759577  0.219250  1
  Er  Er3  1  0.500000  0.258864  0.280433  1
  Er  Er4  1  0.500000  0.753109  0.719585  1
  Er  Er5  1  0.500000  0.115518  0.586885  1
  Er  Er6  1  0.500000  0.881828  0.416711  1
  Er  Er7  1  0.500000  0.381939  0.083080  1
  Er  Er8  1  0.500000  0.618163  0.915581  1
  Er  Er9  1  0.500000  0.000266  0.999773  1
  In  In10  1  0.000000  0.078608  0.149927  1
  In  In11  1  0.000000  0.923978  0.850209  1
  In  In12  1  0.000000  0.422103  0.650919  1
  In  In13  1  0.000000  0.578981  0.349422  1
  In  In14  1  0.000000  0.206086  0.432801  1
  In  In15  1  0.000000  0.793712  0.568471  1
  In  In16  1  0.000000  0.292054  0.932273  1
  In  In17  1  0.000000  0.707470  0.066945  1
  Pd  Pd18  1  0.000000  0.974721  0.304205  1
  Pd  Pd19  1  0.000000  0.474731  0.195581  1
  Pd  Pd20  1  0.000000  0.522779  0.804039  1
  Rh  Rh21  1  0.000000  0.022829  0.695155  1
