# generated using pymatgen
data_YbDy6NiBr12
_symmetry_space_group_name_H-M   'P 1'
_cell_length_a   9.17492933
_cell_length_b   9.17492908
_cell_length_c   9.17492975
_cell_angle_alpha   106.57210309
_cell_angle_beta   106.57211787
_cell_angle_gamma   106.57210960
_symmetry_Int_Tables_number   1
_chemical_formula_structural   YbDy6NiBr12
_chemical_formula_sum   'Yb1 Dy6 Ni1 Br12'
_cell_volume   650.57345254
_cell_formula_units_Z   1
loop_
 _symmetry_equiv_pos_site_id
 _symmetry_equiv_pos_as_xyz
  1  'x, y, z'
loop_
 _atom_site_type_symbol
 _atom_site_label
 _atom_site_symmetry_multiplicity
 _atom_site_fract_x
 _atom_site_fract_y
 _atom_site_fract_z
 _atom_site_occupancy
  Yb  Yb0  1  0.500000  0.500000  0.500000  1
  Dy  Dy1  1  0.099930  0.023525  0.306367  1
  Dy  Dy2  1  0.023525  0.306367  0.099930  1
  Dy  Dy3  1  0.306367  0.099930  0.023525  1
  Dy  Dy4  1  0.900069  0.976475  0.693633  1
  Dy  Dy5  1  0.976475  0.693633  0.900069  1
  Dy  Dy6  1  0.693633  0.900069  0.976475  1
  Ni  Ni7  1  0.000000  0.000000  0.000000  1
  Br  Br8  1  0.074642  0.678455  0.221301  1
  Br  Br9  1  0.678455  0.221301  0.074642  1
  Br  Br10  1  0.221301  0.074642  0.678455  1
  Br  Br11  1  0.925358  0.321545  0.778699  1
  Br  Br12  1  0.321545  0.778699  0.925358  1
  Br  Br13  1  0.778699  0.925358  0.321545  1
  Br  Br14  1  0.453039  0.154849  0.376699  1
  Br  Br15  1  0.154849  0.376699  0.453039  1
  Br  Br16  1  0.376699  0.453039  0.154849  1
  Br  Br17  1  0.546961  0.845151  0.623301  1
  Br  Br18  1  0.845151  0.623301  0.546961  1
  Br  Br19  1  0.623301  0.546961  0.845151  1
