# generated using pymatgen
data_LaY2Th(Ga3Ir)6
_symmetry_space_group_name_H-M   'P 1'
_cell_length_a   7.65766501
_cell_length_b   7.65133062
_cell_length_c   9.53790700
_cell_angle_alpha   90.00000000
_cell_angle_beta   90.00000000
_cell_angle_gamma   119.81577351
_symmetry_Int_Tables_number   1
_chemical_formula_structural   LaY2Th(Ga3Ir)6
_chemical_formula_sum   'La1 Y2 Th1 Ga18 Ir6'
_cell_volume   484.86437625
_cell_formula_units_Z   1
loop_
 _symmetry_equiv_pos_site_id
 _symmetry_equiv_pos_as_xyz
  1  'x, y, z'
loop_
 _atom_site_type_symbol
 _atom_site_label
 _atom_site_symmetry_multiplicity
 _atom_site_fract_x
 _atom_site_fract_y
 _atom_site_fract_z
 _atom_site_occupancy
  La  La0  1  0.669640  0.996662  0.250000  1
  Y  Y1  1  0.001099  0.330393  0.750000  1
  Y  Y2  1  0.330220  0.001271  0.750000  1
  Th  Th3  1  0.996671  0.669139  0.250000  1
  Ga  Ga4  1  0.133185  0.133106  0.250000  1
  Ga  Ga5  1  0.874092  0.874868  0.750000  1
  Ga  Ga6  1  0.003044  0.332949  0.074705  1
  Ga  Ga7  1  0.001257  0.665480  0.914318  1
  Ga  Ga8  1  0.001257  0.665480  0.585682  1
  Ga  Ga9  1  0.336683  0.004618  0.425253  1
  Ga  Ga10  1  0.003044  0.332949  0.425295  1
  Ga  Ga11  1  0.665609  0.001419  0.584190  1
  Ga  Ga12  1  0.665609  0.001419  0.915810  1
  Ga  Ga13  1  0.336683  0.004618  0.074747  1
  Ga  Ga14  1  0.331221  0.331074  0.566709  1
  Ga  Ga15  1  0.662897  0.664721  0.443384  1
  Ga  Ga16  1  0.662897  0.664721  0.056616  1
  Ga  Ga17  1  0.331221  0.331074  0.933291  1
  Ga  Ga18  1  0.339392  0.542231  0.250000  1
  Ga  Ga19  1  0.658985  0.451746  0.750000  1
  Ga  Ga20  1  0.541999  0.339828  0.250000  1
  Ga  Ga21  1  0.451136  0.659787  0.750000  1
  Ir  Ir22  1  0.673391  0.331094  0.999471  1
  Ir  Ir23  1  0.326762  0.670878  0.999500  1
  Ir  Ir24  1  0.326762  0.670878  0.500500  1
  Ir  Ir25  1  0.673391  0.331094  0.500529  1
  Ir  Ir26  1  0.000927  0.998252  0.999672  1
  Ir  Ir27  1  0.000927  0.998252  0.500328  1
