# generated using pymatgen
data_ErAl9Cr2Ru
_symmetry_space_group_name_H-M   'P 1'
_cell_length_a   5.06081006
_cell_length_b   6.83593409
_cell_length_c   6.90364800
_cell_angle_alpha   98.07576645
_cell_angle_beta   112.30368881
_cell_angle_gamma   68.27437591
_symmetry_Int_Tables_number   1
_chemical_formula_structural   ErAl9Cr2Ru
_chemical_formula_sum   'Er1 Al9 Cr2 Ru1'
_cell_volume   205.27005738
_cell_formula_units_Z   1
loop_
 _symmetry_equiv_pos_site_id
 _symmetry_equiv_pos_as_xyz
  1  'x, y, z'
loop_
 _atom_site_type_symbol
 _atom_site_label
 _atom_site_symmetry_multiplicity
 _atom_site_fract_x
 _atom_site_fract_y
 _atom_site_fract_z
 _atom_site_occupancy
  Er  Er0  1  0.000000  0.000000  0.000000  1
  Al  Al1  1  0.721832  0.780075  0.208642  1
  Al  Al2  1  0.278168  0.219925  0.791358  1
  Al  Al3  1  0.498094  0.780075  0.791358  1
  Al  Al4  1  0.501906  0.219925  0.208642  1
  Al  Al5  1  0.662983  0.354431  0.665890  1
  Al  Al6  1  0.337017  0.645569  0.334110  1
  Al  Al7  1  0.982584  0.354431  0.334110  1
  Al  Al8  1  0.017416  0.645569  0.665890  1
  Al  Al9  1  0.500000  0.000000  0.500000  1
  Cr  Cr10  1  0.500000  0.500000  0.000000  1
  Cr  Cr11  1  0.000000  0.500000  0.000000  1
  Ru  Ru12  1  0.000000  0.000000  0.500000  1
