# generated using pymatgen
data_Ho4Lu8CdCo5
_symmetry_space_group_name_H-M   'P 1'
_cell_length_a   8.12271793
_cell_length_b   8.12256286
_cell_length_c   8.12271833
_cell_angle_alpha   110.99000474
_cell_angle_beta   110.70940102
_cell_angle_gamma   106.74896031
_symmetry_Int_Tables_number   1
_chemical_formula_structural   Ho4Lu8CdCo5
_chemical_formula_sum   'Ho4 Lu8 Cd1 Co5'
_cell_volume   411.84668129
_cell_formula_units_Z   1
loop_
 _symmetry_equiv_pos_site_id
 _symmetry_equiv_pos_as_xyz
  1  'x, y, z'
loop_
 _atom_site_type_symbol
 _atom_site_label
 _atom_site_symmetry_multiplicity
 _atom_site_fract_x
 _atom_site_fract_y
 _atom_site_fract_z
 _atom_site_occupancy
  Ho  Ho0  1  0.592226  0.785895  0.806320  1
  Ho  Ho1  1  0.407774  0.214105  0.193680  1
  Ho  Ho2  1  0.979574  0.785895  0.193669  1
  Ho  Ho3  1  0.020426  0.214105  0.806331  1
  Lu  Lu4  1  0.816637  0.712442  0.529080  1
  Lu  Lu5  1  0.183363  0.287558  0.470920  1
  Lu  Lu6  1  0.183363  0.712442  0.895807  1
  Lu  Lu7  1  0.816637  0.287558  0.104193  1
  Lu  Lu8  1  0.685095  0.379456  0.694362  1
  Lu  Lu9  1  0.314905  0.620544  0.305638  1
  Lu  Lu10  1  0.685098  0.990715  0.305617  1
  Lu  Lu11  1  0.314902  0.009285  0.694383  1
  Cd  Cd12  1  0.500000  0.500000  0.000000  1
  Co  Co13  1  0.623826  0.000000  0.623826  1
  Co  Co14  1  0.376174  0.000000  0.376174  1
  Co  Co15  1  0.113291  0.613297  0.500006  1
  Co  Co16  1  0.886709  0.386703  0.499994  1
  Co  Co17  1  0.000000  0.000000  0.000000  1
