# generated using pymatgen
data_Tb5Mn3(Ni4P3)4
_symmetry_space_group_name_H-M   'P 1'
_cell_length_a   12.15285522
_cell_length_b   12.15285658
_cell_length_c   3.75439400
_cell_angle_alpha   90.00000000
_cell_angle_beta   90.00000000
_cell_angle_gamma   119.99774554
_symmetry_Int_Tables_number   1
_chemical_formula_structural   Tb5Mn3(Ni4P3)4
_chemical_formula_sum   'Tb5 Mn3 Ni16 P12'
_cell_volume   480.21645949
_cell_formula_units_Z   1
loop_
 _symmetry_equiv_pos_site_id
 _symmetry_equiv_pos_as_xyz
  1  'x, y, z'
loop_
 _atom_site_type_symbol
 _atom_site_label
 _atom_site_symmetry_multiplicity
 _atom_site_fract_x
 _atom_site_fract_y
 _atom_site_fract_z
 _atom_site_occupancy
  Tb  Tb0  1  0.666630  0.333215  0.000000  1
  Tb  Tb1  1  0.333215  0.666630  0.000000  1
  Tb  Tb2  1  0.188999  0.000069  0.500000  1
  Tb  Tb3  1  0.000069  0.188999  0.500000  1
  Tb  Tb4  1  0.811154  0.811154  0.500000  1
  Mn  Mn5  1  0.558479  0.000052  0.000000  1
  Mn  Mn6  1  0.441579  0.441579  0.000000  1
  Mn  Mn7  1  0.000052  0.558479  0.000000  1
  Ni  Ni8  1  0.000023  0.000023  0.000000  1
  Ni  Ni9  1  0.805127  0.184645  0.000000  1
  Ni  Ni10  1  0.379580  0.194903  0.000000  1
  Ni  Ni11  1  0.194903  0.379580  0.000000  1
  Ni  Ni12  1  0.815343  0.620450  0.000000  1
  Ni  Ni13  1  0.184644  0.805127  0.000000  1
  Ni  Ni14  1  0.620450  0.815343  0.000000  1
  Ni  Ni15  1  0.718703  0.999976  0.500000  1
  Ni  Ni16  1  0.486458  0.123987  0.500000  1
  Ni  Ni17  1  0.281321  0.281321  0.500000  1
  Ni  Ni18  1  0.875998  0.362464  0.500000  1
  Ni  Ni19  1  0.123986  0.486458  0.500000  1
  Ni  Ni20  1  0.637521  0.513465  0.500000  1
  Ni  Ni21  1  0.513464  0.637521  0.500000  1
  Ni  Ni22  1  0.999976  0.718703  0.500000  1
  Ni  Ni23  1  0.362464  0.875998  0.500000  1
  P  P24  1  0.367926  0.999984  0.000000  1
  P  P25  1  0.821596  0.999983  0.000000  1
  P  P26  1  0.178388  0.178388  0.000000  1
  P  P27  1  0.999984  0.367926  0.000000  1
  P  P28  1  0.632029  0.632029  0.000000  1
  P  P29  1  0.999983  0.821595  0.000000  1
  P  P30  1  0.689531  0.166465  0.500000  1
  P  P31  1  0.476976  0.310456  0.500000  1
  P  P32  1  0.310456  0.476976  0.500000  1
  P  P33  1  0.833526  0.523075  0.500000  1
  P  P34  1  0.166465  0.689531  0.500000  1
  P  P35  1  0.523074  0.833526  0.500000  1
