# generated using pymatgen
data_NaSm6IrI12
_symmetry_space_group_name_H-M   'P 1'
_cell_length_a   9.92037778
_cell_length_b   9.92037676
_cell_length_c   9.92037800
_cell_angle_alpha   106.87107479
_cell_angle_beta   106.87107300
_cell_angle_gamma   106.87108050
_symmetry_Int_Tables_number   1
_chemical_formula_structural   NaSm6IrI12
_chemical_formula_sum   'Na1 Sm6 Ir1 I12'
_cell_volume   815.91704616
_cell_formula_units_Z   1
loop_
 _symmetry_equiv_pos_site_id
 _symmetry_equiv_pos_as_xyz
  1  'x, y, z'
loop_
 _atom_site_type_symbol
 _atom_site_label
 _atom_site_symmetry_multiplicity
 _atom_site_fract_x
 _atom_site_fract_y
 _atom_site_fract_z
 _atom_site_occupancy
  Na  Na0  1  0.500000  0.500000  0.500000  1
  Sm  Sm1  1  0.899561  0.973418  0.694331  1
  Sm  Sm2  1  0.694331  0.899561  0.973418  1
  Sm  Sm3  1  0.973418  0.694331  0.899561  1
  Sm  Sm4  1  0.100439  0.026582  0.305669  1
  Sm  Sm5  1  0.305669  0.100439  0.026582  1
  Sm  Sm6  1  0.026582  0.305669  0.100439  1
  Ir  Ir7  1  0.000000  0.000000  0.000000  1
  I  I8  1  0.925147  0.321039  0.775212  1
  I  I9  1  0.775212  0.925147  0.321039  1
  I  I10  1  0.321039  0.775212  0.925147  1
  I  I11  1  0.074853  0.678961  0.224788  1
  I  I12  1  0.224788  0.074853  0.678961  1
  I  I13  1  0.678961  0.224788  0.074853  1
  I  I14  1  0.549101  0.857677  0.628349  1
  I  I15  1  0.628349  0.549101  0.857677  1
  I  I16  1  0.857677  0.628349  0.549101  1
  I  I17  1  0.450899  0.142323  0.371651  1
  I  I18  1  0.371651  0.450899  0.142323  1
  I  I19  1  0.142323  0.371651  0.450899  1
