# generated using pymatgen
data_Ac(BO2)3
_symmetry_space_group_name_H-M   'P 1'
_cell_length_a   6.61273084
_cell_length_b   6.61273090
_cell_length_c   6.75261431
_cell_angle_alpha   61.67257829
_cell_angle_beta   61.67257868
_cell_angle_gamma   78.62791196
_symmetry_Int_Tables_number   1
_chemical_formula_structural   Ac(BO2)3
_chemical_formula_sum   'Ac2 B6 O12'
_cell_volume   228.64553695
_cell_formula_units_Z   2
loop_
 _symmetry_equiv_pos_site_id
 _symmetry_equiv_pos_as_xyz
  1  'x, y, z'
loop_
 _atom_site_type_symbol
 _atom_site_label
 _atom_site_symmetry_multiplicity
 _atom_site_fract_x
 _atom_site_fract_y
 _atom_site_fract_z
 _atom_site_occupancy
  Ac  Ac0  1  0.200821  0.799179  0.750000  1
  Ac  Ac1  1  0.799179  0.200821  0.250000  1
  B  B2  1  0.775951  0.224049  0.750000  1
  B  B3  1  0.800298  0.654726  0.422115  1
  B  B4  1  0.345274  0.199702  0.077885  1
  B  B5  1  0.224049  0.775951  0.250000  1
  B  B6  1  0.654726  0.800298  0.922115  1
  B  B7  1  0.199702  0.345274  0.577885  1
  O  O8  1  0.790072  0.416135  0.513879  1
  O  O9  1  0.583865  0.209928  0.986121  1
  O  O10  1  0.987808  0.225196  0.778883  1
  O  O11  1  0.774804  0.012192  0.721117  1
  O  O12  1  0.012192  0.774804  0.221117  1
  O  O13  1  0.225196  0.987808  0.278883  1
  O  O14  1  0.623944  0.781901  0.500175  1
  O  O15  1  0.218099  0.376056  0.999825  1
  O  O16  1  0.376056  0.218099  0.499825  1
  O  O17  1  0.781901  0.623944  0.000175  1
  O  O18  1  0.416135  0.790072  0.013879  1
  O  O19  1  0.209928  0.583865  0.486121  1
