# generated using pymatgen
data_Na2Re2F9
_symmetry_space_group_name_H-M   'P 1'
_cell_length_a   7.24579720
_cell_length_b   5.74393355
_cell_length_c   6.53334646
_cell_angle_alpha   79.81125319
_cell_angle_beta   109.53287964
_cell_angle_gamma   63.23302802
_symmetry_Int_Tables_number   1
_chemical_formula_structural   Na2Re2F9
_chemical_formula_sum   'Na2 Re2 F9'
_cell_volume   210.76782683
_cell_formula_units_Z   1
loop_
 _symmetry_equiv_pos_site_id
 _symmetry_equiv_pos_as_xyz
  1  'x, y, z'
loop_
 _atom_site_type_symbol
 _atom_site_label
 _atom_site_symmetry_multiplicity
 _atom_site_fract_x
 _atom_site_fract_y
 _atom_site_fract_z
 _atom_site_occupancy
  Na  Na0  1  0.945815  0.388772  0.772255  1
  Na  Na1  1  0.608486  0.603662  0.116259  1
  Re  Re2  1  0.172829  0.521754  0.333896  1
  Re  Re3  1  0.508585  0.183915  0.667781  1
  F  F4  1  0.829943  0.835318  0.000059  1
  F  F5  1  0.093969  0.832753  0.429898  1
  F  F6  1  0.153578  0.291613  0.155667  1
  F  F7  1  0.302822  0.648363  0.163720  1
  F  F8  1  0.954736  0.473199  0.424530  1
  F  F9  1  0.580983  0.862792  0.577211  1
  F  F10  1  0.364786  0.077786  0.840315  1
  F  F11  1  0.540490  0.412392  0.846643  1
  F  F12  1  0.725131  0.225508  0.576230  1
