# generated using pymatgen
data_U5PaF24
_symmetry_space_group_name_H-M   'P 1'
_cell_length_a   8.44822477
_cell_length_b   8.44822602
_cell_length_c   8.43948597
_cell_angle_alpha   63.10091547
_cell_angle_beta   63.10090803
_cell_angle_gamma   80.33100499
_symmetry_Int_Tables_number   1
_chemical_formula_structural   U5PaF24
_chemical_formula_sum   'U5 Pa1 F24'
_cell_volume   478.54515447
_cell_formula_units_Z   1
loop_
 _symmetry_equiv_pos_site_id
 _symmetry_equiv_pos_as_xyz
  1  'x, y, z'
loop_
 _atom_site_type_symbol
 _atom_site_label
 _atom_site_symmetry_multiplicity
 _atom_site_fract_x
 _atom_site_fract_y
 _atom_site_fract_z
 _atom_site_occupancy
  U  U0  1  0.224775  0.368280  0.329965  1
  U  U1  1  0.631720  0.775225  0.170035  1
  U  U2  1  0.776648  0.631096  0.669742  1
  U  U3  1  0.368904  0.223352  0.830258  1
  U  U4  1  0.787534  0.212466  0.250000  1
  Pa  Pa5  1  0.213447  0.786553  0.750000  1
  F  F6  1  0.726327  0.024557  0.151969  1
  F  F7  1  0.975443  0.273673  0.348031  1
  F  F8  1  0.272885  0.969597  0.845157  1
  F  F9  1  0.030403  0.727115  0.654843  1
  F  F10  1  0.502198  0.254378  0.291595  1
  F  F11  1  0.745622  0.497802  0.208405  1
  F  F12  1  0.497956  0.998810  0.001261  1
  F  F13  1  0.001190  0.502044  0.498739  1
  F  F14  1  0.397280  0.602720  0.250000  1
  F  F15  1  0.599912  0.400088  0.750000  1
  F  F16  1  0.811192  0.400087  0.925882  1
  F  F17  1  0.599913  0.188808  0.574118  1
  F  F18  1  0.188510  0.605454  0.065476  1
  F  F19  1  0.394546  0.811490  0.434524  1
  F  F20  1  0.069216  0.176922  0.043592  1
  F  F21  1  0.823078  0.930784  0.456408  1
  F  F22  1  0.938961  0.822883  0.951034  1
  F  F23  1  0.177117  0.061039  0.548966  1
  F  F24  1  0.678394  0.739109  0.893815  1
  F  F25  1  0.260891  0.321606  0.606185  1
  F  F26  1  0.322864  0.263235  0.103515  1
  F  F27  1  0.736765  0.677136  0.396485  1
  F  F28  1  0.253366  0.507059  0.789243  1
  F  F29  1  0.492941  0.746634  0.710757  1
