# generated using pymatgen
data_SrS4(IO8)2
_symmetry_space_group_name_H-M   'P 1'
_cell_length_a   6.70504109
_cell_length_b   6.70504010
_cell_length_c   9.23327776
_cell_angle_alpha   75.42677213
_cell_angle_beta   75.42677800
_cell_angle_gamma   89.33154902
_symmetry_Int_Tables_number   1
_chemical_formula_structural   SrS4(IO8)2
_chemical_formula_sum   'Sr1 S4 I2 O16'
_cell_volume   388.23344896
_cell_formula_units_Z   1
loop_
 _symmetry_equiv_pos_site_id
 _symmetry_equiv_pos_as_xyz
  1  'x, y, z'
loop_
 _atom_site_type_symbol
 _atom_site_label
 _atom_site_symmetry_multiplicity
 _atom_site_fract_x
 _atom_site_fract_y
 _atom_site_fract_z
 _atom_site_occupancy
  Sr  Sr0  1  0.000000  0.000000  0.000000  1
  S  S1  1  0.081128  0.584211  0.745069  1
  S  S2  1  0.584211  0.081128  0.745069  1
  S  S3  1  0.918872  0.415789  0.254931  1
  S  S4  1  0.415789  0.918872  0.254931  1
  I  I5  1  0.000000  0.000000  0.500000  1
  I  I6  1  0.500000  0.500000  0.500000  1
  O  O7  1  0.317139  0.631385  0.678573  1
  O  O8  1  0.631385  0.317139  0.678573  1
  O  O9  1  0.682861  0.368615  0.321427  1
  O  O10  1  0.368615  0.682861  0.321427  1
  O  O11  1  0.016330  0.698856  0.860927  1
  O  O12  1  0.698856  0.016330  0.860927  1
  O  O13  1  0.983670  0.301144  0.139073  1
  O  O14  1  0.301144  0.983670  0.139073  1
  O  O15  1  0.987437  0.670679  0.605053  1
  O  O16  1  0.670679  0.987437  0.605053  1
  O  O17  1  0.012563  0.329321  0.394947  1
  O  O18  1  0.329321  0.012563  0.394947  1
  O  O19  1  0.031713  0.363729  0.793109  1
  O  O20  1  0.363729  0.031713  0.793109  1
  O  O21  1  0.968287  0.636271  0.206891  1
  O  O22  1  0.636271  0.968287  0.206891  1
