# generated using pymatgen
data_Nd7Y(Si4Mo3)4
_symmetry_space_group_name_H-M   'P 1'
_cell_length_a   6.90493728
_cell_length_b   7.06911068
_cell_length_c   13.07600001
_cell_angle_alpha   89.89386693
_cell_angle_beta   89.98141911
_cell_angle_gamma   89.90224839
_symmetry_Int_Tables_number   1
_chemical_formula_structural   Nd7Y(Si4Mo3)4
_chemical_formula_sum   'Nd7 Y1 Si16 Mo12'
_cell_volume   638.26059484
_cell_formula_units_Z   1
loop_
 _symmetry_equiv_pos_site_id
 _symmetry_equiv_pos_as_xyz
  1  'x, y, z'
loop_
 _atom_site_type_symbol
 _atom_site_label
 _atom_site_symmetry_multiplicity
 _atom_site_fract_x
 _atom_site_fract_y
 _atom_site_fract_z
 _atom_site_occupancy
  Nd  Nd0  1  0.497182  0.335653  0.094143  1
  Nd  Nd1  1  0.997504  0.164137  0.405938  1
  Nd  Nd2  1  0.502890  0.664164  0.594270  1
  Nd  Nd3  1  0.001807  0.834814  0.906344  1
  Nd  Nd4  1  0.502425  0.664690  0.906587  1
  Nd  Nd5  1  0.002437  0.835728  0.594283  1
  Nd  Nd6  1  0.497139  0.335545  0.404854  1
  Y  Y7  1  0.996851  0.166100  0.095243  1
  Si  Si8  1  0.654034  0.047296  0.549709  1
  Si  Si9  1  0.153986  0.451764  0.951675  1
  Si  Si10  1  0.341965  0.955561  0.049884  1
  Si  Si11  1  0.845485  0.546684  0.450193  1
  Si  Si12  1  0.346304  0.952644  0.449627  1
  Si  Si13  1  0.846653  0.542854  0.049848  1
  Si  Si14  1  0.655745  0.046782  0.951876  1
  Si  Si15  1  0.154466  0.453707  0.549568  1
  Si  Si16  1  0.536392  0.357924  0.750690  1
  Si  Si17  1  0.036811  0.141213  0.750333  1
  Si  Si18  1  0.464065  0.643045  0.249355  1
  Si  Si19  1  0.963982  0.861151  0.248436  1
  Si  Si20  1  0.806955  0.617810  0.750550  1
  Si  Si21  1  0.306658  0.880431  0.750397  1
  Si  Si22  1  0.191241  0.378827  0.248692  1
  Si  Si23  1  0.695932  0.120325  0.248588  1
  Mo  Mo24  1  0.832277  0.334349  0.627206  1
  Mo  Mo25  1  0.330493  0.164255  0.874154  1
  Mo  Mo26  1  0.167628  0.665570  0.126473  1
  Mo  Mo27  1  0.669853  0.835746  0.372391  1
  Mo  Mo28  1  0.167396  0.665540  0.372076  1
  Mo  Mo29  1  0.669854  0.836741  0.125817  1
  Mo  Mo30  1  0.832878  0.333103  0.874285  1
  Mo  Mo31  1  0.331349  0.164765  0.626932  1
  Mo  Mo32  1  0.664269  0.005233  0.750662  1
  Mo  Mo33  1  0.164485  0.494249  0.750472  1
  Mo  Mo34  1  0.334873  0.996685  0.249031  1
  Mo  Mo35  1  0.835736  0.504913  0.249422  1
