# generated using pymatgen
data_Tm5Lu3Re2(B12Ru)2
_symmetry_space_group_name_H-M   'P 1'
_cell_length_a   3.62004100
_cell_length_b   9.06817635
_cell_length_c   11.44233200
_cell_angle_alpha   90.19694006
_cell_angle_beta   90.00000000
_cell_angle_gamma   90.00000000
_symmetry_Int_Tables_number   1
_chemical_formula_structural   Tm5Lu3Re2(B12Ru)2
_chemical_formula_sum   'Tm5 Lu3 Re2 B24 Ru2'
_cell_volume   375.61716120
_cell_formula_units_Z   1
loop_
 _symmetry_equiv_pos_site_id
 _symmetry_equiv_pos_as_xyz
  1  'x, y, z'
loop_
 _atom_site_type_symbol
 _atom_site_label
 _atom_site_symmetry_multiplicity
 _atom_site_fract_x
 _atom_site_fract_y
 _atom_site_fract_z
 _atom_site_occupancy
  Tm  Tm0  1  0.000000  0.320530  0.412439  1
  Tm  Tm1  1  0.000000  0.679514  0.587730  1
  Tm  Tm2  1  0.000000  0.824125  0.084387  1
  Tm  Tm3  1  0.000000  0.175892  0.915419  1
  Tm  Tm4  1  0.000000  0.943218  0.370960  1
  Lu  Lu5  1  0.000000  0.056902  0.629468  1
  Lu  Lu6  1  0.000000  0.443291  0.128772  1
  Lu  Lu7  1  0.000000  0.556763  0.871112  1
  Re  Re8  1  0.000000  0.139456  0.179872  1
  Re  Re9  1  0.000000  0.860890  0.819823  1
  B  B10  1  0.500000  0.553726  0.433561  1
  B  B11  1  0.500000  0.445988  0.566541  1
  B  B12  1  0.500000  0.053262  0.066328  1
  B  B13  1  0.500000  0.946818  0.933464  1
  B  B14  1  0.500000  0.749364  0.419432  1
  B  B15  1  0.500000  0.250107  0.580723  1
  B  B16  1  0.500000  0.250614  0.080339  1
  B  B17  1  0.500000  0.749523  0.919573  1
  B  B18  1  0.500000  0.791388  0.265303  1
  B  B19  1  0.500000  0.208158  0.734559  1
  B  B20  1  0.500000  0.293485  0.235123  1
  B  B21  1  0.500000  0.706728  0.764812  1
  B  B22  1  0.500000  0.630477  0.184930  1
  B  B23  1  0.500000  0.369393  0.814977  1
  B  B24  1  0.500000  0.131429  0.315683  1
  B  B25  1  0.500000  0.869024  0.684205  1
  B  B26  1  0.500000  0.981810  0.212424  1
  B  B27  1  0.500000  0.018463  0.787215  1
  B  B28  1  0.500000  0.482413  0.287752  1
  B  B29  1  0.500000  0.517465  0.712200  1
  B  B30  1  0.500000  0.601701  0.028281  1
  B  B31  1  0.500000  0.398307  0.971632  1
  B  B32  1  0.500000  0.102750  0.472366  1
  B  B33  1  0.500000  0.897653  0.528530  1
  Ru  Ru34  1  0.000000  0.637718  0.321030  1
  Ru  Ru35  1  0.000000  0.361654  0.679034  1
