# generated using pymatgen
data_Pr8Tm8Sc3Si16Au
_symmetry_space_group_name_H-M   'P 1'
_cell_length_a   7.31530000
_cell_length_b   7.74229076
_cell_length_c   14.72627300
_cell_angle_alpha   90.00000000
_cell_angle_beta   90.00000000
_cell_angle_gamma   90.18130185
_symmetry_Int_Tables_number   1
_chemical_formula_structural   Pr8Tm8Sc3Si16Au
_chemical_formula_sum   'Pr8 Tm8 Sc3 Si16 Au1'
_cell_volume   834.05039319
_cell_formula_units_Z   1
loop_
 _symmetry_equiv_pos_site_id
 _symmetry_equiv_pos_as_xyz
  1  'x, y, z'
loop_
 _atom_site_type_symbol
 _atom_site_label
 _atom_site_symmetry_multiplicity
 _atom_site_fract_x
 _atom_site_fract_y
 _atom_site_fract_z
 _atom_site_occupancy
  Pr  Pr0  1  0.017011  0.177589  0.401348  1
  Pr  Pr1  1  0.517061  0.324263  0.400705  1
  Pr  Pr2  1  0.484581  0.690231  0.898402  1
  Pr  Pr3  1  0.484581  0.690231  0.601598  1
  Pr  Pr4  1  0.973114  0.825033  0.602730  1
  Pr  Pr5  1  0.973114  0.825033  0.897270  1
  Pr  Pr6  1  0.517061  0.324263  0.099295  1
  Pr  Pr7  1  0.017011  0.177589  0.098652  1
  Tm  Tm8  1  0.334645  0.172505  0.626405  1
  Tm  Tm9  1  0.678579  0.819467  0.372870  1
  Tm  Tm10  1  0.178064  0.676100  0.375812  1
  Tm  Tm11  1  0.818314  0.311858  0.872895  1
  Tm  Tm12  1  0.818314  0.311858  0.627105  1
  Tm  Tm13  1  0.334645  0.172505  0.873595  1
  Tm  Tm14  1  0.178064  0.676100  0.124188  1
  Tm  Tm15  1  0.678579  0.819467  0.127130  1
  Sc  Sc16  1  0.846915  0.491449  0.250000  1
  Sc  Sc17  1  0.345659  0.007675  0.250000  1
  Sc  Sc18  1  0.150009  0.503677  0.750000  1
  Si  Si19  1  0.267732  0.876161  0.750000  1
  Si  Si20  1  0.477204  0.607774  0.250000  1
  Si  Si21  1  0.036255  0.112690  0.750000  1
  Si  Si22  1  0.517194  0.410839  0.750000  1
  Si  Si23  1  0.148814  0.469273  0.542722  1
  Si  Si24  1  0.979084  0.886347  0.250000  1
  Si  Si25  1  0.717410  0.125690  0.250000  1
  Si  Si26  1  0.852412  0.532653  0.036299  1
  Si  Si27  1  0.353060  0.967982  0.041345  1
  Si  Si28  1  0.148814  0.469273  0.957278  1
  Si  Si29  1  0.652989  0.039235  0.527941  1
  Si  Si30  1  0.353060  0.967982  0.458655  1
  Si  Si31  1  0.852412  0.532653  0.463701  1
  Si  Si32  1  0.782816  0.606284  0.750000  1
  Si  Si33  1  0.217501  0.375339  0.250000  1
  Si  Si34  1  0.652989  0.039235  0.972059  1
  Au  Au35  1  0.644929  0.983701  0.750000  1
