# generated using pymatgen
data_BaPrAl6Si4Au
_symmetry_space_group_name_H-M   'P 1'
_cell_length_a   4.26675654
_cell_length_b   4.24696035
_cell_length_c   18.32354010
_cell_angle_alpha   89.99958572
_cell_angle_beta   96.33804701
_cell_angle_gamma   119.84560174
_symmetry_Int_Tables_number   1
_chemical_formula_structural   BaPrAl6Si4Au
_chemical_formula_sum   'Ba1 Pr1 Al6 Si4 Au1'
_cell_volume   285.65613548
_cell_formula_units_Z   1
loop_
 _symmetry_equiv_pos_site_id
 _symmetry_equiv_pos_as_xyz
  1  'x, y, z'
loop_
 _atom_site_type_symbol
 _atom_site_label
 _atom_site_symmetry_multiplicity
 _atom_site_fract_x
 _atom_site_fract_y
 _atom_site_fract_z
 _atom_site_occupancy
  Ba  Ba0  1  0.867985  0.433995  0.300347  1
  Pr  Pr1  1  0.134704  0.567346  0.703403  1
  Al  Al2  1  0.358987  0.679500  0.038258  1
  Al  Al3  1  0.094848  0.047426  0.138093  1
  Al  Al4  1  0.640566  0.820292  0.459313  1
  Al  Al5  1  0.375355  0.187669  0.564349  1
  Al  Al6  1  0.895028  0.947515  0.846744  1
  Al  Al7  1  0.631303  0.315651  0.948022  1
  Si  Si8  1  0.455506  0.727760  0.178860  1
  Si  Si9  1  0.283998  0.141992  0.425494  1
  Si  Si10  1  0.734091  0.867038  0.602024  1
  Si  Si11  1  0.533837  0.266913  0.804225  1
  Au  Au12  1  0.993793  0.996901  0.990869  1
