# generated using pymatgen
data_Tb3Dy3Mn2(CrC6)2
_symmetry_space_group_name_H-M   'P 1'
_cell_length_a   8.11642400
_cell_length_b   8.11672597
_cell_length_c   5.00523000
_cell_angle_alpha   90.00000000
_cell_angle_beta   90.00000000
_cell_angle_gamma   120.00247617
_symmetry_Int_Tables_number   1
_chemical_formula_structural   Tb3Dy3Mn2(CrC6)2
_chemical_formula_sum   'Tb3 Dy3 Mn2 Cr2 C12'
_cell_volume   285.55478662
_cell_formula_units_Z   1
loop_
 _symmetry_equiv_pos_site_id
 _symmetry_equiv_pos_as_xyz
  1  'x, y, z'
loop_
 _atom_site_type_symbol
 _atom_site_label
 _atom_site_symmetry_multiplicity
 _atom_site_fract_x
 _atom_site_fract_y
 _atom_site_fract_z
 _atom_site_occupancy
  Tb  Tb0  1  0.316201  0.936924  0.750000  1
  Tb  Tb1  1  0.062950  0.378844  0.750000  1
  Tb  Tb2  1  0.379056  0.315906  0.250000  1
  Dy  Dy3  1  0.622462  0.684849  0.750000  1
  Dy  Dy4  1  0.937438  0.622266  0.250000  1
  Dy  Dy5  1  0.685158  0.062497  0.250000  1
  Mn  Mn6  1  0.666890  0.333549  0.750000  1
  Mn  Mn7  1  0.333622  0.666990  0.250000  1
  Cr  Cr8  1  0.999728  0.999486  0.500100  1
  Cr  Cr9  1  0.999728  0.999486  0.999900  1
  C  C10  1  0.961906  0.771327  0.750000  1
  C  C11  1  0.190299  0.961729  0.250000  1
  C  C12  1  0.771204  0.808574  0.250000  1
  C  C13  1  0.228793  0.190775  0.750000  1
  C  C14  1  0.808055  0.037058  0.750000  1
  C  C15  1  0.037223  0.228899  0.250000  1
  C  C16  1  0.864347  0.576438  0.750000  1
  C  C17  1  0.287886  0.864354  0.250000  1
  C  C18  1  0.576298  0.712114  0.250000  1
  C  C19  1  0.423735  0.288503  0.750000  1
  C  C20  1  0.135512  0.423972  0.250000  1
  C  C21  1  0.711508  0.135460  0.750000  1
