# generated using pymatgen
data_Lu3Pa(ZnIr)4
_symmetry_space_group_name_H-M   'P 1'
_cell_length_a   3.92803900
_cell_length_b   6.91334342
_cell_length_c   8.23436552
_cell_angle_alpha   90.21562774
_cell_angle_beta   90.00000000
_cell_angle_gamma   90.00000000
_symmetry_Int_Tables_number   1
_chemical_formula_structural   Lu3Pa(ZnIr)4
_chemical_formula_sum   'Lu3 Pa1 Zn4 Ir4'
_cell_volume   223.60987951
_cell_formula_units_Z   1
loop_
 _symmetry_equiv_pos_site_id
 _symmetry_equiv_pos_as_xyz
  1  'x, y, z'
loop_
 _atom_site_type_symbol
 _atom_site_label
 _atom_site_symmetry_multiplicity
 _atom_site_fract_x
 _atom_site_fract_y
 _atom_site_fract_z
 _atom_site_occupancy
  Lu  Lu0  1  0.750000  0.450907  0.812630  1
  Lu  Lu1  1  0.750000  0.950646  0.681571  1
  Lu  Lu2  1  0.250000  0.046913  0.322806  1
  Pa  Pa3  1  0.250000  0.545987  0.180556  1
  Zn  Zn4  1  0.250000  0.629090  0.566652  1
  Zn  Zn5  1  0.750000  0.361231  0.443363  1
  Zn  Zn6  1  0.750000  0.883894  0.060730  1
  Zn  Zn7  1  0.250000  0.131317  0.933623  1
  Ir  Ir8  1  0.250000  0.745669  0.881170  1
  Ir  Ir9  1  0.750000  0.268265  0.127776  1
  Ir  Ir10  1  0.750000  0.743844  0.362313  1
  Ir  Ir11  1  0.250000  0.242239  0.626809  1
