# generated using pymatgen
data_Pr8Si12PtRh3
_symmetry_space_group_name_H-M   'P 1'
_cell_length_a   8.28385000
_cell_length_b   8.28384953
_cell_length_c   8.56906600
_cell_angle_alpha   90.00000000
_cell_angle_beta   90.00000000
_cell_angle_gamma   120.00000187
_symmetry_Int_Tables_number   1
_chemical_formula_structural   Pr8Si12PtRh3
_chemical_formula_sum   'Pr8 Si12 Pt1 Rh3'
_cell_volume   509.24707051
_cell_formula_units_Z   1
loop_
 _symmetry_equiv_pos_site_id
 _symmetry_equiv_pos_as_xyz
  1  'x, y, z'
loop_
 _atom_site_type_symbol
 _atom_site_label
 _atom_site_symmetry_multiplicity
 _atom_site_fract_x
 _atom_site_fract_y
 _atom_site_fract_z
 _atom_site_occupancy
  Pr  Pr0  1  0.000000  0.000000  0.749627  1
  Pr  Pr1  1  0.000000  0.000000  0.250756  1
  Pr  Pr2  1  0.497534  0.502466  0.747173  1
  Pr  Pr3  1  0.497534  0.995067  0.747173  1
  Pr  Pr4  1  0.004933  0.502466  0.747173  1
  Pr  Pr5  1  0.500278  0.499722  0.252570  1
  Pr  Pr6  1  0.999447  0.499722  0.252570  1
  Pr  Pr7  1  0.500278  0.000553  0.252570  1
  Si  Si8  1  0.835122  0.164878  0.001772  1
  Si  Si9  1  0.835122  0.670245  0.001772  1
  Si  Si10  1  0.329755  0.164878  0.001772  1
  Si  Si11  1  0.833368  0.166632  0.498481  1
  Si  Si12  1  0.833368  0.666736  0.498481  1
  Si  Si13  1  0.333264  0.166632  0.498481  1
  Si  Si14  1  0.166231  0.833769  0.501468  1
  Si  Si15  1  0.667538  0.833769  0.501468  1
  Si  Si16  1  0.166231  0.332462  0.501468  1
  Si  Si17  1  0.167490  0.832510  0.998304  1
  Si  Si18  1  0.665020  0.832510  0.998304  1
  Si  Si19  1  0.167490  0.334980  0.998304  1
  Pt  Pt20  1  0.666667  0.333333  0.993877  1
  Rh  Rh21  1  0.666667  0.333333  0.505509  1
  Rh  Rh22  1  0.333333  0.666667  0.493727  1
  Rh  Rh23  1  0.333333  0.666667  0.007200  1
