# generated using pymatgen
data_Nd3Al9Tc3Os4
_symmetry_space_group_name_H-M   'P 1'
_cell_length_a   8.91122500
_cell_length_b   8.91122555
_cell_length_c   9.69587300
_cell_angle_alpha   90.00000000
_cell_angle_beta   90.00000000
_cell_angle_gamma   120.00000909
_symmetry_Int_Tables_number   1
_chemical_formula_structural   Nd3Al9Tc3Os4
_chemical_formula_sum   'Nd6 Al18 Tc6 Os8'
_cell_volume   666.79503256
_cell_formula_units_Z   2
loop_
 _symmetry_equiv_pos_site_id
 _symmetry_equiv_pos_as_xyz
  1  'x, y, z'
loop_
 _atom_site_type_symbol
 _atom_site_label
 _atom_site_symmetry_multiplicity
 _atom_site_fract_x
 _atom_site_fract_y
 _atom_site_fract_z
 _atom_site_occupancy
  Nd  Nd0  1  0.195352  0.390706  0.250000  1
  Nd  Nd1  1  0.804648  0.609294  0.750000  1
  Nd  Nd2  1  0.609294  0.804648  0.250000  1
  Nd  Nd3  1  0.390706  0.195352  0.750000  1
  Nd  Nd4  1  0.195352  0.804648  0.250000  1
  Nd  Nd5  1  0.804648  0.195352  0.750000  1
  Al  Al6  1  0.333333  0.666667  0.006351  1
  Al  Al7  1  0.666667  0.333333  0.993649  1
  Al  Al8  1  0.666667  0.333333  0.506351  1
  Al  Al9  1  0.333333  0.666667  0.493649  1
  Al  Al10  1  0.165746  0.331493  0.576032  1
  Al  Al11  1  0.834254  0.668507  0.423968  1
  Al  Al12  1  0.668507  0.834254  0.576032  1
  Al  Al13  1  0.834254  0.668507  0.076032  1
  Al  Al14  1  0.331493  0.165746  0.423968  1
  Al  Al15  1  0.165746  0.331493  0.923968  1
  Al  Al16  1  0.165746  0.834254  0.576032  1
  Al  Al17  1  0.331493  0.165746  0.076032  1
  Al  Al18  1  0.834254  0.165746  0.423968  1
  Al  Al19  1  0.668507  0.834254  0.923968  1
  Al  Al20  1  0.834254  0.165746  0.076032  1
  Al  Al21  1  0.165746  0.834254  0.923968  1
  Al  Al22  1  0.000000  0.000000  0.250000  1
  Al  Al23  1  0.000000  0.000000  0.750000  1
  Tc  Tc24  1  0.574178  0.148356  0.250000  1
  Tc  Tc25  1  0.425822  0.851644  0.750000  1
  Tc  Tc26  1  0.851644  0.425822  0.250000  1
  Tc  Tc27  1  0.148356  0.574178  0.750000  1
  Tc  Tc28  1  0.574178  0.425822  0.250000  1
  Tc  Tc29  1  0.425822  0.574178  0.750000  1
  Os  Os30  1  0.500000  0.000000  0.000000  1
  Os  Os31  1  0.000000  0.500000  0.000000  1
  Os  Os32  1  0.500000  0.000000  0.500000  1
  Os  Os33  1  0.500000  0.500000  0.000000  1
  Os  Os34  1  0.000000  0.500000  0.500000  1
  Os  Os35  1  0.500000  0.500000  0.500000  1
  Os  Os36  1  0.000000  0.000000  0.000000  1
  Os  Os37  1  0.000000  0.000000  0.500000  1
