# generated using pymatgen
data_Li4Tb3Er(Si2Sn)2
_symmetry_space_group_name_H-M   'P 1'
_cell_length_a   9.56464383
_cell_length_b   9.56464325
_cell_length_c   6.78275800
_cell_angle_alpha   90.00000000
_cell_angle_beta   90.00000000
_cell_angle_gamma   153.54334546
_symmetry_Int_Tables_number   1
_chemical_formula_structural   Li4Tb3Er(Si2Sn)2
_chemical_formula_sum   'Li4 Tb3 Er1 Si4 Sn2'
_cell_volume   276.44690861
_cell_formula_units_Z   1
loop_
 _symmetry_equiv_pos_site_id
 _symmetry_equiv_pos_as_xyz
  1  'x, y, z'
loop_
 _atom_site_type_symbol
 _atom_site_label
 _atom_site_symmetry_multiplicity
 _atom_site_fract_x
 _atom_site_fract_y
 _atom_site_fract_z
 _atom_site_occupancy
  Li  Li0  1  0.184548  0.815452  0.055385  1
  Li  Li1  1  0.184548  0.815452  0.444615  1
  Li  Li2  1  0.816119  0.183881  0.945823  1
  Li  Li3  1  0.816119  0.183881  0.554177  1
  Tb  Tb4  1  0.648876  0.351124  0.750000  1
  Tb  Tb5  1  0.547963  0.452037  0.250000  1
  Tb  Tb6  1  0.450966  0.549034  0.750000  1
  Er  Er7  1  0.351840  0.648160  0.250000  1
  Si  Si8  1  0.057046  0.942954  0.926644  1
  Si  Si9  1  0.941599  0.058401  0.073857  1
  Si  Si10  1  0.941599  0.058401  0.426143  1
  Si  Si11  1  0.057046  0.942954  0.573356  1
  Sn  Sn12  1  0.720939  0.279061  0.250000  1
  Sn  Sn13  1  0.280793  0.719207  0.750000  1
