# generated using pymatgen
data_Yb2Ho3Bi3C
_symmetry_space_group_name_H-M   'P 1'
_cell_length_a   9.14102300
_cell_length_b   9.14102263
_cell_length_c   6.56033300
_cell_angle_alpha   90.00000000
_cell_angle_beta   90.00000000
_cell_angle_gamma   119.99999771
_symmetry_Int_Tables_number   1
_chemical_formula_structural   Yb2Ho3Bi3C
_chemical_formula_sum   'Yb4 Ho6 Bi6 C2'
_cell_volume   474.72938232
_cell_formula_units_Z   2
loop_
 _symmetry_equiv_pos_site_id
 _symmetry_equiv_pos_as_xyz
  1  'x, y, z'
loop_
 _atom_site_type_symbol
 _atom_site_label
 _atom_site_symmetry_multiplicity
 _atom_site_fract_x
 _atom_site_fract_y
 _atom_site_fract_z
 _atom_site_occupancy
  Yb  Yb0  1  0.666667  0.333333  0.000000  1
  Yb  Yb1  1  0.333333  0.666667  0.000000  1
  Yb  Yb2  1  0.333333  0.666667  0.500000  1
  Yb  Yb3  1  0.666667  0.333333  0.500000  1
  Ho  Ho4  1  0.793889  0.793889  0.750000  1
  Ho  Ho5  1  0.206111  0.000000  0.750000  1
  Ho  Ho6  1  0.000000  0.206111  0.750000  1
  Ho  Ho7  1  0.206111  0.206111  0.250000  1
  Ho  Ho8  1  0.793889  0.000000  0.250000  1
  Ho  Ho9  1  0.000000  0.793889  0.250000  1
  Bi  Bi10  1  0.399411  0.399411  0.750000  1
  Bi  Bi11  1  0.600589  0.000000  0.750000  1
  Bi  Bi12  1  0.000000  0.600589  0.750000  1
  Bi  Bi13  1  0.600589  0.600589  0.250000  1
  Bi  Bi14  1  0.399411  0.000000  0.250000  1
  Bi  Bi15  1  0.000000  0.399411  0.250000  1
  C  C16  1  0.000000  0.000000  0.000000  1
  C  C17  1  0.000000  0.000000  0.500000  1
