# generated using pymatgen
data_Cs3Ti2AlO7
_symmetry_space_group_name_H-M   'P 1'
_cell_length_a   10.11496236
_cell_length_b   10.11496247
_cell_length_c   8.14048675
_cell_angle_alpha   71.90121321
_cell_angle_beta   71.90121760
_cell_angle_gamma   120.57421496
_symmetry_Int_Tables_number   1
_chemical_formula_structural   Cs3Ti2AlO7
_chemical_formula_sum   'Cs6 Ti4 Al2 O14'
_cell_volume   558.75729184
_cell_formula_units_Z   2
loop_
 _symmetry_equiv_pos_site_id
 _symmetry_equiv_pos_as_xyz
  1  'x, y, z'
loop_
 _atom_site_type_symbol
 _atom_site_label
 _atom_site_symmetry_multiplicity
 _atom_site_fract_x
 _atom_site_fract_y
 _atom_site_fract_z
 _atom_site_occupancy
  Cs  Cs0  1  0.585534  0.973432  0.740658  1
  Cs  Cs1  1  0.011423  0.988577  0.750000  1
  Cs  Cs2  1  0.973432  0.585534  0.240658  1
  Cs  Cs3  1  0.988577  0.011423  0.250000  1
  Cs  Cs4  1  0.026568  0.414466  0.759342  1
  Cs  Cs5  1  0.414466  0.026568  0.259342  1
  Ti  Ti6  1  0.759181  0.560579  0.763782  1
  Ti  Ti7  1  0.439421  0.240819  0.736218  1
  Ti  Ti8  1  0.560579  0.759181  0.263782  1
  Ti  Ti9  1  0.240819  0.439421  0.236218  1
  Al  Al10  1  0.438771  0.561229  0.750000  1
  Al  Al11  1  0.561229  0.438771  0.250000  1
  O  O12  1  0.655410  0.664067  0.723350  1
  O  O13  1  0.664067  0.655410  0.223350  1
  O  O14  1  0.516316  0.274352  0.475931  1
  O  O15  1  0.335933  0.344590  0.776650  1
  O  O16  1  0.001150  0.269015  0.440008  1
  O  O17  1  0.483684  0.725648  0.524069  1
  O  O18  1  0.269015  0.001150  0.940008  1
  O  O19  1  0.274352  0.516316  0.975931  1
  O  O20  1  0.351310  0.648690  0.250000  1
  O  O21  1  0.344590  0.335933  0.276650  1
  O  O22  1  0.730985  0.998850  0.059992  1
  O  O23  1  0.648690  0.351310  0.750000  1
  O  O24  1  0.998850  0.730985  0.559992  1
  O  O25  1  0.725648  0.483684  0.024069  1
