# generated using pymatgen
data_Dy2NiPS
_symmetry_space_group_name_H-M   'P 1'
_cell_length_a   3.89840200
_cell_length_b   3.89840236
_cell_length_c   14.08480600
_cell_angle_alpha   90.00000000
_cell_angle_beta   90.00000000
_cell_angle_gamma   120.00001395
_symmetry_Int_Tables_number   1
_chemical_formula_structural   Dy2NiPS
_chemical_formula_sum   'Dy4 Ni2 P2 S2'
_cell_volume   185.37651878
_cell_formula_units_Z   2
loop_
 _symmetry_equiv_pos_site_id
 _symmetry_equiv_pos_as_xyz
  1  'x, y, z'
loop_
 _atom_site_type_symbol
 _atom_site_label
 _atom_site_symmetry_multiplicity
 _atom_site_fract_x
 _atom_site_fract_y
 _atom_site_fract_z
 _atom_site_occupancy
  Dy  Dy0  1  0.333333  0.666667  0.382142  1
  Dy  Dy1  1  0.666667  0.333333  0.617858  1
  Dy  Dy2  1  0.666667  0.333333  0.882142  1
  Dy  Dy3  1  0.333333  0.666667  0.117858  1
  Ni  Ni4  1  0.000000  0.000000  0.250000  1
  Ni  Ni5  1  0.000000  0.000000  0.750000  1
  P  P6  1  0.333333  0.666667  0.750000  1
  P  P7  1  0.666667  0.333333  0.250000  1
  S  S8  1  0.000000  0.000000  0.500000  1
  S  S9  1  0.000000  0.000000  0.000000  1
