# generated using pymatgen
data_Yb2Ga7SiNi2
_symmetry_space_group_name_H-M   'P 1'
_cell_length_a   7.83106804
_cell_length_b   7.83106747
_cell_length_c   6.54152327
_cell_angle_alpha   90.23479270
_cell_angle_beta   89.76520511
_cell_angle_gamma   149.57956180
_symmetry_Int_Tables_number   1
_chemical_formula_structural   Yb2Ga7SiNi2
_chemical_formula_sum   'Yb2 Ga7 Si1 Ni2'
_cell_volume   203.12359676
_cell_formula_units_Z   1
loop_
 _symmetry_equiv_pos_site_id
 _symmetry_equiv_pos_as_xyz
  1  'x, y, z'
loop_
 _atom_site_type_symbol
 _atom_site_label
 _atom_site_symmetry_multiplicity
 _atom_site_fract_x
 _atom_site_fract_y
 _atom_site_fract_z
 _atom_site_occupancy
  Yb  Yb0  1  0.625840  0.374160  0.744592  1
  Yb  Yb1  1  0.375461  0.624539  0.250909  1
  Ga  Ga2  1  0.818786  0.181214  0.553964  1
  Ga  Ga3  1  0.999002  0.000998  0.997165  1
  Ga  Ga4  1  0.002038  0.997962  0.498200  1
  Ga  Ga5  1  0.566898  0.433102  0.249063  1
  Ga  Ga6  1  0.431087  0.568913  0.750393  1
  Ga  Ga7  1  0.184484  0.815516  0.050704  1
  Ga  Ga8  1  0.812381  0.187619  0.952955  1
  Si  Si9  1  0.189027  0.810973  0.445309  1
  Ni  Ni10  1  0.721118  0.278882  0.266061  1
  Ni  Ni11  1  0.273878  0.726122  0.740684  1
