# generated using pymatgen
data_Ba6TlIn(BO3)6
_symmetry_space_group_name_H-M   'P 1'
_cell_length_a   8.16209244
_cell_length_b   8.16209232
_cell_length_c   8.16209197
_cell_angle_alpha   105.70454714
_cell_angle_beta   105.70454403
_cell_angle_gamma   105.70455607
_symmetry_Int_Tables_number   1
_chemical_formula_structural   Ba6TlIn(BO3)6
_chemical_formula_sum   'Ba6 Tl1 In1 B6 O18'
_cell_volume   467.92747162
_cell_formula_units_Z   1
loop_
 _symmetry_equiv_pos_site_id
 _symmetry_equiv_pos_as_xyz
  1  'x, y, z'
loop_
 _atom_site_type_symbol
 _atom_site_label
 _atom_site_symmetry_multiplicity
 _atom_site_fract_x
 _atom_site_fract_y
 _atom_site_fract_z
 _atom_site_occupancy
  Ba  Ba0  1  0.764269  0.664925  0.156499  1
  Ba  Ba1  1  0.335076  0.843501  0.235732  1
  Ba  Ba2  1  0.843501  0.235733  0.335075  1
  Ba  Ba3  1  0.156499  0.764268  0.664926  1
  Ba  Ba4  1  0.664925  0.156499  0.764268  1
  Ba  Ba5  1  0.235732  0.335075  0.843502  1
  Tl  Tl6  1  0.500000  0.500000  0.500000  1
  In  In7  1  0.000000  0.000000  0.000000  1
  B  B8  1  0.449176  0.205825  0.128446  1
  B  B9  1  0.128446  0.449176  0.205825  1
  B  B10  1  0.205825  0.128446  0.449176  1
  B  B11  1  0.794175  0.871554  0.550825  1
  B  B12  1  0.871555  0.550825  0.794175  1
  B  B13  1  0.550825  0.794175  0.871554  1
  O  O14  1  0.280086  0.070876  0.002529  1
  O  O15  1  0.567866  0.300825  0.064831  1
  O  O16  1  0.002529  0.280086  0.070876  1
  O  O17  1  0.314252  0.500847  0.226436  1
  O  O18  1  0.070876  0.002528  0.280086  1
  O  O19  1  0.064830  0.567866  0.300825  1
  O  O20  1  0.500847  0.226436  0.314252  1
  O  O21  1  0.699174  0.935169  0.432134  1
  O  O22  1  0.773564  0.685748  0.499154  1
  O  O23  1  0.226436  0.314253  0.500847  1
  O  O24  1  0.300825  0.064830  0.567866  1
  O  O25  1  0.499154  0.773564  0.685748  1
  O  O26  1  0.935169  0.432133  0.699174  1
  O  O27  1  0.929123  0.997471  0.719913  1
  O  O28  1  0.685748  0.499154  0.773564  1
  O  O29  1  0.997470  0.719914  0.929124  1
  O  O30  1  0.432133  0.699174  0.935169  1
  O  O31  1  0.719914  0.929124  0.997471  1
