# generated using pymatgen
data_Ce3Ho7(Co3Si2)2
_symmetry_space_group_name_H-M   'P 1'
_cell_length_a   8.09967489
_cell_length_b   8.09967434
_cell_length_c   8.09967500
_cell_angle_alpha   110.11388616
_cell_angle_beta   110.11389227
_cell_angle_gamma   110.11389679
_symmetry_Int_Tables_number   1
_chemical_formula_structural   Ce3Ho7(Co3Si2)2
_chemical_formula_sum   'Ce3 Ho7 Co6 Si4'
_cell_volume   399.02455731
_cell_formula_units_Z   1
loop_
 _symmetry_equiv_pos_site_id
 _symmetry_equiv_pos_as_xyz
  1  'x, y, z'
loop_
 _atom_site_type_symbol
 _atom_site_label
 _atom_site_symmetry_multiplicity
 _atom_site_fract_x
 _atom_site_fract_y
 _atom_site_fract_z
 _atom_site_occupancy
  Ce  Ce0  1  0.256862  0.210184  0.957080  1
  Ce  Ce1  1  0.957080  0.256862  0.210184  1
  Ce  Ce2  1  0.210184  0.957080  0.256862  1
  Ho  Ho3  1  0.777249  0.777249  0.777249  1
  Ho  Ho4  1  0.298722  0.554241  0.752595  1
  Ho  Ho5  1  0.752595  0.298722  0.554241  1
  Ho  Ho6  1  0.554241  0.752595  0.298722  1
  Ho  Ho7  1  0.725003  0.505046  0.994651  1
  Ho  Ho8  1  0.994651  0.725003  0.505046  1
  Ho  Ho9  1  0.505046  0.994651  0.725003  1
  Co  Co10  1  0.913838  0.130653  0.753715  1
  Co  Co11  1  0.753715  0.913838  0.130653  1
  Co  Co12  1  0.130653  0.753715  0.913838  1
  Co  Co13  1  0.226025  0.589305  0.351722  1
  Co  Co14  1  0.351722  0.226025  0.589305  1
  Co  Co15  1  0.589305  0.351722  0.226025  1
  Si  Si16  1  0.405383  0.405383  0.405383  1
  Si  Si17  1  0.100009  0.498215  0.999504  1
  Si  Si18  1  0.999504  0.100009  0.498215  1
  Si  Si19  1  0.498215  0.999504  0.100009  1
