# generated using pymatgen
data_Dy8TmLuIr4
_symmetry_space_group_name_H-M   'P 1'
_cell_length_a   6.46769999
_cell_length_b   7.19130272
_cell_length_c   8.51310475
_cell_angle_alpha   96.55269561
_cell_angle_beta   112.32545687
_cell_angle_gamma   90.00000111
_symmetry_Int_Tables_number   1
_chemical_formula_structural   Dy8TmLuIr4
_chemical_formula_sum   'Dy8 Tm1 Lu1 Ir4'
_cell_volume   363.47646961
_cell_formula_units_Z   1
loop_
 _symmetry_equiv_pos_site_id
 _symmetry_equiv_pos_as_xyz
  1  'x, y, z'
loop_
 _atom_site_type_symbol
 _atom_site_label
 _atom_site_symmetry_multiplicity
 _atom_site_fract_x
 _atom_site_fract_y
 _atom_site_fract_z
 _atom_site_occupancy
  Dy  Dy0  1  0.970952  0.918161  0.181690  1
  Dy  Dy1  1  0.789261  0.581839  0.818310  1
  Dy  Dy2  1  0.029303  0.081352  0.818209  1
  Dy  Dy3  1  0.211095  0.418648  0.181791  1
  Dy  Dy4  1  0.652231  0.816358  0.439898  1
  Dy  Dy5  1  0.212334  0.683642  0.560102  1
  Dy  Dy6  1  0.347313  0.183397  0.559651  1
  Dy  Dy7  1  0.787662  0.316603  0.440349  1
  Tm  Tm8  1  0.570517  0.250000  0.000000  1
  Lu  Lu9  1  0.429903  0.750000  0.000000  1
  Ir  Ir10  1  0.821257  0.573196  0.216636  1
  Ir  Ir11  1  0.604621  0.926804  0.783364  1
  Ir  Ir12  1  0.178453  0.427735  0.783353  1
  Ir  Ir13  1  0.395099  0.072265  0.216647  1
