# generated using pymatgen
data_Dy4Al10Ga8Ir5Pt
_symmetry_space_group_name_H-M   'P 1'
_cell_length_a   7.55684238
_cell_length_b   7.55487479
_cell_length_c   9.55060906
_cell_angle_alpha   90.09245870
_cell_angle_beta   89.88531265
_cell_angle_gamma   119.70087561
_symmetry_Int_Tables_number   1
_chemical_formula_structural   Dy4Al10Ga8Ir5Pt
_chemical_formula_sum   'Dy4 Al10 Ga8 Ir5 Pt1'
_cell_volume   473.61943754
_cell_formula_units_Z   1
loop_
 _symmetry_equiv_pos_site_id
 _symmetry_equiv_pos_as_xyz
  1  'x, y, z'
loop_
 _atom_site_type_symbol
 _atom_site_label
 _atom_site_symmetry_multiplicity
 _atom_site_fract_x
 _atom_site_fract_y
 _atom_site_fract_z
 _atom_site_occupancy
  Dy  Dy0  1  0.996512  0.667164  0.745897  1
  Dy  Dy1  1  0.003078  0.332664  0.254085  1
  Dy  Dy2  1  0.672117  0.998616  0.749336  1
  Dy  Dy3  1  0.327997  0.001121  0.250619  1
  Al  Al4  1  0.998495  0.665436  0.070788  1
  Al  Al5  1  0.334719  0.999953  0.927131  1
  Al  Al6  1  0.001770  0.334274  0.928778  1
  Al  Al7  1  0.665762  0.999950  0.073420  1
  Al  Al8  1  0.664470  0.994564  0.424230  1
  Al  Al9  1  0.332779  0.999669  0.575386  1
  Al  Al10  1  0.332981  0.332771  0.056266  1
  Al  Al11  1  0.667104  0.667219  0.943648  1
  Al  Al12  1  0.666766  0.668759  0.556969  1
  Al  Al13  1  0.330491  0.334184  0.443338  1
  Ga  Ga14  1  0.129458  0.124694  0.750836  1
  Ga  Ga15  1  0.871335  0.874731  0.249086  1
  Ga  Ga16  1  0.001797  0.333388  0.582287  1
  Ga  Ga17  1  0.003602  0.669378  0.418132  1
  Ga  Ga18  1  0.343183  0.550654  0.751166  1
  Ga  Ga19  1  0.657486  0.452309  0.246819  1
  Ga  Ga20  1  0.545516  0.341068  0.752103  1
  Ga  Ga21  1  0.452394  0.658909  0.249884  1
  Ir  Ir22  1  0.332892  0.673682  0.501188  1
  Ir  Ir23  1  0.328054  0.670989  0.000885  1
  Ir  Ir24  1  0.672566  0.328538  0.999152  1
  Ir  Ir25  1  0.000248  0.000031  0.499908  1
  Ir  Ir26  1  0.000188  0.999940  0.999964  1
  Pt  Pt27  1  0.666240  0.325345  0.498699  1
