# generated using pymatgen
data_DyTmAl2PtRh
_symmetry_space_group_name_H-M   'P 1'
_cell_length_a   4.30908100
_cell_length_b   6.80579500
_cell_length_c   7.88609000
_cell_angle_alpha   90.00000000
_cell_angle_beta   90.00000000
_cell_angle_gamma   90.00000000
_symmetry_Int_Tables_number   1
_chemical_formula_structural   DyTmAl2PtRh
_chemical_formula_sum   'Dy2 Tm2 Al4 Pt2 Rh2'
_cell_volume   231.27316850
_cell_formula_units_Z   2
loop_
 _symmetry_equiv_pos_site_id
 _symmetry_equiv_pos_as_xyz
  1  'x, y, z'
loop_
 _atom_site_type_symbol
 _atom_site_label
 _atom_site_symmetry_multiplicity
 _atom_site_fract_x
 _atom_site_fract_y
 _atom_site_fract_z
 _atom_site_occupancy
  Dy  Dy0  1  0.750000  0.532751  0.821585  1
  Dy  Dy1  1  0.750000  0.032751  0.678415  1
  Tm  Tm2  1  0.250000  0.963395  0.322429  1
  Tm  Tm3  1  0.250000  0.463395  0.177571  1
  Al  Al4  1  0.750000  0.637974  0.440045  1
  Al  Al5  1  0.750000  0.137974  0.059955  1
  Al  Al6  1  0.250000  0.364413  0.560116  1
  Al  Al7  1  0.250000  0.864413  0.939884  1
  Pt  Pt8  1  0.750000  0.765551  0.126424  1
  Pt  Pt9  1  0.750000  0.265551  0.373576  1
  Rh  Rh10  1  0.250000  0.235916  0.880139  1
  Rh  Rh11  1  0.250000  0.735916  0.619861  1
