# generated using pymatgen
data_SrZn4Cu9
_symmetry_space_group_name_H-M   'P 1'
_cell_length_a   8.34256389
_cell_length_b   8.34256318
_cell_length_c   8.34256432
_cell_angle_alpha   120.21992066
_cell_angle_beta   120.21991819
_cell_angle_gamma   89.61950571
_symmetry_Int_Tables_number   1
_chemical_formula_structural   SrZn4Cu9
_chemical_formula_sum   'Sr2 Zn8 Cu18'
_cell_volume   409.19207062
_cell_formula_units_Z   2
loop_
 _symmetry_equiv_pos_site_id
 _symmetry_equiv_pos_as_xyz
  1  'x, y, z'
loop_
 _atom_site_type_symbol
 _atom_site_label
 _atom_site_symmetry_multiplicity
 _atom_site_fract_x
 _atom_site_fract_y
 _atom_site_fract_z
 _atom_site_occupancy
  Sr  Sr0  1  0.250000  0.250000  0.000000  1
  Sr  Sr1  1  0.750000  0.750000  0.000000  1
  Zn  Zn2  1  0.800418  0.300418  0.860230  1
  Zn  Zn3  1  0.559812  0.059812  0.860230  1
  Zn  Zn4  1  0.199582  0.699582  0.139770  1
  Zn  Zn5  1  0.699582  0.559812  0.500000  1
  Zn  Zn6  1  0.059812  0.199582  0.500000  1
  Zn  Zn7  1  0.300418  0.440188  0.500000  1
  Zn  Zn8  1  0.940188  0.800418  0.500000  1
  Zn  Zn9  1  0.440188  0.940188  0.139770  1
  Cu  Cu10  1  0.062732  0.562732  0.269973  1
  Cu  Cu11  1  0.707240  0.207240  0.269973  1
  Cu  Cu12  1  0.937268  0.437268  0.730027  1
  Cu  Cu13  1  0.437268  0.707240  0.500000  1
  Cu  Cu14  1  0.207240  0.937268  0.500000  1
  Cu  Cu15  1  0.562732  0.292760  0.500000  1
  Cu  Cu16  1  0.792760  0.062732  0.500000  1
  Cu  Cu17  1  0.292760  0.792760  0.730027  1
  Cu  Cu18  1  0.436798  0.296264  0.733063  1
  Cu  Cu19  1  0.796264  0.936798  0.733063  1
  Cu  Cu20  1  0.000000  0.500000  0.500000  1
  Cu  Cu21  1  0.500000  0.000000  0.500000  1
  Cu  Cu22  1  0.563202  0.703736  0.266937  1
  Cu  Cu23  1  0.703736  0.436798  0.140533  1
  Cu  Cu24  1  0.296264  0.563202  0.859467  1
  Cu  Cu25  1  0.936798  0.203736  0.140533  1
  Cu  Cu26  1  0.063202  0.796264  0.859467  1
  Cu  Cu27  1  0.203736  0.063202  0.266937  1
