# generated using pymatgen
data_Sm2Co3Si(P2Ru3)3
_symmetry_space_group_name_H-M   'P 1'
_cell_length_a   9.37806900
_cell_length_b   9.37806926
_cell_length_c   3.85072000
_cell_angle_alpha   90.00000000
_cell_angle_beta   90.00000000
_cell_angle_gamma   120.00000262
_symmetry_Int_Tables_number   1
_chemical_formula_structural   Sm2Co3Si(P2Ru3)3
_chemical_formula_sum   'Sm2 Co3 Si1 P6 Ru9'
_cell_volume   293.29146190
_cell_formula_units_Z   1
loop_
 _symmetry_equiv_pos_site_id
 _symmetry_equiv_pos_as_xyz
  1  'x, y, z'
loop_
 _atom_site_type_symbol
 _atom_site_label
 _atom_site_symmetry_multiplicity
 _atom_site_fract_x
 _atom_site_fract_y
 _atom_site_fract_z
 _atom_site_occupancy
  Sm  Sm0  1  0.333333  0.666667  0.500000  1
  Sm  Sm1  1  0.000000  0.000000  0.000000  1
  Co  Co2  1  0.827517  0.609037  0.000000  1
  Co  Co3  1  0.390963  0.218479  0.000000  1
  Co  Co4  1  0.781521  0.172483  0.000000  1
  Si  Si5  1  0.666667  0.333333  0.000000  1
  P  P6  1  0.779220  0.729398  0.500000  1
  P  P7  1  0.270602  0.049822  0.500000  1
  P  P8  1  0.950178  0.220780  0.500000  1
  P  P9  1  0.075903  0.635763  0.000000  1
  P  P10  1  0.364237  0.440140  0.000000  1
  P  P11  1  0.559860  0.924097  0.000000  1
  Ru  Ru12  1  0.090061  0.394190  0.000000  1
  Ru  Ru13  1  0.605810  0.695871  0.000000  1
  Ru  Ru14  1  0.304129  0.909939  0.000000  1
  Ru  Ru15  1  0.050829  0.769742  0.500000  1
  Ru  Ru16  1  0.230258  0.281087  0.500000  1
  Ru  Ru17  1  0.718913  0.949171  0.500000  1
  Ru  Ru18  1  0.871806  0.420408  0.500000  1
  Ru  Ru19  1  0.579592  0.451397  0.500000  1
  Ru  Ru20  1  0.548603  0.128194  0.500000  1
