# generated using pymatgen
data_Y3TlIn2Rh2Au
_symmetry_space_group_name_H-M   'P 1'
_cell_length_a   7.81003578
_cell_length_b   7.80185909
_cell_length_c   3.82259400
_cell_angle_alpha   90.00000000
_cell_angle_beta   90.00000000
_cell_angle_gamma   119.92122496
_symmetry_Int_Tables_number   1
_chemical_formula_structural   Y3TlIn2Rh2Au
_chemical_formula_sum   'Y3 Tl1 In2 Rh2 Au1'
_cell_volume   201.87573585
_cell_formula_units_Z   1
loop_
 _symmetry_equiv_pos_site_id
 _symmetry_equiv_pos_as_xyz
  1  'x, y, z'
loop_
 _atom_site_type_symbol
 _atom_site_label
 _atom_site_symmetry_multiplicity
 _atom_site_fract_x
 _atom_site_fract_y
 _atom_site_fract_z
 _atom_site_occupancy
  Y  Y0  1  0.979749  0.588741  0.500000  1
  Y  Y1  1  0.410501  0.391152  0.500000  1
  Y  Y2  1  0.607733  0.020096  0.500000  1
  Tl  Tl3  1  0.998628  0.259592  0.000000  1
  In  In4  1  0.259500  0.000624  0.000000  1
  In  In5  1  0.741674  0.739200  0.000000  1
  Rh  Rh6  1  0.000237  0.991771  0.500000  1
  Rh  Rh7  1  0.661806  0.334689  0.000000  1
  Au  Au8  1  0.340173  0.674136  0.000000  1
