# generated using pymatgen
data_La4YbInIr2
_symmetry_space_group_name_H-M   'P 1'
_cell_length_a   9.07414468
_cell_length_b   9.07414378
_cell_length_c   9.07414400
_cell_angle_alpha   128.14486460
_cell_angle_beta   128.14485215
_cell_angle_gamma   76.39047695
_symmetry_Int_Tables_number   1
_chemical_formula_structural   La4YbInIr2
_chemical_formula_sum   'La8 Yb2 In2 Ir4'
_cell_volume   449.03266653
_cell_formula_units_Z   2
loop_
 _symmetry_equiv_pos_site_id
 _symmetry_equiv_pos_as_xyz
  1  'x, y, z'
loop_
 _atom_site_type_symbol
 _atom_site_label
 _atom_site_symmetry_multiplicity
 _atom_site_fract_x
 _atom_site_fract_y
 _atom_site_fract_z
 _atom_site_occupancy
  La  La0  1  0.794349  0.294349  0.829091  1
  La  La1  1  0.205651  0.705651  0.170909  1
  La  La2  1  0.465258  0.965258  0.170909  1
  La  La3  1  0.294349  0.465258  0.500000  1
  La  La4  1  0.034742  0.205651  0.500000  1
  La  La5  1  0.534742  0.034742  0.829091  1
  La  La6  1  0.705651  0.534742  0.500000  1
  La  La7  1  0.965258  0.794349  0.500000  1
  Yb  Yb8  1  0.000000  0.000000  0.000000  1
  Yb  Yb9  1  0.500000  0.500000  0.000000  1
  In  In10  1  0.250000  0.250000  0.000000  1
  In  In11  1  0.750000  0.750000  0.000000  1
  Ir  Ir12  1  0.137084  0.637084  0.774166  1
  Ir  Ir13  1  0.862916  0.362916  0.225834  1
  Ir  Ir14  1  0.637084  0.862916  0.500000  1
  Ir  Ir15  1  0.362916  0.137084  0.500000  1
