# generated using pymatgen
data_ThPa(NiP)4
_symmetry_space_group_name_H-M   'P 1'
_cell_length_a   3.79675700
_cell_length_b   8.65469921
_cell_length_c   9.51283877
_cell_angle_alpha   91.00205280
_cell_angle_beta   90.00000000
_cell_angle_gamma   90.00000000
_symmetry_Int_Tables_number   1
_chemical_formula_structural   ThPa(NiP)4
_chemical_formula_sum   'Th2 Pa2 Ni8 P8'
_cell_volume   312.54207776
_cell_formula_units_Z   2
loop_
 _symmetry_equiv_pos_site_id
 _symmetry_equiv_pos_as_xyz
  1  'x, y, z'
loop_
 _atom_site_type_symbol
 _atom_site_label
 _atom_site_symmetry_multiplicity
 _atom_site_fract_x
 _atom_site_fract_y
 _atom_site_fract_z
 _atom_site_occupancy
  Th  Th0  1  0.250000  0.741155  0.825422  1
  Th  Th1  1  0.750000  0.258845  0.174578  1
  Pa  Pa2  1  0.250000  0.249043  0.673552  1
  Pa  Pa3  1  0.750000  0.750957  0.326448  1
  Ni  Ni4  1  0.750000  0.075958  0.449139  1
  Ni  Ni5  1  0.250000  0.924042  0.550861  1
  Ni  Ni6  1  0.750000  0.581271  0.047123  1
  Ni  Ni7  1  0.250000  0.418729  0.952877  1
  Ni  Ni8  1  0.250000  0.965000  0.100290  1
  Ni  Ni9  1  0.750000  0.035000  0.899710  1
  Ni  Ni10  1  0.250000  0.451589  0.396647  1
  Ni  Ni11  1  0.750000  0.548411  0.603353  1
  P  P12  1  0.250000  0.161511  0.949906  1
  P  P13  1  0.750000  0.838489  0.050094  1
  P  P14  1  0.250000  0.665361  0.535906  1
  P  P15  1  0.750000  0.334639  0.464094  1
  P  P16  1  0.250000  0.541640  0.174019  1
  P  P17  1  0.750000  0.458360  0.825981  1
  P  P18  1  0.250000  0.021759  0.328476  1
  P  P19  1  0.750000  0.978241  0.671524  1
