# generated using pymatgen
data_Tb4PaMoOs6
_symmetry_space_group_name_H-M   'P 1'
_cell_length_a   5.32486258
_cell_length_b   5.32486171
_cell_length_c   9.22341600
_cell_angle_alpha   90.00000000
_cell_angle_beta   90.00000000
_cell_angle_gamma   116.49446808
_symmetry_Int_Tables_number   1
_chemical_formula_structural   Tb4PaMoOs6
_chemical_formula_sum   'Tb4 Pa1 Mo1 Os6'
_cell_volume   234.05645420
_cell_formula_units_Z   1
loop_
 _symmetry_equiv_pos_site_id
 _symmetry_equiv_pos_as_xyz
  1  'x, y, z'
loop_
 _atom_site_type_symbol
 _atom_site_label
 _atom_site_symmetry_multiplicity
 _atom_site_fract_x
 _atom_site_fract_y
 _atom_site_fract_z
 _atom_site_occupancy
  Tb  Tb0  1  0.331448  0.668552  0.445140  1
  Tb  Tb1  1  0.665075  0.334925  0.572113  1
  Tb  Tb2  1  0.665075  0.334925  0.927887  1
  Tb  Tb3  1  0.331448  0.668552  0.054860  1
  Pa  Pa4  1  0.845498  0.154502  0.250000  1
  Mo  Mo5  1  0.152392  0.847608  0.750000  1
  Os  Os6  1  0.004752  0.995248  0.506979  1
  Os  Os7  1  0.004752  0.995248  0.993021  1
  Os  Os8  1  0.830593  0.645746  0.250000  1
  Os  Os9  1  0.354254  0.169407  0.250000  1
  Os  Os10  1  0.172192  0.357480  0.750000  1
  Os  Os11  1  0.642520  0.827808  0.750000  1
