# generated using pymatgen
data_Ba3HoCrO6
_symmetry_space_group_name_H-M   'P 1'
_cell_length_a   7.16698974
_cell_length_b   7.16692102
_cell_length_c   7.16679302
_cell_angle_alpha   93.52222613
_cell_angle_beta   93.52286932
_cell_angle_gamma   93.52552305
_symmetry_Int_Tables_number   1
_chemical_formula_structural   Ba3HoCrO6
_chemical_formula_sum   'Ba6 Ho2 Cr2 O12'
_cell_volume   365.94651781
_cell_formula_units_Z   2
loop_
 _symmetry_equiv_pos_site_id
 _symmetry_equiv_pos_as_xyz
  1  'x, y, z'
loop_
 _atom_site_type_symbol
 _atom_site_label
 _atom_site_symmetry_multiplicity
 _atom_site_fract_x
 _atom_site_fract_y
 _atom_site_fract_z
 _atom_site_occupancy
  Ba  Ba0  1  0.614577  0.885392  0.249992  1
  Ba  Ba1  1  0.885387  0.249981  0.614658  1
  Ba  Ba2  1  0.249995  0.614632  0.885324  1
  Ba  Ba3  1  0.114632  0.749980  0.385414  1
  Ba  Ba4  1  0.750006  0.385388  0.114576  1
  Ba  Ba5  1  0.385331  0.114643  0.749993  1
  Ho  Ho6  1  0.250001  0.250030  0.249995  1
  Ho  Ho7  1  0.749995  0.750028  0.749996  1
  Cr  Cr8  1  0.500135  0.499970  0.499867  1
  Cr  Cr9  1  0.999958  0.999954  0.000185  1
  O  O10  1  0.533583  0.222888  0.407111  1
  O  O11  1  0.222909  0.407162  0.533495  1
  O  O12  1  0.407173  0.533564  0.222838  1
  O  O13  1  0.033528  0.907167  0.722932  1
  O  O14  1  0.907127  0.722886  0.033618  1
  O  O15  1  0.722858  0.033540  0.907209  1
  O  O16  1  0.466491  0.777113  0.592798  1
  O  O17  1  0.777137  0.592838  0.466383  1
  O  O18  1  0.592862  0.466445  0.777065  1
  O  O19  1  0.966418  0.092848  0.277167  1
  O  O20  1  0.092809  0.277117  0.966500  1
  O  O21  1  0.277083  0.966437  0.092881  1
