# generated using pymatgen
data_LaHo6Sn23Ir6
_symmetry_space_group_name_H-M   'P 1'
_cell_length_a   9.87091500
_cell_length_b   9.87091412
_cell_length_c   10.12638800
_cell_angle_alpha   90.00000000
_cell_angle_beta   90.00000000
_cell_angle_gamma   119.99999289
_symmetry_Int_Tables_number   1
_chemical_formula_structural   LaHo6Sn23Ir6
_chemical_formula_sum   'La1 Ho6 Sn23 Ir6'
_cell_volume   854.47628153
_cell_formula_units_Z   1
loop_
 _symmetry_equiv_pos_site_id
 _symmetry_equiv_pos_as_xyz
  1  'x, y, z'
loop_
 _atom_site_type_symbol
 _atom_site_label
 _atom_site_symmetry_multiplicity
 _atom_site_fract_x
 _atom_site_fract_y
 _atom_site_fract_z
 _atom_site_occupancy
  La  La0  1  0.000000  0.000000  0.000000  1
  Ho  Ho1  1  0.519492  0.480508  0.693062  1
  Ho  Ho2  1  0.519492  0.038982  0.693062  1
  Ho  Ho3  1  0.961018  0.480508  0.693062  1
  Ho  Ho4  1  0.038982  0.519492  0.306938  1
  Ho  Ho5  1  0.480508  0.961018  0.306938  1
  Ho  Ho6  1  0.480508  0.519492  0.306938  1
  Sn  Sn7  1  0.666667  0.333333  0.173410  1
  Sn  Sn8  1  0.666667  0.333333  0.876502  1
  Sn  Sn9  1  0.333333  0.666667  0.123498  1
  Sn  Sn10  1  0.353447  0.353447  0.000000  1
  Sn  Sn11  1  0.000000  0.646553  0.000000  1
  Sn  Sn12  1  0.646553  0.000000  0.000000  1
  Sn  Sn13  1  0.646553  0.646553  0.000000  1
  Sn  Sn14  1  0.333333  0.666667  0.826590  1
  Sn  Sn15  1  0.445673  0.222836  0.455987  1
  Sn  Sn16  1  0.222836  0.777164  0.544013  1
  Sn  Sn17  1  0.222836  0.445673  0.544013  1
  Sn  Sn18  1  0.554327  0.777164  0.544013  1
  Sn  Sn19  1  0.119709  0.880291  0.285250  1
  Sn  Sn20  1  0.777164  0.554327  0.455987  1
  Sn  Sn21  1  0.777164  0.222836  0.455987  1
  Sn  Sn22  1  0.353447  0.000000  0.000000  1
  Sn  Sn23  1  0.119709  0.239417  0.285250  1
  Sn  Sn24  1  0.760583  0.880291  0.285250  1
  Sn  Sn25  1  0.239417  0.119709  0.714750  1
  Sn  Sn26  1  0.880291  0.760583  0.714750  1
  Sn  Sn27  1  0.880291  0.119709  0.714750  1
  Sn  Sn28  1  0.000000  0.000000  0.500000  1
  Sn  Sn29  1  0.000000  0.353447  0.000000  1
  Ir  Ir30  1  0.169572  0.830428  0.800749  1
  Ir  Ir31  1  0.169572  0.339144  0.800749  1
  Ir  Ir32  1  0.660856  0.830428  0.800749  1
  Ir  Ir33  1  0.339144  0.169572  0.199251  1
  Ir  Ir34  1  0.830428  0.660856  0.199251  1
  Ir  Ir35  1  0.830428  0.169572  0.199251  1
