# generated using pymatgen
data_Rb6TbHoF12
_symmetry_space_group_name_H-M   'P 1'
_cell_length_a   6.87758282
_cell_length_b   6.63926028
_cell_length_c   11.53301522
_cell_angle_alpha   55.25834555
_cell_angle_beta   90.00983557
_cell_angle_gamma   90.01100943
_symmetry_Int_Tables_number   1
_chemical_formula_structural   Rb6TbHoF12
_chemical_formula_sum   'Rb6 Tb1 Ho1 F12'
_cell_volume   432.74045498
_cell_formula_units_Z   1
loop_
 _symmetry_equiv_pos_site_id
 _symmetry_equiv_pos_as_xyz
  1  'x, y, z'
loop_
 _atom_site_type_symbol
 _atom_site_label
 _atom_site_symmetry_multiplicity
 _atom_site_fract_x
 _atom_site_fract_y
 _atom_site_fract_z
 _atom_site_occupancy
  Rb  Rb0  1  0.500000  0.500000  0.000000  1
  Rb  Rb1  1  0.000000  0.500000  0.500000  1
  Rb  Rb2  1  0.050032  0.733224  0.753551  1
  Rb  Rb3  1  0.949968  0.266776  0.246449  1
  Rb  Rb4  1  0.549934  0.266198  0.747219  1
  Rb  Rb5  1  0.450066  0.733802  0.252781  1
  Tb  Tb6  1  0.000000  0.000000  0.000000  1
  Ho  Ho7  1  0.500000  0.000000  0.500000  1
  F  F8  1  0.763391  0.774053  0.564447  1
  F  F9  1  0.236609  0.225947  0.435553  1
  F  F10  1  0.265258  0.228358  0.935712  1
  F  F11  1  0.734742  0.771642  0.064288  1
  F  F12  1  0.449571  0.888039  0.716437  1
  F  F13  1  0.550429  0.111961  0.283563  1
  F  F14  1  0.949360  0.113139  0.781471  1
  F  F15  1  0.050640  0.886861  0.218529  1
  F  F16  1  0.330597  0.683286  0.546999  1
  F  F17  1  0.669403  0.316714  0.453001  1
  F  F18  1  0.827871  0.318733  0.953031  1
  F  F19  1  0.172129  0.681267  0.046969  1
