# generated using pymatgen
data_LuBi3(As4O9)2
_symmetry_space_group_name_H-M   'P 1'
_cell_length_a   6.96013144
_cell_length_b   7.58505784
_cell_length_c   10.02666644
_cell_angle_alpha   94.35112175
_cell_angle_beta   104.38490702
_cell_angle_gamma   104.56234994
_symmetry_Int_Tables_number   1
_chemical_formula_structural   LuBi3(As4O9)2
_chemical_formula_sum   'Lu1 Bi3 As8 O18'
_cell_volume   490.83835819
_cell_formula_units_Z   1
loop_
 _symmetry_equiv_pos_site_id
 _symmetry_equiv_pos_as_xyz
  1  'x, y, z'
loop_
 _atom_site_type_symbol
 _atom_site_label
 _atom_site_symmetry_multiplicity
 _atom_site_fract_x
 _atom_site_fract_y
 _atom_site_fract_z
 _atom_site_occupancy
  Lu  Lu0  1  0.278106  0.457123  0.591070  1
  Bi  Bi1  1  0.245721  0.917467  0.620492  1
  Bi  Bi2  1  0.773895  0.086473  0.375171  1
  Bi  Bi3  1  0.705735  0.545301  0.410361  1
  As  As4  1  0.673326  0.771263  0.063636  1
  As  As5  1  0.326066  0.239038  0.927576  1
  As  As6  1  0.177713  0.757739  0.912476  1
  As  As7  1  0.822317  0.243320  0.077660  1
  As  As8  1  0.742663  0.898429  0.706423  1
  As  As9  1  0.254195  0.094290  0.298147  1
  As  As10  1  0.801244  0.342455  0.699542  1
  As  As11  1  0.186179  0.652037  0.305114  1
  O  O12  1  0.730250  0.745442  0.240270  1
  O  O13  1  0.290656  0.283215  0.756553  1
  O  O14  1  0.314307  0.988387  0.875858  1
  O  O15  1  0.677435  0.017449  0.109995  1
  O  O16  1  0.609791  0.330723  0.990954  1
  O  O17  1  0.389738  0.681381  0.015113  1
  O  O18  1  0.143850  0.659922  0.739011  1
  O  O19  1  0.875861  0.333413  0.256449  1
  O  O20  1  0.831673  0.852640  0.556845  1
  O  O21  1  0.174598  0.162315  0.447991  1
  O  O22  1  0.485347  0.753598  0.663667  1
  O  O23  1  0.513398  0.228873  0.326923  1
  O  O24  1  0.366805  0.536793  0.384290  1
  O  O25  1  0.610663  0.444139  0.615083  1
  O  O26  1  0.093325  0.652000  0.460070  1
  O  O27  1  0.917369  0.330963  0.555062  1
  O  O28  1  0.351142  0.900382  0.366693  1
  O  O29  1  0.636632  0.093429  0.651505  1
