# generated using pymatgen
data_Sm4CuSi4Rh9
_symmetry_space_group_name_H-M   'P 1'
_cell_length_a   11.88655478
_cell_length_b   11.88655416
_cell_length_c   11.88655521
_cell_angle_alpha   27.19279799
_cell_angle_beta   27.19280389
_cell_angle_gamma   27.19280133
_symmetry_Int_Tables_number   1
_chemical_formula_structural   Sm4CuSi4Rh9
_chemical_formula_sum   'Sm4 Cu1 Si4 Rh9'
_cell_volume   309.43782894
_cell_formula_units_Z   1
loop_
 _symmetry_equiv_pos_site_id
 _symmetry_equiv_pos_as_xyz
  1  'x, y, z'
loop_
 _atom_site_type_symbol
 _atom_site_label
 _atom_site_symmetry_multiplicity
 _atom_site_fract_x
 _atom_site_fract_y
 _atom_site_fract_z
 _atom_site_occupancy
  Sm  Sm0  1  0.948413  0.948413  0.948413  1
  Sm  Sm1  1  0.850901  0.850901  0.850901  1
  Sm  Sm2  1  0.149099  0.149099  0.149099  1
  Sm  Sm3  1  0.051587  0.051587  0.051587  1
  Cu  Cu4  1  0.500000  0.500000  0.500000  1
  Si  Si5  1  0.279105  0.279105  0.279105  1
  Si  Si6  1  0.387227  0.387227  0.387227  1
  Si  Si7  1  0.720895  0.720895  0.720895  1
  Si  Si8  1  0.612773  0.612773  0.612773  1
  Rh  Rh9  1  0.605081  0.605081  0.106165  1
  Rh  Rh10  1  0.893835  0.394919  0.394919  1
  Rh  Rh11  1  0.500000  0.000000  0.500000  1
  Rh  Rh12  1  0.394919  0.893835  0.394919  1
  Rh  Rh13  1  0.500000  0.500000  0.000000  1
  Rh  Rh14  1  0.106165  0.605081  0.605081  1
  Rh  Rh15  1  0.000000  0.500000  0.500000  1
  Rh  Rh16  1  0.394919  0.394919  0.893835  1
  Rh  Rh17  1  0.605081  0.106165  0.605081  1
