# generated using pymatgen
data_TbDy2Er17Bi12
_symmetry_space_group_name_H-M   'P 1'
_cell_length_a   8.21503524
_cell_length_b   9.47977100
_cell_length_c   11.96828100
_cell_angle_alpha   90.00000000
_cell_angle_beta   90.01262965
_cell_angle_gamma   90.00000000
_symmetry_Int_Tables_number   1
_chemical_formula_structural   TbDy2Er17Bi12
_chemical_formula_sum   'Tb1 Dy2 Er17 Bi12'
_cell_volume   932.04964180
_cell_formula_units_Z   1
loop_
 _symmetry_equiv_pos_site_id
 _symmetry_equiv_pos_as_xyz
  1  'x, y, z'
loop_
 _atom_site_type_symbol
 _atom_site_label
 _atom_site_symmetry_multiplicity
 _atom_site_fract_x
 _atom_site_fract_y
 _atom_site_fract_z
 _atom_site_occupancy
  Tb  Tb0  1  0.686826  0.750000  0.781675  1
  Dy  Dy1  1  0.812951  0.250000  0.281663  1
  Dy  Dy2  1  0.186694  0.750000  0.718314  1
  Er  Er3  1  0.353067  0.750000  0.216751  1
  Er  Er4  1  0.853018  0.750000  0.283215  1
  Er  Er5  1  0.646922  0.250000  0.783487  1
  Er  Er6  1  0.147155  0.250000  0.716676  1
  Er  Er7  1  0.692403  0.564943  0.059170  1
  Er  Er8  1  0.192106  0.935005  0.440743  1
  Er  Er9  1  0.307764  0.064960  0.940965  1
  Er  Er10  1  0.807991  0.434980  0.559108  1
  Er  Er11  1  0.307764  0.435040  0.940965  1
  Er  Er12  1  0.807991  0.065020  0.559108  1
  Er  Er13  1  0.692403  0.935057  0.059170  1
  Er  Er14  1  0.192106  0.564995  0.440743  1
  Er  Er15  1  0.476025  0.250000  0.488386  1
  Er  Er16  1  0.976120  0.250000  0.011741  1
  Er  Er17  1  0.523837  0.750000  0.511330  1
  Er  Er18  1  0.024098  0.750000  0.988723  1
  Er  Er19  1  0.312690  0.250000  0.217794  1
  Bi  Bi20  1  0.405432  0.750000  0.958300  1
  Bi  Bi21  1  0.905483  0.750000  0.541760  1
  Bi  Bi22  1  0.593907  0.250000  0.042490  1
  Bi  Bi23  1  0.094938  0.250000  0.457792  1
  Bi  Bi24  1  0.565193  0.995426  0.325677  1
  Bi  Bi25  1  0.066494  0.504609  0.174134  1
  Bi  Bi26  1  0.434203  0.494972  0.673972  1
  Bi  Bi27  1  0.934262  0.005182  0.826182  1
  Bi  Bi28  1  0.434203  0.005028  0.673972  1
  Bi  Bi29  1  0.934262  0.494818  0.826182  1
  Bi  Bi30  1  0.565193  0.504574  0.325677  1
  Bi  Bi31  1  0.066494  0.995391  0.174134  1
