# generated using pymatgen
data_ErTm(PaAl5)3
_symmetry_space_group_name_H-M   'P 1'
_cell_length_a   12.61230891
_cell_length_b   12.61230887
_cell_length_c   12.61230900
_cell_angle_alpha   28.07910684
_cell_angle_beta   28.07910720
_cell_angle_gamma   28.07911400
_symmetry_Int_Tables_number   1
_chemical_formula_structural   ErTm(PaAl5)3
_chemical_formula_sum   'Er1 Tm1 Pa3 Al15'
_cell_volume   392.62826416
_cell_formula_units_Z   1
loop_
 _symmetry_equiv_pos_site_id
 _symmetry_equiv_pos_as_xyz
  1  'x, y, z'
loop_
 _atom_site_type_symbol
 _atom_site_label
 _atom_site_symmetry_multiplicity
 _atom_site_fract_x
 _atom_site_fract_y
 _atom_site_fract_z
 _atom_site_occupancy
  Er  Er0  1  0.999800  0.999800  0.999800  1
  Tm  Tm1  1  0.599554  0.599554  0.599554  1
  Pa  Pa2  1  0.130836  0.130836  0.130836  1
  Pa  Pa3  1  0.869224  0.869224  0.869224  1
  Pa  Pa4  1  0.400779  0.400779  0.400779  1
  Al  Al5  1  0.132773  0.635235  0.635235  1
  Al  Al6  1  0.635235  0.635235  0.132773  1
  Al  Al7  1  0.635235  0.132773  0.635235  1
  Al  Al8  1  0.364661  0.872217  0.364661  1
  Al  Al9  1  0.364661  0.364661  0.872217  1
  Al  Al10  1  0.872217  0.364661  0.364661  1
  Al  Al11  1  0.428625  0.883426  0.883426  1
  Al  Al12  1  0.883426  0.883426  0.428625  1
  Al  Al13  1  0.883426  0.428625  0.883426  1
  Al  Al14  1  0.116345  0.568900  0.116345  1
  Al  Al15  1  0.116345  0.116345  0.568900  1
  Al  Al16  1  0.568900  0.116345  0.116345  1
  Al  Al17  1  0.497722  0.497722  0.002514  1
  Al  Al18  1  0.497722  0.002514  0.497722  1
  Al  Al19  1  0.002514  0.497722  0.497722  1
