# generated using pymatgen
data_Tb4Ce2FeI10
_symmetry_space_group_name_H-M   'P 1'
_cell_length_a   7.80835008
_cell_length_b   9.90754287
_cell_length_c   9.85946700
_cell_angle_alpha   107.41243346
_cell_angle_beta   105.33227946
_cell_angle_gamma   98.78013995
_symmetry_Int_Tables_number   1
_chemical_formula_structural   Tb4Ce2FeI10
_chemical_formula_sum   'Tb4 Ce2 Fe1 I10'
_cell_volume   679.26116352
_cell_formula_units_Z   1
loop_
 _symmetry_equiv_pos_site_id
 _symmetry_equiv_pos_as_xyz
  1  'x, y, z'
loop_
 _atom_site_type_symbol
 _atom_site_label
 _atom_site_symmetry_multiplicity
 _atom_site_fract_x
 _atom_site_fract_y
 _atom_site_fract_z
 _atom_site_occupancy
  Tb  Tb0  1  0.032741  0.914035  0.712660  1
  Tb  Tb1  1  0.967259  0.085965  0.287340  1
  Tb  Tb2  1  0.115737  0.759058  0.041087  1
  Tb  Tb3  1  0.884263  0.240942  0.958913  1
  Ce  Ce4  1  0.686289  0.850525  0.888751  1
  Ce  Ce5  1  0.313711  0.149475  0.111249  1
  Fe  Fe6  1  0.000000  0.000000  0.000000  1
  I  I7  1  0.650748  0.724322  0.545178  1
  I  I8  1  0.349252  0.275678  0.454822  1
  I  I9  1  0.211140  0.656374  0.743017  1
  I  I10  1  0.788860  0.343626  0.256983  1
  I  I11  1  0.455431  0.091258  0.811588  1
  I  I12  1  0.544569  0.908742  0.188412  1
  I  I13  1  0.257741  0.463024  0.088513  1
  I  I14  1  0.742259  0.536976  0.911487  1
  I  I15  1  0.084524  0.823867  0.368800  1
  I  I16  1  0.915476  0.176133  0.631200  1
