# generated using pymatgen
data_Tb4Tc2OsRu5
_symmetry_space_group_name_H-M   'P 1'
_cell_length_a   5.30249873
_cell_length_b   5.12999326
_cell_length_c   9.09260700
_cell_angle_alpha   90.00000000
_cell_angle_beta   90.00000000
_cell_angle_gamma   117.45363075
_symmetry_Int_Tables_number   1
_chemical_formula_structural   Tb4Tc2OsRu5
_chemical_formula_sum   'Tb4 Tc2 Os1 Ru5'
_cell_volume   219.48128598
_cell_formula_units_Z   1
loop_
 _symmetry_equiv_pos_site_id
 _symmetry_equiv_pos_as_xyz
  1  'x, y, z'
loop_
 _atom_site_type_symbol
 _atom_site_label
 _atom_site_symmetry_multiplicity
 _atom_site_fract_x
 _atom_site_fract_y
 _atom_site_fract_z
 _atom_site_occupancy
  Tb  Tb0  1  0.328839  0.659637  0.434446  1
  Tb  Tb1  1  0.669841  0.329220  0.565376  1
  Tb  Tb2  1  0.669841  0.329220  0.934624  1
  Tb  Tb3  1  0.328839  0.659637  0.065554  1
  Tc  Tc4  1  0.841522  0.678945  0.250000  1
  Tc  Tc5  1  0.163632  0.839577  0.750000  1
  Os  Os6  1  0.829985  0.181616  0.250000  1
  Ru  Ru7  1  0.996745  0.981920  0.500457  1
  Ru  Ru8  1  0.996745  0.981920  0.999543  1
  Ru  Ru9  1  0.346897  0.172623  0.250000  1
  Ru  Ru10  1  0.168874  0.353887  0.750000  1
  Ru  Ru11  1  0.658241  0.831795  0.750000  1
