# generated using pymatgen
data_DyUS6
_symmetry_space_group_name_H-M   'P 1'
_cell_length_a   3.94037900
_cell_length_b   5.39360740
_cell_length_c   9.45869817
_cell_angle_alpha   82.71450740
_cell_angle_beta   90.00000000
_cell_angle_gamma   90.00000000
_symmetry_Int_Tables_number   1
_chemical_formula_structural   DyUS6
_chemical_formula_sum   'Dy1 U1 S6'
_cell_volume   199.40140937
_cell_formula_units_Z   1
loop_
 _symmetry_equiv_pos_site_id
 _symmetry_equiv_pos_as_xyz
  1  'x, y, z'
loop_
 _atom_site_type_symbol
 _atom_site_label
 _atom_site_symmetry_multiplicity
 _atom_site_fract_x
 _atom_site_fract_y
 _atom_site_fract_z
 _atom_site_occupancy
  Dy  Dy0  1  0.250000  0.717364  0.146709  1
  U  U1  1  0.750000  0.279906  0.865299  1
  S  S2  1  0.250000  0.128999  0.691221  1
  S  S3  1  0.750000  0.873734  0.314306  1
  S  S4  1  0.750000  0.486048  0.314209  1
  S  S5  1  0.250000  0.508784  0.691534  1
  S  S6  1  0.750000  0.767152  0.922896  1
  S  S7  1  0.250000  0.238013  0.053826  1
