# generated using pymatgen
data_Nd16CoHg4Ru3
_symmetry_space_group_name_H-M   'P 1'
_cell_length_a   9.85564126
_cell_length_b   9.88667451
_cell_length_c   9.88668000
_cell_angle_alpha   59.99999962
_cell_angle_beta   59.89579676
_cell_angle_gamma   59.89577404
_symmetry_Int_Tables_number   1
_chemical_formula_structural   Nd16CoHg4Ru3
_chemical_formula_sum   'Nd16 Co1 Hg4 Ru3'
_cell_volume   680.11867607
_cell_formula_units_Z   1
loop_
 _symmetry_equiv_pos_site_id
 _symmetry_equiv_pos_as_xyz
  1  'x, y, z'
loop_
 _atom_site_type_symbol
 _atom_site_label
 _atom_site_symmetry_multiplicity
 _atom_site_fract_x
 _atom_site_fract_y
 _atom_site_fract_z
 _atom_site_occupancy
  Nd  Nd0  1  0.601031  0.596141  0.596141  1
  Nd  Nd1  1  0.601030  0.596140  0.206687  1
  Nd  Nd2  1  0.601030  0.206687  0.596140  1
  Nd  Nd3  1  0.202757  0.599081  0.599080  1
  Nd  Nd4  1  0.056226  0.440286  0.440286  1
  Nd  Nd5  1  0.440481  0.059371  0.059372  1
  Nd  Nd6  1  0.440481  0.059373  0.440774  1
  Nd  Nd7  1  0.056225  0.440286  0.063204  1
  Nd  Nd8  1  0.440481  0.440774  0.059373  1
  Nd  Nd9  1  0.056225  0.063204  0.440286  1
  Nd  Nd10  1  0.189538  0.810866  0.810866  1
  Nd  Nd11  1  0.809602  0.188357  0.188357  1
  Nd  Nd12  1  0.809603  0.188356  0.813684  1
  Nd  Nd13  1  0.189539  0.810866  0.188728  1
  Nd  Nd14  1  0.809603  0.813684  0.188357  1
  Nd  Nd15  1  0.189539  0.188728  0.810866  1
  Co  Co16  1  0.833564  0.388813  0.388812  1
  Hg  Hg17  1  0.832899  0.833742  0.833742  1
  Hg  Hg18  1  0.832899  0.833742  0.499617  1
  Hg  Hg19  1  0.832899  0.499617  0.833742  1
  Hg  Hg20  1  0.500808  0.833064  0.833064  1
  Ru  Ru21  1  0.391181  0.387142  0.387142  1
  Ru  Ru22  1  0.391180  0.387141  0.834536  1
  Ru  Ru23  1  0.391181  0.834536  0.387141  1
