# generated using pymatgen
data_NbTlAg6(SO4)6
_symmetry_space_group_name_H-M   'P 1'
_cell_length_a   8.89282492
_cell_length_b   8.89282477
_cell_length_c   8.89282528
_cell_angle_alpha   107.71731925
_cell_angle_beta   107.71731948
_cell_angle_gamma   107.71733080
_symmetry_Int_Tables_number   1
_chemical_formula_structural   NbTlAg6(SO4)6
_chemical_formula_sum   'Nb1 Tl1 Ag6 S6 O24'
_cell_volume   573.83993428
_cell_formula_units_Z   1
loop_
 _symmetry_equiv_pos_site_id
 _symmetry_equiv_pos_as_xyz
  1  'x, y, z'
loop_
 _atom_site_type_symbol
 _atom_site_label
 _atom_site_symmetry_multiplicity
 _atom_site_fract_x
 _atom_site_fract_y
 _atom_site_fract_z
 _atom_site_occupancy
  Nb  Nb0  1  0.000000  0.000000  0.000000  1
  Tl  Tl1  1  0.500000  0.500000  0.500000  1
  Ag  Ag2  1  0.835169  0.331778  0.676997  1
  Ag  Ag3  1  0.331778  0.676997  0.835169  1
  Ag  Ag4  1  0.676997  0.835169  0.331778  1
  Ag  Ag5  1  0.164831  0.668222  0.323003  1
  Ag  Ag6  1  0.668222  0.323003  0.164831  1
  Ag  Ag7  1  0.323003  0.164831  0.668222  1
  S  S8  1  0.981046  0.755087  0.606689  1
  S  S9  1  0.755087  0.606689  0.981046  1
  S  S10  1  0.606689  0.981046  0.755087  1
  S  S11  1  0.018954  0.244913  0.393311  1
  S  S12  1  0.244913  0.393311  0.018954  1
  S  S13  1  0.393311  0.018954  0.244913  1
  O  O14  1  0.441111  0.885323  0.154768  1
  O  O15  1  0.885323  0.154768  0.441111  1
  O  O16  1  0.154768  0.441111  0.885323  1
  O  O17  1  0.558889  0.114677  0.845232  1
  O  O18  1  0.114677  0.845232  0.558889  1
  O  O19  1  0.845232  0.558889  0.114677  1
  O  O20  1  0.325333  0.979910  0.366646  1
  O  O21  1  0.979910  0.366646  0.325333  1
  O  O22  1  0.366646  0.325333  0.979910  1
  O  O23  1  0.674667  0.020090  0.633354  1
  O  O24  1  0.020090  0.633354  0.674667  1
  O  O25  1  0.633354  0.674667  0.020090  1
  O  O26  1  0.758320  0.983594  0.903773  1
  O  O27  1  0.983594  0.903773  0.758320  1
  O  O28  1  0.670886  0.462506  0.801098  1
  O  O29  1  0.801098  0.670886  0.462506  1
  O  O30  1  0.462506  0.801098  0.670886  1
  O  O31  1  0.329114  0.537494  0.198902  1
  O  O32  1  0.198902  0.329114  0.537494  1
  O  O33  1  0.537494  0.198902  0.329114  1
  O  O34  1  0.096227  0.241680  0.016406  1
  O  O35  1  0.016406  0.096227  0.241680  1
  O  O36  1  0.241680  0.016406  0.096227  1
  O  O37  1  0.903773  0.758320  0.983594  1
