# generated using pymatgen
data_Sb12IrRu2Au
_symmetry_space_group_name_H-M   'P 1'
_cell_length_a   8.18724257
_cell_length_b   8.18569092
_cell_length_c   9.45241806
_cell_angle_alpha   54.60340499
_cell_angle_beta   54.82711701
_cell_angle_gamma   70.52958321
_symmetry_Int_Tables_number   1
_chemical_formula_structural   Sb12IrRu2Au
_chemical_formula_sum   'Sb12 Ir1 Ru2 Au1'
_cell_volume   422.10830987
_cell_formula_units_Z   1
loop_
 _symmetry_equiv_pos_site_id
 _symmetry_equiv_pos_as_xyz
  1  'x, y, z'
loop_
 _atom_site_type_symbol
 _atom_site_label
 _atom_site_symmetry_multiplicity
 _atom_site_fract_x
 _atom_site_fract_y
 _atom_site_fract_z
 _atom_site_occupancy
  Sb  Sb0  1  0.156444  0.156231  0.175139  1
  Sb  Sb1  1  0.843556  0.843769  0.824861  1
  Sb  Sb2  1  0.841278  0.856333  0.500896  1
  Sb  Sb3  1  0.158722  0.143667  0.499104  1
  Sb  Sb4  1  0.805217  0.500408  0.337121  1
  Sb  Sb5  1  0.194783  0.499592  0.662879  1
  Sb  Sb6  1  0.509506  0.820444  0.333090  1
  Sb  Sb7  1  0.490494  0.179556  0.666910  1
  Sb  Sb8  1  0.643449  0.337331  0.857471  1
  Sb  Sb9  1  0.356551  0.662669  0.142529  1
  Sb  Sb10  1  0.666779  0.336836  0.153617  1
  Sb  Sb11  1  0.333221  0.663164  0.846383  1
  Ir  Ir12  1  0.500000  0.000000  0.500000  1
  Ru  Ru13  1  0.000000  0.500000  0.000000  1
  Ru  Ru14  1  0.500000  0.000000  0.000000  1
  Au  Au15  1  0.000000  0.500000  0.500000  1
