# generated using pymatgen
data_Li6Gd3Y3(TeO6)4
_symmetry_space_group_name_H-M   'P 1'
_cell_length_a   10.81736628
_cell_length_b   10.81734502
_cell_length_c   10.81868300
_cell_angle_alpha   109.47524043
_cell_angle_beta   109.47532037
_cell_angle_gamma   109.45828551
_symmetry_Int_Tables_number   1
_chemical_formula_structural   Li6Gd3Y3(TeO6)4
_chemical_formula_sum   'Li12 Gd6 Y6 Te8 O48'
_cell_volume   974.58678957
_cell_formula_units_Z   2
loop_
 _symmetry_equiv_pos_site_id
 _symmetry_equiv_pos_as_xyz
  1  'x, y, z'
loop_
 _atom_site_type_symbol
 _atom_site_label
 _atom_site_symmetry_multiplicity
 _atom_site_fract_x
 _atom_site_fract_y
 _atom_site_fract_z
 _atom_site_occupancy
  Li  Li0  1  0.250117  0.374498  0.124343  1
  Li  Li1  1  0.374229  0.749845  0.124342  1
  Li  Li2  1  0.125456  0.875454  0.250001  1
  Li  Li3  1  0.624545  0.374547  0.250000  1
  Li  Li4  1  0.125502  0.249887  0.375657  1
  Li  Li5  1  0.750154  0.125773  0.375657  1
  Li  Li6  1  0.250125  0.875753  0.625622  1
  Li  Li7  1  0.875498  0.749870  0.625622  1
  Li  Li8  1  0.875434  0.125434  0.750000  1
  Li  Li9  1  0.374565  0.624566  0.749999  1
  Li  Li10  1  0.750131  0.624501  0.874376  1
  Li  Li11  1  0.624248  0.249875  0.874376  1
  Gd  Gd12  1  0.749655  0.874801  0.124392  1
  Gd  Gd13  1  0.874741  0.249596  0.124393  1
  Gd  Gd14  1  0.874999  0.624998  0.250000  1
  Gd  Gd15  1  0.375001  0.124999  0.250001  1
  Gd  Gd16  1  0.625203  0.750347  0.375608  1
  Gd  Gd17  1  0.250407  0.625259  0.375608  1
  Y  Y18  1  0.750397  0.375243  0.625596  1
  Y  Y19  1  0.375199  0.250354  0.625596  1
  Y  Y20  1  0.125000  0.375000  0.749999  1
  Y  Y21  1  0.625001  0.875000  0.750000  1
  Y  Y22  1  0.249647  0.124802  0.874404  1
  Y  Y23  1  0.124757  0.749603  0.874404  1
  Te  Te24  1  0.999521  0.998577  0.997805  1
  Te  Te25  1  0.498285  0.999232  0.997803  1
  Te  Te26  1  0.498263  0.498367  0.998267  1
  Te  Te27  1  0.000005  0.499900  0.998264  1
  Te  Te28  1  0.001635  0.001739  0.501734  1
  Te  Te29  1  0.500769  0.001713  0.502197  1
  Te  Te30  1  0.000099  0.499996  0.501736  1
  Te  Te31  1  0.501428  0.500483  0.502198  1
  O  O32  1  0.696311  0.617966  0.024308  1
  O  O33  1  0.827996  0.406342  0.024306  1
  O  O34  1  0.197094  0.170870  0.076131  1
  O  O35  1  0.379039  0.905261  0.076132  1
  O  O36  1  0.472946  0.171848  0.091273  1
  O  O37  1  0.118327  0.919422  0.091271  1
  O  O38  1  0.524276  0.696421  0.117866  1
  O  O39  1  0.093589  0.421444  0.117864  1
  O  O40  1  0.695672  0.077913  0.170999  1
  O  O41  1  0.975330  0.093088  0.170999  1
  O  O42  1  0.617832  0.524357  0.196265  1
  O  O43  1  0.078433  0.671908  0.196266  1
  O  O44  1  0.828091  0.421568  0.303734  1
  O  O45  1  0.975645  0.882169  0.303736  1
  O  O46  1  0.422087  0.804328  0.329000  1
  O  O47  1  0.406913  0.524671  0.329001  1
  O  O48  1  0.803580  0.975725  0.382135  1
  O  O49  1  0.078555  0.406411  0.382134  1
  O  O50  1  0.580578  0.381673  0.408729  1
  O  O51  1  0.328150  0.027053  0.408726  1
  O  O52  1  0.329130  0.302907  0.423869  1
  O  O53  1  0.594739  0.120960  0.423866  1
  O  O54  1  0.882036  0.803689  0.475691  1
  O  O55  1  0.093657  0.672003  0.475693  1
  O  O56  1  0.121165  0.199616  0.527911  1
  O  O57  1  0.906743  0.328293  0.527907  1
  O  O58  1  0.407717  0.881684  0.580514  1
  O  O59  1  0.672798  0.698831  0.580515  1
  O  O60  1  0.671862  0.974817  0.595641  1
  O  O61  1  0.423778  0.620824  0.595640  1
  O  O62  1  0.921841  0.593458  0.621335  1
  O  O63  1  0.199494  0.027877  0.621336  1
  O  O64  1  0.593929  0.472606  0.672731  1
  O  O65  1  0.578800  0.200123  0.672726  1
  O  O66  1  0.027787  0.121262  0.699615  1
  O  O67  1  0.171826  0.578353  0.699615  1
  O  O68  1  0.921647  0.328173  0.800384  1
  O  O69  1  0.378737  0.472214  0.800384  1
  O  O70  1  0.027393  0.906070  0.827268  1
  O  O71  1  0.299876  0.921199  0.827273  1
  O  O72  1  0.906543  0.578159  0.878664  1
  O  O73  1  0.472123  0.300506  0.878663  1
  O  O74  1  0.879177  0.076222  0.904362  1
  O  O75  1  0.525183  0.828138  0.904360  1
  O  O76  1  0.801170  0.827202  0.919485  1
  O  O77  1  0.618315  0.092284  0.919484  1
  O  O78  1  0.300384  0.378834  0.972089  1
  O  O79  1  0.171707  0.593257  0.972093  1
