# generated using pymatgen
data_DyY14Ho(InRh)4
_symmetry_space_group_name_H-M   'P 1'
_cell_length_a   9.70648941
_cell_length_b   9.71168781
_cell_length_c   9.70649065
_cell_angle_alpha   59.86171591
_cell_angle_beta   59.84456103
_cell_angle_gamma   59.86171610
_symmetry_Int_Tables_number   1
_chemical_formula_structural   DyY14Ho(InRh)4
_chemical_formula_sum   'Dy1 Y14 Ho1 In4 Rh4'
_cell_volume   644.88546289
_cell_formula_units_Z   1
loop_
 _symmetry_equiv_pos_site_id
 _symmetry_equiv_pos_as_xyz
  1  'x, y, z'
loop_
 _atom_site_type_symbol
 _atom_site_label
 _atom_site_symmetry_multiplicity
 _atom_site_fract_x
 _atom_site_fract_y
 _atom_site_fract_z
 _atom_site_occupancy
  Dy  Dy0  1  0.601169  0.200297  0.601169  1
  Y  Y1  1  0.189209  0.188651  0.812080  1
  Y  Y2  1  0.601620  0.602349  0.198344  1
  Y  Y3  1  0.440254  0.058067  0.440254  1
  Y  Y4  1  0.440243  0.440147  0.058412  1
  Y  Y5  1  0.811552  0.189011  0.811552  1
  Y  Y6  1  0.188759  0.812559  0.188759  1
  Y  Y7  1  0.439259  0.059727  0.060089  1
  Y  Y8  1  0.189010  0.812116  0.811458  1
  Y  Y9  1  0.060046  0.438998  0.060046  1
  Y  Y10  1  0.811458  0.812116  0.189010  1
  Y  Y11  1  0.198344  0.602349  0.601620  1
  Y  Y12  1  0.058412  0.440147  0.440243  1
  Y  Y13  1  0.060089  0.059727  0.439259  1
  Y  Y14  1  0.812080  0.188651  0.189209  1
  Ho  Ho15  1  0.597914  0.598456  0.597914  1
  In  In16  1  0.833344  0.833332  0.833344  1
  In  In17  1  0.832510  0.832713  0.501243  1
  In  In18  1  0.501243  0.832713  0.832510  1
  In  In19  1  0.832624  0.500831  0.832624  1
  Rh  Rh20  1  0.392882  0.822047  0.392882  1
  Rh  Rh21  1  0.392906  0.391189  0.392906  1
  Rh  Rh22  1  0.821372  0.391905  0.393703  1
  Rh  Rh23  1  0.393703  0.391905  0.821372  1
