# generated using pymatgen
data_Hf3BePd5
_symmetry_space_group_name_H-M   'P 1'
_cell_length_a   7.67914774
_cell_length_b   7.67914922
_cell_length_c   7.67914934
_cell_angle_alpha   125.25453765
_cell_angle_beta   123.82529502
_cell_angle_gamma   82.30659477
_symmetry_Int_Tables_number   1
_chemical_formula_structural   Hf3BePd5
_chemical_formula_sum   'Hf6 Be2 Pd10'
_cell_volume   295.23373036
_cell_formula_units_Z   2
loop_
 _symmetry_equiv_pos_site_id
 _symmetry_equiv_pos_as_xyz
  1  'x, y, z'
loop_
 _atom_site_type_symbol
 _atom_site_label
 _atom_site_symmetry_multiplicity
 _atom_site_fract_x
 _atom_site_fract_y
 _atom_site_fract_z
 _atom_site_occupancy
  Hf  Hf0  1  0.833453  0.050908  0.782544  1
  Hf  Hf1  1  0.231635  0.449092  0.782544  1
  Hf  Hf2  1  0.166547  0.949092  0.217456  1
  Hf  Hf3  1  0.404771  0.250000  0.154771  1
  Hf  Hf4  1  0.768365  0.550908  0.217456  1
  Hf  Hf5  1  0.595229  0.750000  0.845229  1
  Be  Be6  1  0.206535  0.750000  0.456535  1
  Be  Be7  1  0.793465  0.250000  0.543465  1
  Pd  Pd8  1  0.827052  0.594701  0.642991  1
  Pd  Pd9  1  0.548289  0.315938  0.642991  1
  Pd  Pd10  1  0.451711  0.094701  0.767650  1
  Pd  Pd11  1  0.827052  0.184062  0.232350  1
  Pd  Pd12  1  0.172948  0.405299  0.357009  1
  Pd  Pd13  1  0.451711  0.684062  0.357009  1
  Pd  Pd14  1  0.548289  0.905299  0.232350  1
  Pd  Pd15  1  0.172948  0.815938  0.767650  1
  Pd  Pd16  1  0.000000  0.000000  0.500000  1
  Pd  Pd17  1  0.000000  0.500000  0.000000  1
