# generated using pymatgen
data_Dy12AlIn(CoRu)2
_symmetry_space_group_name_H-M   'P 1'
_cell_length_a   8.37884930
_cell_length_b   8.37884935
_cell_length_c   8.37884958
_cell_angle_alpha   112.48344158
_cell_angle_beta   110.77120840
_cell_angle_gamma   105.24496259
_symmetry_Int_Tables_number   1
_chemical_formula_structural   Dy12AlIn(CoRu)2
_chemical_formula_sum   'Dy12 Al1 In1 Co2 Ru2'
_cell_volume   450.88682075
_cell_formula_units_Z   1
loop_
 _symmetry_equiv_pos_site_id
 _symmetry_equiv_pos_as_xyz
  1  'x, y, z'
loop_
 _atom_site_type_symbol
 _atom_site_label
 _atom_site_symmetry_multiplicity
 _atom_site_fract_x
 _atom_site_fract_y
 _atom_site_fract_z
 _atom_site_occupancy
  Dy  Dy0  1  0.436375  0.239869  0.196508  1
  Dy  Dy1  1  0.563625  0.760131  0.803492  1
  Dy  Dy2  1  0.043361  0.239869  0.803492  1
  Dy  Dy3  1  0.956639  0.760131  0.196508  1
  Dy  Dy4  1  0.181976  0.282300  0.464276  1
  Dy  Dy5  1  0.818024  0.717700  0.535724  1
  Dy  Dy6  1  0.181976  0.717700  0.899677  1
  Dy  Dy7  1  0.818024  0.282300  0.100323  1
  Dy  Dy8  1  0.321821  0.637212  0.315391  1
  Dy  Dy9  1  0.678179  0.362788  0.684609  1
  Dy  Dy10  1  0.321821  0.006429  0.684609  1
  Dy  Dy11  1  0.678179  0.993571  0.315391  1
  Al  Al12  1  0.000000  0.000000  0.000000  1
  In  In13  1  0.500000  0.500000  0.000000  1
  Co  Co14  1  0.111327  0.611327  0.500000  1
  Co  Co15  1  0.888673  0.388673  0.500000  1
  Ru  Ru16  1  0.325247  0.000000  0.325247  1
  Ru  Ru17  1  0.674753  0.000000  0.674753  1
