# generated using pymatgen
data_Y2Tm(SiNi3)2
_symmetry_space_group_name_H-M   'P 1'
_cell_length_a   7.57889234
_cell_length_b   7.57889334
_cell_length_c   7.57889275
_cell_angle_alpha   109.27817802
_cell_angle_beta   109.56783377
_cell_angle_gamma   109.56783023
_symmetry_Int_Tables_number   1
_chemical_formula_structural   Y2Tm(SiNi3)2
_chemical_formula_sum   'Y4 Tm2 Si4 Ni12'
_cell_volume   335.11330110
_cell_formula_units_Z   2
loop_
 _symmetry_equiv_pos_site_id
 _symmetry_equiv_pos_as_xyz
  1  'x, y, z'
loop_
 _atom_site_type_symbol
 _atom_site_label
 _atom_site_symmetry_multiplicity
 _atom_site_fract_x
 _atom_site_fract_y
 _atom_site_fract_z
 _atom_site_occupancy
  Y  Y0  1  0.283790  0.000000  0.283790  1
  Y  Y1  1  0.716210  0.000000  0.716210  1
  Y  Y2  1  0.283790  0.283790  0.000000  1
  Y  Y3  1  0.716210  0.716210  0.000000  1
  Tm  Tm4  1  0.000000  0.287915  0.287915  1
  Tm  Tm5  1  0.000000  0.712085  0.712085  1
  Si  Si6  1  0.500000  0.500000  0.500000  1
  Si  Si7  1  0.000000  0.000000  0.500000  1
  Si  Si8  1  0.000000  0.500000  0.000000  1
  Si  Si9  1  0.500000  0.000000  0.000000  1
  Ni  Ni10  1  0.664085  0.332042  0.332042  1
  Ni  Ni11  1  0.335915  0.667958  0.667958  1
  Ni  Ni12  1  0.000000  0.332042  0.667958  1
  Ni  Ni13  1  0.000000  0.667958  0.332042  1
  Ni  Ni14  1  0.328826  0.658457  0.329630  1
  Ni  Ni15  1  0.671174  0.000804  0.329630  1
  Ni  Ni16  1  0.671174  0.341543  0.670370  1
  Ni  Ni17  1  0.328826  0.999196  0.670370  1
  Ni  Ni18  1  0.328826  0.329630  0.658457  1
  Ni  Ni19  1  0.671174  0.670370  0.341543  1
  Ni  Ni20  1  0.671174  0.329630  0.000804  1
  Ni  Ni21  1  0.328826  0.670370  0.999196  1
