# generated using pymatgen
data_Tb5ScAl17Si7Os8
_symmetry_space_group_name_H-M   'P 1'
_cell_length_a   8.69347095
_cell_length_b   8.68145025
_cell_length_c   9.49355600
_cell_angle_alpha   90.00011253
_cell_angle_beta   89.99986821
_cell_angle_gamma   120.25614466
_symmetry_Int_Tables_number   1
_chemical_formula_structural   Tb5ScAl17Si7Os8
_chemical_formula_sum   'Tb5 Sc1 Al17 Si7 Os8'
_cell_volume   618.89687454
_cell_formula_units_Z   1
loop_
 _symmetry_equiv_pos_site_id
 _symmetry_equiv_pos_as_xyz
  1  'x, y, z'
loop_
 _atom_site_type_symbol
 _atom_site_label
 _atom_site_symmetry_multiplicity
 _atom_site_fract_x
 _atom_site_fract_y
 _atom_site_fract_z
 _atom_site_occupancy
  Tb  Tb0  1  0.191544  0.384933  0.250003  1
  Tb  Tb1  1  0.808758  0.617824  0.750003  1
  Tb  Tb2  1  0.614050  0.808595  0.249995  1
  Tb  Tb3  1  0.384267  0.189383  0.749997  1
  Tb  Tb4  1  0.195613  0.805866  0.250001  1
  Sc  Sc5  1  0.796225  0.194806  0.749991  1
  Al  Al6  1  0.162403  0.328798  0.579080  1
  Al  Al7  1  0.834059  0.669883  0.421648  1
  Al  Al8  1  0.672305  0.837213  0.578973  1
  Al  Al9  1  0.834062  0.669889  0.078355  1
  Al  Al10  1  0.331236  0.166136  0.423057  1
  Al  Al11  1  0.162407  0.328804  0.920922  1
  Al  Al12  1  0.164340  0.833634  0.576842  1
  Al  Al13  1  0.331244  0.166136  0.076949  1
  Al  Al14  1  0.835846  0.163878  0.426096  1
  Al  Al15  1  0.672313  0.837214  0.921031  1
  Al  Al16  1  0.835852  0.163880  0.073900  1
  Al  Al17  1  0.164345  0.833635  0.923160  1
  Al  Al18  1  0.122474  0.562155  0.750001  1
  Al  Al19  1  0.564858  0.434827  0.250005  1
  Al  Al20  1  0.438002  0.567244  0.750005  1
  Al  Al21  1  0.000467  0.998294  0.249999  1
  Al  Al22  1  0.992281  0.008438  0.750000  1
  Si  Si23  1  0.333991  0.664096  0.038303  1
  Si  Si24  1  0.667993  0.334460  0.956999  1
  Si  Si25  1  0.667983  0.334460  0.542999  1
  Si  Si26  1  0.333982  0.664094  0.461698  1
  Si  Si27  1  0.567544  0.125653  0.250002  1
  Si  Si28  1  0.438723  0.875068  0.750004  1
  Si  Si29  1  0.873710  0.432220  0.250002  1
  Os  Os30  1  0.502755  0.001842  0.999262  1
  Os  Os31  1  0.997876  0.498066  0.005442  1
  Os  Os32  1  0.502732  0.001820  0.500730  1
  Os  Os33  1  0.501140  0.499792  0.999512  1
  Os  Os34  1  0.997872  0.498062  0.494565  1
  Os  Os35  1  0.501164  0.499846  0.500478  1
  Os  Os36  1  0.001784  0.999536  0.999855  1
  Os  Os37  1  0.001798  0.999519  0.500137  1
