# generated using pymatgen
data_Ce3Sn(B2Ir5)2
_symmetry_space_group_name_H-M   'P 1'
_cell_length_a   5.56864900
_cell_length_b   5.56865005
_cell_length_c   10.41210800
_cell_angle_alpha   90.00000000
_cell_angle_beta   90.00000000
_cell_angle_gamma   119.99998782
_symmetry_Int_Tables_number   1
_chemical_formula_structural   Ce3Sn(B2Ir5)2
_chemical_formula_sum   'Ce3 Sn1 B4 Ir10'
_cell_volume   279.62057225
_cell_formula_units_Z   1
loop_
 _symmetry_equiv_pos_site_id
 _symmetry_equiv_pos_as_xyz
  1  'x, y, z'
loop_
 _atom_site_type_symbol
 _atom_site_label
 _atom_site_symmetry_multiplicity
 _atom_site_fract_x
 _atom_site_fract_y
 _atom_site_fract_z
 _atom_site_occupancy
  Ce  Ce0  1  0.000000  0.000000  0.657893  1
  Ce  Ce1  1  0.000000  0.000000  0.342107  1
  Ce  Ce2  1  0.000000  0.000000  0.000000  1
  Sn  Sn3  1  0.666667  0.333333  0.000000  1
  B  B4  1  0.333333  0.666667  0.645727  1
  B  B5  1  0.666667  0.333333  0.650130  1
  B  B6  1  0.666667  0.333333  0.349870  1
  B  B7  1  0.333333  0.666667  0.354273  1
  Ir  Ir8  1  0.500523  0.001045  0.500000  1
  Ir  Ir9  1  0.500523  0.499477  0.500000  1
  Ir  Ir10  1  0.998955  0.499477  0.500000  1
  Ir  Ir11  1  0.497084  0.994168  0.216105  1
  Ir  Ir12  1  0.497084  0.502916  0.216105  1
  Ir  Ir13  1  0.005832  0.502916  0.216105  1
  Ir  Ir14  1  0.497084  0.994168  0.783895  1
  Ir  Ir15  1  0.497084  0.502916  0.783895  1
  Ir  Ir16  1  0.005832  0.502916  0.783895  1
  Ir  Ir17  1  0.333333  0.666667  0.000000  1
