# generated using pymatgen
data_Gd4Al24Pt7Au2
_symmetry_space_group_name_H-M   'P 1'
_cell_length_a   7.56427506
_cell_length_b   7.57842182
_cell_length_c   13.15466000
_cell_angle_alpha   84.53734929
_cell_angle_beta   79.00214300
_cell_angle_gamma   59.93028917
_symmetry_Int_Tables_number   1
_chemical_formula_structural   Gd4Al24Pt7Au2
_chemical_formula_sum   'Gd4 Al24 Pt7 Au2'
_cell_volume   640.62006122
_cell_formula_units_Z   1
loop_
 _symmetry_equiv_pos_site_id
 _symmetry_equiv_pos_as_xyz
  1  'x, y, z'
loop_
 _atom_site_type_symbol
 _atom_site_label
 _atom_site_symmetry_multiplicity
 _atom_site_fract_x
 _atom_site_fract_y
 _atom_site_fract_z
 _atom_site_occupancy
  Gd  Gd0  1  0.392737  0.169026  0.809096  1
  Gd  Gd1  1  0.607263  0.830974  0.190904  1
  Gd  Gd2  1  0.733295  0.499372  0.809777  1
  Gd  Gd3  1  0.266705  0.500628  0.190223  1
  Al  Al4  1  0.683309  0.834458  0.945115  1
  Al  Al5  1  0.316691  0.165542  0.054885  1
  Al  Al6  1  0.145588  0.839565  0.561973  1
  Al  Al7  1  0.854412  0.160435  0.438027  1
  Al  Al8  1  0.488241  0.159363  0.559324  1
  Al  Al9  1  0.511759  0.840637  0.440676  1
  Al  Al10  1  0.222787  0.160545  0.326462  1
  Al  Al11  1  0.777213  0.839455  0.673538  1
  Al  Al12  1  0.440304  0.506765  0.673666  1
  Al  Al13  1  0.559696  0.493235  0.326334  1
  Al  Al14  1  0.109090  0.154776  0.672280  1
  Al  Al15  1  0.890910  0.845224  0.327720  1
  Al  Al16  1  0.352608  0.499312  0.944786  1
  Al  Al17  1  0.647392  0.500688  0.055214  1
  Al  Al18  1  0.015144  0.167260  0.954138  1
  Al  Al19  1  0.984856  0.832740  0.045862  1
  Al  Al20  1  0.195654  0.499330  0.437617  1
  Al  Al21  1  0.804346  0.500670  0.562383  1
  Al  Al22  1  0.733842  0.164170  0.183092  1
  Al  Al23  1  0.266158  0.835830  0.816908  1
  Al  Al24  1  0.060158  0.634604  0.817846  1
  Al  Al25  1  0.939842  0.365396  0.182154  1
  Al  Al26  1  0.854996  0.042099  0.816438  1
  Al  Al27  1  0.145004  0.957901  0.183562  1
  Pt  Pt28  1  0.657741  0.171464  0.999829  1
  Pt  Pt29  1  0.342259  0.828536  0.000171  1
  Pt  Pt30  1  0.538149  0.166840  0.362547  1
  Pt  Pt31  1  0.461851  0.833160  0.637453  1
  Pt  Pt32  1  0.780576  0.174474  0.636420  1
  Pt  Pt33  1  0.219424  0.825526  0.363580  1
  Pt  Pt34  1  0.000000  0.500000  0.000000  1
  Au  Au35  1  0.120243  0.492013  0.637336  1
  Au  Au36  1  0.879757  0.507987  0.362664  1
