# generated using pymatgen
data_CaNi(Sb4Ru)3
_symmetry_space_group_name_H-M   'P 1'
_cell_length_a   8.09546211
_cell_length_b   8.09546275
_cell_length_c   8.15244300
_cell_angle_alpha   109.61386411
_cell_angle_beta   109.61386573
_cell_angle_gamma   109.32820157
_symmetry_Int_Tables_number   1
_chemical_formula_structural   CaNi(Sb4Ru)3
_chemical_formula_sum   'Ca1 Ni1 Sb12 Ru3'
_cell_volume   410.56471858
_cell_formula_units_Z   1
loop_
 _symmetry_equiv_pos_site_id
 _symmetry_equiv_pos_as_xyz
  1  'x, y, z'
loop_
 _atom_site_type_symbol
 _atom_site_label
 _atom_site_symmetry_multiplicity
 _atom_site_fract_x
 _atom_site_fract_y
 _atom_site_fract_z
 _atom_site_occupancy
  Ca  Ca0  1  0.000000  0.000000  0.000000  1
  Ni  Ni1  1  0.000000  0.000000  0.500000  1
  Sb  Sb2  1  0.156470  0.818880  0.659791  1
  Sb  Sb3  1  0.843530  0.181120  0.340209  1
  Sb  Sb4  1  0.842636  0.502819  0.661353  1
  Sb  Sb5  1  0.157364  0.497181  0.338647  1
  Sb  Sb6  1  0.818880  0.662411  0.159090  1
  Sb  Sb7  1  0.181120  0.337589  0.840910  1
  Sb  Sb8  1  0.502819  0.660183  0.841466  1
  Sb  Sb9  1  0.497181  0.339817  0.158534  1
  Sb  Sb10  1  0.660183  0.157364  0.818718  1
  Sb  Sb11  1  0.339817  0.842636  0.181282  1
  Sb  Sb12  1  0.662411  0.843530  0.503321  1
  Sb  Sb13  1  0.337589  0.156470  0.496679  1
  Ru  Ru14  1  0.500000  0.000000  0.000000  1
  Ru  Ru15  1  0.000000  0.500000  0.000000  1
  Ru  Ru16  1  0.500000  0.500000  0.500000  1
