# generated using pymatgen
data_Y4ErGe3P9Ir19
_symmetry_space_group_name_H-M   'P 1'
_cell_length_a   12.82554100
_cell_length_b   12.82554097
_cell_length_c   3.99208700
_cell_angle_alpha   90.00000000
_cell_angle_beta   90.00000000
_cell_angle_gamma   120.00000266
_symmetry_Int_Tables_number   1
_chemical_formula_structural   Y4ErGe3P9Ir19
_chemical_formula_sum   'Y4 Er1 Ge3 P9 Ir19'
_cell_volume   568.69839568
_cell_formula_units_Z   1
loop_
 _symmetry_equiv_pos_site_id
 _symmetry_equiv_pos_as_xyz
  1  'x, y, z'
loop_
 _atom_site_type_symbol
 _atom_site_label
 _atom_site_symmetry_multiplicity
 _atom_site_fract_x
 _atom_site_fract_y
 _atom_site_fract_z
 _atom_site_occupancy
  Y  Y0  1  0.666667  0.333333  0.000000  1
  Y  Y1  1  0.816709  0.814560  0.500000  1
  Y  Y2  1  0.185440  0.002149  0.500000  1
  Y  Y3  1  0.997851  0.183291  0.500000  1
  Er  Er4  1  0.333333  0.666667  0.000000  1
  Ge  Ge5  1  0.677152  0.159555  0.500000  1
  Ge  Ge6  1  0.840445  0.517598  0.500000  1
  Ge  Ge7  1  0.482402  0.322848  0.500000  1
  P  P8  1  0.177414  0.694517  0.500000  1
  P  P9  1  0.517104  0.822586  0.500000  1
  P  P10  1  0.305483  0.482896  0.500000  1
  P  P11  1  0.645456  0.639758  0.000000  1
  P  P12  1  0.360242  0.005699  0.000000  1
  P  P13  1  0.994301  0.354544  0.000000  1
  P  P14  1  0.174497  0.181505  0.000000  1
  P  P15  1  0.818495  0.992993  0.000000  1
  P  P16  1  0.007007  0.825503  0.000000  1
  Ir  Ir17  1  0.808515  0.171071  0.000000  1
  Ir  Ir18  1  0.828929  0.637444  0.000000  1
  Ir  Ir19  1  0.362556  0.191485  0.000000  1
  Ir  Ir20  1  0.188777  0.807731  0.000000  1
  Ir  Ir21  1  0.618954  0.811223  0.000000  1
  Ir  Ir22  1  0.192269  0.381046  0.000000  1
  Ir  Ir23  1  0.465208  0.459866  0.000000  1
  Ir  Ir24  1  0.540134  0.005343  0.000000  1
  Ir  Ir25  1  0.994657  0.534792  0.000000  1
  Ir  Ir26  1  0.270544  0.282479  0.500000  1
  Ir  Ir27  1  0.717521  0.988065  0.500000  1
  Ir  Ir28  1  0.011935  0.729456  0.500000  1
  Ir  Ir29  1  0.877317  0.350373  0.500000  1
  Ir  Ir30  1  0.649627  0.526945  0.500000  1
  Ir  Ir31  1  0.473055  0.122683  0.500000  1
  Ir  Ir32  1  0.367331  0.867010  0.500000  1
  Ir  Ir33  1  0.499681  0.632669  0.500000  1
  Ir  Ir34  1  0.132990  0.500319  0.500000  1
  Ir  Ir35  1  0.000000  0.000000  0.000000  1
