# generated using pymatgen
data_Ta8Re3B8W
_symmetry_space_group_name_H-M   'P 1'
_cell_length_a   3.31234900
_cell_length_b   6.06197801
_cell_length_c   12.11889240
_cell_angle_alpha   90.03108386
_cell_angle_beta   90.00000000
_cell_angle_gamma   90.00000000
_symmetry_Int_Tables_number   1
_chemical_formula_structural   Ta8Re3B8W
_chemical_formula_sum   'Ta8 Re3 B8 W1'
_cell_volume   243.33989240
_cell_formula_units_Z   1
loop_
 _symmetry_equiv_pos_site_id
 _symmetry_equiv_pos_as_xyz
  1  'x, y, z'
loop_
 _atom_site_type_symbol
 _atom_site_label
 _atom_site_symmetry_multiplicity
 _atom_site_fract_x
 _atom_site_fract_y
 _atom_site_fract_z
 _atom_site_occupancy
  Ta  Ta0  1  0.500000  0.823908  0.087645  1
  Ta  Ta1  1  0.500000  0.825128  0.587269  1
  Ta  Ta2  1  0.500000  0.176092  0.912355  1
  Ta  Ta3  1  0.500000  0.174872  0.412731  1
  Ta  Ta4  1  0.500000  0.675592  0.837473  1
  Ta  Ta5  1  0.500000  0.674971  0.337811  1
  Ta  Ta6  1  0.500000  0.324408  0.162527  1
  Ta  Ta7  1  0.500000  0.325029  0.662189  1
  Re  Re8  1  0.000000  0.500000  0.500000  1
  Re  Re9  1  0.000000  0.000659  0.749128  1
  Re  Re10  1  0.000000  0.999341  0.250872  1
  B  B11  1  0.000000  0.387078  0.805211  1
  B  B12  1  0.000000  0.387885  0.307353  1
  B  B13  1  0.000000  0.612922  0.194789  1
  B  B14  1  0.000000  0.612115  0.692647  1
  B  B15  1  0.000000  0.111926  0.056519  1
  B  B16  1  0.000000  0.112920  0.556332  1
  B  B17  1  0.000000  0.888074  0.943481  1
  B  B18  1  0.000000  0.887080  0.443668  1
  W  W19  1  0.000000  0.500000  0.000000  1
