# generated using pymatgen
data_Rb(S8Br)3
_symmetry_space_group_name_H-M   'P 1'
_cell_length_a   4.87582607
_cell_length_b   14.57280172
_cell_length_c   14.99761957
_cell_angle_alpha   119.92060942
_cell_angle_beta   95.10632202
_cell_angle_gamma   97.04897687
_symmetry_Int_Tables_number   1
_chemical_formula_structural   Rb(S8Br)3
_chemical_formula_sum   'Rb1 S24 Br3'
_cell_volume   902.54841492
_cell_formula_units_Z   1
loop_
 _symmetry_equiv_pos_site_id
 _symmetry_equiv_pos_as_xyz
  1  'x, y, z'
loop_
 _atom_site_type_symbol
 _atom_site_label
 _atom_site_symmetry_multiplicity
 _atom_site_fract_x
 _atom_site_fract_y
 _atom_site_fract_z
 _atom_site_occupancy
  Rb  Rb0  1  0.567920  0.999907  0.051416  1
  S  S1  1  0.354580  0.396837  0.995312  1
  S  S2  1  0.570238  0.731151  0.005055  1
  S  S3  1  0.261886  0.520909  0.129668  1
  S  S4  1  0.404800  0.755670  0.135746  1
  S  S5  1  0.560719  0.658385  0.182928  1
  S  S6  1  0.654959  0.378604  0.251035  1
  S  S7  1  0.838132  0.269176  0.273525  1
  S  S8  1  0.899621  0.530880  0.345368  1
  S  S9  1  0.130950  0.865506  0.389745  1
  S  S10  1  0.648872  0.244095  0.379590  1
  S  S11  1  0.370186  0.000188  0.404825  1
  S  S12  1  0.366918  0.807181  0.464299  1
  S  S13  1  0.734612  0.612243  0.479588  1
  S  S14  1  0.264084  0.134293  0.524127  1
  S  S15  1  0.902850  0.341459  0.523866  1
  S  S16  1  0.956800  0.603009  0.598028  1
  S  S17  1  0.265563  0.863585  0.610922  1
  S  S18  1  0.740848  0.478459  0.608206  1
  S  S19  1  0.558601  0.193363  0.657170  1
  S  S20  1  0.557272  0.000217  0.717011  1
  S  S21  1  0.402005  0.136662  0.747451  1
  S  S22  1  0.370618  0.469415  0.815071  1
  S  S23  1  0.278348  0.621553  0.872884  1
  S  S24  1  0.123582  0.387520  0.867554  1
  Br  Br25  1  0.080715  0.095673  0.940700  1
  Br  Br26  1  0.103093  0.999931  0.183742  1
  Br  Br27  1  0.984142  0.904126  0.845169  1
