# generated using pymatgen
data_Ba3Sc2TeO5
_symmetry_space_group_name_H-M   'P 1'
_cell_length_a   4.24105500
_cell_length_b   4.24105500
_cell_length_c   12.02134600
_cell_angle_alpha   90.00000000
_cell_angle_beta   90.00000000
_cell_angle_gamma   90.00000000
_symmetry_Int_Tables_number   1
_chemical_formula_structural   Ba3Sc2TeO5
_chemical_formula_sum   'Ba3 Sc2 Te1 O5'
_cell_volume   216.22251100
_cell_formula_units_Z   1
loop_
 _symmetry_equiv_pos_site_id
 _symmetry_equiv_pos_as_xyz
  1  'x, y, z'
loop_
 _atom_site_type_symbol
 _atom_site_label
 _atom_site_symmetry_multiplicity
 _atom_site_fract_x
 _atom_site_fract_y
 _atom_site_fract_z
 _atom_site_occupancy
  Ba  Ba0  1  0.000000  0.000000  0.000000  1
  Ba  Ba1  1  0.000000  0.000000  0.668401  1
  Ba  Ba2  1  0.000000  0.000000  0.331599  1
  Sc  Sc3  1  0.500000  0.500000  0.835196  1
  Sc  Sc4  1  0.500000  0.500000  0.164804  1
  Te  Te5  1  0.500000  0.500000  0.500000  1
  O  O6  1  0.500000  0.000000  0.812607  1
  O  O7  1  0.000000  0.500000  0.812607  1
  O  O8  1  0.500000  0.000000  0.187393  1
  O  O9  1  0.000000  0.500000  0.187393  1
  O  O10  1  0.500000  0.500000  0.000000  1
