# generated using pymatgen
data_Nd4In2Cu3Ni
_symmetry_space_group_name_H-M   'P 1'
_cell_length_a   7.76474564
_cell_length_b   7.76474564
_cell_length_c   3.74138400
_cell_angle_alpha   90.00000000
_cell_angle_beta   90.00000000
_cell_angle_gamma   89.67807013
_symmetry_Int_Tables_number   1
_chemical_formula_structural   Nd4In2Cu3Ni
_chemical_formula_sum   'Nd4 In2 Cu3 Ni1'
_cell_volume   225.56925050
_cell_formula_units_Z   1
loop_
 _symmetry_equiv_pos_site_id
 _symmetry_equiv_pos_as_xyz
  1  'x, y, z'
loop_
 _atom_site_type_symbol
 _atom_site_label
 _atom_site_symmetry_multiplicity
 _atom_site_fract_x
 _atom_site_fract_y
 _atom_site_fract_z
 _atom_site_occupancy
  Nd  Nd0  1  0.666015  0.177928  0.500000  1
  Nd  Nd1  1  0.322072  0.833985  0.500000  1
  Nd  Nd2  1  0.184784  0.315216  0.500000  1
  Nd  Nd3  1  0.824624  0.675376  0.500000  1
  In  In4  1  0.499061  0.501221  0.000000  1
  In  In5  1  0.998779  0.000939  0.000000  1
  Cu  Cu6  1  0.120059  0.616473  0.000000  1
  Cu  Cu7  1  0.883527  0.379941  0.000000  1
  Cu  Cu8  1  0.618417  0.881583  0.000000  1
  Ni  Ni9  1  0.382661  0.117339  0.000000  1
