# generated using pymatgen
data_YHo11Ir3Pd
_symmetry_space_group_name_H-M   'P 1'
_cell_length_a   6.39654118
_cell_length_b   7.18461001
_cell_length_c   9.30138000
_cell_angle_alpha   90.00000000
_cell_angle_beta   90.00000000
_cell_angle_gamma   89.96490113
_symmetry_Int_Tables_number   1
_chemical_formula_structural   YHo11Ir3Pd
_chemical_formula_sum   'Y1 Ho11 Ir3 Pd1'
_cell_volume   427.46022058
_cell_formula_units_Z   1
loop_
 _symmetry_equiv_pos_site_id
 _symmetry_equiv_pos_as_xyz
  1  'x, y, z'
loop_
 _atom_site_type_symbol
 _atom_site_label
 _atom_site_symmetry_multiplicity
 _atom_site_fract_x
 _atom_site_fract_y
 _atom_site_fract_z
 _atom_site_occupancy
  Y  Y0  1  0.865348  0.524558  0.250000  1
  Ho  Ho1  1  0.333873  0.675518  0.059529  1
  Ho  Ho2  1  0.173909  0.183438  0.440667  1
  Ho  Ho3  1  0.674182  0.320454  0.563504  1
  Ho  Ho4  1  0.824208  0.821901  0.934669  1
  Ho  Ho5  1  0.674182  0.320454  0.936496  1
  Ho  Ho6  1  0.824208  0.821901  0.565331  1
  Ho  Ho7  1  0.333873  0.675518  0.440471  1
  Ho  Ho8  1  0.173909  0.183438  0.059333  1
  Ho  Ho9  1  0.625697  0.037246  0.250000  1
  Ho  Ho10  1  0.129856  0.466857  0.750000  1
  Ho  Ho11  1  0.368838  0.965626  0.750000  1
  Ir  Ir12  1  0.446771  0.383765  0.250000  1
  Ir  Ir13  1  0.954193  0.116408  0.750000  1
  Ir  Ir14  1  0.544818  0.615720  0.750000  1
  Pd  Pd15  1  0.052135  0.887199  0.250000  1
