# generated using pymatgen
data_La11Pr5Cd4Os3Pt
_symmetry_space_group_name_H-M   'P 1'
_cell_length_a   10.07076722
_cell_length_b   10.13565903
_cell_length_c   10.13565789
_cell_angle_alpha   59.87234719
_cell_angle_beta   59.56009732
_cell_angle_gamma   59.56010194
_symmetry_Int_Tables_number   1
_chemical_formula_structural   La11Pr5Cd4Os3Pt
_chemical_formula_sum   'La11 Pr5 Cd4 Os3 Pt1'
_cell_volume   725.96641024
_cell_formula_units_Z   1
loop_
 _symmetry_equiv_pos_site_id
 _symmetry_equiv_pos_as_xyz
  1  'x, y, z'
loop_
 _atom_site_type_symbol
 _atom_site_label
 _atom_site_symmetry_multiplicity
 _atom_site_fract_x
 _atom_site_fract_y
 _atom_site_fract_z
 _atom_site_occupancy
  La  La0  1  0.342720  0.348615  0.348615  1
  La  La1  1  0.342791  0.349026  0.957688  1
  La  La2  1  0.342791  0.957688  0.349026  1
  La  La3  1  0.963328  0.344819  0.344819  1
  La  La4  1  0.814881  0.191642  0.191642  1
  La  La5  1  0.189639  0.810408  0.810408  1
  La  La6  1  0.190851  0.810273  0.189078  1
  La  La7  1  0.814994  0.191178  0.802166  1
  La  La8  1  0.190851  0.189078  0.810273  1
  La  La9  1  0.814994  0.802166  0.191178  1
  La  La10  1  0.939279  0.560724  0.560724  1
  Pr  Pr11  1  0.558850  0.938501  0.938501  1
  Pr  Pr12  1  0.558296  0.938995  0.565507  1
  Pr  Pr13  1  0.938079  0.561202  0.940375  1
  Pr  Pr14  1  0.558296  0.565507  0.938995  1
  Pr  Pr15  1  0.938079  0.940375  0.561202  1
  Cd  Cd16  1  0.578856  0.579619  0.579619  1
  Cd  Cd17  1  0.579597  0.580075  0.260072  1
  Cd  Cd18  1  0.579597  0.260072  0.580075  1
  Cd  Cd19  1  0.260733  0.579808  0.579808  1
  Os  Os20  1  0.141563  0.137747  0.137747  1
  Os  Os21  1  0.141242  0.138283  0.583499  1
  Os  Os22  1  0.141242  0.583499  0.138283  1
  Pt  Pt23  1  0.578450  0.140699  0.140699  1
