# generated using pymatgen
data_La5CdGaRu3
_symmetry_space_group_name_H-M   'P 1'
_cell_length_a   8.72655850
_cell_length_b   8.72655899
_cell_length_c   8.66081300
_cell_angle_alpha   109.65040503
_cell_angle_beta   109.36875865
_cell_angle_gamma   109.70060694
_symmetry_Int_Tables_number   1
_chemical_formula_structural   La5CdGaRu3
_chemical_formula_sum   'La10 Cd2 Ga2 Ru6'
_cell_volume   505.78744997
_cell_formula_units_Z   2
loop_
 _symmetry_equiv_pos_site_id
 _symmetry_equiv_pos_as_xyz
  1  'x, y, z'
loop_
 _atom_site_type_symbol
 _atom_site_label
 _atom_site_symmetry_multiplicity
 _atom_site_fract_x
 _atom_site_fract_y
 _atom_site_fract_z
 _atom_site_occupancy
  La  La0  1  0.241344  0.684632  0.435932  1
  La  La1  1  0.748700  0.805413  0.064069  1
  La  La2  1  0.435561  0.247664  0.690149  1
  La  La3  1  0.698085  0.448086  0.250000  1
  La  La4  1  0.057515  0.745409  0.809851  1
  La  La5  1  0.817080  0.067080  0.750000  1
  La  La6  1  0.206524  0.206721  0.204889  1
  La  La7  1  0.501832  0.001636  0.295111  1
  La  La8  1  0.284005  0.500731  0.999918  1
  La  La9  1  0.000812  0.284086  0.500083  1
  Cd  Cd10  1  0.502897  0.000997  0.916099  1
  Cd  Cd11  1  0.584898  0.586796  0.583901  1
  Ga  Ga12  1  0.912947  0.501382  0.000313  1
  Ga  Ga13  1  0.001067  0.912633  0.499688  1
  Ru  Ru14  1  0.237423  0.126721  0.865925  1
  Ru  Ru15  1  0.760796  0.371497  0.634074  1
  Ru  Ru16  1  0.897304  0.266262  0.128383  1
  Ru  Ru17  1  0.117230  0.867230  0.250001  1
  Ru  Ru18  1  0.637879  0.768921  0.371616  1
  Ru  Ru19  1  0.356105  0.606105  0.750000  1
