# generated using pymatgen
data_Pm2NbRh3
_symmetry_space_group_name_H-M   'P 1'
_cell_length_a   5.29471516
_cell_length_b   5.78107700
_cell_length_c   5.78066628
_cell_angle_alpha   59.98044538
_cell_angle_beta   56.92110571
_cell_angle_gamma   56.91785005
_symmetry_Int_Tables_number   1
_chemical_formula_structural   Pm2NbRh3
_chemical_formula_sum   'Pm2 Nb1 Rh3'
_cell_volume   118.95459633
_cell_formula_units_Z   1
loop_
 _symmetry_equiv_pos_site_id
 _symmetry_equiv_pos_as_xyz
  1  'x, y, z'
loop_
 _atom_site_type_symbol
 _atom_site_label
 _atom_site_symmetry_multiplicity
 _atom_site_fract_x
 _atom_site_fract_y
 _atom_site_fract_z
 _atom_site_occupancy
  Pm  Pm0  1  0.756066  0.748024  0.747969  1
  Pm  Pm1  1  0.993934  0.001976  0.002031  1
  Nb  Nb2  1  0.875000  0.375000  0.375000  1
  Rh  Rh3  1  0.375000  0.875000  0.375000  1
  Rh  Rh4  1  0.375000  0.375000  0.875000  1
  Rh  Rh5  1  0.375000  0.375000  0.375000  1
