# generated using pymatgen
data_Zr10InGa2Pb5
_symmetry_space_group_name_H-M   'P 1'
_cell_length_a   8.84349527
_cell_length_b   8.84349563
_cell_length_c   5.96629900
_cell_angle_alpha   90.00000000
_cell_angle_beta   90.00000000
_cell_angle_gamma   119.97155963
_symmetry_Int_Tables_number   1
_chemical_formula_structural   Zr10InGa2Pb5
_chemical_formula_sum   'Zr10 In1 Ga2 Pb5'
_cell_volume   404.21083443
_cell_formula_units_Z   1
loop_
 _symmetry_equiv_pos_site_id
 _symmetry_equiv_pos_as_xyz
  1  'x, y, z'
loop_
 _atom_site_type_symbol
 _atom_site_label
 _atom_site_symmetry_multiplicity
 _atom_site_fract_x
 _atom_site_fract_y
 _atom_site_fract_z
 _atom_site_occupancy
  Zr  Zr0  1  0.665066  0.333711  0.998866  1
  Zr  Zr1  1  0.333711  0.665066  0.998866  1
  Zr  Zr2  1  0.333711  0.665066  0.501134  1
  Zr  Zr3  1  0.665066  0.333711  0.501134  1
  Zr  Zr4  1  0.737143  0.737143  0.750000  1
  Zr  Zr5  1  0.263338  0.002375  0.750000  1
  Zr  Zr6  1  0.002375  0.263338  0.750000  1
  Zr  Zr7  1  0.262154  0.262154  0.250000  1
  Zr  Zr8  1  0.738152  0.000012  0.250000  1
  Zr  Zr9  1  0.000012  0.738152  0.250000  1
  In  In10  1  0.387344  0.387344  0.750000  1
  Ga  Ga11  1  0.000599  0.000599  0.999614  1
  Ga  Ga12  1  0.000599  0.000599  0.500386  1
  Pb  Pb13  1  0.612113  0.000568  0.750000  1
  Pb  Pb14  1  0.000568  0.612113  0.750000  1
  Pb  Pb15  1  0.610965  0.610965  0.250000  1
  Pb  Pb16  1  0.387879  0.999205  0.250000  1
  Pb  Pb17  1  0.999205  0.387879  0.250000  1
