# generated using pymatgen
data_Hf16Fe3NiIr4
_symmetry_space_group_name_H-M   'P 1'
_cell_length_a   8.59050357
_cell_length_b   8.59050285
_cell_length_c   8.59050300
_cell_angle_alpha   60.12057359
_cell_angle_beta   60.12057633
_cell_angle_gamma   60.12057965
_symmetry_Int_Tables_number   1
_chemical_formula_structural   Hf16Fe3NiIr4
_chemical_formula_sum   'Hf16 Fe3 Ni1 Ir4'
_cell_volume   449.49570203
_cell_formula_units_Z   1
loop_
 _symmetry_equiv_pos_site_id
 _symmetry_equiv_pos_as_xyz
  1  'x, y, z'
loop_
 _atom_site_type_symbol
 _atom_site_label
 _atom_site_symmetry_multiplicity
 _atom_site_fract_x
 _atom_site_fract_y
 _atom_site_fract_z
 _atom_site_occupancy
  Hf  Hf0  1  0.684387  0.106232  0.106232  1
  Hf  Hf1  1  0.106232  0.684387  0.106232  1
  Hf  Hf2  1  0.106232  0.106232  0.684387  1
  Hf  Hf3  1  0.103003  0.103003  0.103003  1
  Hf  Hf4  1  0.311816  0.311816  0.688183  1
  Hf  Hf5  1  0.687378  0.687378  0.313535  1
  Hf  Hf6  1  0.311816  0.688183  0.311816  1
  Hf  Hf7  1  0.687378  0.313535  0.687378  1
  Hf  Hf8  1  0.688183  0.311816  0.311816  1
  Hf  Hf9  1  0.313535  0.687378  0.687378  1
  Hf  Hf10  1  0.948399  0.948399  0.547103  1
  Hf  Hf11  1  0.554800  0.554800  0.946302  1
  Hf  Hf12  1  0.948399  0.547103  0.948399  1
  Hf  Hf13  1  0.554800  0.946302  0.554800  1
  Hf  Hf14  1  0.547103  0.948399  0.948399  1
  Hf  Hf15  1  0.946302  0.554800  0.554800  1
  Fe  Fe16  1  0.325104  0.891387  0.891387  1
  Fe  Fe17  1  0.891387  0.325104  0.891387  1
  Fe  Fe18  1  0.891387  0.891387  0.325104  1
  Ni  Ni19  1  0.892288  0.892288  0.892288  1
  Ir  Ir20  1  0.996864  0.334433  0.334433  1
  Ir  Ir21  1  0.334433  0.996864  0.334433  1
  Ir  Ir22  1  0.334433  0.334433  0.996864  1
  Ir  Ir23  1  0.334342  0.334342  0.334342  1
