# generated using pymatgen
data_YbYCo2(Os2C)2
_symmetry_space_group_name_H-M   'P 1'
_cell_length_a   5.58352951
_cell_length_b   5.58352906
_cell_length_c   7.45263200
_cell_angle_alpha   90.00000000
_cell_angle_beta   90.00000000
_cell_angle_gamma   140.06516223
_symmetry_Int_Tables_number   1
_chemical_formula_structural   YbYCo2(Os2C)2
_chemical_formula_sum   'Yb1 Y1 Co2 Os4 C2'
_cell_volume   149.14388730
_cell_formula_units_Z   1
loop_
 _symmetry_equiv_pos_site_id
 _symmetry_equiv_pos_as_xyz
  1  'x, y, z'
loop_
 _atom_site_type_symbol
 _atom_site_label
 _atom_site_symmetry_multiplicity
 _atom_site_fract_x
 _atom_site_fract_y
 _atom_site_fract_z
 _atom_site_occupancy
  Yb  Yb0  1  0.535463  0.464537  0.250000  1
  Y  Y1  1  0.464862  0.535138  0.750000  1
  Co  Co2  1  0.262748  0.737252  0.250000  1
  Co  Co3  1  0.737085  0.262915  0.750000  1
  Os  Os4  1  0.824981  0.175019  0.062202  1
  Os  Os5  1  0.175136  0.824864  0.940319  1
  Os  Os6  1  0.175136  0.824864  0.559681  1
  Os  Os7  1  0.824981  0.175019  0.437798  1
  C  C8  1  0.999804  0.000196  0.998615  1
  C  C9  1  0.999804  0.000196  0.501385  1
