# generated using pymatgen
data_Tb4MnFe4(P4Ir5)3
_symmetry_space_group_name_H-M   'P 1'
_cell_length_a   3.92242300
_cell_length_b   10.69634954
_cell_length_c   12.41572206
_cell_angle_alpha   90.16028383
_cell_angle_beta   90.00000000
_cell_angle_gamma   90.00000000
_symmetry_Int_Tables_number   1
_chemical_formula_structural   Tb4MnFe4(P4Ir5)3
_chemical_formula_sum   'Tb4 Mn1 Fe4 P12 Ir15'
_cell_volume   520.90712257
_cell_formula_units_Z   1
loop_
 _symmetry_equiv_pos_site_id
 _symmetry_equiv_pos_as_xyz
  1  'x, y, z'
loop_
 _atom_site_type_symbol
 _atom_site_label
 _atom_site_symmetry_multiplicity
 _atom_site_fract_x
 _atom_site_fract_y
 _atom_site_fract_z
 _atom_site_occupancy
  Tb  Tb0  1  0.250000  0.582288  0.712408  1
  Tb  Tb1  1  0.250000  0.917495  0.210140  1
  Tb  Tb2  1  0.750000  0.420273  0.289798  1
  Tb  Tb3  1  0.750000  0.078248  0.791034  1
  Mn  Mn4  1  0.250000  0.714444  0.983088  1
  Fe  Fe5  1  0.250000  0.455127  0.935837  1
  Fe  Fe6  1  0.250000  0.043191  0.432690  1
  Fe  Fe7  1  0.750000  0.536367  0.066778  1
  Fe  Fe8  1  0.750000  0.957955  0.565288  1
  P  P9  1  0.250000  0.434011  0.107383  1
  P  P10  1  0.250000  0.067534  0.605031  1
  P  P11  1  0.750000  0.571956  0.896943  1
  P  P12  1  0.750000  0.933131  0.393606  1
  P  P13  1  0.250000  0.267485  0.867023  1
  P  P14  1  0.250000  0.231589  0.368049  1
  P  P15  1  0.750000  0.729810  0.128320  1
  P  P16  1  0.750000  0.769766  0.632399  1
  P  P17  1  0.250000  0.597118  0.385523  1
  P  P18  1  0.250000  0.896087  0.890315  1
  P  P19  1  0.750000  0.403705  0.614420  1
  P  P20  1  0.750000  0.097354  0.111764  1
  Ir  Ir21  1  0.250000  0.778367  0.485871  1
  Ir  Ir22  1  0.750000  0.283081  0.013989  1
  Ir  Ir23  1  0.750000  0.222269  0.513397  1
  Ir  Ir24  1  0.250000  0.408311  0.479878  1
  Ir  Ir25  1  0.250000  0.093412  0.978480  1
  Ir  Ir26  1  0.750000  0.591986  0.521450  1
  Ir  Ir27  1  0.750000  0.906156  0.021307  1
  Ir  Ir28  1  0.250000  0.236211  0.176311  1
  Ir  Ir29  1  0.250000  0.265123  0.676132  1
  Ir  Ir30  1  0.750000  0.766430  0.823947  1
  Ir  Ir31  1  0.750000  0.735580  0.324251  1
  Ir  Ir32  1  0.250000  0.882578  0.699547  1
  Ir  Ir33  1  0.250000  0.622461  0.198913  1
  Ir  Ir34  1  0.750000  0.119570  0.298580  1
  Ir  Ir35  1  0.750000  0.383532  0.800110  1
