# generated using pymatgen
data_Ti16CuIr3(RhO)4
_symmetry_space_group_name_H-M   'P 1'
_cell_length_a   8.23872811
_cell_length_b   8.20906410
_cell_length_c   8.21169100
_cell_angle_alpha   59.98940991
_cell_angle_beta   60.10849480
_cell_angle_gamma   60.09450724
_symmetry_Int_Tables_number   1
_chemical_formula_structural   Ti16CuIr3(RhO)4
_chemical_formula_sum   'Ti16 Cu1 Ir3 Rh4 O4'
_cell_volume   393.27932608
_cell_formula_units_Z   1
loop_
 _symmetry_equiv_pos_site_id
 _symmetry_equiv_pos_as_xyz
  1  'x, y, z'
loop_
 _atom_site_type_symbol
 _atom_site_label
 _atom_site_symmetry_multiplicity
 _atom_site_fract_x
 _atom_site_fract_y
 _atom_site_fract_z
 _atom_site_occupancy
  Ti  Ti0  1  0.818578  0.181035  0.817617  1
  Ti  Ti1  1  0.181132  0.817996  0.183212  1
  Ti  Ti2  1  0.433426  0.066348  0.432324  1
  Ti  Ti3  1  0.433426  0.066348  0.067901  1
  Ti  Ti4  1  0.066714  0.432775  0.432085  1
  Ti  Ti5  1  0.066714  0.432775  0.068424  1
  Ti  Ti6  1  0.180619  0.181441  0.818970  1
  Ti  Ti7  1  0.431787  0.431691  0.068261  1
  Ti  Ti8  1  0.129551  0.621974  0.624237  1
  Ti  Ti9  1  0.624015  0.625450  0.123163  1
  Ti  Ti10  1  0.624015  0.625450  0.627373  1
  Ti  Ti11  1  0.622062  0.125391  0.626274  1
  Ti  Ti12  1  0.181132  0.817996  0.817658  1
  Ti  Ti13  1  0.818578  0.181035  0.182770  1
  Ti  Ti14  1  0.066403  0.066313  0.433642  1
  Ti  Ti15  1  0.817467  0.816799  0.182867  1
  Cu  Cu16  1  0.761676  0.413252  0.412536  1
  Ir  Ir17  1  0.409926  0.776132  0.406971  1
  Ir  Ir18  1  0.843726  0.841210  0.475300  1
  Ir  Ir19  1  0.843726  0.841210  0.839764  1
  Rh  Rh20  1  0.479386  0.840860  0.839878  1
  Rh  Rh21  1  0.409862  0.408491  0.406846  1
  Rh  Rh22  1  0.409862  0.408491  0.774800  1
  Rh  Rh23  1  0.843724  0.475742  0.840268  1
  O  O24  1  0.125699  0.126417  0.623505  1
  O  O25  1  0.624908  0.126673  0.124210  1
  O  O26  1  0.125699  0.126417  0.124380  1
  O  O27  1  0.126184  0.624288  0.124764  1
