# generated using pymatgen
data_Lu6Sc4(GaSb)3
_symmetry_space_group_name_H-M   'P 1'
_cell_length_a   8.45673800
_cell_length_b   8.46316997
_cell_length_c   6.10810000
_cell_angle_alpha   90.00000000
_cell_angle_beta   90.00000000
_cell_angle_gamma   119.97486274
_symmetry_Int_Tables_number   1
_chemical_formula_structural   Lu6Sc4(GaSb)3
_chemical_formula_sum   'Lu6 Sc4 Ga3 Sb3'
_cell_volume   378.68897391
_cell_formula_units_Z   1
loop_
 _symmetry_equiv_pos_site_id
 _symmetry_equiv_pos_as_xyz
  1  'x, y, z'
loop_
 _atom_site_type_symbol
 _atom_site_label
 _atom_site_symmetry_multiplicity
 _atom_site_fract_x
 _atom_site_fract_y
 _atom_site_fract_z
 _atom_site_occupancy
  Lu  Lu0  1  0.235131  0.000000  0.250000  1
  Lu  Lu1  1  0.242704  0.230498  0.750000  1
  Lu  Lu2  1  0.012206  0.769502  0.750000  1
  Lu  Lu3  1  0.013214  0.249333  0.250000  1
  Lu  Lu4  1  0.763881  0.750667  0.250000  1
  Lu  Lu5  1  0.754371  0.000000  0.750000  1
  Sc  Sc6  1  0.327496  0.666713  0.003988  1
  Sc  Sc7  1  0.660783  0.333287  0.496012  1
  Sc  Sc8  1  0.660783  0.333287  0.003988  1
  Sc  Sc9  1  0.327496  0.666713  0.496012  1
  Ga  Ga10  1  0.998753  0.600213  0.250000  1
  Ga  Ga11  1  0.398539  0.399787  0.250000  1
  Ga  Ga12  1  0.400995  0.000000  0.750000  1
  Sb  Sb13  1  0.605532  0.000000  0.250000  1
  Sb  Sb14  1  0.600388  0.602662  0.750000  1
  Sb  Sb15  1  0.997726  0.397338  0.750000  1
