# generated using pymatgen
data_Sm11(Mn2C3)6
_symmetry_space_group_name_H-M   'P 1'
_cell_length_a   8.94907833
_cell_length_b   8.94907795
_cell_length_c   8.94907800
_cell_angle_alpha   109.47122076
_cell_angle_beta   109.47121989
_cell_angle_gamma   109.47121584
_symmetry_Int_Tables_number   1
_chemical_formula_structural   Sm11(Mn2C3)6
_chemical_formula_sum   'Sm11 Mn12 C18'
_cell_volume   551.71276423
_cell_formula_units_Z   1
loop_
 _symmetry_equiv_pos_site_id
 _symmetry_equiv_pos_as_xyz
  1  'x, y, z'
loop_
 _atom_site_type_symbol
 _atom_site_label
 _atom_site_symmetry_multiplicity
 _atom_site_fract_x
 _atom_site_fract_y
 _atom_site_fract_z
 _atom_site_occupancy
  Sm  Sm0  1  0.250000  0.750000  0.500000  1
  Sm  Sm1  1  0.750000  0.250000  0.500000  1
  Sm  Sm2  1  0.750000  0.500000  0.250000  1
  Sm  Sm3  1  0.250000  0.500000  0.750000  1
  Sm  Sm4  1  0.500000  0.250000  0.750000  1
  Sm  Sm5  1  0.500000  0.750000  0.250000  1
  Sm  Sm6  1  0.408962  0.408962  0.408962  1
  Sm  Sm7  1  0.591038  0.000000  0.000000  1
  Sm  Sm8  1  0.000000  0.591038  0.000000  1
  Sm  Sm9  1  0.000000  0.000000  0.591038  1
  Sm  Sm10  1  0.000000  0.000000  0.000000  1
  Mn  Mn11  1  0.844360  0.656888  0.656888  1
  Mn  Mn12  1  0.155640  0.812529  0.812529  1
  Mn  Mn13  1  0.000000  0.343112  0.187471  1
  Mn  Mn14  1  0.656888  0.656888  0.844360  1
  Mn  Mn15  1  0.000000  0.187471  0.343112  1
  Mn  Mn16  1  0.812529  0.812529  0.155640  1
  Mn  Mn17  1  0.343112  0.187471  0.000000  1
  Mn  Mn18  1  0.187471  0.343112  0.000000  1
  Mn  Mn19  1  0.656888  0.844360  0.656888  1
  Mn  Mn20  1  0.187471  0.000000  0.343112  1
  Mn  Mn21  1  0.343112  0.000000  0.187471  1
  Mn  Mn22  1  0.812529  0.155640  0.812529  1
  C  C23  1  0.567541  0.567541  0.000000  1
  C  C24  1  0.432459  0.432459  0.000000  1
  C  C25  1  0.567541  0.000000  0.567541  1
  C  C26  1  0.432459  0.000000  0.432459  1
  C  C27  1  0.000000  0.567541  0.567541  1
  C  C28  1  0.000000  0.432459  0.432459  1
  C  C29  1  0.492627  0.705221  0.705221  1
  C  C30  1  0.507373  0.212594  0.212594  1
  C  C31  1  0.000000  0.294779  0.787406  1
  C  C32  1  0.705221  0.705221  0.492627  1
  C  C33  1  0.000000  0.787406  0.294779  1
  C  C34  1  0.212594  0.212594  0.507373  1
  C  C35  1  0.294779  0.787406  0.000000  1
  C  C36  1  0.787406  0.294779  0.000000  1
  C  C37  1  0.705221  0.492627  0.705221  1
  C  C38  1  0.787406  0.000000  0.294779  1
  C  C39  1  0.294779  0.000000  0.787406  1
  C  C40  1  0.212594  0.507373  0.212594  1
