# generated using pymatgen
data_Er2Cr(Co3As2)3
_symmetry_space_group_name_H-M   'P 1'
_cell_length_a   3.77274200
_cell_length_b   10.69458400
_cell_length_c   12.23856300
_cell_angle_alpha   90.00000000
_cell_angle_beta   90.00000000
_cell_angle_gamma   90.00000000
_symmetry_Int_Tables_number   1
_chemical_formula_structural   Er2Cr(Co3As2)3
_chemical_formula_sum   'Er4 Cr2 Co18 As12'
_cell_volume   493.80039231
_cell_formula_units_Z   2
loop_
 _symmetry_equiv_pos_site_id
 _symmetry_equiv_pos_as_xyz
  1  'x, y, z'
loop_
 _atom_site_type_symbol
 _atom_site_label
 _atom_site_symmetry_multiplicity
 _atom_site_fract_x
 _atom_site_fract_y
 _atom_site_fract_z
 _atom_site_occupancy
  Er  Er0  1  0.250000  0.578065  0.702035  1
  Er  Er1  1  0.250000  0.921935  0.202035  1
  Er  Er2  1  0.750000  0.419786  0.295274  1
  Er  Er3  1  0.750000  0.080214  0.795274  1
  Cr  Cr4  1  0.250000  0.704003  0.991144  1
  Cr  Cr5  1  0.250000  0.795997  0.491144  1
  Co  Co6  1  0.750000  0.293929  0.009768  1
  Co  Co7  1  0.750000  0.206071  0.509768  1
  Co  Co8  1  0.250000  0.405656  0.487840  1
  Co  Co9  1  0.250000  0.094344  0.987840  1
  Co  Co10  1  0.750000  0.593272  0.513733  1
  Co  Co11  1  0.750000  0.906728  0.013733  1
  Co  Co12  1  0.250000  0.217580  0.177281  1
  Co  Co13  1  0.250000  0.282420  0.677281  1
  Co  Co14  1  0.750000  0.783967  0.824523  1
  Co  Co15  1  0.750000  0.716033  0.324523  1
  Co  Co16  1  0.250000  0.884728  0.697862  1
  Co  Co17  1  0.250000  0.615272  0.197862  1
  Co  Co18  1  0.750000  0.117069  0.302377  1
  Co  Co19  1  0.750000  0.382931  0.802377  1
  Co  Co20  1  0.250000  0.465335  0.932110  1
  Co  Co21  1  0.250000  0.034665  0.432110  1
  Co  Co22  1  0.750000  0.533609  0.066577  1
  Co  Co23  1  0.750000  0.966391  0.566577  1
  As  As24  1  0.250000  0.416259  0.114350  1
  As  As25  1  0.250000  0.083741  0.614350  1
  As  As26  1  0.750000  0.582493  0.883000  1
  As  As27  1  0.750000  0.917507  0.383000  1
  As  As28  1  0.250000  0.266124  0.868341  1
  As  As29  1  0.250000  0.233876  0.368341  1
  As  As30  1  0.750000  0.733089  0.134615  1
  As  As31  1  0.750000  0.766911  0.634615  1
  As  As32  1  0.250000  0.595475  0.390525  1
  As  As33  1  0.250000  0.904525  0.890525  1
  As  As34  1  0.750000  0.397419  0.608647  1
  As  As35  1  0.750000  0.102581  0.108647  1
