# generated using pymatgen
data_Sr4SnHg2Pb
_symmetry_space_group_name_H-M   'P 1'
_cell_length_a   8.03586702
_cell_length_b   5.76643800
_cell_length_c   11.53286700
_cell_angle_alpha   90.00000000
_cell_angle_beta   90.00358639
_cell_angle_gamma   90.00000000
_symmetry_Int_Tables_number   1
_chemical_formula_structural   Sr4SnHg2Pb
_chemical_formula_sum   'Sr8 Sn2 Hg4 Pb2'
_cell_volume   534.41378342
_cell_formula_units_Z   2
loop_
 _symmetry_equiv_pos_site_id
 _symmetry_equiv_pos_as_xyz
  1  'x, y, z'
loop_
 _atom_site_type_symbol
 _atom_site_label
 _atom_site_symmetry_multiplicity
 _atom_site_fract_x
 _atom_site_fract_y
 _atom_site_fract_z
 _atom_site_occupancy
  Sr  Sr0  1  0.498697  0.750000  0.126625  1
  Sr  Sr1  1  0.001274  0.750000  0.126700  1
  Sr  Sr2  1  0.501240  0.250001  0.373298  1
  Sr  Sr3  1  0.998667  0.250001  0.373340  1
  Sr  Sr4  1  0.998743  0.750000  0.624047  1
  Sr  Sr5  1  0.501341  0.750000  0.624092  1
  Sr  Sr6  1  0.001323  0.250001  0.875906  1
  Sr  Sr7  1  0.498742  0.250001  0.875991  1
  Sn  Sn8  1  0.249886  0.250001  0.124734  1
  Sn  Sn9  1  0.749912  0.750000  0.375270  1
  Hg  Hg10  1  0.749981  0.250001  0.124294  1
  Hg  Hg11  1  0.249973  0.750000  0.375715  1
  Hg  Hg12  1  0.750034  0.250001  0.624391  1
  Hg  Hg13  1  0.250031  0.750000  0.875598  1
  Pb  Pb14  1  0.250024  0.250001  0.624425  1
  Pb  Pb15  1  0.750036  0.750000  0.875572  1
