# generated using pymatgen
data_ErTm7Cr3OsC8
_symmetry_space_group_name_H-M   'P 1'
_cell_length_a   4.98554800
_cell_length_b   6.42030680
_cell_length_c   9.65613506
_cell_angle_alpha   90.02239833
_cell_angle_beta   90.00000000
_cell_angle_gamma   90.00000000
_symmetry_Int_Tables_number   1
_chemical_formula_structural   ErTm7Cr3OsC8
_chemical_formula_sum   'Er1 Tm7 Cr3 Os1 C8'
_cell_volume   309.08076745
_cell_formula_units_Z   1
loop_
 _symmetry_equiv_pos_site_id
 _symmetry_equiv_pos_as_xyz
  1  'x, y, z'
loop_
 _atom_site_type_symbol
 _atom_site_label
 _atom_site_symmetry_multiplicity
 _atom_site_fract_x
 _atom_site_fract_y
 _atom_site_fract_z
 _atom_site_occupancy
  Er  Er0  1  0.750000  0.967799  0.713656  1
  Tm  Tm1  1  0.250000  0.682223  0.556912  1
  Tm  Tm2  1  0.750000  0.322477  0.441755  1
  Tm  Tm3  1  0.750000  0.820591  0.057240  1
  Tm  Tm4  1  0.250000  0.175861  0.944642  1
  Tm  Tm5  1  0.250000  0.532604  0.217888  1
  Tm  Tm6  1  0.750000  0.465062  0.783671  1
  Tm  Tm7  1  0.250000  0.032494  0.282095  1
  Cr  Cr8  1  0.250000  0.721904  0.863317  1
  Cr  Cr9  1  0.750000  0.274604  0.139769  1
  Cr  Cr10  1  0.750000  0.775036  0.362827  1
  Os  Os11  1  0.250000  0.222194  0.635164  1
  C  C12  1  0.250000  0.460342  0.763694  1
  C  C13  1  0.750000  0.545126  0.238932  1
  C  C14  1  0.750000  0.043020  0.262047  1
  C  C15  1  0.250000  0.948939  0.743429  1
  C  C16  1  0.250000  0.814394  0.042681  1
  C  C17  1  0.750000  0.187372  0.960422  1
  C  C18  1  0.750000  0.683932  0.542152  1
  C  C19  1  0.250000  0.324025  0.447708  1
