# generated using pymatgen
data_ScTa3(Cr4Si5)2
_symmetry_space_group_name_H-M   'P 1'
_cell_length_a   4.86008177
_cell_length_b   7.49635512
_cell_length_c   9.10258712
_cell_angle_alpha   114.32328385
_cell_angle_beta   105.48354813
_cell_angle_gamma   90.00000019
_symmetry_Int_Tables_number   1
_chemical_formula_structural   ScTa3(Cr4Si5)2
_chemical_formula_sum   'Sc1 Ta3 Cr8 Si10'
_cell_volume   288.93692802
_cell_formula_units_Z   1
loop_
 _symmetry_equiv_pos_site_id
 _symmetry_equiv_pos_as_xyz
  1  'x, y, z'
loop_
 _atom_site_type_symbol
 _atom_site_label
 _atom_site_symmetry_multiplicity
 _atom_site_fract_x
 _atom_site_fract_y
 _atom_site_fract_z
 _atom_site_occupancy
  Sc  Sc0  1  0.858057  0.975651  0.716117  1
  Ta  Ta1  1  0.142057  0.024416  0.284115  1
  Ta  Ta2  1  0.641313  0.259943  0.282629  1
  Ta  Ta3  1  0.359668  0.739659  0.719337  1
  Cr  Cr4  1  0.061882  0.317485  0.123764  1
  Cr  Cr5  1  0.561865  0.807737  0.123733  1
  Cr  Cr6  1  0.442270  0.691093  0.383187  1
  Cr  Cr7  1  0.940917  0.691093  0.383187  1
  Cr  Cr8  1  0.055890  0.307249  0.615044  1
  Cr  Cr9  1  0.559153  0.307249  0.615044  1
  Cr  Cr10  1  0.439735  0.191773  0.879470  1
  Cr  Cr11  1  0.937216  0.685940  0.874434  1
  Si  Si12  1  0.251451  0.000638  0.001628  1
  Si  Si13  1  0.750177  0.000638  0.001628  1
  Si  Si14  1  0.564428  0.487369  0.128858  1
  Si  Si15  1  0.064231  0.643482  0.128462  1
  Si  Si16  1  0.710943  0.003308  0.421888  1
  Si  Si17  1  0.212333  0.420822  0.424666  1
  Si  Si18  1  0.787334  0.578332  0.574671  1
  Si  Si19  1  0.288635  0.996363  0.577271  1
  Si  Si20  1  0.935422  0.359705  0.870846  1
  Si  Si21  1  0.435011  0.510051  0.870021  1
