# generated using pymatgen
data_Li2Pr3NdP4
_symmetry_space_group_name_H-M   'P 1'
_cell_length_a   4.19196800
_cell_length_b   4.19196682
_cell_length_c   14.66379400
_cell_angle_alpha   90.00000000
_cell_angle_beta   90.00000000
_cell_angle_gamma   119.99999349
_symmetry_Int_Tables_number   1
_chemical_formula_structural   Li2Pr3NdP4
_chemical_formula_sum   'Li2 Pr3 Nd1 P4'
_cell_volume   223.15817795
_cell_formula_units_Z   1
loop_
 _symmetry_equiv_pos_site_id
 _symmetry_equiv_pos_as_xyz
  1  'x, y, z'
loop_
 _atom_site_type_symbol
 _atom_site_label
 _atom_site_symmetry_multiplicity
 _atom_site_fract_x
 _atom_site_fract_y
 _atom_site_fract_z
 _atom_site_occupancy
  Li  Li0  1  0.000000  0.000000  0.250023  1
  Li  Li1  1  0.000000  0.000000  0.750270  1
  Pr  Pr2  1  0.333333  0.666667  0.110494  1
  Pr  Pr3  1  0.333333  0.666667  0.389354  1
  Pr  Pr4  1  0.666667  0.333332  0.610794  1
  Nd  Nd5  1  0.666667  0.333332  0.889525  1
  P  P6  1  0.000000  0.000000  0.998931  1
  P  P7  1  0.666667  0.333332  0.249875  1
  P  P8  1  0.000000  0.000000  0.500010  1
  P  P9  1  0.333333  0.666667  0.750724  1
