# generated using pymatgen
data_Sc12Tc2PtBr16
_symmetry_space_group_name_H-M   'P 1'
_cell_length_a   9.06344669
_cell_length_b   10.97741720
_cell_length_c   11.60312767
_cell_angle_alpha   116.90815720
_cell_angle_beta   102.00020457
_cell_angle_gamma   101.60630593
_symmetry_Int_Tables_number   1
_chemical_formula_structural   Sc12Tc2PtBr16
_chemical_formula_sum   'Sc12 Tc2 Pt1 Br16'
_cell_volume   947.49504668
_cell_formula_units_Z   1
loop_
 _symmetry_equiv_pos_site_id
 _symmetry_equiv_pos_as_xyz
  1  'x, y, z'
loop_
 _atom_site_type_symbol
 _atom_site_label
 _atom_site_symmetry_multiplicity
 _atom_site_fract_x
 _atom_site_fract_y
 _atom_site_fract_z
 _atom_site_occupancy
  Sc  Sc0  1  0.081374  0.252307  0.347799  1
  Sc  Sc1  1  0.918626  0.747693  0.652201  1
  Sc  Sc2  1  0.776099  0.538097  0.317019  1
  Sc  Sc3  1  0.223901  0.461903  0.682981  1
  Sc  Sc4  1  0.284550  0.748478  0.652360  1
  Sc  Sc5  1  0.715450  0.251522  0.347640  1
  Sc  Sc6  1  0.141975  0.537995  0.317377  1
  Sc  Sc7  1  0.858025  0.462005  0.682623  1
  Sc  Sc8  1  0.401080  0.351099  0.262659  1
  Sc  Sc9  1  0.598920  0.648901  0.737341  1
  Sc  Sc10  1  0.456073  0.298183  0.521458  1
  Sc  Sc11  1  0.543927  0.701817  0.478542  1
  Tc  Tc12  1  0.334145  0.500239  0.499405  1
  Tc  Tc13  1  0.665856  0.499761  0.500595  1
  Pt  Pt14  1  0.000000  0.500000  0.500000  1
  Br  Br15  1  0.398044  0.746209  0.891750  1
  Br  Br16  1  0.601956  0.253791  0.108250  1
  Br  Br17  1  0.193172  0.976970  0.789350  1
  Br  Br18  1  0.806828  0.023030  0.210650  1
  Br  Br19  1  0.334231  0.084336  0.244530  1
  Br  Br20  1  0.665769  0.915664  0.755470  1
  Br  Br21  1  0.556019  0.436591  0.806136  1
  Br  Br22  1  0.443981  0.563409  0.193864  1
  Br  Br23  1  0.310258  0.833703  0.462081  1
  Br  Br24  1  0.689742  0.166297  0.537919  1
  Br  Br25  1  0.164788  0.165325  0.533794  1
  Br  Br26  1  0.835212  0.834675  0.466206  1
  Br  Br27  1  0.925751  0.579996  0.154807  1
  Br  Br28  1  0.074249  0.420004  0.845193  1
  Br  Br29  1  0.927761  0.744585  0.891756  1
  Br  Br30  1  0.072239  0.255415  0.108244  1
