# generated using pymatgen
data_LaNd9(USe10)2
_symmetry_space_group_name_H-M   'P 1'
_cell_length_a   7.94451309
_cell_length_b   8.47014918
_cell_length_c   12.57672622
_cell_angle_alpha   90.01895652
_cell_angle_beta   90.00959995
_cell_angle_gamma   90.01393967
_symmetry_Int_Tables_number   1
_chemical_formula_structural   LaNd9(USe10)2
_chemical_formula_sum   'La1 Nd9 U2 Se20'
_cell_volume   846.30305419
_cell_formula_units_Z   1
loop_
 _symmetry_equiv_pos_site_id
 _symmetry_equiv_pos_as_xyz
  1  'x, y, z'
loop_
 _atom_site_type_symbol
 _atom_site_label
 _atom_site_symmetry_multiplicity
 _atom_site_fract_x
 _atom_site_fract_y
 _atom_site_fract_z
 _atom_site_occupancy
  La  La0  1  0.526157  0.501486  0.322929  1
  Nd  Nd1  1  0.975057  0.000138  0.821794  1
  Nd  Nd2  1  0.481508  0.996775  0.678852  1
  Nd  Nd3  1  0.018527  0.503332  0.178115  1
  Nd  Nd4  1  0.481559  0.503397  0.679282  1
  Nd  Nd5  1  0.018950  0.996836  0.178402  1
  Nd  Nd6  1  0.525058  0.000620  0.321642  1
  Nd  Nd7  1  0.974816  0.499847  0.821951  1
  Nd  Nd8  1  0.078895  0.750125  0.492382  1
  Nd  Nd9  1  0.421033  0.750206  0.992041  1
  U  U10  1  0.940993  0.248900  0.505948  1
  U  U11  1  0.558740  0.249365  0.005219  1
  Se  Se12  1  0.836596  0.969164  0.598003  1
  Se  Se13  1  0.664575  0.530330  0.096317  1
  Se  Se14  1  0.162729  0.447550  0.401745  1
  Se  Se15  1  0.335136  0.051980  0.901567  1
  Se  Se16  1  0.165061  0.052093  0.401853  1
  Se  Se17  1  0.335233  0.447769  0.901612  1
  Se  Se18  1  0.835861  0.530209  0.597676  1
  Se  Se19  1  0.663592  0.969678  0.097930  1
  Se  Se20  1  0.825418  0.751575  0.310970  1
  Se  Se21  1  0.676207  0.750050  0.811473  1
  Se  Se22  1  0.170200  0.250067  0.681427  1
  Se  Se23  1  0.328949  0.248574  0.180526  1
  Se  Se24  1  0.462511  0.752105  0.500614  1
  Se  Se25  1  0.037197  0.749677  0.999468  1
  Se  Se26  1  0.549887  0.247688  0.501023  1
  Se  Se27  1  0.949552  0.249980  0.999648  1
  Se  Se28  1  0.199894  0.749822  0.719897  1
  Se  Se29  1  0.298644  0.752185  0.219412  1
  Se  Se30  1  0.808251  0.248383  0.289930  1
  Se  Se31  1  0.693214  0.250096  0.790352  1
