# generated using pymatgen
data_YHoSi2IrRh
_symmetry_space_group_name_H-M   'P 1'
_cell_length_a   4.24253200
_cell_length_b   6.87633700
_cell_length_c   7.46716900
_cell_angle_alpha   90.00000000
_cell_angle_beta   90.00000000
_cell_angle_gamma   90.00000000
_symmetry_Int_Tables_number   1
_chemical_formula_structural   YHoSi2IrRh
_chemical_formula_sum   'Y2 Ho2 Si4 Ir2 Rh2'
_cell_volume   217.84031686
_cell_formula_units_Z   2
loop_
 _symmetry_equiv_pos_site_id
 _symmetry_equiv_pos_as_xyz
  1  'x, y, z'
loop_
 _atom_site_type_symbol
 _atom_site_label
 _atom_site_symmetry_multiplicity
 _atom_site_fract_x
 _atom_site_fract_y
 _atom_site_fract_z
 _atom_site_occupancy
  Y  Y0  1  0.750000  0.499105  0.811444  1
  Y  Y1  1  0.750000  0.999105  0.688556  1
  Ho  Ho2  1  0.250000  0.001109  0.310167  1
  Ho  Ho3  1  0.250000  0.501109  0.189833  1
  Si  Si4  1  0.250000  0.797398  0.896988  1
  Si  Si5  1  0.250000  0.297398  0.603012  1
  Si  Si6  1  0.750000  0.202841  0.109968  1
  Si  Si7  1  0.750000  0.702841  0.390032  1
  Ir  Ir8  1  0.750000  0.844139  0.069545  1
  Ir  Ir9  1  0.750000  0.344139  0.430455  1
  Rh  Rh10  1  0.250000  0.655409  0.565821  1
  Rh  Rh11  1  0.250000  0.155409  0.934179  1
