# generated using pymatgen
data_TmTh4Ni19
_symmetry_space_group_name_H-M   'P 1'
_cell_length_a   5.00669907
_cell_length_b   5.00669962
_cell_length_c   16.58167740
_cell_angle_alpha   81.31680774
_cell_angle_beta   81.31680836
_cell_angle_gamma   59.99999674
_symmetry_Int_Tables_number   1
_chemical_formula_structural   TmTh4Ni19
_chemical_formula_sum   'Tm1 Th4 Ni19'
_cell_volume   354.45469930
_cell_formula_units_Z   1
loop_
 _symmetry_equiv_pos_site_id
 _symmetry_equiv_pos_as_xyz
  1  'x, y, z'
loop_
 _atom_site_type_symbol
 _atom_site_label
 _atom_site_symmetry_multiplicity
 _atom_site_fract_x
 _atom_site_fract_y
 _atom_site_fract_z
 _atom_site_occupancy
  Tm  Tm0  1  0.151003  0.151003  0.546991  1
  Th  Th1  1  0.000086  0.000086  0.999743  1
  Th  Th2  1  0.921707  0.921707  0.234881  1
  Th  Th3  1  0.079134  0.079134  0.762597  1
  Th  Th4  1  0.847790  0.847790  0.456632  1
  Ni  Ni5  1  0.499523  0.499523  0.501430  1
  Ni  Ni6  1  0.749557  0.749558  0.751329  1
  Ni  Ni7  1  0.250648  0.250648  0.248054  1
  Ni  Ni8  1  0.666786  0.666786  0.999643  1
  Ni  Ni9  1  0.333459  0.333459  0.999620  1
  Ni  Ni10  1  0.583997  0.583997  0.248010  1
  Ni  Ni11  1  0.415971  0.415971  0.752085  1
  Ni  Ni12  1  0.374686  0.374686  0.372774  1
  Ni  Ni13  1  0.877854  0.374686  0.372774  1
  Ni  Ni14  1  0.374686  0.877854  0.372774  1
  Ni  Ni15  1  0.624597  0.624597  0.627351  1
  Ni  Ni16  1  0.123454  0.624597  0.627351  1
  Ni  Ni17  1  0.624597  0.123454  0.627351  1
  Ni  Ni18  1  0.459152  0.459152  0.122762  1
  Ni  Ni19  1  0.958934  0.459152  0.122762  1
  Ni  Ni20  1  0.459152  0.958934  0.122762  1
  Ni  Ni21  1  0.541238  0.541238  0.876775  1
  Ni  Ni22  1  0.040751  0.541238  0.876775  1
  Ni  Ni23  1  0.541238  0.040751  0.876775  1
