# generated using pymatgen
data_Sr10Mn2Ni(RuO10)2
_symmetry_space_group_name_H-M   'P 1'
_cell_length_a   8.84703772
_cell_length_b   8.84707009
_cell_length_c   8.85588569
_cell_angle_alpha   120.61091733
_cell_angle_beta   120.79190590
_cell_angle_gamma   88.73144035
_symmetry_Int_Tables_number   1
_chemical_formula_structural   Sr10Mn2Ni(RuO10)2
_chemical_formula_sum   'Sr10 Mn2 Ni1 Ru2 O20'
_cell_volume   485.05784062
_cell_formula_units_Z   1
loop_
 _symmetry_equiv_pos_site_id
 _symmetry_equiv_pos_as_xyz
  1  'x, y, z'
loop_
 _atom_site_type_symbol
 _atom_site_label
 _atom_site_symmetry_multiplicity
 _atom_site_fract_x
 _atom_site_fract_y
 _atom_site_fract_z
 _atom_site_occupancy
  Sr  Sr0  1  0.761962  0.148412  0.195580  1
  Sr  Sr1  1  0.353673  0.348052  0.990393  1
  Sr  Sr2  1  0.952323  0.559811  0.802740  1
  Sr  Sr3  1  0.562431  0.764736  0.618702  1
  Sr  Sr4  1  0.150013  0.958602  0.394457  1
  Sr  Sr5  1  0.642339  0.636717  0.990388  1
  Sr  Sr6  1  0.242933  0.850417  0.802744  1
  Sr  Sr7  1  0.853968  0.056271  0.618701  1
  Sr  Sr8  1  0.435851  0.244442  0.394453  1
  Sr  Sr9  1  0.047172  0.433620  0.195586  1
  Mn  Mn10  1  0.600242  0.198213  0.798452  1
  Mn  Mn11  1  0.201751  0.396432  0.598188  1
  Ni  Ni12  1  0.998262  0.003652  0.001915  1
  Ru  Ru13  1  0.800518  0.599939  0.400455  1
  Ru  Ru14  1  0.401183  0.798890  0.200075  1
  O  O15  1  0.560821  0.958933  0.201302  1
  O  O16  1  0.163931  0.164399  0.997792  1
  O  O17  1  0.754528  0.355348  0.796529  1
  O  O18  1  0.356858  0.559265  0.603383  1
  O  O19  1  0.960581  0.757332  0.399544  1
  O  O20  1  0.833363  0.833838  0.997737  1
  O  O21  1  0.441180  0.041998  0.796523  1
  O  O22  1  0.044114  0.246522  0.603386  1
  O  O23  1  0.642218  0.438971  0.399551  1
  O  O24  1  0.242369  0.640480  0.201301  1
  O  O25  1  0.696760  0.395224  0.091985  1
  O  O26  1  0.298828  0.601364  0.900192  1
  O  O27  1  0.898623  0.794582  0.693184  1
  O  O28  1  0.500049  0.002564  0.502611  1
  O  O29  1  0.104112  0.208810  0.312939  1
  O  O30  1  0.999796  0.500216  0.500013  1
  O  O31  1  0.601985  0.698859  0.300842  1
  O  O32  1  0.207383  0.897495  0.104886  1
  O  O33  1  0.791029  0.103556  0.894577  1
  O  O34  1  0.396850  0.302043  0.698895  1
