# generated using pymatgen
data_ThPa2Al7Cu2
_symmetry_space_group_name_H-M   'P 1'
_cell_length_a   9.08157465
_cell_length_b   9.08157504
_cell_length_c   9.08157568
_cell_angle_alpha   35.19743065
_cell_angle_beta   35.19742449
_cell_angle_gamma   35.19742970
_symmetry_Int_Tables_number   1
_chemical_formula_structural   ThPa2Al7Cu2
_chemical_formula_sum   'Th1 Pa2 Al7 Cu2'
_cell_volume   222.26199486
_cell_formula_units_Z   1
loop_
 _symmetry_equiv_pos_site_id
 _symmetry_equiv_pos_as_xyz
  1  'x, y, z'
loop_
 _atom_site_type_symbol
 _atom_site_label
 _atom_site_symmetry_multiplicity
 _atom_site_fract_x
 _atom_site_fract_y
 _atom_site_fract_z
 _atom_site_occupancy
  Th  Th0  1  0.000000  0.000000  0.000000  1
  Pa  Pa1  1  0.855361  0.855361  0.855361  1
  Pa  Pa2  1  0.144639  0.144639  0.144639  1
  Al  Al3  1  0.417620  0.417620  0.926537  1
  Al  Al4  1  0.926537  0.417620  0.417620  1
  Al  Al5  1  0.417620  0.926537  0.417620  1
  Al  Al6  1  0.500000  0.500000  0.500000  1
  Al  Al7  1  0.582380  0.073463  0.582380  1
  Al  Al8  1  0.073463  0.582380  0.582380  1
  Al  Al9  1  0.582380  0.582380  0.073463  1
  Cu  Cu10  1  0.664573  0.664573  0.664573  1
  Cu  Cu11  1  0.335427  0.335427  0.335427  1
