# generated using pymatgen
data_Cs6Na4TmTaP6
_symmetry_space_group_name_H-M   'P 1'
_cell_length_a   10.91650541
_cell_length_b   10.91650591
_cell_length_c   16.52303100
_cell_angle_alpha   90.00000000
_cell_angle_beta   90.00000000
_cell_angle_gamma   142.91122313
_symmetry_Int_Tables_number   1
_chemical_formula_structural   Cs6Na4TmTaP6
_chemical_formula_sum   'Cs12 Na8 Tm2 Ta2 P12'
_cell_volume   1187.43975453
_cell_formula_units_Z   2
loop_
 _symmetry_equiv_pos_site_id
 _symmetry_equiv_pos_as_xyz
  1  'x, y, z'
loop_
 _atom_site_type_symbol
 _atom_site_label
 _atom_site_symmetry_multiplicity
 _atom_site_fract_x
 _atom_site_fract_y
 _atom_site_fract_z
 _atom_site_occupancy
  Cs  Cs0  1  0.948707  0.608827  0.823542  1
  Cs  Cs1  1  0.551293  0.891173  0.323542  1
  Cs  Cs2  1  0.391173  0.051293  0.176458  1
  Cs  Cs3  1  0.048812  0.391531  0.174946  1
  Cs  Cs4  1  0.891531  0.548812  0.325054  1
  Cs  Cs5  1  0.451188  0.108469  0.674946  1
  Cs  Cs6  1  0.608469  0.951188  0.825054  1
  Cs  Cs7  1  0.282833  0.285971  0.316146  1
  Cs  Cs8  1  0.785971  0.782833  0.183854  1
  Cs  Cs9  1  0.217167  0.214029  0.816146  1
  Cs  Cs10  1  0.714029  0.717167  0.683854  1
  Cs  Cs11  1  0.108827  0.448707  0.676458  1
  Na  Na12  1  0.919187  0.080813  0.000000  1
  Na  Na13  1  0.580813  0.419187  0.500000  1
  Na  Na14  1  0.081075  0.918925  0.000000  1
  Na  Na15  1  0.418925  0.581075  0.500000  1
  Na  Na16  1  0.753683  0.246317  0.000000  1
  Na  Na17  1  0.746317  0.253683  0.500000  1
  Na  Na18  1  0.245369  0.754631  0.000000  1
  Na  Na19  1  0.254631  0.745369  0.500000  1
  Tm  Tm20  1  0.586882  0.413118  0.000000  1
  Tm  Tm21  1  0.913118  0.086882  0.500000  1
  Ta  Ta22  1  0.415666  0.584334  0.000000  1
  Ta  Ta23  1  0.084334  0.915666  0.500000  1
  P  P24  1  0.887178  0.568016  0.094226  1
  P  P25  1  0.431984  0.112822  0.905774  1
  P  P26  1  0.612822  0.931984  0.594226  1
  P  P27  1  0.948741  0.646600  0.585113  1
  P  P28  1  0.146600  0.448741  0.914887  1
  P  P29  1  0.551259  0.853400  0.085113  1
  P  P30  1  0.353400  0.051259  0.414887  1
  P  P31  1  0.204565  0.185298  0.581506  1
  P  P32  1  0.685298  0.704565  0.918494  1
  P  P33  1  0.295435  0.314702  0.081506  1
  P  P34  1  0.068016  0.387178  0.405774  1
  P  P35  1  0.814702  0.795435  0.418494  1
