# generated using pymatgen
data_Pr8Lu11Si16Au
_symmetry_space_group_name_H-M   'P 1'
_cell_length_a   7.34455292
_cell_length_b   7.72115287
_cell_length_c   14.61172000
_cell_angle_alpha   90.00000000
_cell_angle_beta   90.00000000
_cell_angle_gamma   90.14463444
_symmetry_Int_Tables_number   1
_chemical_formula_structural   Pr8Lu11Si16Au
_chemical_formula_sum   'Pr8 Lu11 Si16 Au1'
_cell_volume   828.60485384
_cell_formula_units_Z   1
loop_
 _symmetry_equiv_pos_site_id
 _symmetry_equiv_pos_as_xyz
  1  'x, y, z'
loop_
 _atom_site_type_symbol
 _atom_site_label
 _atom_site_symmetry_multiplicity
 _atom_site_fract_x
 _atom_site_fract_y
 _atom_site_fract_z
 _atom_site_occupancy
  Pr  Pr0  1  0.016335  0.174532  0.403072  1
  Pr  Pr1  1  0.515081  0.326718  0.403136  1
  Pr  Pr2  1  0.488558  0.688670  0.897005  1
  Pr  Pr3  1  0.488558  0.688670  0.602995  1
  Pr  Pr4  1  0.973193  0.827017  0.603689  1
  Pr  Pr5  1  0.973193  0.827017  0.896311  1
  Pr  Pr6  1  0.515081  0.326718  0.096864  1
  Pr  Pr7  1  0.016335  0.174532  0.096928  1
  Lu  Lu8  1  0.335811  0.172423  0.625170  1
  Lu  Lu9  1  0.675423  0.819164  0.374830  1
  Lu  Lu10  1  0.176243  0.677073  0.377683  1
  Lu  Lu11  1  0.822438  0.309737  0.874105  1
  Lu  Lu12  1  0.822438  0.309737  0.625895  1
  Lu  Lu13  1  0.843524  0.492669  0.250000  1
  Lu  Lu14  1  0.341581  0.006720  0.250000  1
  Lu  Lu15  1  0.335811  0.172423  0.874830  1
  Lu  Lu16  1  0.176243  0.677073  0.122317  1
  Lu  Lu17  1  0.675423  0.819164  0.125170  1
  Lu  Lu18  1  0.155433  0.502057  0.750000  1
  Si  Si19  1  0.271342  0.878694  0.750000  1
  Si  Si20  1  0.470236  0.614989  0.250000  1
  Si  Si21  1  0.042176  0.115501  0.750000  1
  Si  Si22  1  0.527281  0.398723  0.750000  1
  Si  Si23  1  0.151592  0.468633  0.541547  1
  Si  Si24  1  0.970326  0.878146  0.250000  1
  Si  Si25  1  0.718269  0.121653  0.250000  1
  Si  Si26  1  0.851551  0.532555  0.035795  1
  Si  Si27  1  0.351502  0.966870  0.039697  1
  Si  Si28  1  0.151592  0.468633  0.958453  1
  Si  Si29  1  0.653823  0.038787  0.529367  1
  Si  Si30  1  0.351502  0.966870  0.460303  1
  Si  Si31  1  0.851551  0.532555  0.464205  1
  Si  Si32  1  0.783333  0.599909  0.750000  1
  Si  Si33  1  0.218677  0.379270  0.250000  1
  Si  Si34  1  0.653823  0.038787  0.970633  1
  Au  Au35  1  0.634722  0.007314  0.750000  1
