# generated using pymatgen
data_YbEuPt4
_symmetry_space_group_name_H-M   'P 1'
_cell_length_a   5.47555858
_cell_length_b   5.47555866
_cell_length_c   5.47555900
_cell_angle_alpha   60.00000400
_cell_angle_beta   60.00000352
_cell_angle_gamma   59.99999934
_symmetry_Int_Tables_number   1
_chemical_formula_structural   YbEuPt4
_chemical_formula_sum   'Yb1 Eu1 Pt4'
_cell_volume   116.08346247
_cell_formula_units_Z   1
loop_
 _symmetry_equiv_pos_site_id
 _symmetry_equiv_pos_as_xyz
  1  'x, y, z'
loop_
 _atom_site_type_symbol
 _atom_site_label
 _atom_site_symmetry_multiplicity
 _atom_site_fract_x
 _atom_site_fract_y
 _atom_site_fract_z
 _atom_site_occupancy
  Yb  Yb0  1  0.250000  0.250000  0.250000  1
  Eu  Eu1  1  0.000000  0.000000  0.000000  1
  Pt  Pt2  1  0.624787  0.624787  0.125640  1
  Pt  Pt3  1  0.624787  0.125640  0.624787  1
  Pt  Pt4  1  0.125640  0.624787  0.624787  1
  Pt  Pt5  1  0.624787  0.624787  0.624787  1
