# generated using pymatgen
data_Li8Nd8PdRh7
_symmetry_space_group_name_H-M   'P 1'
_cell_length_a   4.07232600
_cell_length_b   7.34436399
_cell_length_c   16.60058173
_cell_angle_alpha   90.52702734
_cell_angle_beta   90.00000000
_cell_angle_gamma   90.00000000
_symmetry_Int_Tables_number   1
_chemical_formula_structural   Li8Nd8PdRh7
_chemical_formula_sum   'Li8 Nd8 Pd1 Rh7'
_cell_volume   496.47989211
_cell_formula_units_Z   1
loop_
 _symmetry_equiv_pos_site_id
 _symmetry_equiv_pos_as_xyz
  1  'x, y, z'
loop_
 _atom_site_type_symbol
 _atom_site_label
 _atom_site_symmetry_multiplicity
 _atom_site_fract_x
 _atom_site_fract_y
 _atom_site_fract_z
 _atom_site_occupancy
  Li  Li0  1  0.750000  0.008341  0.563838  1
  Li  Li1  1  0.250000  0.626356  0.348179  1
  Li  Li2  1  0.750000  0.368977  0.650728  1
  Li  Li3  1  0.250000  0.492110  0.061325  1
  Li  Li4  1  0.750000  0.507363  0.938518  1
  Li  Li5  1  0.250000  0.992216  0.438273  1
  Li  Li6  1  0.250000  0.130480  0.146740  1
  Li  Li7  1  0.750000  0.871481  0.851689  1
  Nd  Nd8  1  0.250000  0.162276  0.939199  1
  Nd  Nd9  1  0.250000  0.657545  0.565771  1
  Nd  Nd10  1  0.750000  0.331392  0.439960  1
  Nd  Nd11  1  0.750000  0.959989  0.277938  1
  Nd  Nd12  1  0.750000  0.836509  0.059916  1
  Nd  Nd13  1  0.750000  0.452253  0.214937  1
  Nd  Nd14  1  0.250000  0.047095  0.717343  1
  Nd  Nd15  1  0.250000  0.545828  0.785201  1
  Pd  Pd16  1  0.750000  0.752280  0.437151  1
  Rh  Rh17  1  0.250000  0.246593  0.315545  1
  Rh  Rh18  1  0.750000  0.254337  0.813965  1
  Rh  Rh19  1  0.750000  0.752963  0.686007  1
  Rh  Rh20  1  0.250000  0.256752  0.560779  1
  Rh  Rh21  1  0.250000  0.746908  0.186816  1
  Rh  Rh22  1  0.750000  0.245303  0.061427  1
  Rh  Rh23  1  0.250000  0.754653  0.938753  1
