# generated using pymatgen
data_Hf18TaRe7P2
_symmetry_space_group_name_H-M   'P 1'
_cell_length_a   8.59355200
_cell_length_b   8.59355257
_cell_length_c   8.60229700
_cell_angle_alpha   90.00000000
_cell_angle_beta   90.00000000
_cell_angle_gamma   119.99999780
_symmetry_Int_Tables_number   1
_chemical_formula_structural   Hf18TaRe7P2
_chemical_formula_sum   'Hf18 Ta1 Re7 P2'
_cell_volume   550.16191300
_cell_formula_units_Z   1
loop_
 _symmetry_equiv_pos_site_id
 _symmetry_equiv_pos_as_xyz
  1  'x, y, z'
loop_
 _atom_site_type_symbol
 _atom_site_label
 _atom_site_symmetry_multiplicity
 _atom_site_fract_x
 _atom_site_fract_y
 _atom_site_fract_z
 _atom_site_occupancy
  Hf  Hf0  1  0.198188  0.801812  0.451934  1
  Hf  Hf1  1  0.198188  0.396374  0.451934  1
  Hf  Hf2  1  0.603626  0.801812  0.451934  1
  Hf  Hf3  1  0.801812  0.198188  0.548066  1
  Hf  Hf4  1  0.801812  0.603626  0.548066  1
  Hf  Hf5  1  0.396374  0.198188  0.548066  1
  Hf  Hf6  1  0.804321  0.195679  0.951241  1
  Hf  Hf7  1  0.804321  0.608643  0.951241  1
  Hf  Hf8  1  0.391357  0.195679  0.951241  1
  Hf  Hf9  1  0.195679  0.804321  0.048759  1
  Hf  Hf10  1  0.195679  0.391357  0.048759  1
  Hf  Hf11  1  0.608643  0.804321  0.048759  1
  Hf  Hf12  1  0.539184  0.460816  0.248629  1
  Hf  Hf13  1  0.539184  0.078369  0.248629  1
  Hf  Hf14  1  0.921631  0.460816  0.248629  1
  Hf  Hf15  1  0.460816  0.539184  0.751371  1
  Hf  Hf16  1  0.460816  0.921631  0.751371  1
  Hf  Hf17  1  0.078369  0.539184  0.751371  1
  Ta  Ta18  1  0.000000  0.000000  0.500000  1
  Re  Re19  1  0.889134  0.110866  0.250177  1
  Re  Re20  1  0.889134  0.778266  0.250177  1
  Re  Re21  1  0.221734  0.110866  0.250177  1
  Re  Re22  1  0.110866  0.889134  0.749823  1
  Re  Re23  1  0.110866  0.221734  0.749823  1
  Re  Re24  1  0.778266  0.889134  0.749823  1
  Re  Re25  1  0.000000  0.000000  0.000000  1
  P  P26  1  0.333333  0.666667  0.248180  1
  P  P27  1  0.666667  0.333333  0.751820  1
