# generated using pymatgen
data_Ac(As3Ru)4
_symmetry_space_group_name_H-M   'P 1'
_cell_length_a   7.48192671
_cell_length_b   7.48192716
_cell_length_c   7.48192800
_cell_angle_alpha   109.47122290
_cell_angle_beta   109.47122412
_cell_angle_gamma   109.47121592
_symmetry_Int_Tables_number   1
_chemical_formula_structural   Ac(As3Ru)4
_chemical_formula_sum   'Ac1 As12 Ru4'
_cell_volume   322.41746128
_cell_formula_units_Z   1
loop_
 _symmetry_equiv_pos_site_id
 _symmetry_equiv_pos_as_xyz
  1  'x, y, z'
loop_
 _atom_site_type_symbol
 _atom_site_label
 _atom_site_symmetry_multiplicity
 _atom_site_fract_x
 _atom_site_fract_y
 _atom_site_fract_z
 _atom_site_occupancy
  Ac  Ac0  1  0.000000  0.000000  0.000000  1
  As  As1  1  0.849041  0.648809  0.497851  1
  As  As2  1  0.150959  0.351191  0.502149  1
  As  As3  1  0.150959  0.648809  0.799768  1
  As  As4  1  0.849041  0.351191  0.200232  1
  As  As5  1  0.648809  0.497851  0.849041  1
  As  As6  1  0.351191  0.502149  0.150959  1
  As  As7  1  0.648809  0.799768  0.150959  1
  As  As8  1  0.351191  0.200232  0.849041  1
  As  As9  1  0.497851  0.849041  0.648809  1
  As  As10  1  0.502149  0.150959  0.351191  1
  As  As11  1  0.799768  0.150959  0.648809  1
  As  As12  1  0.200232  0.849041  0.351191  1
  Ru  Ru13  1  0.500000  0.500000  0.500000  1
  Ru  Ru14  1  0.500000  0.000000  0.000000  1
  Ru  Ru15  1  0.000000  0.500000  0.000000  1
  Ru  Ru16  1  0.000000  0.000000  0.500000  1
