# generated using pymatgen
data_DyY9S10
_symmetry_space_group_name_H-M   'P 1'
_cell_length_a   6.78689905
_cell_length_b   7.79077257
_cell_length_c   8.81162859
_cell_angle_alpha   103.21644917
_cell_angle_beta   96.94793201
_cell_angle_gamma   106.97206096
_symmetry_Int_Tables_number   1
_chemical_formula_structural   DyY9S10
_chemical_formula_sum   'Dy1 Y9 S10'
_cell_volume   424.91483372
_cell_formula_units_Z   1
loop_
 _symmetry_equiv_pos_site_id
 _symmetry_equiv_pos_as_xyz
  1  'x, y, z'
loop_
 _atom_site_type_symbol
 _atom_site_label
 _atom_site_symmetry_multiplicity
 _atom_site_fract_x
 _atom_site_fract_y
 _atom_site_fract_z
 _atom_site_occupancy
  Dy  Dy0  1  0.000000  0.500000  0.000000  1
  Y  Y1  1  0.799768  0.599775  0.599206  1
  Y  Y2  1  0.598430  0.199397  0.200144  1
  Y  Y3  1  0.401570  0.800603  0.799856  1
  Y  Y4  1  0.600016  0.700656  0.200775  1
  Y  Y5  1  0.200232  0.400225  0.400794  1
  Y  Y6  1  0.399984  0.299344  0.799225  1
  Y  Y7  1  0.000000  0.000000  0.000000  1
  Y  Y8  1  0.201349  0.900490  0.400690  1
  Y  Y9  1  0.798651  0.099510  0.599310  1
  S  S10  1  0.700152  0.649513  0.900225  1
  S  S11  1  0.500039  0.250412  0.499980  1
  S  S12  1  0.700549  0.150643  0.900380  1
  S  S13  1  0.299451  0.849357  0.099620  1
  S  S14  1  0.499961  0.749588  0.500020  1
  S  S15  1  0.099598  0.450103  0.700517  1
  S  S16  1  0.299848  0.350487  0.099775  1
  S  S17  1  0.900663  0.050240  0.299948  1
  S  S18  1  0.099337  0.949760  0.700052  1
  S  S19  1  0.900402  0.549897  0.299483  1
