# generated using pymatgen
data_Ac4Si4Br3
_symmetry_space_group_name_H-M   'P 1'
_cell_length_a   12.41362727
_cell_length_b   12.41362697
_cell_length_c   12.79033199
_cell_angle_alpha   83.08766648
_cell_angle_beta   83.08766651
_cell_angle_gamma   20.11487204
_symmetry_Int_Tables_number   1
_chemical_formula_structural   Ac4Si4Br3
_chemical_formula_sum   'Ac8 Si8 Br6'
_cell_volume   672.73976297
_cell_formula_units_Z   2
loop_
 _symmetry_equiv_pos_site_id
 _symmetry_equiv_pos_as_xyz
  1  'x, y, z'
loop_
 _atom_site_type_symbol
 _atom_site_label
 _atom_site_symmetry_multiplicity
 _atom_site_fract_x
 _atom_site_fract_y
 _atom_site_fract_z
 _atom_site_occupancy
  Ac  Ac0  1  0.495994  0.495994  0.166249  1
  Ac  Ac1  1  0.921263  0.921263  0.439628  1
  Ac  Ac2  1  0.350538  0.350538  0.027844  1
  Ac  Ac3  1  0.078737  0.078737  0.560372  1
  Ac  Ac4  1  0.649462  0.649462  0.972156  1
  Ac  Ac5  1  0.644823  0.644823  0.293182  1
  Ac  Ac6  1  0.355177  0.355177  0.706818  1
  Ac  Ac7  1  0.504006  0.504006  0.833751  1
  Si  Si8  1  0.525238  0.525238  0.408449  1
  Si  Si9  1  0.043257  0.043257  0.325718  1
  Si  Si10  1  0.050653  0.050653  0.988123  1
  Si  Si11  1  0.474762  0.474762  0.591551  1
  Si  Si12  1  0.902767  0.902767  0.858101  1
  Si  Si13  1  0.949347  0.949347  0.011877  1
  Si  Si14  1  0.956743  0.956743  0.674282  1
  Si  Si15  1  0.097233  0.097233  0.141899  1
  Br  Br16  1  0.246099  0.246099  0.878188  1
  Br  Br17  1  0.753901  0.753901  0.121812  1
  Br  Br18  1  0.799375  0.799375  0.571341  1
  Br  Br19  1  0.368850  0.368850  0.283224  1
  Br  Br20  1  0.200625  0.200625  0.428659  1
  Br  Br21  1  0.631150  0.631150  0.716776  1
