# generated using pymatgen
data_Pr2Ga2(Tc5C)3
_symmetry_space_group_name_H-M   'P 1'
_cell_length_a   7.01047518
_cell_length_b   7.01047588
_cell_length_c   6.97944821
_cell_angle_alpha   82.39748547
_cell_angle_beta   82.39748122
_cell_angle_gamma   82.81644600
_symmetry_Int_Tables_number   1
_chemical_formula_structural   Pr2Ga2(Tc5C)3
_chemical_formula_sum   'Pr2 Ga2 Tc15 C3'
_cell_volume   334.98830396
_cell_formula_units_Z   1
loop_
 _symmetry_equiv_pos_site_id
 _symmetry_equiv_pos_as_xyz
  1  'x, y, z'
loop_
 _atom_site_type_symbol
 _atom_site_label
 _atom_site_symmetry_multiplicity
 _atom_site_fract_x
 _atom_site_fract_y
 _atom_site_fract_z
 _atom_site_occupancy
  Pr  Pr0  1  0.655692  0.655692  0.653607  1
  Pr  Pr1  1  0.344308  0.344308  0.346393  1
  Ga  Ga2  1  0.500000  0.000000  0.000000  1
  Ga  Ga3  1  0.000000  0.500000  0.000000  1
  Tc  Tc4  1  0.000000  0.000000  0.500000  1
  Tc  Tc5  1  0.723435  0.276565  0.000000  1
  Tc  Tc6  1  0.003258  0.725732  0.275021  1
  Tc  Tc7  1  0.274268  0.996742  0.724979  1
  Tc  Tc8  1  0.996742  0.274268  0.724979  1
  Tc  Tc9  1  0.725732  0.003258  0.275021  1
  Tc  Tc10  1  0.276565  0.723435  0.000000  1
  Tc  Tc11  1  0.347960  0.347960  0.855194  1
  Tc  Tc12  1  0.853939  0.353602  0.353442  1
  Tc  Tc13  1  0.353602  0.853939  0.353442  1
  Tc  Tc14  1  0.652040  0.652040  0.144806  1
  Tc  Tc15  1  0.146061  0.646398  0.646558  1
  Tc  Tc16  1  0.646398  0.146061  0.646558  1
  Tc  Tc17  1  0.905783  0.905783  0.898876  1
  Tc  Tc18  1  0.094217  0.094217  0.101124  1
  C  C19  1  0.500000  0.500000  0.000000  1
  C  C20  1  0.000000  0.500000  0.500000  1
  C  C21  1  0.500000  0.000000  0.500000  1
