# generated using pymatgen
data_Rb7NbGa3As5
_symmetry_space_group_name_H-M   'P 1'
_cell_length_a   8.61242042
_cell_length_b   9.40394330
_cell_length_c   14.43008597
_cell_angle_alpha   85.31512708
_cell_angle_beta   81.85300736
_cell_angle_gamma   86.29526623
_symmetry_Int_Tables_number   1
_chemical_formula_structural   Rb7NbGa3As5
_chemical_formula_sum   'Rb14 Nb2 Ga6 As10'
_cell_volume   1151.37540748
_cell_formula_units_Z   2
loop_
 _symmetry_equiv_pos_site_id
 _symmetry_equiv_pos_as_xyz
  1  'x, y, z'
loop_
 _atom_site_type_symbol
 _atom_site_label
 _atom_site_symmetry_multiplicity
 _atom_site_fract_x
 _atom_site_fract_y
 _atom_site_fract_z
 _atom_site_occupancy
  Rb  Rb0  1  0.842894  0.365905  0.638801  1
  Rb  Rb1  1  0.819857  0.819853  0.129134  1
  Rb  Rb2  1  0.245296  0.006248  0.468751  1
  Rb  Rb3  1  0.272599  0.251510  0.256357  1
  Rb  Rb4  1  0.744528  0.497651  0.973312  1
  Rb  Rb5  1  0.255472  0.502349  0.026688  1
  Rb  Rb6  1  0.690462  0.075735  0.884112  1
  Rb  Rb7  1  0.754704  0.993752  0.531249  1
  Rb  Rb8  1  0.727401  0.748490  0.743643  1
  Rb  Rb9  1  0.332776  0.327818  0.609951  1
  Rb  Rb10  1  0.157106  0.634095  0.361199  1
  Rb  Rb11  1  0.180143  0.180147  0.870866  1
  Rb  Rb12  1  0.309538  0.924265  0.115888  1
  Rb  Rb13  1  0.667224  0.672182  0.390049  1
  Nb  Nb14  1  0.352022  0.604055  0.772573  1
  Nb  Nb15  1  0.647978  0.395945  0.227427  1
  Ga  Ga16  1  0.051003  0.815279  0.859001  1
  Ga  Ga17  1  0.948997  0.184721  0.140999  1
  Ga  Ga18  1  0.353795  0.946461  0.699934  1
  Ga  Ga19  1  0.099300  0.726930  0.628332  1
  Ga  Ga20  1  0.900700  0.273070  0.371668  1
  Ga  Ga21  1  0.646205  0.053539  0.300066  1
  As  As22  1  0.932367  0.446682  0.212130  1
  As  As23  1  0.642580  0.184504  0.128714  1
  As  As24  1  0.067633  0.553318  0.787870  1
  As  As25  1  0.588294  0.289307  0.394705  1
  As  As26  1  0.411706  0.710693  0.605295  1
  As  As27  1  0.031314  0.996621  0.698228  1
  As  As28  1  0.519298  0.394481  0.811402  1
  As  As29  1  0.480702  0.605519  0.188598  1
  As  As30  1  0.357420  0.815496  0.871286  1
  As  As31  1  0.968686  0.003379  0.301772  1
