# generated using pymatgen
data_Ho8Tm12(Ir3Ru)3
_symmetry_space_group_name_H-M   'P 1'
_cell_length_a   10.73478500
_cell_length_b   10.73478500
_cell_length_c   6.35842300
_cell_angle_alpha   90.00000000
_cell_angle_beta   90.00000000
_cell_angle_gamma   90.00000000
_symmetry_Int_Tables_number   1
_chemical_formula_structural   Ho8Tm12(Ir3Ru)3
_chemical_formula_sum   'Ho8 Tm12 Ir9 Ru3'
_cell_volume   732.71674666
_cell_formula_units_Z   1
loop_
 _symmetry_equiv_pos_site_id
 _symmetry_equiv_pos_as_xyz
  1  'x, y, z'
loop_
 _atom_site_type_symbol
 _atom_site_label
 _atom_site_symmetry_multiplicity
 _atom_site_fract_x
 _atom_site_fract_y
 _atom_site_fract_z
 _atom_site_occupancy
  Ho  Ho0  1  0.292550  0.086600  0.376371  1
  Ho  Ho1  1  0.292589  0.913592  0.876828  1
  Ho  Ho2  1  0.707411  0.086408  0.876828  1
  Ho  Ho3  1  0.707450  0.913400  0.376371  1
  Ho  Ho4  1  0.586408  0.792589  0.876828  1
  Ho  Ho5  1  0.586600  0.207450  0.376371  1
  Ho  Ho6  1  0.413400  0.792550  0.376371  1
  Ho  Ho7  1  0.413592  0.207411  0.876828  1
  Tm  Tm8  1  0.207314  0.413574  0.624438  1
  Tm  Tm9  1  0.207095  0.586469  0.121240  1
  Tm  Tm10  1  0.792905  0.413531  0.121240  1
  Tm  Tm11  1  0.792686  0.586426  0.624438  1
  Tm  Tm12  1  0.913531  0.707095  0.121240  1
  Tm  Tm13  1  0.913574  0.292686  0.624438  1
  Tm  Tm14  1  0.086426  0.707314  0.624438  1
  Tm  Tm15  1  0.086469  0.292905  0.121240  1
  Tm  Tm16  1  0.000000  0.000000  0.499897  1
  Tm  Tm17  1  0.000000  0.000000  0.999881  1
  Tm  Tm18  1  0.500000  0.500000  0.999881  1
  Tm  Tm19  1  0.500000  0.500000  0.499897  1
  Ir  Ir20  1  0.849034  0.153322  0.250777  1
  Ir  Ir21  1  0.848802  0.846744  0.750265  1
  Ir  Ir22  1  0.151198  0.153256  0.750265  1
  Ir  Ir23  1  0.150966  0.846678  0.250777  1
  Ir  Ir24  1  0.653256  0.348802  0.750265  1
  Ir  Ir25  1  0.653322  0.650966  0.250777  1
  Ir  Ir26  1  0.346678  0.349034  0.250777  1
  Ir  Ir27  1  0.346744  0.651198  0.750265  1
  Ir  Ir28  1  0.000000  0.500000  0.377820  1
  Ru  Ru29  1  0.500000  0.000000  0.122849  1
  Ru  Ru30  1  0.500000  0.000000  0.622740  1
  Ru  Ru31  1  0.000000  0.500000  0.877361  1
