# generated using pymatgen
data_Y6NbCo22
_symmetry_space_group_name_H-M   'P 1'
_cell_length_a   8.40699600
_cell_length_b   8.40699779
_cell_length_c   8.40699600
_cell_angle_alpha   120.00000082
_cell_angle_beta   90.00000000
_cell_angle_gamma   120.00000082
_symmetry_Int_Tables_number   1
_chemical_formula_structural   Y6NbCo22
_chemical_formula_sum   'Y6 Nb1 Co22'
_cell_volume   420.15313293
_cell_formula_units_Z   1
loop_
 _symmetry_equiv_pos_site_id
 _symmetry_equiv_pos_as_xyz
  1  'x, y, z'
loop_
 _atom_site_type_symbol
 _atom_site_label
 _atom_site_symmetry_multiplicity
 _atom_site_fract_x
 _atom_site_fract_y
 _atom_site_fract_z
 _atom_site_occupancy
  Y  Y0  1  0.712732  0.000000  0.287267  1
  Y  Y1  1  0.287268  0.000000  0.287268  1
  Y  Y2  1  0.287268  0.574535  0.287268  1
  Y  Y3  1  0.287267  0.000000  0.712732  1
  Y  Y4  1  0.712732  0.000000  0.712732  1
  Y  Y5  1  0.712732  0.425466  0.712732  1
  Nb  Nb6  1  0.000000  0.000000  0.000000  1
  Co  Co7  1  0.500001  0.000000  0.000000  1
  Co  Co8  1  0.000000  0.500001  0.000000  1
  Co  Co9  1  0.500001  0.500001  0.000000  1
  Co  Co10  1  0.677571  0.355144  0.032716  1
  Co  Co11  1  0.873941  0.747883  0.126059  1
  Co  Co12  1  0.378175  0.252116  0.126059  1
  Co  Co13  1  0.873941  0.252116  0.126059  1
  Co  Co14  1  0.677571  0.355144  0.322428  1
  Co  Co15  1  0.677571  0.644856  0.322428  1
  Co  Co16  1  0.967284  0.644856  0.322428  1
  Co  Co17  1  0.126059  0.252116  0.378175  1
  Co  Co18  1  0.000000  0.000000  0.500001  1
  Co  Co19  1  0.000000  0.500001  0.500001  1
  Co  Co20  1  0.500001  0.500001  0.500001  1
  Co  Co21  1  0.873941  0.747883  0.621824  1
  Co  Co22  1  0.032716  0.355144  0.677571  1
  Co  Co23  1  0.322428  0.355144  0.677571  1
  Co  Co24  1  0.322428  0.644856  0.677571  1
  Co  Co25  1  0.126059  0.252116  0.873941  1
  Co  Co26  1  0.126059  0.747883  0.873941  1
  Co  Co27  1  0.621824  0.747883  0.873941  1
  Co  Co28  1  0.322428  0.644856  0.967284  1
