# generated using pymatgen
data_Nd5CoIrO12
_symmetry_space_group_name_H-M   'P 1'
_cell_length_a   7.04521805
_cell_length_b   7.04521859
_cell_length_c   7.54909012
_cell_angle_alpha   74.50466432
_cell_angle_beta   74.50467267
_cell_angle_gamma   50.60561487
_symmetry_Int_Tables_number   1
_chemical_formula_structural   Nd5CoIrO12
_chemical_formula_sum   'Nd5 Co1 Ir1 O12'
_cell_volume   276.63426026
_cell_formula_units_Z   1
loop_
 _symmetry_equiv_pos_site_id
 _symmetry_equiv_pos_as_xyz
  1  'x, y, z'
loop_
 _atom_site_type_symbol
 _atom_site_label
 _atom_site_symmetry_multiplicity
 _atom_site_fract_x
 _atom_site_fract_y
 _atom_site_fract_z
 _atom_site_occupancy
  Nd  Nd0  1  0.322012  0.290862  0.356101  1
  Nd  Nd1  1  0.709138  0.677988  0.643899  1
  Nd  Nd2  1  0.695650  0.689076  0.164954  1
  Nd  Nd3  1  0.310924  0.304350  0.835046  1
  Nd  Nd4  1  0.003201  0.996799  0.500000  1
  Co  Co5  1  0.744496  0.255504  0.000000  1
  Ir  Ir6  1  0.234211  0.765789  0.000000  1
  O  O7  1  0.103878  0.595183  0.573740  1
  O  O8  1  0.984492  0.014769  0.165984  1
  O  O9  1  0.404817  0.896122  0.426260  1
  O  O10  1  0.498249  0.503040  0.169645  1
  O  O11  1  0.102628  0.584527  0.079160  1
  O  O12  1  0.912904  0.398742  0.420036  1
  O  O13  1  0.985231  0.015508  0.834016  1
  O  O14  1  0.601258  0.087095  0.579964  1
  O  O15  1  0.496960  0.501751  0.830355  1
  O  O16  1  0.575364  0.100886  0.079139  1
  O  O17  1  0.415473  0.897372  0.920840  1
  O  O18  1  0.899114  0.424636  0.920861  1
