# generated using pymatgen
data_Ti5GaPb3
_symmetry_space_group_name_H-M   'P 1'
_cell_length_a   8.39662100
_cell_length_b   8.39662067
_cell_length_c   5.69571600
_cell_angle_alpha   90.00000000
_cell_angle_beta   90.00000000
_cell_angle_gamma   119.99999736
_symmetry_Int_Tables_number   1
_chemical_formula_structural   Ti5GaPb3
_chemical_formula_sum   'Ti10 Ga2 Pb6'
_cell_volume   347.76674793
_cell_formula_units_Z   2
loop_
 _symmetry_equiv_pos_site_id
 _symmetry_equiv_pos_as_xyz
  1  'x, y, z'
loop_
 _atom_site_type_symbol
 _atom_site_label
 _atom_site_symmetry_multiplicity
 _atom_site_fract_x
 _atom_site_fract_y
 _atom_site_fract_z
 _atom_site_occupancy
  Ti  Ti0  1  0.666667  0.333333  0.000000  1
  Ti  Ti1  1  0.333333  0.666667  0.000000  1
  Ti  Ti2  1  0.333333  0.666667  0.500000  1
  Ti  Ti3  1  0.666667  0.333333  0.500000  1
  Ti  Ti4  1  0.735520  0.735520  0.750000  1
  Ti  Ti5  1  0.264480  0.000000  0.750000  1
  Ti  Ti6  1  0.000000  0.264480  0.750000  1
  Ti  Ti7  1  0.264480  0.264480  0.250000  1
  Ti  Ti8  1  0.735520  0.000000  0.250000  1
  Ti  Ti9  1  0.000000  0.735520  0.250000  1
  Ga  Ga10  1  0.000000  0.000000  0.000000  1
  Ga  Ga11  1  0.000000  0.000000  0.500000  1
  Pb  Pb12  1  0.387756  0.387756  0.750000  1
  Pb  Pb13  1  0.612244  0.000000  0.750000  1
  Pb  Pb14  1  0.000000  0.612244  0.750000  1
  Pb  Pb15  1  0.612244  0.612244  0.250000  1
  Pb  Pb16  1  0.387756  0.000000  0.250000  1
  Pb  Pb17  1  0.000000  0.387756  0.250000  1
