# generated using pymatgen
data_SmLu5TcSb2
_symmetry_space_group_name_H-M   'P 1'
_cell_length_a   8.03254200
_cell_length_b   8.05426351
_cell_length_c   4.24630800
_cell_angle_alpha   90.00000000
_cell_angle_beta   90.00000000
_cell_angle_gamma   119.91082745
_symmetry_Int_Tables_number   1
_chemical_formula_structural   SmLu5TcSb2
_chemical_formula_sum   'Sm1 Lu5 Tc1 Sb2'
_cell_volume   238.12802073
_cell_formula_units_Z   1
loop_
 _symmetry_equiv_pos_site_id
 _symmetry_equiv_pos_as_xyz
  1  'x, y, z'
loop_
 _atom_site_type_symbol
 _atom_site_label
 _atom_site_symmetry_multiplicity
 _atom_site_fract_x
 _atom_site_fract_y
 _atom_site_fract_z
 _atom_site_occupancy
  Sm  Sm0  1  0.600011  0.000000  0.000000  1
  Lu  Lu1  1  0.238795  0.000000  0.500000  1
  Lu  Lu2  1  0.999715  0.231743  0.500000  1
  Lu  Lu3  1  0.767972  0.768257  0.500000  1
  Lu  Lu4  1  0.997930  0.608445  0.000000  1
  Lu  Lu5  1  0.389484  0.391555  0.000000  1
  Tc  Tc6  1  0.010527  0.000000  0.000000  1
  Sb  Sb7  1  0.327244  0.658922  0.500000  1
  Sb  Sb8  1  0.668323  0.341078  0.500000  1
