# generated using pymatgen
data_Nd16Ag3SnRh4
_symmetry_space_group_name_H-M   'P 1'
_cell_length_a   9.85325512
_cell_length_b   9.88688551
_cell_length_c   9.88688500
_cell_angle_alpha   60.00000504
_cell_angle_beta   59.88703545
_cell_angle_gamma   59.88702992
_symmetry_Int_Tables_number   1
_chemical_formula_structural   Nd16Ag3SnRh4
_chemical_formula_sum   'Nd16 Ag3 Sn1 Rh4'
_cell_volume   679.89220479
_cell_formula_units_Z   1
loop_
 _symmetry_equiv_pos_site_id
 _symmetry_equiv_pos_as_xyz
  1  'x, y, z'
loop_
 _atom_site_type_symbol
 _atom_site_label
 _atom_site_symmetry_multiplicity
 _atom_site_fract_x
 _atom_site_fract_y
 _atom_site_fract_z
 _atom_site_occupancy
  Nd  Nd0  1  0.602187  0.600006  0.600006  1
  Nd  Nd1  1  0.602187  0.600006  0.197799  1
  Nd  Nd2  1  0.602187  0.197799  0.600006  1
  Nd  Nd3  1  0.191201  0.602933  0.602933  1
  Nd  Nd4  1  0.061360  0.438054  0.438054  1
  Nd  Nd5  1  0.440319  0.058212  0.058212  1
  Nd  Nd6  1  0.440319  0.058212  0.443257  1
  Nd  Nd7  1  0.061360  0.438054  0.062532  1
  Nd  Nd8  1  0.440319  0.443257  0.058212  1
  Nd  Nd9  1  0.061360  0.062532  0.438054  1
  Nd  Nd10  1  0.182231  0.813416  0.813416  1
  Nd  Nd11  1  0.812923  0.186796  0.186796  1
  Nd  Nd12  1  0.812923  0.186796  0.813484  1
  Nd  Nd13  1  0.182231  0.813416  0.190935  1
  Nd  Nd14  1  0.812923  0.813484  0.186796  1
  Nd  Nd15  1  0.182231  0.190935  0.813416  1
  Ag  Ag16  1  0.832548  0.832547  0.832547  1
  Ag  Ag17  1  0.832548  0.832547  0.502360  1
  Ag  Ag18  1  0.832548  0.502360  0.832547  1
  Sn  Sn19  1  0.519148  0.826951  0.826951  1
  Rh  Rh20  1  0.390777  0.393714  0.393714  1
  Rh  Rh21  1  0.390777  0.393714  0.821794  1
  Rh  Rh22  1  0.390777  0.821794  0.393714  1
  Rh  Rh23  1  0.822610  0.392463  0.392463  1
