# generated using pymatgen
data_Dy2Co5RuC5
_symmetry_space_group_name_H-M   'P 1'
_cell_length_a   8.42511400
_cell_length_b   8.42511400
_cell_length_c   4.06650700
_cell_angle_alpha   90.00000000
_cell_angle_beta   90.00000000
_cell_angle_gamma   90.00000000
_symmetry_Int_Tables_number   1
_chemical_formula_structural   Dy2Co5RuC5
_chemical_formula_sum   'Dy4 Co10 Ru2 C10'
_cell_volume   288.65101983
_cell_formula_units_Z   2
loop_
 _symmetry_equiv_pos_site_id
 _symmetry_equiv_pos_as_xyz
  1  'x, y, z'
loop_
 _atom_site_type_symbol
 _atom_site_label
 _atom_site_symmetry_multiplicity
 _atom_site_fract_x
 _atom_site_fract_y
 _atom_site_fract_z
 _atom_site_occupancy
  Dy  Dy0  1  0.327968  0.827968  0.500000  1
  Dy  Dy1  1  0.827968  0.672032  0.500000  1
  Dy  Dy2  1  0.172032  0.327968  0.500000  1
  Dy  Dy3  1  0.672032  0.172032  0.500000  1
  Co  Co4  1  0.714455  0.429471  0.000000  1
  Co  Co5  1  0.429471  0.285545  0.000000  1
  Co  Co6  1  0.500000  0.000000  0.000000  1
  Co  Co7  1  0.000000  0.500000  0.000000  1
  Co  Co8  1  0.785545  0.929471  0.000000  1
  Co  Co9  1  0.929471  0.214455  0.000000  1
  Co  Co10  1  0.070529  0.785545  0.000000  1
  Co  Co11  1  0.214455  0.070529  0.000000  1
  Co  Co12  1  0.570529  0.714455  0.000000  1
  Co  Co13  1  0.285545  0.570529  0.000000  1
  Ru  Ru14  1  0.000000  0.000000  0.500000  1
  Ru  Ru15  1  0.500000  0.500000  0.500000  1
  C  C16  1  0.500000  0.500000  0.000000  1
  C  C17  1  0.000000  0.000000  0.000000  1
  C  C18  1  0.877253  0.377253  0.675289  1
  C  C19  1  0.122747  0.622747  0.675289  1
  C  C20  1  0.877253  0.377253  0.324711  1
  C  C21  1  0.377253  0.122747  0.324711  1
  C  C22  1  0.622747  0.877253  0.324711  1
  C  C23  1  0.122747  0.622747  0.324711  1
  C  C24  1  0.622747  0.877253  0.675289  1
  C  C25  1  0.377253  0.122747  0.675289  1
