# generated using pymatgen
data_LiNb12AlGa7Fe3N4
_symmetry_space_group_name_H-M   'P 1'
_cell_length_a   8.17149856
_cell_length_b   8.23470692
_cell_length_c   8.23470800
_cell_angle_alpha   59.99999565
_cell_angle_beta   59.74378491
_cell_angle_gamma   59.74378361
_symmetry_Int_Tables_number   1
_chemical_formula_structural   LiNb12AlGa7Fe3N4
_chemical_formula_sum   'Li1 Nb12 Al1 Ga7 Fe3 N4'
_cell_volume   390.29254326
_cell_formula_units_Z   1
loop_
 _symmetry_equiv_pos_site_id
 _symmetry_equiv_pos_as_xyz
  1  'x, y, z'
loop_
 _atom_site_type_symbol
 _atom_site_label
 _atom_site_symmetry_multiplicity
 _atom_site_fract_x
 _atom_site_fract_y
 _atom_site_fract_z
 _atom_site_occupancy
  Li  Li0  1  0.124993  0.625002  0.625002  1
  Nb  Nb1  1  0.807211  0.807055  0.192867  1
  Nb  Nb2  1  0.193821  0.192754  0.806712  1
  Nb  Nb3  1  0.807211  0.192867  0.807055  1
  Nb  Nb4  1  0.193821  0.806712  0.192754  1
  Nb  Nb5  1  0.193821  0.806712  0.806712  1
  Nb  Nb6  1  0.807211  0.192867  0.192867  1
  Nb  Nb7  1  0.443262  0.443134  0.056803  1
  Nb  Nb8  1  0.055595  0.057827  0.443289  1
  Nb  Nb9  1  0.443262  0.056803  0.443134  1
  Nb  Nb10  1  0.055595  0.443289  0.057827  1
  Nb  Nb11  1  0.055595  0.443289  0.443289  1
  Nb  Nb12  1  0.443262  0.056803  0.056803  1
  Al  Al13  1  0.743660  0.418780  0.418780  1
  Ga  Ga14  1  0.415953  0.754106  0.414972  1
  Ga  Ga15  1  0.415953  0.414972  0.754106  1
  Ga  Ga16  1  0.415953  0.414972  0.414972  1
  Ga  Ga17  1  0.499849  0.833383  0.833383  1
  Ga  Ga18  1  0.835083  0.495443  0.834736  1
  Ga  Ga19  1  0.835083  0.834736  0.495443  1
  Ga  Ga20  1  0.835083  0.834736  0.834736  1
  Fe  Fe21  1  0.626053  0.125208  0.624369  1
  Fe  Fe22  1  0.626053  0.624369  0.125208  1
  Fe  Fe23  1  0.626053  0.624369  0.624369  1
  N  N24  1  0.624427  0.125191  0.125191  1
  N  N25  1  0.125380  0.624961  0.124830  1
  N  N26  1  0.125380  0.124830  0.624961  1
  N  N27  1  0.125380  0.124830  0.124830  1
