# generated using pymatgen
data_Ho2Fe2Si2C
_symmetry_space_group_name_H-M   'P 1'
_cell_length_a   5.61163110
_cell_length_b   5.61163061
_cell_length_c   6.70164076
_cell_angle_alpha   53.47480315
_cell_angle_beta   53.47480862
_cell_angle_gamma   40.77076926
_symmetry_Int_Tables_number   1
_chemical_formula_structural   Ho2Fe2Si2C
_chemical_formula_sum   'Ho2 Fe2 Si2 C1'
_cell_volume   106.47004040
_cell_formula_units_Z   1
loop_
 _symmetry_equiv_pos_site_id
 _symmetry_equiv_pos_as_xyz
  1  'x, y, z'
loop_
 _atom_site_type_symbol
 _atom_site_label
 _atom_site_symmetry_multiplicity
 _atom_site_fract_x
 _atom_site_fract_y
 _atom_site_fract_z
 _atom_site_occupancy
  Ho  Ho0  1  0.440155  0.440155  0.293877  1
  Ho  Ho1  1  0.559845  0.559845  0.706123  1
  Fe  Fe2  1  0.798353  0.798353  0.096389  1
  Fe  Fe3  1  0.201647  0.201647  0.903611  1
  Si  Si4  1  0.839909  0.839909  0.713902  1
  Si  Si5  1  0.160091  0.160091  0.286098  1
  C  C6  1  0.000000  0.000000  0.000000  1
