# generated using pymatgen
data_Yb5(PPd)6
_symmetry_space_group_name_H-M   'P 1'
_cell_length_a   4.10341200
_cell_length_b   8.10742100
_cell_length_c   19.10476300
_cell_angle_alpha   90.00000000
_cell_angle_beta   90.00000000
_cell_angle_gamma   90.00000000
_symmetry_Int_Tables_number   1
_chemical_formula_structural   Yb5(PPd)6
_chemical_formula_sum   'Yb10 P12 Pd12'
_cell_volume   635.57894856
_cell_formula_units_Z   2
loop_
 _symmetry_equiv_pos_site_id
 _symmetry_equiv_pos_as_xyz
  1  'x, y, z'
loop_
 _atom_site_type_symbol
 _atom_site_label
 _atom_site_symmetry_multiplicity
 _atom_site_fract_x
 _atom_site_fract_y
 _atom_site_fract_z
 _atom_site_occupancy
  Yb  Yb0  1  0.500000  0.992421  0.682117  1
  Yb  Yb1  1  0.000000  0.000591  0.129296  1
  Yb  Yb2  1  0.500000  0.492421  0.317883  1
  Yb  Yb3  1  0.500000  0.507579  0.682117  1
  Yb  Yb4  1  0.000000  0.999409  0.870704  1
  Yb  Yb5  1  0.500000  0.007579  0.317883  1
  Yb  Yb6  1  0.000000  0.000000  0.500000  1
  Yb  Yb7  1  0.000000  0.499409  0.129296  1
  Yb  Yb8  1  0.000000  0.500591  0.870704  1
  Yb  Yb9  1  0.000000  0.500000  0.500000  1
  P  P10  1  0.500000  0.750000  0.558065  1
  P  P11  1  0.000000  0.750000  0.257968  1
  P  P12  1  0.000000  0.250000  0.742032  1
  P  P13  1  0.500000  0.750000  0.075746  1
  P  P14  1  0.000000  0.250000  0.254833  1
  P  P15  1  0.500000  0.250000  0.924254  1
  P  P16  1  0.500000  0.250000  0.072782  1
  P  P17  1  0.500000  0.750000  0.927218  1
  P  P18  1  0.000000  0.750000  0.745167  1
  P  P19  1  0.000000  0.750000  0.373337  1
  P  P20  1  0.000000  0.250000  0.626663  1
  P  P21  1  0.500000  0.250000  0.441935  1
  Pd  Pd22  1  0.000000  0.750000  0.621280  1
  Pd  Pd23  1  0.500000  0.250000  0.193998  1
  Pd  Pd24  1  0.500000  0.250000  0.566946  1
  Pd  Pd25  1  0.000000  0.250000  0.378720  1
  Pd  Pd26  1  0.500000  0.250000  0.801431  1
  Pd  Pd27  1  0.000000  0.250000  0.998884  1
  Pd  Pd28  1  0.500000  0.750000  0.806002  1
  Pd  Pd29  1  0.500000  0.750000  0.198569  1
  Pd  Pd30  1  0.000000  0.750000  0.001116  1
  Pd  Pd31  1  0.500000  0.000000  0.000000  1
  Pd  Pd32  1  0.500000  0.500000  0.000000  1
  Pd  Pd33  1  0.500000  0.750000  0.433054  1
