# generated using pymatgen
data_Dy8Y8MgHg3Ir4
_symmetry_space_group_name_H-M   'P 1'
_cell_length_a   9.65001856
_cell_length_b   9.64296384
_cell_length_c   9.65769713
_cell_angle_alpha   59.91240376
_cell_angle_beta   59.92252368
_cell_angle_gamma   60.06501037
_symmetry_Int_Tables_number   1
_chemical_formula_structural   Dy8Y8MgHg3Ir4
_chemical_formula_sum   'Dy8 Y8 Mg1 Hg3 Ir4'
_cell_volume   634.98976392
_cell_formula_units_Z   1
loop_
 _symmetry_equiv_pos_site_id
 _symmetry_equiv_pos_as_xyz
  1  'x, y, z'
loop_
 _atom_site_type_symbol
 _atom_site_label
 _atom_site_symmetry_multiplicity
 _atom_site_fract_x
 _atom_site_fract_y
 _atom_site_fract_z
 _atom_site_occupancy
  Dy  Dy0  1  0.598148  0.597719  0.598063  1
  Dy  Dy1  1  0.599012  0.598565  0.204732  1
  Dy  Dy2  1  0.599515  0.204853  0.598472  1
  Dy  Dy3  1  0.195572  0.602033  0.601581  1
  Dy  Dy4  1  0.058030  0.441494  0.441517  1
  Dy  Dy5  1  0.438019  0.061296  0.061382  1
  Dy  Dy6  1  0.439069  0.060820  0.438114  1
  Dy  Dy7  1  0.058297  0.440670  0.058327  1
  Y  Y8  1  0.439617  0.438092  0.060548  1
  Y  Y9  1  0.057953  0.058033  0.440841  1
  Y  Y10  1  0.187408  0.811451  0.811422  1
  Y  Y11  1  0.810745  0.188567  0.188554  1
  Y  Y12  1  0.810699  0.189403  0.812066  1
  Y  Y13  1  0.186816  0.811138  0.190506  1
  Y  Y14  1  0.810314  0.811643  0.189880  1
  Y  Y15  1  0.187155  0.191071  0.810650  1
  Mg  Mg16  1  0.536427  0.820793  0.821077  1
  Hg  Hg17  1  0.832361  0.836721  0.836620  1
  Hg  Hg18  1  0.832598  0.837102  0.493093  1
  Hg  Hg19  1  0.832337  0.493197  0.837118  1
  Ir  Ir20  1  0.387057  0.392897  0.395749  1
  Ir  Ir21  1  0.387823  0.393506  0.824580  1
  Ir  Ir22  1  0.390616  0.824579  0.393505  1
  Ir  Ir23  1  0.824412  0.394355  0.391601  1
