# generated using pymatgen
data_LiDy2HoHg4
_symmetry_space_group_name_H-M   'P 1'
_cell_length_a   7.33506500
_cell_length_b   7.33564400
_cell_length_c   7.35580300
_cell_angle_alpha   90.00000000
_cell_angle_beta   90.00000000
_cell_angle_gamma   90.00000000
_symmetry_Int_Tables_number   1
_chemical_formula_structural   LiDy2HoHg4
_chemical_formula_sum   'Li2 Dy4 Ho2 Hg8'
_cell_volume   395.79682233
_cell_formula_units_Z   2
loop_
 _symmetry_equiv_pos_site_id
 _symmetry_equiv_pos_as_xyz
  1  'x, y, z'
loop_
 _atom_site_type_symbol
 _atom_site_label
 _atom_site_symmetry_multiplicity
 _atom_site_fract_x
 _atom_site_fract_y
 _atom_site_fract_z
 _atom_site_occupancy
  Li  Li0  1  0.250029  0.750000  0.501048  1
  Li  Li1  1  0.750028  0.250000  0.998953  1
  Dy  Dy2  1  0.249972  0.250000  0.999990  1
  Dy  Dy3  1  0.750021  0.750000  0.999993  1
  Dy  Dy4  1  0.749972  0.750000  0.500008  1
  Dy  Dy5  1  0.250022  0.250000  0.500009  1
  Ho  Ho6  1  0.249984  0.750000  0.000594  1
  Ho  Ho7  1  0.749984  0.250000  0.499406  1
  Hg  Hg8  1  0.500228  0.000205  0.249918  1
  Hg  Hg9  1  0.500228  0.499795  0.249918  1
  Hg  Hg10  1  0.000229  0.500205  0.250083  1
  Hg  Hg11  1  0.000229  0.999795  0.250083  1
  Hg  Hg12  1  0.999769  0.000205  0.750023  1
  Hg  Hg13  1  0.999769  0.499795  0.750023  1
  Hg  Hg14  1  0.499769  0.500205  0.749977  1
  Hg  Hg15  1  0.499769  0.999795  0.749977  1
