# generated using pymatgen
data_Tb7Er3(SiBi)4
_symmetry_space_group_name_H-M   'P 1'
_cell_length_a   8.67404184
_cell_length_b   8.66418639
_cell_length_c   7.93564607
_cell_angle_alpha   90.04265447
_cell_angle_beta   90.07449928
_cell_angle_gamma   125.63867418
_symmetry_Int_Tables_number   1
_chemical_formula_structural   Tb7Er3(SiBi)4
_chemical_formula_sum   'Tb7 Er3 Si4 Bi4'
_cell_volume   484.69085598
_cell_formula_units_Z   1
loop_
 _symmetry_equiv_pos_site_id
 _symmetry_equiv_pos_as_xyz
  1  'x, y, z'
loop_
 _atom_site_type_symbol
 _atom_site_label
 _atom_site_symmetry_multiplicity
 _atom_site_fract_x
 _atom_site_fract_y
 _atom_site_fract_z
 _atom_site_occupancy
  Tb  Tb0  1  0.042585  0.287358  0.335443  1
  Tb  Tb1  1  0.957616  0.712599  0.664295  1
  Tb  Tb2  1  0.457604  0.212368  0.835582  1
  Tb  Tb3  1  0.787569  0.542398  0.164436  1
  Tb  Tb4  1  0.542684  0.787577  0.164594  1
  Tb  Tb5  1  0.212812  0.457567  0.835611  1
  Tb  Tb6  1  0.713079  0.957710  0.664363  1
  Er  Er7  1  0.285377  0.042907  0.336354  1
  Er  Er8  1  0.000373  0.000017  0.000483  1
  Er  Er9  1  0.499608  0.499350  0.499770  1
  Si  Si10  1  0.364157  0.362780  0.135438  1
  Si  Si11  1  0.635817  0.635757  0.865316  1
  Si  Si12  1  0.136036  0.135432  0.633422  1
  Si  Si13  1  0.865665  0.865010  0.365501  1
  Bi  Bi14  1  0.793611  0.206973  0.999688  1
  Bi  Bi15  1  0.207325  0.794273  0.001541  1
  Bi  Bi16  1  0.704841  0.291674  0.498767  1
  Bi  Bi17  1  0.293242  0.708252  0.499396  1
