# generated using pymatgen
data_LuZnCu3Ag
_symmetry_space_group_name_H-M   'P 1'
_cell_length_a   5.05999896
_cell_length_b   5.05999925
_cell_length_c   5.04505484
_cell_angle_alpha   59.90196716
_cell_angle_beta   59.90196575
_cell_angle_gamma   59.99998473
_symmetry_Int_Tables_number   1
_chemical_formula_structural   LuZnCu3Ag
_chemical_formula_sum   'Lu1 Zn1 Cu3 Ag1'
_cell_volume   91.20247088
_cell_formula_units_Z   1
loop_
 _symmetry_equiv_pos_site_id
 _symmetry_equiv_pos_as_xyz
  1  'x, y, z'
loop_
 _atom_site_type_symbol
 _atom_site_label
 _atom_site_symmetry_multiplicity
 _atom_site_fract_x
 _atom_site_fract_y
 _atom_site_fract_z
 _atom_site_occupancy
  Lu  Lu0  1  0.002467  0.002467  0.992600  1
  Zn  Zn1  1  0.622168  0.622168  0.133497  1
  Cu  Cu2  1  0.624102  0.126113  0.625682  1
  Cu  Cu3  1  0.126113  0.624102  0.625682  1
  Cu  Cu4  1  0.624102  0.624102  0.625682  1
  Ag  Ag5  1  0.251047  0.251047  0.246857  1
