# generated using pymatgen
data_K2Rb2LaUTe6
_symmetry_space_group_name_H-M   'P 1'
_cell_length_a   8.25246036
_cell_length_b   8.25259174
_cell_length_c   8.81236477
_cell_angle_alpha   81.09967655
_cell_angle_beta   81.09830398
_cell_angle_gamma   119.67465204
_symmetry_Int_Tables_number   1
_chemical_formula_structural   K2Rb2LaUTe6
_chemical_formula_sum   'K2 Rb2 La1 U1 Te6'
_cell_volume   496.10865942
_cell_formula_units_Z   1
loop_
 _symmetry_equiv_pos_site_id
 _symmetry_equiv_pos_as_xyz
  1  'x, y, z'
loop_
 _atom_site_type_symbol
 _atom_site_label
 _atom_site_symmetry_multiplicity
 _atom_site_fract_x
 _atom_site_fract_y
 _atom_site_fract_z
 _atom_site_occupancy
  K  K0  1  0.999876  0.000172  0.499980  1
  K  K1  1  0.499980  0.500027  0.000002  1
  Rb  Rb2  1  0.344008  0.655993  0.500007  1
  Rb  Rb3  1  0.652828  0.347187  0.500001  1
  La  La4  1  0.168591  0.831392  0.000010  1
  U  U5  1  0.832127  0.167848  0.000001  1
  Te  Te6  1  0.794011  0.812675  0.205100  1
  Te  Te7  1  0.451106  0.073614  0.206466  1
  Te  Te8  1  0.052456  0.408678  0.207323  1
  Te  Te9  1  0.591303  0.947539  0.792674  1
  Te  Te10  1  0.926380  0.548888  0.793535  1
  Te  Te11  1  0.187335  0.205986  0.794900  1
