# generated using pymatgen
data_Zr2BPtRh5
_symmetry_space_group_name_H-M   'P 1'
_cell_length_a   5.74145164
_cell_length_b   5.74145100
_cell_length_c   5.76153300
_cell_angle_alpha   59.88422291
_cell_angle_beta   59.88422662
_cell_angle_gamma   60.23154145
_symmetry_Int_Tables_number   1
_chemical_formula_structural   Zr2BPtRh5
_chemical_formula_sum   'Zr2 B1 Pt1 Rh5'
_cell_volume   134.29372992
_cell_formula_units_Z   1
loop_
 _symmetry_equiv_pos_site_id
 _symmetry_equiv_pos_as_xyz
  1  'x, y, z'
loop_
 _atom_site_type_symbol
 _atom_site_label
 _atom_site_symmetry_multiplicity
 _atom_site_fract_x
 _atom_site_fract_y
 _atom_site_fract_z
 _atom_site_occupancy
  Zr  Zr0  1  0.250194  0.250194  0.249806  1
  Zr  Zr1  1  0.750194  0.750194  0.749806  1
  B  B2  1  0.496427  0.496427  0.503573  1
  Pt  Pt3  1  0.758662  0.758662  0.241337  1
  Rh  Rh4  1  0.756701  0.244505  0.243298  1
  Rh  Rh5  1  0.244505  0.756701  0.243298  1
  Rh  Rh6  1  0.242108  0.242108  0.757891  1
  Rh  Rh7  1  0.756701  0.244505  0.755494  1
  Rh  Rh8  1  0.244505  0.756701  0.755494  1
