# generated using pymatgen
data_PuNpNi4
_symmetry_space_group_name_H-M   'P 1'
_cell_length_a   4.95405123
_cell_length_b   4.95405058
_cell_length_c   4.95405200
_cell_angle_alpha   59.99999050
_cell_angle_beta   59.99999489
_cell_angle_gamma   59.99999606
_symmetry_Int_Tables_number   1
_chemical_formula_structural   PuNpNi4
_chemical_formula_sum   'Pu1 Np1 Ni4'
_cell_volume   85.97386122
_cell_formula_units_Z   1
loop_
 _symmetry_equiv_pos_site_id
 _symmetry_equiv_pos_as_xyz
  1  'x, y, z'
loop_
 _atom_site_type_symbol
 _atom_site_label
 _atom_site_symmetry_multiplicity
 _atom_site_fract_x
 _atom_site_fract_y
 _atom_site_fract_z
 _atom_site_occupancy
  Pu  Pu0  1  0.500000  0.500000  0.500000  1
  Np  Np1  1  0.750000  0.750000  0.750000  1
  Ni  Ni2  1  0.123923  0.628230  0.123923  1
  Ni  Ni3  1  0.123923  0.123923  0.628230  1
  Ni  Ni4  1  0.628230  0.123923  0.123923  1
  Ni  Ni5  1  0.123923  0.123923  0.123923  1
