# generated using pymatgen
data_Gd3Lu(AsSe)4
_symmetry_space_group_name_H-M   'P 1'
_cell_length_a   3.95088800
_cell_length_b   3.95181013
_cell_length_c   17.12675900
_cell_angle_alpha   89.98526941
_cell_angle_beta   90.00000000
_cell_angle_gamma   90.00000000
_symmetry_Int_Tables_number   1
_chemical_formula_structural   Gd3Lu(AsSe)4
_chemical_formula_sum   'Gd3 Lu1 As4 Se4'
_cell_volume   267.40280641
_cell_formula_units_Z   1
loop_
 _symmetry_equiv_pos_site_id
 _symmetry_equiv_pos_as_xyz
  1  'x, y, z'
loop_
 _atom_site_type_symbol
 _atom_site_label
 _atom_site_symmetry_multiplicity
 _atom_site_fract_x
 _atom_site_fract_y
 _atom_site_fract_z
 _atom_site_occupancy
  Gd  Gd0  1  0.750000  0.243027  0.857442  1
  Gd  Gd1  1  0.750000  0.256812  0.361797  1
  Gd  Gd2  1  0.250000  0.756340  0.140272  1
  Lu  Lu3  1  0.250000  0.742435  0.641149  1
  As  As4  1  0.250000  0.214575  0.504866  1
  As  As5  1  0.250000  0.286724  0.999701  1
  As  As6  1  0.750000  0.784860  0.501798  1
  As  As7  1  0.750000  0.714041  0.997302  1
  Se  Se8  1  0.750000  0.247141  0.684205  1
  Se  Se9  1  0.750000  0.253663  0.186855  1
  Se  Se10  1  0.250000  0.754168  0.315127  1
  Se  Se11  1  0.250000  0.746214  0.809487  1
