# generated using pymatgen
data_Sr2PuPaH12
_symmetry_space_group_name_H-M   'P 1'
_cell_length_a   6.87430600
_cell_length_b   6.97425700
_cell_length_c   6.87430600
_cell_angle_alpha   90.00000000
_cell_angle_beta   90.00000000
_cell_angle_gamma   90.00000000
_symmetry_Int_Tables_number   1
_chemical_formula_structural   Sr2PuPaH12
_chemical_formula_sum   'Sr4 Pu2 Pa2 H24'
_cell_volume   329.57606753
_cell_formula_units_Z   2
loop_
 _symmetry_equiv_pos_site_id
 _symmetry_equiv_pos_as_xyz
  1  'x, y, z'
loop_
 _atom_site_type_symbol
 _atom_site_label
 _atom_site_symmetry_multiplicity
 _atom_site_fract_x
 _atom_site_fract_y
 _atom_site_fract_z
 _atom_site_occupancy
  Sr  Sr0  1  0.249445  0.000000  0.500000  1
  Sr  Sr1  1  0.750555  0.000000  0.500000  1
  Sr  Sr2  1  0.000000  0.500000  0.250555  1
  Sr  Sr3  1  0.000000  0.500000  0.749445  1
  Pu  Pu4  1  0.500000  0.750000  0.000000  1
  Pu  Pu5  1  0.500000  0.250000  0.000000  1
  Pa  Pa6  1  0.000000  0.000000  0.000000  1
  Pa  Pa7  1  0.500000  0.500000  0.500000  1
  H  H8  1  0.000000  0.147399  0.278073  1
  H  H9  1  0.500000  0.228250  0.664426  1
  H  H10  1  0.500000  0.771750  0.335574  1
  H  H11  1  0.778073  0.647399  0.500000  1
  H  H12  1  0.221927  0.647399  0.500000  1
  H  H13  1  0.360415  0.500000  0.806079  1
  H  H14  1  0.639585  0.500000  0.806079  1
  H  H15  1  0.306079  0.000000  0.139585  1
  H  H16  1  0.164426  0.271750  0.000000  1
  H  H17  1  0.835574  0.728250  0.000000  1
  H  H18  1  0.306079  0.000000  0.860415  1
  H  H19  1  0.835574  0.271750  0.000000  1
  H  H20  1  0.693921  0.000000  0.139585  1
  H  H21  1  0.693921  0.000000  0.860415  1
  H  H22  1  0.164426  0.728250  0.000000  1
  H  H23  1  0.000000  0.852601  0.721927  1
  H  H24  1  0.000000  0.147399  0.721927  1
  H  H25  1  0.000000  0.852601  0.278073  1
  H  H26  1  0.639585  0.500000  0.193921  1
  H  H27  1  0.360415  0.500000  0.193921  1
  H  H28  1  0.778073  0.352601  0.500000  1
  H  H29  1  0.221927  0.352601  0.500000  1
  H  H30  1  0.500000  0.771750  0.664426  1
  H  H31  1  0.500000  0.228250  0.335574  1
