# generated using pymatgen
data_Ho2TmZnAg3Ge2
_symmetry_space_group_name_H-M   'P 1'
_cell_length_a   7.17718104
_cell_length_b   7.17856915
_cell_length_c   4.12412800
_cell_angle_alpha   90.00000000
_cell_angle_beta   90.00000000
_cell_angle_gamma   120.00640633
_symmetry_Int_Tables_number   1
_chemical_formula_structural   Ho2TmZnAg3Ge2
_chemical_formula_sum   'Ho2 Tm1 Zn1 Ag3 Ge2'
_cell_volume   184.00368391
_cell_formula_units_Z   1
loop_
 _symmetry_equiv_pos_site_id
 _symmetry_equiv_pos_as_xyz
  1  'x, y, z'
loop_
 _atom_site_type_symbol
 _atom_site_label
 _atom_site_symmetry_multiplicity
 _atom_site_fract_x
 _atom_site_fract_y
 _atom_site_fract_z
 _atom_site_occupancy
  Ho  Ho0  1  0.418389  0.418435  0.500000  1
  Ho  Ho1  1  0.581611  0.000046  0.500000  1
  Tm  Tm2  1  0.000000  0.581594  0.500000  1
  Zn  Zn3  1  0.000000  0.999689  0.500000  1
  Ag  Ag4  1  0.751541  0.751276  0.000000  1
  Ag  Ag5  1  0.248459  0.999734  0.000000  1
  Ag  Ag6  1  0.000000  0.249008  0.000000  1
  Ge  Ge7  1  0.667297  0.333757  0.000000  1
  Ge  Ge8  1  0.332703  0.666461  0.000000  1
