# generated using pymatgen
data_Yb8Cu7GePd17
_symmetry_space_group_name_H-M   'P 1'
_cell_length_a   8.18860200
_cell_length_b   8.02989500
_cell_length_c   8.29041100
_cell_angle_alpha   90.00000000
_cell_angle_beta   90.00000000
_cell_angle_gamma   90.00000000
_symmetry_Int_Tables_number   1
_chemical_formula_structural   Yb8Cu7GePd17
_chemical_formula_sum   'Yb8 Cu7 Ge1 Pd17'
_cell_volume   545.12448692
_cell_formula_units_Z   1
loop_
 _symmetry_equiv_pos_site_id
 _symmetry_equiv_pos_as_xyz
  1  'x, y, z'
loop_
 _atom_site_type_symbol
 _atom_site_label
 _atom_site_symmetry_multiplicity
 _atom_site_fract_x
 _atom_site_fract_y
 _atom_site_fract_z
 _atom_site_occupancy
  Yb  Yb0  1  0.250209  0.253408  0.253391  1
  Yb  Yb1  1  0.748430  0.751778  0.746803  1
  Yb  Yb2  1  0.749791  0.746592  0.253391  1
  Yb  Yb3  1  0.748430  0.248222  0.746803  1
  Yb  Yb4  1  0.251570  0.248222  0.746803  1
  Yb  Yb5  1  0.250209  0.746592  0.253391  1
  Yb  Yb6  1  0.251570  0.751778  0.746803  1
  Yb  Yb7  1  0.749791  0.253408  0.253391  1
  Cu  Cu8  1  0.268097  0.500000  0.998158  1
  Cu  Cu9  1  0.731903  0.500000  0.998158  1
  Cu  Cu10  1  0.000000  0.260440  0.499584  1
  Cu  Cu11  1  0.500000  0.267601  0.998549  1
  Cu  Cu12  1  0.000000  0.739560  0.499584  1
  Cu  Cu13  1  0.500000  0.732399  0.998549  1
  Cu  Cu14  1  0.500000  0.000000  0.272743  1
  Ge  Ge15  1  0.000000  0.000000  0.995788  1
  Pd  Pd16  1  0.263541  0.000000  0.494111  1
  Pd  Pd17  1  0.500000  0.000000  0.742207  1
  Pd  Pd18  1  0.736459  0.000000  0.494111  1
  Pd  Pd19  1  0.000000  0.500000  0.272255  1
  Pd  Pd20  1  0.000000  0.500000  0.727183  1
  Pd  Pd21  1  0.251760  0.500000  0.500864  1
  Pd  Pd22  1  0.748240  0.500000  0.500864  1
  Pd  Pd23  1  0.500000  0.256707  0.495720  1
  Pd  Pd24  1  0.500000  0.743293  0.495720  1
  Pd  Pd25  1  0.500000  0.500000  0.234641  1
  Pd  Pd26  1  0.500000  0.500000  0.762593  1
  Pd  Pd27  1  0.305785  0.000000  0.013940  1
  Pd  Pd28  1  0.694215  0.000000  0.013940  1
  Pd  Pd29  1  0.000000  0.305641  0.999425  1
  Pd  Pd30  1  0.000000  0.694359  0.999425  1
  Pd  Pd31  1  0.000000  0.000000  0.291389  1
  Pd  Pd32  1  0.000000  0.000000  0.699727  1
