# generated using pymatgen
data_Nd3Dy2Ho3(CdIr)2
_symmetry_space_group_name_H-M   'P 1'
_cell_length_a   9.73850239
_cell_length_b   9.73850273
_cell_length_c   9.73850200
_cell_angle_alpha   59.99999568
_cell_angle_beta   59.99999453
_cell_angle_gamma   59.99999947
_symmetry_Int_Tables_number   1
_chemical_formula_structural   Nd3Dy2Ho3(CdIr)2
_chemical_formula_sum   'Nd6 Dy4 Ho6 Cd4 Ir4'
_cell_volume   653.07264285
_cell_formula_units_Z   2
loop_
 _symmetry_equiv_pos_site_id
 _symmetry_equiv_pos_as_xyz
  1  'x, y, z'
loop_
 _atom_site_type_symbol
 _atom_site_label
 _atom_site_symmetry_multiplicity
 _atom_site_fract_x
 _atom_site_fract_y
 _atom_site_fract_z
 _atom_site_occupancy
  Nd  Nd0  1  0.940964  0.559036  0.559036  1
  Nd  Nd1  1  0.559036  0.940964  0.940964  1
  Nd  Nd2  1  0.559036  0.940964  0.559036  1
  Nd  Nd3  1  0.940964  0.559036  0.940964  1
  Nd  Nd4  1  0.559036  0.559036  0.940964  1
  Nd  Nd5  1  0.940964  0.940964  0.559036  1
  Dy  Dy6  1  0.347809  0.347809  0.347809  1
  Dy  Dy7  1  0.347809  0.347809  0.956571  1
  Dy  Dy8  1  0.347809  0.956571  0.347809  1
  Dy  Dy9  1  0.956571  0.347809  0.347809  1
  Ho  Ho10  1  0.812763  0.187237  0.187237  1
  Ho  Ho11  1  0.187237  0.812763  0.812763  1
  Ho  Ho12  1  0.187237  0.812763  0.187237  1
  Ho  Ho13  1  0.812763  0.187237  0.812763  1
  Ho  Ho14  1  0.187237  0.187237  0.812763  1
  Ho  Ho15  1  0.812763  0.812763  0.187237  1
  Cd  Cd16  1  0.579641  0.579641  0.579641  1
  Cd  Cd17  1  0.579641  0.579641  0.261076  1
  Cd  Cd18  1  0.579641  0.261076  0.579641  1
  Cd  Cd19  1  0.261076  0.579641  0.579641  1
  Ir  Ir20  1  0.141174  0.141174  0.141174  1
  Ir  Ir21  1  0.141174  0.141174  0.576478  1
  Ir  Ir22  1  0.141174  0.576478  0.141174  1
  Ir  Ir23  1  0.576478  0.141174  0.141174  1
