# generated using pymatgen
data_Si3Tc2Ni3Mo
_symmetry_space_group_name_H-M   'P 1'
_cell_length_a   5.90684068
_cell_length_b   5.90683982
_cell_length_c   3.75181300
_cell_angle_alpha   90.00000000
_cell_angle_beta   90.00000000
_cell_angle_gamma   120.42413152
_symmetry_Int_Tables_number   1
_chemical_formula_structural   Si3Tc2Ni3Mo
_chemical_formula_sum   'Si3 Tc2 Ni3 Mo1'
_cell_volume   112.87824662
_cell_formula_units_Z   1
loop_
 _symmetry_equiv_pos_site_id
 _symmetry_equiv_pos_as_xyz
  1  'x, y, z'
loop_
 _atom_site_type_symbol
 _atom_site_label
 _atom_site_symmetry_multiplicity
 _atom_site_fract_x
 _atom_site_fract_y
 _atom_site_fract_z
 _atom_site_occupancy
  Si  Si0  1  0.994715  0.994715  0.500000  1
  Si  Si1  1  0.672399  0.331878  0.000000  1
  Si  Si2  1  0.331878  0.672399  0.000000  1
  Tc  Tc3  1  0.000412  0.578175  0.500000  1
  Tc  Tc4  1  0.578175  0.000412  0.500000  1
  Ni  Ni5  1  0.752789  0.752789  0.000000  1
  Ni  Ni6  1  0.245284  0.001849  0.000000  1
  Ni  Ni7  1  0.001849  0.245284  0.000000  1
  Mo  Mo8  1  0.422497  0.422497  0.500000  1
