# generated using pymatgen
data_DyTmCo2(SiRh)4
_symmetry_space_group_name_H-M   'P 1'
_cell_length_a   6.45010816
_cell_length_b   6.57686029
_cell_length_c   6.45010853
_cell_angle_alpha   131.13666792
_cell_angle_beta   113.46480875
_cell_angle_gamma   86.12145038
_symmetry_Int_Tables_number   1
_chemical_formula_structural   DyTmCo2(SiRh)4
_chemical_formula_sum   'Dy1 Tm1 Co2 Si4 Rh4'
_cell_volume   181.40480737
_cell_formula_units_Z   1
loop_
 _symmetry_equiv_pos_site_id
 _symmetry_equiv_pos_as_xyz
  1  'x, y, z'
loop_
 _atom_site_type_symbol
 _atom_site_label
 _atom_site_symmetry_multiplicity
 _atom_site_fract_x
 _atom_site_fract_y
 _atom_site_fract_z
 _atom_site_occupancy
  Dy  Dy0  1  0.245828  0.961485  0.715655  1
  Tm  Tm1  1  0.754380  0.041647  0.287267  1
  Co  Co2  1  0.218438  0.498324  0.718220  1
  Co  Co3  1  0.780104  0.498324  0.279886  1
  Si  Si4  1  0.575571  0.387150  0.811580  1
  Si  Si5  1  0.925691  0.714677  0.788985  1
  Si  Si6  1  0.424432  0.613585  0.189152  1
  Si  Si7  1  0.073797  0.285507  0.211711  1
  Rh  Rh8  1  0.501041  0.499989  0.500890  1
  Rh  Rh9  1  0.999098  0.499989  0.998947  1
  Rh  Rh10  1  0.717962  0.999662  0.716005  1
  Rh  Rh11  1  0.283658  0.999662  0.281701  1
