# generated using pymatgen
data_Tb3Cd3NiAg2
_symmetry_space_group_name_H-M   'P 1'
_cell_length_a   7.87893400
_cell_length_b   7.87893400
_cell_length_c   3.75485700
_cell_angle_alpha   90.00000000
_cell_angle_beta   90.00000000
_cell_angle_gamma   120.00000000
_symmetry_Int_Tables_number   1
_chemical_formula_structural   Tb3Cd3NiAg2
_chemical_formula_sum   'Tb3 Cd3 Ni1 Ag2'
_cell_volume   201.86403909
_cell_formula_units_Z   1
loop_
 _symmetry_equiv_pos_site_id
 _symmetry_equiv_pos_as_xyz
  1  'x, y, z'
loop_
 _atom_site_type_symbol
 _atom_site_label
 _atom_site_symmetry_multiplicity
 _atom_site_fract_x
 _atom_site_fract_y
 _atom_site_fract_z
 _atom_site_occupancy
  Tb  Tb0  1  0.609509  0.030408  0.000000  1
  Tb  Tb1  1  0.969592  0.579101  0.000000  1
  Tb  Tb2  1  0.420899  0.390491  0.000000  1
  Cd  Cd3  1  0.269264  0.997660  0.500000  1
  Cd  Cd4  1  0.002340  0.271604  0.500000  1
  Cd  Cd5  1  0.728396  0.730736  0.500000  1
  Ni  Ni6  1  0.666667  0.333333  0.500000  1
  Ag  Ag7  1  0.333333  0.666667  0.500000  1
  Ag  Ag8  1  0.000000  0.000000  0.000000  1
