# generated using pymatgen
data_CaEr2Ni6B2Ir
_symmetry_space_group_name_H-M   'P 1'
_cell_length_a   5.07523900
_cell_length_b   5.07523933
_cell_length_c   14.68997300
_cell_angle_alpha   90.00000000
_cell_angle_beta   90.00000000
_cell_angle_gamma   120.00000435
_symmetry_Int_Tables_number   1
_chemical_formula_structural   CaEr2Ni6B2Ir
_chemical_formula_sum   'Ca2 Er4 Ni12 B4 Ir2'
_cell_volume   327.69109221
_cell_formula_units_Z   2
loop_
 _symmetry_equiv_pos_site_id
 _symmetry_equiv_pos_as_xyz
  1  'x, y, z'
loop_
 _atom_site_type_symbol
 _atom_site_label
 _atom_site_symmetry_multiplicity
 _atom_site_fract_x
 _atom_site_fract_y
 _atom_site_fract_z
 _atom_site_occupancy
  Ca  Ca0  1  0.333333  0.666667  0.532597  1
  Ca  Ca1  1  0.666667  0.333333  0.032597  1
  Er  Er2  1  0.666667  0.333333  0.470163  1
  Er  Er3  1  0.333333  0.666667  0.970163  1
  Er  Er4  1  0.333333  0.666667  0.749315  1
  Er  Er5  1  0.666667  0.333333  0.249315  1
  Ni  Ni6  1  0.165039  0.330078  0.153174  1
  Ni  Ni7  1  0.834961  0.669922  0.653174  1
  Ni  Ni8  1  0.669922  0.834961  0.153174  1
  Ni  Ni9  1  0.165039  0.834961  0.153174  1
  Ni  Ni10  1  0.834961  0.165039  0.653174  1
  Ni  Ni11  1  0.330078  0.165039  0.653174  1
  Ni  Ni12  1  0.835323  0.670645  0.846398  1
  Ni  Ni13  1  0.835323  0.164677  0.846398  1
  Ni  Ni14  1  0.329355  0.164677  0.846398  1
  Ni  Ni15  1  0.670645  0.835323  0.346398  1
  Ni  Ni16  1  0.164677  0.835323  0.346398  1
  Ni  Ni17  1  0.164677  0.329355  0.346398  1
  B  B18  1  0.333333  0.666667  0.250087  1
  B  B19  1  0.666667  0.333333  0.750087  1
  B  B20  1  0.000000  0.000000  0.249881  1
  B  B21  1  0.000000  0.000000  0.749881  1
  Ir  Ir22  1  0.000000  0.000000  0.999238  1
  Ir  Ir23  1  0.000000  0.000000  0.499238  1
