# generated using pymatgen
data_Na3Ca2As12Rh19
_symmetry_space_group_name_H-M   'P 1'
_cell_length_a   13.15577400
_cell_length_b   13.15009286
_cell_length_c   3.98924500
_cell_angle_alpha   90.00000000
_cell_angle_beta   90.00000000
_cell_angle_gamma   120.01429223
_symmetry_Int_Tables_number   1
_chemical_formula_structural   Na3Ca2As12Rh19
_chemical_formula_sum   'Na3 Ca2 As12 Rh19'
_cell_volume   597.59093454
_cell_formula_units_Z   1
loop_
 _symmetry_equiv_pos_site_id
 _symmetry_equiv_pos_as_xyz
  1  'x, y, z'
loop_
 _atom_site_type_symbol
 _atom_site_label
 _atom_site_symmetry_multiplicity
 _atom_site_fract_x
 _atom_site_fract_y
 _atom_site_fract_z
 _atom_site_occupancy
  Na  Na0  1  0.183225  0.000000  0.500000  1
  Na  Na1  1  0.666643  0.333397  0.000000  1
  Na  Na2  1  0.333245  0.666603  0.000000  1
  Ca  Ca3  1  0.000304  0.182433  0.500000  1
  Ca  Ca4  1  0.817871  0.817567  0.500000  1
  As  As5  1  0.484934  0.317272  0.500000  1
  As  As6  1  0.819602  0.000000  0.000000  1
  As  As7  1  0.181384  0.179481  0.000000  1
  As  As8  1  0.001903  0.820519  0.000000  1
  As  As9  1  0.363854  0.000000  0.000000  1
  As  As10  1  0.681857  0.167698  0.500000  1
  As  As11  1  0.832591  0.514714  0.500000  1
  As  As12  1  0.514158  0.832302  0.500000  1
  As  As13  1  0.167662  0.682728  0.500000  1
  As  As14  1  0.317877  0.485286  0.500000  1
  As  As15  1  0.000061  0.364814  0.000000  1
  As  As16  1  0.635248  0.635186  0.000000  1
  Rh  Rh17  1  0.803321  0.179340  0.000000  1
  Rh  Rh18  1  0.377090  0.196833  0.000000  1
  Rh  Rh19  1  0.644312  0.517427  0.500000  1
  Rh  Rh20  1  0.872997  0.355632  0.500000  1
  Rh  Rh21  1  0.355911  0.873630  0.500000  1
  Rh  Rh22  1  0.517365  0.644368  0.500000  1
  Rh  Rh23  1  0.126885  0.482573  0.500000  1
  Rh  Rh24  1  0.820741  0.624031  0.000000  1
  Rh  Rh25  1  0.623982  0.820660  0.000000  1
  Rh  Rh26  1  0.180258  0.803167  0.000000  1
  Rh  Rh27  1  0.196711  0.375969  0.000000  1
  Rh  Rh28  1  0.999432  0.714075  0.500000  1
  Rh  Rh29  1  0.285357  0.285925  0.500000  1
  Rh  Rh30  1  0.714043  0.000000  0.500000  1
  Rh  Rh31  1  0.998948  0.548113  0.000000  1
  Rh  Rh32  1  0.450835  0.451887  0.000000  1
  Rh  Rh33  1  0.548138  0.000000  0.000000  1
  Rh  Rh34  1  0.998975  0.000000  0.000000  1
  Rh  Rh35  1  0.482281  0.126370  0.500000  1
