# generated using pymatgen
data_Er5Sn2Os
_symmetry_space_group_name_H-M   'P 1'
_cell_length_a   7.69330800
_cell_length_b   9.04187900
_cell_length_c   12.11013200
_cell_angle_alpha   90.00000000
_cell_angle_beta   90.00000000
_cell_angle_gamma   90.00000000
_symmetry_Int_Tables_number   1
_chemical_formula_structural   Er5Sn2Os
_chemical_formula_sum   'Er20 Sn8 Os4'
_cell_volume   842.40451833
_cell_formula_units_Z   4
loop_
 _symmetry_equiv_pos_site_id
 _symmetry_equiv_pos_as_xyz
  1  'x, y, z'
loop_
 _atom_site_type_symbol
 _atom_site_label
 _atom_site_symmetry_multiplicity
 _atom_site_fract_x
 _atom_site_fract_y
 _atom_site_fract_z
 _atom_site_occupancy
  Er  Er0  1  0.157437  0.750000  0.215236  1
  Er  Er1  1  0.657437  0.250000  0.284764  1
  Er  Er2  1  0.842563  0.250000  0.784764  1
  Er  Er3  1  0.342563  0.750000  0.715236  1
  Er  Er4  1  0.455356  0.750000  0.996871  1
  Er  Er5  1  0.955356  0.250000  0.503129  1
  Er  Er6  1  0.544644  0.250000  0.003129  1
  Er  Er7  1  0.044644  0.750000  0.496871  1
  Er  Er8  1  0.626198  0.750000  0.302850  1
  Er  Er9  1  0.126198  0.250000  0.197150  1
  Er  Er10  1  0.373802  0.250000  0.697150  1
  Er  Er11  1  0.873802  0.750000  0.802850  1
  Er  Er12  1  0.823291  0.963677  0.070049  1
  Er  Er13  1  0.323291  0.036323  0.429951  1
  Er  Er14  1  0.176709  0.463677  0.929951  1
  Er  Er15  1  0.676709  0.536323  0.570049  1
  Er  Er16  1  0.176709  0.036323  0.929951  1
  Er  Er17  1  0.676709  0.963677  0.570049  1
  Er  Er18  1  0.823291  0.536323  0.070049  1
  Er  Er19  1  0.323291  0.463677  0.429951  1
  Sn  Sn20  1  0.928504  0.995585  0.330586  1
  Sn  Sn21  1  0.428504  0.004415  0.169414  1
  Sn  Sn22  1  0.071496  0.495585  0.669414  1
  Sn  Sn23  1  0.571496  0.504415  0.830586  1
  Sn  Sn24  1  0.071496  0.004415  0.669414  1
  Sn  Sn25  1  0.571496  0.995585  0.830586  1
  Sn  Sn26  1  0.928504  0.504415  0.330586  1
  Sn  Sn27  1  0.428504  0.495585  0.169414  1
  Os  Os28  1  0.423914  0.750000  0.491133  1
  Os  Os29  1  0.923914  0.250000  0.008867  1
  Os  Os30  1  0.576086  0.250000  0.508867  1
  Os  Os31  1  0.076086  0.750000  0.991133  1
