# generated using pymatgen
data_Er3Lu9(OsRh)2
_symmetry_space_group_name_H-M   'P 1'
_cell_length_a   7.19615245
_cell_length_b   8.93283898
_cell_length_c   6.26780399
_cell_angle_alpha   90.09143271
_cell_angle_beta   90.09225029
_cell_angle_gamma   89.98120942
_symmetry_Int_Tables_number   1
_chemical_formula_structural   Er3Lu9(OsRh)2
_chemical_formula_sum   'Er3 Lu9 Os2 Rh2'
_cell_volume   402.90636549
_cell_formula_units_Z   1
loop_
 _symmetry_equiv_pos_site_id
 _symmetry_equiv_pos_as_xyz
  1  'x, y, z'
loop_
 _atom_site_type_symbol
 _atom_site_label
 _atom_site_symmetry_multiplicity
 _atom_site_fract_x
 _atom_site_fract_y
 _atom_site_fract_z
 _atom_site_occupancy
  Er  Er0  1  0.677060  0.056382  0.330618  1
  Er  Er1  1  0.536115  0.250982  0.874605  1
  Er  Er2  1  0.040067  0.250084  0.626248  1
  Lu  Lu3  1  0.176449  0.443502  0.167498  1
  Lu  Lu4  1  0.320957  0.566493  0.676245  1
  Lu  Lu5  1  0.821493  0.933440  0.823655  1
  Lu  Lu6  1  0.321268  0.932807  0.677287  1
  Lu  Lu7  1  0.821150  0.566041  0.825393  1
  Lu  Lu8  1  0.676556  0.443615  0.332330  1
  Lu  Lu9  1  0.175647  0.056600  0.167805  1
  Lu  Lu10  1  0.465162  0.749142  0.122931  1
  Lu  Lu11  1  0.964966  0.749525  0.378324  1
  Os  Os12  1  0.113640  0.750476  0.967317  1
  Os  Os13  1  0.613805  0.748438  0.534128  1
  Rh  Rh14  1  0.887903  0.251418  0.041698  1
  Rh  Rh15  1  0.387763  0.251056  0.453916  1
