# generated using pymatgen
data_Tb2Ho2Al4IrPd3
_symmetry_space_group_name_H-M   'P 1'
_cell_length_a   4.42612200
_cell_length_b   6.85006676
_cell_length_c   7.81036018
_cell_angle_alpha   90.09286702
_cell_angle_beta   90.00000000
_cell_angle_gamma   90.00000000
_symmetry_Int_Tables_number   1
_chemical_formula_structural   Tb2Ho2Al4IrPd3
_chemical_formula_sum   'Tb2 Ho2 Al4 Ir1 Pd3'
_cell_volume   236.80380503
_cell_formula_units_Z   1
loop_
 _symmetry_equiv_pos_site_id
 _symmetry_equiv_pos_as_xyz
  1  'x, y, z'
loop_
 _atom_site_type_symbol
 _atom_site_label
 _atom_site_symmetry_multiplicity
 _atom_site_fract_x
 _atom_site_fract_y
 _atom_site_fract_z
 _atom_site_occupancy
  Tb  Tb0  1  0.250000  0.035461  0.678323  1
  Tb  Tb1  1  0.250000  0.532102  0.819588  1
  Ho  Ho2  1  0.750000  0.977127  0.319530  1
  Ho  Ho3  1  0.750000  0.463576  0.184302  1
  Al  Al4  1  0.250000  0.146965  0.065298  1
  Al  Al5  1  0.250000  0.639419  0.436344  1
  Al  Al6  1  0.750000  0.854835  0.939880  1
  Al  Al7  1  0.750000  0.353484  0.559143  1
  Ir  Ir8  1  0.250000  0.268368  0.380308  1
  Pd  Pd9  1  0.250000  0.772479  0.118011  1
  Pd  Pd10  1  0.750000  0.728395  0.617794  1
  Pd  Pd11  1  0.750000  0.227788  0.881476  1
