# generated using pymatgen
data_Ce6Mn(CrC4)3
_symmetry_space_group_name_H-M   'P 1'
_cell_length_a   8.23853200
_cell_length_b   8.23853200
_cell_length_c   5.09218200
_cell_angle_alpha   90.00000000
_cell_angle_beta   90.00000000
_cell_angle_gamma   119.99999305
_symmetry_Int_Tables_number   1
_chemical_formula_structural   Ce6Mn(CrC4)3
_chemical_formula_sum   'Ce6 Mn1 Cr3 C12'
_cell_volume   299.31897219
_cell_formula_units_Z   1
loop_
 _symmetry_equiv_pos_site_id
 _symmetry_equiv_pos_as_xyz
  1  'x, y, z'
loop_
 _atom_site_type_symbol
 _atom_site_label
 _atom_site_symmetry_multiplicity
 _atom_site_fract_x
 _atom_site_fract_y
 _atom_site_fract_z
 _atom_site_occupancy
  Ce  Ce0  1  0.626183  0.691748  0.750000  1
  Ce  Ce1  1  0.934609  0.623885  0.250000  1
  Ce  Ce2  1  0.689275  0.065391  0.250000  1
  Ce  Ce3  1  0.308252  0.934435  0.750000  1
  Ce  Ce4  1  0.065565  0.373817  0.750000  1
  Ce  Ce5  1  0.376115  0.310725  0.250000  1
  Mn  Mn6  1  0.333333  0.666667  0.250000  1
  Cr  Cr7  1  0.000000  0.000000  0.498084  1
  Cr  Cr8  1  0.000000  0.000000  0.001916  1
  Cr  Cr9  1  0.666667  0.333333  0.750000  1
  C  C10  1  0.960975  0.774160  0.750000  1
  C  C11  1  0.189609  0.959420  0.250000  1
  C  C12  1  0.769812  0.810391  0.250000  1
  C  C13  1  0.225840  0.186816  0.750000  1
  C  C14  1  0.813184  0.039025  0.750000  1
  C  C15  1  0.040580  0.230188  0.250000  1
  C  C16  1  0.862932  0.579015  0.750000  1
  C  C17  1  0.286046  0.861647  0.250000  1
  C  C18  1  0.575600  0.713954  0.250000  1
  C  C19  1  0.420985  0.283918  0.750000  1
  C  C20  1  0.138353  0.424400  0.250000  1
  C  C21  1  0.716082  0.137068  0.750000  1
