# generated using pymatgen
data_Ta4NbMo3H16
_symmetry_space_group_name_H-M   'P 1'
_cell_length_a   6.36646525
_cell_length_b   6.36046807
_cell_length_c   6.36046783
_cell_angle_alpha   60.06238690
_cell_angle_beta   59.96881223
_cell_angle_gamma   59.96880781
_symmetry_Int_Tables_number   1
_chemical_formula_structural   Ta4NbMo3H16
_chemical_formula_sum   'Ta4 Nb1 Mo3 H16'
_cell_volume   182.12130863
_cell_formula_units_Z   1
loop_
 _symmetry_equiv_pos_site_id
 _symmetry_equiv_pos_as_xyz
  1  'x, y, z'
loop_
 _atom_site_type_symbol
 _atom_site_label
 _atom_site_symmetry_multiplicity
 _atom_site_fract_x
 _atom_site_fract_y
 _atom_site_fract_z
 _atom_site_occupancy
  Ta  Ta0  1  0.000000  0.000000  0.500000  1
  Ta  Ta1  1  0.500000  0.000000  0.500000  1
  Ta  Ta2  1  0.500000  0.500000  0.000000  1
  Ta  Ta3  1  0.000000  0.500000  0.000000  1
  Nb  Nb4  1  0.000000  0.000000  0.000000  1
  Mo  Mo5  1  0.000000  0.500000  0.500000  1
  Mo  Mo6  1  0.500000  0.000000  0.000000  1
  Mo  Mo7  1  0.500000  0.500000  0.500000  1
  H  H8  1  0.876933  0.867231  0.378906  1
  H  H9  1  0.876933  0.378906  0.867231  1
  H  H10  1  0.378906  0.876933  0.876933  1
  H  H11  1  0.867231  0.876933  0.876933  1
  H  H12  1  0.123067  0.132769  0.621094  1
  H  H13  1  0.123067  0.621094  0.132769  1
  H  H14  1  0.621094  0.123067  0.123067  1
  H  H15  1  0.132769  0.123067  0.123067  1
  H  H16  1  0.620029  0.630233  0.129710  1
  H  H17  1  0.620029  0.129710  0.630233  1
  H  H18  1  0.129710  0.620029  0.620029  1
  H  H19  1  0.630233  0.620029  0.620029  1
  H  H20  1  0.379971  0.369767  0.870290  1
  H  H21  1  0.379971  0.870290  0.369767  1
  H  H22  1  0.870290  0.379971  0.379971  1
  H  H23  1  0.369767  0.379971  0.379971  1
