# generated using pymatgen
data_K2Hf4GeS10
_symmetry_space_group_name_H-M   'P 1'
_cell_length_a   6.21366895
_cell_length_b   10.51440022
_cell_length_c   8.42922400
_cell_angle_alpha   59.31224676
_cell_angle_beta   68.44891509
_cell_angle_gamma   90.07918410
_symmetry_Int_Tables_number   1
_chemical_formula_structural   K2Hf4GeS10
_chemical_formula_sum   'K2 Hf4 Ge1 S10'
_cell_volume   428.02392466
_cell_formula_units_Z   1
loop_
 _symmetry_equiv_pos_site_id
 _symmetry_equiv_pos_as_xyz
  1  'x, y, z'
loop_
 _atom_site_type_symbol
 _atom_site_label
 _atom_site_symmetry_multiplicity
 _atom_site_fract_x
 _atom_site_fract_y
 _atom_site_fract_z
 _atom_site_occupancy
  K  K0  1  0.787408  0.075109  0.425507  1
  K  K1  1  0.009129  0.525956  0.979961  1
  Hf  Hf2  1  0.399459  0.797949  0.201289  1
  Hf  Hf3  1  0.202642  0.401636  0.592636  1
  Hf  Hf4  1  0.600648  0.204551  0.800896  1
  Hf  Hf5  1  0.997174  0.995629  0.002324  1
  Ge  Ge6  1  0.801122  0.601093  0.401825  1
  S  S7  1  0.996744  0.842433  0.346878  1
  S  S8  1  0.589401  0.037996  0.155786  1
  S  S9  1  0.189566  0.239919  0.954356  1
  S  S10  1  0.790424  0.432006  0.760055  1
  S  S11  1  0.382574  0.637689  0.550337  1
  S  S12  1  0.404961  0.961505  0.848956  1
  S  S13  1  0.007831  0.161640  0.645930  1
  S  S14  1  0.603988  0.350876  0.455141  1
  S  S15  1  0.227041  0.561655  0.242926  1
  S  S16  1  0.809887  0.772359  0.035196  1
