# generated using pymatgen
data_Hf16Pd3Rh5O4
_symmetry_space_group_name_H-M   'P 1'
_cell_length_a   8.75264254
_cell_length_b   8.75264245
_cell_length_c   8.75264258
_cell_angle_alpha   60.08340892
_cell_angle_beta   60.08341127
_cell_angle_gamma   60.08341356
_symmetry_Int_Tables_number   1
_chemical_formula_structural   Hf16Pd3Rh5O4
_chemical_formula_sum   'Hf16 Pd3 Rh5 O4'
_cell_volume   475.03179721
_cell_formula_units_Z   1
loop_
 _symmetry_equiv_pos_site_id
 _symmetry_equiv_pos_as_xyz
  1  'x, y, z'
loop_
 _atom_site_type_symbol
 _atom_site_label
 _atom_site_symmetry_multiplicity
 _atom_site_fract_x
 _atom_site_fract_y
 _atom_site_fract_z
 _atom_site_occupancy
  Hf  Hf0  1  0.115422  0.626996  0.626996  1
  Hf  Hf1  1  0.626996  0.115422  0.626996  1
  Hf  Hf2  1  0.626996  0.626996  0.115422  1
  Hf  Hf3  1  0.630877  0.630877  0.630877  1
  Hf  Hf4  1  0.816914  0.816914  0.183110  1
  Hf  Hf5  1  0.183592  0.183592  0.816167  1
  Hf  Hf6  1  0.816914  0.183110  0.816914  1
  Hf  Hf7  1  0.183592  0.816167  0.183592  1
  Hf  Hf8  1  0.183110  0.816914  0.816914  1
  Hf  Hf9  1  0.816167  0.183592  0.183592  1
  Hf  Hf10  1  0.434199  0.434199  0.068137  1
  Hf  Hf11  1  0.065075  0.065075  0.434702  1
  Hf  Hf12  1  0.434199  0.068137  0.434199  1
  Hf  Hf13  1  0.065075  0.434702  0.065075  1
  Hf  Hf14  1  0.068137  0.434199  0.434199  1
  Hf  Hf15  1  0.434702  0.065075  0.065075  1
  Pd  Pd16  1  0.775108  0.409358  0.409358  1
  Pd  Pd17  1  0.409358  0.775108  0.409358  1
  Pd  Pd18  1  0.409358  0.409358  0.775108  1
  Rh  Rh19  1  0.403918  0.403918  0.403918  1
  Rh  Rh20  1  0.460849  0.847324  0.847324  1
  Rh  Rh21  1  0.847324  0.460849  0.847324  1
  Rh  Rh22  1  0.847324  0.847324  0.460849  1
  Rh  Rh23  1  0.845913  0.845913  0.845913  1
  O  O24  1  0.624361  0.124687  0.124687  1
  O  O25  1  0.124687  0.624361  0.124687  1
  O  O26  1  0.124687  0.124687  0.624361  1
  O  O27  1  0.125141  0.125141  0.125141  1
