# generated using pymatgen
data_SrPa4O10
_symmetry_space_group_name_H-M   'P 1'
_cell_length_a   6.69206279
_cell_length_b   6.69206308
_cell_length_c   6.69206200
_cell_angle_alpha   99.59781204
_cell_angle_beta   99.59781245
_cell_angle_gamma   131.80038441
_symmetry_Int_Tables_number   1
_chemical_formula_structural   SrPa4O10
_chemical_formula_sum   'Sr1 Pa4 O10'
_cell_volume   203.94059435
_cell_formula_units_Z   1
loop_
 _symmetry_equiv_pos_site_id
 _symmetry_equiv_pos_as_xyz
  1  'x, y, z'
loop_
 _atom_site_type_symbol
 _atom_site_label
 _atom_site_symmetry_multiplicity
 _atom_site_fract_x
 _atom_site_fract_y
 _atom_site_fract_z
 _atom_site_occupancy
  Sr  Sr0  1  0.000000  0.000000  0.000000  1
  Pa  Pa1  1  0.398767  0.201705  0.600473  1
  Pa  Pa2  1  0.798295  0.398767  0.197061  1
  Pa  Pa3  1  0.201705  0.601233  0.802939  1
  Pa  Pa4  1  0.601233  0.798295  0.399527  1
  O  O5  1  0.750000  0.250000  0.500000  1
  O  O6  1  0.159130  0.475026  0.109200  1
  O  O7  1  0.524974  0.634175  0.684102  1
  O  O8  1  0.950072  0.840870  0.315898  1
  O  O9  1  0.365825  0.049928  0.890800  1
  O  O10  1  0.840870  0.524974  0.890800  1
  O  O11  1  0.250000  0.750000  0.500000  1
  O  O12  1  0.634175  0.950072  0.109200  1
  O  O13  1  0.049928  0.159130  0.684102  1
  O  O14  1  0.475026  0.365825  0.315898  1
