# generated using pymatgen
data_Nd8Mn(Pd7Pt)3
_symmetry_space_group_name_H-M   'P 1'
_cell_length_a   8.46836500
_cell_length_b   8.47869600
_cell_length_c   8.48772300
_cell_angle_alpha   90.00000000
_cell_angle_beta   90.00000000
_cell_angle_gamma   90.00000000
_symmetry_Int_Tables_number   1
_chemical_formula_structural   Nd8Mn(Pd7Pt)3
_chemical_formula_sum   'Nd8 Mn1 Pd21 Pt3'
_cell_volume   609.42438874
_cell_formula_units_Z   1
loop_
 _symmetry_equiv_pos_site_id
 _symmetry_equiv_pos_as_xyz
  1  'x, y, z'
loop_
 _atom_site_type_symbol
 _atom_site_label
 _atom_site_symmetry_multiplicity
 _atom_site_fract_x
 _atom_site_fract_y
 _atom_site_fract_z
 _atom_site_occupancy
  Nd  Nd0  1  0.249471  0.249459  0.249772  1
  Nd  Nd1  1  0.749038  0.748896  0.748657  1
  Nd  Nd2  1  0.749038  0.748896  0.251343  1
  Nd  Nd3  1  0.750529  0.249459  0.750228  1
  Nd  Nd4  1  0.249471  0.249459  0.750228  1
  Nd  Nd5  1  0.250962  0.748896  0.251343  1
  Nd  Nd6  1  0.250962  0.748896  0.748657  1
  Nd  Nd7  1  0.750529  0.249459  0.249772  1
  Mn  Mn8  1  0.000000  0.010710  0.000000  1
  Pd  Pd9  1  0.263189  0.500682  0.000000  1
  Pd  Pd10  1  0.736811  0.500682  0.000000  1
  Pd  Pd11  1  0.000000  0.262110  0.500000  1
  Pd  Pd12  1  0.500000  0.260145  0.000000  1
  Pd  Pd13  1  0.000000  0.735789  0.500000  1
  Pd  Pd14  1  0.500000  0.737073  0.000000  1
  Pd  Pd15  1  0.500000  0.999845  0.261335  1
  Pd  Pd16  1  0.263436  0.999917  0.500000  1
  Pd  Pd17  1  0.500000  0.999845  0.738665  1
  Pd  Pd18  1  0.736564  0.999917  0.500000  1
  Pd  Pd19  1  0.000000  0.500816  0.262729  1
  Pd  Pd20  1  0.000000  0.500816  0.737271  1
  Pd  Pd21  1  0.254218  0.498957  0.500000  1
  Pd  Pd22  1  0.745782  0.498957  0.500000  1
  Pd  Pd23  1  0.500000  0.253380  0.500000  1
  Pd  Pd24  1  0.500000  0.745668  0.500000  1
  Pd  Pd25  1  0.500000  0.499018  0.253828  1
  Pd  Pd26  1  0.500000  0.499018  0.746172  1
  Pd  Pd27  1  0.000000  0.709513  0.000000  1
  Pd  Pd28  1  0.000000  0.997707  0.298593  1
  Pd  Pd29  1  0.000000  0.997707  0.701407  1
  Pt  Pt30  1  0.294320  0.997344  0.000000  1
  Pt  Pt31  1  0.705680  0.997344  0.000000  1
  Pt  Pt32  1  0.000000  0.303624  0.000000  1
