# generated using pymatgen
data_Dy(ErHg2)5
_symmetry_space_group_name_H-M   'P 1'
_cell_length_a   6.33207319
_cell_length_b   6.33207323
_cell_length_c   10.17436363
_cell_angle_alpha   90.06602576
_cell_angle_beta   90.06602015
_cell_angle_gamma   105.13616882
_symmetry_Int_Tables_number   1
_chemical_formula_structural   Dy(ErHg2)5
_chemical_formula_sum   'Dy1 Er5 Hg10'
_cell_volume   393.78958954
_cell_formula_units_Z   1
loop_
 _symmetry_equiv_pos_site_id
 _symmetry_equiv_pos_as_xyz
  1  'x, y, z'
loop_
 _atom_site_type_symbol
 _atom_site_label
 _atom_site_symmetry_multiplicity
 _atom_site_fract_x
 _atom_site_fract_y
 _atom_site_fract_z
 _atom_site_occupancy
  Dy  Dy0  1  0.211175  0.788825  0.500000  1
  Er  Er1  1  0.591439  0.590681  0.249918  1
  Er  Er2  1  0.409319  0.408561  0.750082  1
  Er  Er3  1  0.211832  0.788168  0.000000  1
  Er  Er4  1  0.788421  0.211579  0.500000  1
  Er  Er5  1  0.787837  0.212163  0.000000  1
  Hg  Hg6  1  0.989541  0.989705  0.249558  1
  Hg  Hg7  1  0.010295  0.010459  0.750442  1
  Hg  Hg8  1  0.299091  0.298893  0.033135  1
  Hg  Hg9  1  0.701107  0.700909  0.966865  1
  Hg  Hg10  1  0.299413  0.300032  0.466351  1
  Hg  Hg11  1  0.699968  0.700587  0.533649  1
  Hg  Hg12  1  0.494937  0.053029  0.249612  1
  Hg  Hg13  1  0.946971  0.505063  0.750388  1
  Hg  Hg14  1  0.506548  0.947894  0.750796  1
  Hg  Hg15  1  0.052106  0.493452  0.249204  1
