# generated using pymatgen
data_Pr5MnIrO12
_symmetry_space_group_name_H-M   'P 1'
_cell_length_a   7.09715483
_cell_length_b   7.09715536
_cell_length_c   7.66622300
_cell_angle_alpha   74.43739419
_cell_angle_beta   74.43739300
_cell_angle_gamma   50.83750056
_symmetry_Int_Tables_number   1
_chemical_formula_structural   Pr5MnIrO12
_chemical_formula_sum   'Pr5 Mn1 Ir1 O12'
_cell_volume   285.88629383
_cell_formula_units_Z   1
loop_
 _symmetry_equiv_pos_site_id
 _symmetry_equiv_pos_as_xyz
  1  'x, y, z'
loop_
 _atom_site_type_symbol
 _atom_site_label
 _atom_site_symmetry_multiplicity
 _atom_site_fract_x
 _atom_site_fract_y
 _atom_site_fract_z
 _atom_site_occupancy
  Pr  Pr0  1  0.314424  0.298170  0.357203  1
  Pr  Pr1  1  0.701830  0.685576  0.642797  1
  Pr  Pr2  1  0.693760  0.693268  0.165134  1
  Pr  Pr3  1  0.306732  0.306240  0.834866  1
  Pr  Pr4  1  0.000629  0.999371  0.500000  1
  Mn  Mn5  1  0.751783  0.248217  0.000000  1
  Ir  Ir6  1  0.240283  0.759717  0.000000  1
  O  O7  1  0.099263  0.595438  0.576204  1
  O  O8  1  0.988824  0.009627  0.170476  1
  O  O9  1  0.404562  0.900737  0.423796  1
  O  O10  1  0.505037  0.496032  0.169306  1
  O  O11  1  0.099471  0.585142  0.078458  1
  O  O12  1  0.908127  0.402340  0.420628  1
  O  O13  1  0.990373  0.011176  0.829524  1
  O  O14  1  0.597660  0.091872  0.579372  1
  O  O15  1  0.503968  0.494963  0.830694  1
  O  O16  1  0.581190  0.102775  0.077374  1
  O  O17  1  0.414858  0.900529  0.921542  1
  O  O18  1  0.897225  0.418810  0.922626  1
