# generated using pymatgen
data_La3Nd5(InIr)2
_symmetry_space_group_name_H-M   'P 1'
_cell_length_a   10.04584300
_cell_length_b   10.12299680
_cell_length_c   10.07786900
_cell_angle_alpha   59.64313790
_cell_angle_beta   60.40185267
_cell_angle_gamma   60.54622688
_symmetry_Int_Tables_number   1
_chemical_formula_structural   La3Nd5(InIr)2
_chemical_formula_sum   'La6 Nd10 In4 Ir4'
_cell_volume   727.81558252
_cell_formula_units_Z   2
loop_
 _symmetry_equiv_pos_site_id
 _symmetry_equiv_pos_as_xyz
  1  'x, y, z'
loop_
 _atom_site_type_symbol
 _atom_site_label
 _atom_site_symmetry_multiplicity
 _atom_site_fract_x
 _atom_site_fract_y
 _atom_site_fract_z
 _atom_site_occupancy
  La  La0  1  0.345056  0.348983  0.348496  1
  La  La1  1  0.348975  0.345079  0.957448  1
  La  La2  1  0.349270  0.956612  0.345433  1
  La  La3  1  0.956587  0.349275  0.348691  1
  La  La4  1  0.811400  0.188081  0.188602  1
  La  La5  1  0.188105  0.811389  0.811893  1
  Nd  Nd6  1  0.192325  0.807183  0.192907  1
  Nd  Nd7  1  0.807184  0.192298  0.807591  1
  Nd  Nd8  1  0.192208  0.192196  0.807798  1
  Nd  Nd9  1  0.807136  0.807138  0.192849  1
  Nd  Nd10  1  0.937113  0.563248  0.563761  1
  Nd  Nd11  1  0.563276  0.937096  0.935866  1
  Nd  Nd12  1  0.560446  0.940470  0.560458  1
  Nd  Nd13  1  0.940484  0.560484  0.938633  1
  Nd  Nd14  1  0.560586  0.560613  0.939409  1
  Nd  Nd15  1  0.939704  0.939696  0.560299  1
  In  In16  1  0.582905  0.579875  0.580220  1
  In  In17  1  0.579882  0.582931  0.257003  1
  In  In18  1  0.580180  0.256570  0.582771  1
  In  In19  1  0.256547  0.580168  0.580524  1
  Ir  Ir20  1  0.135845  0.143943  0.143809  1
  Ir  Ir21  1  0.143944  0.135842  0.576388  1
  Ir  Ir22  1  0.144026  0.576792  0.135202  1
  Ir  Ir23  1  0.576813  0.144032  0.143946  1
