# generated using pymatgen
data_Ho6ZrAu10
_symmetry_space_group_name_H-M   'P 1'
_cell_length_a   8.66803543
_cell_length_b   8.66804488
_cell_length_c   10.32345100
_cell_angle_alpha   90.00000000
_cell_angle_beta   90.00000000
_cell_angle_gamma   106.97063092
_symmetry_Int_Tables_number   1
_chemical_formula_structural   Ho6ZrAu10
_chemical_formula_sum   'Ho12 Zr2 Au20'
_cell_volume   741.87552328
_cell_formula_units_Z   2
loop_
 _symmetry_equiv_pos_site_id
 _symmetry_equiv_pos_as_xyz
  1  'x, y, z'
loop_
 _atom_site_type_symbol
 _atom_site_label
 _atom_site_symmetry_multiplicity
 _atom_site_fract_x
 _atom_site_fract_y
 _atom_site_fract_z
 _atom_site_occupancy
  Ho  Ho0  1  0.692272  0.307727  0.000000  1
  Ho  Ho1  1  0.307728  0.692273  0.000000  1
  Ho  Ho2  1  0.807728  0.192273  0.500000  1
  Ho  Ho3  1  0.192272  0.807727  0.500000  1
  Ho  Ho4  1  0.002639  0.502639  0.250000  1
  Ho  Ho5  1  0.997361  0.497361  0.750000  1
  Ho  Ho6  1  0.497361  0.997361  0.750000  1
  Ho  Ho7  1  0.502639  0.002639  0.250000  1
  Ho  Ho8  1  0.311853  0.311853  0.189141  1
  Ho  Ho9  1  0.688147  0.688147  0.810859  1
  Ho  Ho10  1  0.188147  0.188147  0.689141  1
  Ho  Ho11  1  0.811853  0.811853  0.310859  1
  Zr  Zr12  1  0.000000  0.000000  0.000000  1
  Zr  Zr13  1  0.500000  0.500000  0.500000  1
  Au  Au14  1  0.861930  0.148281  0.205219  1
  Au  Au15  1  0.138070  0.851719  0.794781  1
  Au  Au16  1  0.638070  0.351719  0.705219  1
  Au  Au17  1  0.648281  0.361930  0.294781  1
  Au  Au18  1  0.361930  0.648281  0.294781  1
  Au  Au19  1  0.351719  0.638070  0.705219  1
  Au  Au20  1  0.851719  0.138070  0.794781  1
  Au  Au21  1  0.148281  0.861930  0.205219  1
  Au  Au22  1  0.939388  0.651332  0.002432  1
  Au  Au23  1  0.060612  0.348668  0.997568  1
  Au  Au24  1  0.560612  0.848668  0.502432  1
  Au  Au25  1  0.151333  0.439388  0.497569  1
  Au  Au26  1  0.439388  0.151332  0.497568  1
  Au  Au27  1  0.848667  0.560612  0.502431  1
  Au  Au28  1  0.348667  0.060612  0.997569  1
  Au  Au29  1  0.651333  0.939388  0.002431  1
  Au  Au30  1  0.103686  0.103686  0.398451  1
  Au  Au31  1  0.896314  0.896314  0.601549  1
  Au  Au32  1  0.396314  0.396314  0.898451  1
  Au  Au33  1  0.603686  0.603686  0.101549  1
