# generated using pymatgen
data_SbP4AuO14
_symmetry_space_group_name_H-M   'P 1'
_cell_length_a   8.72390948
_cell_length_b   4.83969161
_cell_length_c   7.21742297
_cell_angle_alpha   70.65581173
_cell_angle_beta   96.93027818
_cell_angle_gamma   92.77210096
_symmetry_Int_Tables_number   1
_chemical_formula_structural   SbP4AuO14
_chemical_formula_sum   'Sb1 P4 Au1 O14'
_cell_volume   285.41171536
_cell_formula_units_Z   1
loop_
 _symmetry_equiv_pos_site_id
 _symmetry_equiv_pos_as_xyz
  1  'x, y, z'
loop_
 _atom_site_type_symbol
 _atom_site_label
 _atom_site_symmetry_multiplicity
 _atom_site_fract_x
 _atom_site_fract_y
 _atom_site_fract_z
 _atom_site_occupancy
  Sb  Sb0  1  0.054859  0.205556  0.289706  1
  P  P1  1  0.865861  0.601357  0.486412  1
  P  P2  1  0.255918  0.798805  0.106625  1
  P  P3  1  0.789476  0.232202  0.886956  1
  P  P4  1  0.371216  0.394409  0.498717  1
  Au  Au5  1  0.563850  0.781713  0.728651  1
  O  O6  1  0.755344  0.941518  0.845761  1
  O  O7  1  0.320698  0.902557  0.916861  1
  O  O8  1  0.014409  0.801483  0.463247  1
  O  O9  1  0.714035  0.742730  0.422708  1
  O  O10  1  0.375333  0.591197  0.629047  1
  O  O11  1  0.642240  0.382536  0.902534  1
  O  O12  1  0.892331  0.436026  0.725869  1
  O  O13  1  0.381773  0.593042  0.274108  1
  O  O14  1  0.103909  0.605281  0.112487  1
  O  O15  1  0.888948  0.356012  0.395030  1
  O  O16  1  0.208297  0.248278  0.509511  1
  O  O17  1  0.505839  0.184419  0.537680  1
  O  O18  1  0.897354  0.148792  0.081306  1
  O  O19  1  0.221521  0.052086  0.186783  1
