# generated using pymatgen
data_Tm16Cd4PdRu3
_symmetry_space_group_name_H-M   'P 1'
_cell_length_a   9.52549749
_cell_length_b   9.54274037
_cell_length_c   9.54264900
_cell_angle_alpha   59.67932418
_cell_angle_beta   59.35741695
_cell_angle_gamma   59.35740235
_symmetry_Int_Tables_number   1
_chemical_formula_structural   Tm16Cd4PdRu3
_chemical_formula_sum   'Tm16 Cd4 Pd1 Ru3'
_cell_volume   605.87746626
_cell_formula_units_Z   1
loop_
 _symmetry_equiv_pos_site_id
 _symmetry_equiv_pos_as_xyz
  1  'x, y, z'
loop_
 _atom_site_type_symbol
 _atom_site_label
 _atom_site_symmetry_multiplicity
 _atom_site_fract_x
 _atom_site_fract_y
 _atom_site_fract_z
 _atom_site_occupancy
  Tm  Tm0  1  0.346241  0.351697  0.351770  1
  Tm  Tm1  1  0.346377  0.352238  0.952498  1
  Tm  Tm2  1  0.346324  0.952562  0.352281  1
  Tm  Tm3  1  0.961953  0.345703  0.345791  1
  Tm  Tm4  1  0.815884  0.189042  0.189006  1
  Tm  Tm5  1  0.184699  0.811371  0.811291  1
  Tm  Tm6  1  0.186870  0.810590  0.189268  1
  Tm  Tm7  1  0.815033  0.190192  0.804065  1
  Tm  Tm8  1  0.186826  0.189265  0.810580  1
  Tm  Tm9  1  0.814990  0.804080  0.190224  1
  Tm  Tm10  1  0.937313  0.561368  0.561358  1
  Tm  Tm11  1  0.557478  0.937789  0.937761  1
  Tm  Tm12  1  0.557791  0.938431  0.566253  1
  Tm  Tm13  1  0.936739  0.561841  0.938870  1
  Tm  Tm14  1  0.557793  0.566258  0.938433  1
  Tm  Tm15  1  0.936666  0.938862  0.561874  1
  Cd  Cd16  1  0.580109  0.580772  0.580771  1
  Cd  Cd17  1  0.580736  0.579984  0.257785  1
  Cd  Cd18  1  0.580741  0.257785  0.580005  1
  Cd  Cd19  1  0.254938  0.581565  0.581574  1
  Pd  Pd20  1  0.574737  0.142700  0.142780  1
  Ru  Ru21  1  0.146765  0.138161  0.138098  1
  Ru  Ru22  1  0.146492  0.141734  0.575976  1
  Ru  Ru23  1  0.146509  0.576014  0.141691  1
