# generated using pymatgen
data_Sr14YbBi11
_symmetry_space_group_name_H-M   'P 1'
_cell_length_a   17.42021604
_cell_length_b   17.42021590
_cell_length_c   17.42021600
_cell_angle_alpha   117.53088632
_cell_angle_beta   117.53088608
_cell_angle_gamma   94.33262965
_symmetry_Int_Tables_number   1
_chemical_formula_structural   Sr14YbBi11
_chemical_formula_sum   'Sr56 Yb4 Bi44'
_cell_volume   3865.60386945
_cell_formula_units_Z   4
loop_
 _symmetry_equiv_pos_site_id
 _symmetry_equiv_pos_as_xyz
  1  'x, y, z'
loop_
 _atom_site_type_symbol
 _atom_site_label
 _atom_site_symmetry_multiplicity
 _atom_site_fract_x
 _atom_site_fract_y
 _atom_site_fract_z
 _atom_site_occupancy
  Sr  Sr0  1  0.499123  0.603325  0.846540  1
  Sr  Sr1  1  0.625000  0.230616  0.105616  1
  Sr  Sr2  1  0.160321  0.026757  0.782598  1
  Sr  Sr3  1  0.895948  0.377215  0.838557  1
  Sr  Sr4  1  0.125000  0.019384  0.394384  1
  Sr  Sr5  1  0.769384  0.875000  0.394384  1
  Sr  Sr6  1  0.127723  0.410321  0.633565  1
  Sr  Sr7  1  0.756785  0.652583  0.153460  1
  Sr  Sr8  1  0.711341  0.372785  0.018732  1
  Sr  Sr9  1  0.442609  0.961341  0.838557  1
  Sr  Sr10  1  0.307391  0.288659  0.661443  1
  Sr  Sr11  1  0.038659  0.877215  0.481268  1
  Sr  Sr12  1  0.493215  0.146675  0.395799  1
  Sr  Sr13  1  0.353325  0.006785  0.604201  1
  Sr  Sr14  1  0.125000  0.519384  0.894384  1
  Sr  Sr15  1  0.993215  0.597417  0.346540  1
  Sr  Sr16  1  0.942609  0.104052  0.481268  1
  Sr  Sr17  1  0.627215  0.645948  0.338557  1
  Sr  Sr18  1  0.896675  0.000877  0.153460  1
  Sr  Sr19  1  0.354052  0.692609  0.981268  1
  Sr  Sr20  1  0.122785  0.604052  0.161443  1
  Sr  Sr21  1  0.999123  0.152583  0.895799  1
  Sr  Sr22  1  0.660321  0.877723  0.133565  1
  Sr  Sr23  1  0.505842  0.872277  0.282598  1
  Sr  Sr24  1  0.854052  0.872785  0.661443  1
  Sr  Sr25  1  0.211341  0.192609  0.338557  1
  Sr  Sr26  1  0.005842  0.723243  0.633565  1
  Sr  Sr27  1  0.744158  0.526757  0.866435  1
  Sr  Sr28  1  0.256785  0.103325  0.104201  1
  Sr  Sr29  1  0.244158  0.377723  0.217402  1
  Sr  Sr30  1  0.347417  0.500877  0.104201  1
  Sr  Sr31  1  0.250877  0.646675  0.653460  1
  Sr  Sr32  1  0.750877  0.097417  0.604201  1
  Sr  Sr33  1  0.625000  0.730616  0.605616  1
  Sr  Sr34  1  0.902583  0.506785  0.653460  1
  Sr  Sr35  1  0.847417  0.743215  0.846540  1
  Sr  Sr36  1  0.622277  0.839679  0.866435  1
  Sr  Sr37  1  0.276757  0.910321  0.282598  1
  Sr  Sr38  1  0.853325  0.249123  0.346540  1
  Sr  Sr39  1  0.127215  0.788659  0.981268  1
  Sr  Sr40  1  0.776757  0.494158  0.366435  1
  Sr  Sr41  1  0.973243  0.755842  0.133565  1
  Sr  Sr42  1  0.122277  0.255842  0.782598  1
  Sr  Sr43  1  0.589679  0.223243  0.717402  1
  Sr  Sr44  1  0.622785  0.461341  0.518732  1
  Sr  Sr45  1  0.980616  0.375000  0.105616  1
  Sr  Sr46  1  0.538659  0.057391  0.161443  1
  Sr  Sr47  1  0.396675  0.243215  0.895799  1
  Sr  Sr48  1  0.402583  0.749123  0.395799  1
  Sr  Sr49  1  0.480616  0.375000  0.605616  1
  Sr  Sr50  1  0.089679  0.372277  0.366435  1
  Sr  Sr51  1  0.807391  0.145948  0.018732  1
  Sr  Sr52  1  0.269384  0.875000  0.894384  1
  Sr  Sr53  1  0.473243  0.339679  0.217402  1
  Sr  Sr54  1  0.395948  0.557391  0.518732  1
  Sr  Sr55  1  0.627723  0.994158  0.717402  1
  Yb  Yb56  1  0.250000  0.750000  0.500000  1
  Yb  Yb57  1  0.750000  0.250000  0.500000  1
  Yb  Yb58  1  0.000000  0.000000  0.000000  1
  Yb  Yb59  1  0.500000  0.500000  0.000000  1
  Bi  Bi60  1  0.865053  0.365053  0.230105  1
  Bi  Bi61  1  0.290230  0.699379  0.144939  1
  Bi  Bi62  1  0.884947  0.884947  0.269895  1
  Bi  Bi63  1  0.554440  0.145291  0.855061  1
  Bi  Bi64  1  0.949379  0.040230  0.644939  1
  Bi  Bi65  1  0.365053  0.134947  0.500000  1
  Bi  Bi66  1  0.459770  0.550621  0.355061  1
  Bi  Bi67  1  0.354709  0.945560  0.144939  1
  Bi  Bi68  1  0.060719  0.210974  0.140108  1
  Bi  Bi69  1  0.054440  0.199379  0.409149  1
  Bi  Bi70  1  0.500000  0.000000  0.500000  1
  Bi  Bi71  1  0.195560  0.104709  0.644939  1
  Bi  Bi72  1  0.789026  0.929134  0.849745  1
  Bi  Bi73  1  0.679134  0.329390  0.640108  1
  Bi  Bi74  1  0.460974  0.810719  0.640108  1
  Bi  Bi75  1  0.170610  0.820866  0.359892  1
  Bi  Bi76  1  0.570866  0.710974  0.150255  1
  Bi  Bi77  1  0.670610  0.310719  0.349745  1
  Bi  Bi78  1  0.079390  0.939281  0.150255  1
  Bi  Bi79  1  0.750000  0.750000  0.000000  1
  Bi  Bi80  1  0.560719  0.420610  0.849745  1
  Bi  Bi81  1  0.384947  0.115053  0.000000  1
  Bi  Bi82  1  0.070866  0.920610  0.859892  1
  Bi  Bi83  1  0.000000  0.500000  0.500000  1
  Bi  Bi84  1  0.289026  0.439281  0.859892  1
  Bi  Bi85  1  0.800621  0.209770  0.855061  1
  Bi  Bi86  1  0.250000  0.250000  0.000000  1
  Bi  Bi87  1  0.395291  0.304440  0.355061  1
  Bi  Bi88  1  0.300621  0.445560  0.590851  1
  Bi  Bi89  1  0.695560  0.050621  0.090851  1
  Bi  Bi90  1  0.790230  0.645291  0.590851  1
  Bi  Bi91  1  0.189281  0.829390  0.650255  1
  Bi  Bi92  1  0.959770  0.604709  0.909149  1
  Bi  Bi93  1  0.115053  0.384947  0.000000  1
  Bi  Bi94  1  0.960974  0.320866  0.650255  1
  Bi  Bi95  1  0.634947  0.865053  0.500000  1
  Bi  Bi96  1  0.689281  0.039026  0.359892  1
  Bi  Bi97  1  0.579390  0.429134  0.140108  1
  Bi  Bi98  1  0.854709  0.709770  0.409149  1
  Bi  Bi99  1  0.895291  0.540230  0.090851  1
  Bi  Bi100  1  0.449379  0.804440  0.909149  1
  Bi  Bi101  1  0.134947  0.634947  0.769895  1
  Bi  Bi102  1  0.615053  0.615053  0.730105  1
  Bi  Bi103  1  0.179134  0.539026  0.349745  1
