# generated using pymatgen
data_Pr7Nd3(SnBi)4
_symmetry_space_group_name_H-M   'P 1'
_cell_length_a   8.49098600
_cell_length_b   8.52241723
_cell_length_c   16.22014644
_cell_angle_alpha   90.02662887
_cell_angle_beta   90.00000000
_cell_angle_gamma   90.00000000
_symmetry_Int_Tables_number   1
_chemical_formula_structural   Pr7Nd3(SnBi)4
_chemical_formula_sum   'Pr14 Nd6 Sn8 Bi8'
_cell_volume   1173.75009581
_cell_formula_units_Z   2
loop_
 _symmetry_equiv_pos_site_id
 _symmetry_equiv_pos_as_xyz
  1  'x, y, z'
loop_
 _atom_site_type_symbol
 _atom_site_label
 _atom_site_symmetry_multiplicity
 _atom_site_fract_x
 _atom_site_fract_y
 _atom_site_fract_z
 _atom_site_occupancy
  Pr  Pr0  1  0.608553  0.164683  0.379367  1
  Pr  Pr1  1  0.108553  0.335317  0.120633  1
  Pr  Pr2  1  0.608550  0.164722  0.120709  1
  Pr  Pr3  1  0.108550  0.335278  0.379291  1
  Pr  Pr4  1  0.391522  0.835247  0.620718  1
  Pr  Pr5  1  0.891522  0.664753  0.879282  1
  Pr  Pr6  1  0.548788  0.325518  0.890458  1
  Pr  Pr7  1  0.048788  0.174482  0.609542  1
  Pr  Pr8  1  0.451180  0.674514  0.390451  1
  Pr  Pr9  1  0.951180  0.825486  0.109549  1
  Pr  Pr10  1  0.451172  0.674548  0.109408  1
  Pr  Pr11  1  0.951172  0.825452  0.390592  1
  Pr  Pr12  1  0.548917  0.325728  0.609621  1
  Pr  Pr13  1  0.048917  0.174272  0.890379  1
  Nd  Nd14  1  0.391066  0.835479  0.878866  1
  Nd  Nd15  1  0.891066  0.664521  0.621134  1
  Nd  Nd16  1  0.217660  0.496258  0.749957  1
  Nd  Nd17  1  0.717660  0.003742  0.750043  1
  Nd  Nd18  1  0.782294  0.504177  0.250046  1
  Nd  Nd19  1  0.282294  0.995823  0.249954  1
  Sn  Sn20  1  0.589866  0.623314  0.750079  1
  Sn  Sn21  1  0.089866  0.876686  0.749921  1
  Sn  Sn22  1  0.410167  0.377468  0.250018  1
  Sn  Sn23  1  0.910167  0.122532  0.249982  1
  Sn  Sn24  1  0.350295  0.136489  0.750281  1
  Sn  Sn25  1  0.850295  0.363511  0.749719  1
  Sn  Sn26  1  0.649883  0.862961  0.249991  1
  Sn  Sn27  1  0.149883  0.637039  0.250009  1
  Bi  Bi28  1  0.269287  0.018936  0.044776  1
  Bi  Bi29  1  0.769287  0.481064  0.455224  1
  Bi  Bi30  1  0.731775  0.979225  0.545568  1
  Bi  Bi31  1  0.231775  0.520775  0.954432  1
  Bi  Bi32  1  0.730097  0.979952  0.954454  1
  Bi  Bi33  1  0.230097  0.520048  0.545546  1
  Bi  Bi34  1  0.268929  0.019601  0.454660  1
  Bi  Bi35  1  0.768929  0.480399  0.045340  1
