# generated using pymatgen
data_Lu4MnGaTc6
_symmetry_space_group_name_H-M   'P 1'
_cell_length_a   5.27059816
_cell_length_b   5.27059763
_cell_length_c   8.87747401
_cell_angle_alpha   90.00447558
_cell_angle_beta   89.99552277
_cell_angle_gamma   120.00080042
_symmetry_Int_Tables_number   1
_chemical_formula_structural   Lu4MnGaTc6
_chemical_formula_sum   'Lu4 Mn1 Ga1 Tc6'
_cell_volume   213.56806119
_cell_formula_units_Z   1
loop_
 _symmetry_equiv_pos_site_id
 _symmetry_equiv_pos_as_xyz
  1  'x, y, z'
loop_
 _atom_site_type_symbol
 _atom_site_label
 _atom_site_symmetry_multiplicity
 _atom_site_fract_x
 _atom_site_fract_y
 _atom_site_fract_z
 _atom_site_occupancy
  Lu  Lu0  1  0.666593  0.333407  0.068062  1
  Lu  Lu1  1  0.333407  0.666593  0.931938  1
  Lu  Lu2  1  0.333411  0.666589  0.567528  1
  Lu  Lu3  1  0.666589  0.333411  0.432472  1
  Mn  Mn4  1  0.000000  0.000000  0.500000  1
  Ga  Ga5  1  0.000000  0.000000  0.000000  1
  Tc  Tc6  1  0.169735  0.340048  0.251883  1
  Tc  Tc7  1  0.169734  0.830266  0.251909  1
  Tc  Tc8  1  0.659952  0.830265  0.251883  1
  Tc  Tc9  1  0.830265  0.659952  0.748117  1
  Tc  Tc10  1  0.830266  0.169734  0.748091  1
  Tc  Tc11  1  0.340048  0.169735  0.748117  1
