# generated using pymatgen
data_Dy8In3Ir
_symmetry_space_group_name_H-M   'P 1'
_cell_length_a   10.43080600
_cell_length_b   10.43080602
_cell_length_c   7.10140100
_cell_angle_alpha   90.00000000
_cell_angle_beta   90.00000000
_cell_angle_gamma   119.99999994
_symmetry_Int_Tables_number   1
_chemical_formula_structural   Dy8In3Ir
_chemical_formula_sum   'Dy16 In6 Ir2'
_cell_volume   669.12985268
_cell_formula_units_Z   2
loop_
 _symmetry_equiv_pos_site_id
 _symmetry_equiv_pos_as_xyz
  1  'x, y, z'
loop_
 _atom_site_type_symbol
 _atom_site_label
 _atom_site_symmetry_multiplicity
 _atom_site_fract_x
 _atom_site_fract_y
 _atom_site_fract_z
 _atom_site_occupancy
  Dy  Dy0  1  0.465698  0.534302  0.481029  1
  Dy  Dy1  1  0.068604  0.534302  0.481029  1
  Dy  Dy2  1  0.465698  0.931396  0.481029  1
  Dy  Dy3  1  0.534302  0.465698  0.981029  1
  Dy  Dy4  1  0.931396  0.465698  0.981029  1
  Dy  Dy5  1  0.534302  0.068604  0.981029  1
  Dy  Dy6  1  0.823893  0.176107  0.275359  1
  Dy  Dy7  1  0.352213  0.176107  0.275359  1
  Dy  Dy8  1  0.823893  0.647787  0.275359  1
  Dy  Dy9  1  0.176107  0.823893  0.775359  1
  Dy  Dy10  1  0.647787  0.823893  0.775359  1
  Dy  Dy11  1  0.176107  0.352213  0.775359  1
  Dy  Dy12  1  0.333333  0.666667  0.099431  1
  Dy  Dy13  1  0.666667  0.333333  0.599431  1
  Dy  Dy14  1  0.000000  0.000000  0.497045  1
  Dy  Dy15  1  0.000000  0.000000  0.997045  1
  In  In16  1  0.163028  0.836972  0.233356  1
  In  In17  1  0.673946  0.836972  0.233356  1
  In  In18  1  0.163028  0.326054  0.233356  1
  In  In19  1  0.836972  0.163028  0.733356  1
  In  In20  1  0.326054  0.163028  0.733356  1
  In  In21  1  0.836972  0.673946  0.733356  1
  Ir  Ir22  1  0.333333  0.666667  0.706573  1
  Ir  Ir23  1  0.666667  0.333333  0.206573  1
