# generated using pymatgen
data_AcSeClO3
_symmetry_space_group_name_H-M   'P 1'
_cell_length_a   5.88097900
_cell_length_b   7.07679500
_cell_length_c   12.81117800
_cell_angle_alpha   90.00000000
_cell_angle_beta   90.00000000
_cell_angle_gamma   90.00000000
_symmetry_Int_Tables_number   1
_chemical_formula_structural   AcSeClO3
_chemical_formula_sum   'Ac4 Se4 Cl4 O12'
_cell_volume   533.18179101
_cell_formula_units_Z   4
loop_
 _symmetry_equiv_pos_site_id
 _symmetry_equiv_pos_as_xyz
  1  'x, y, z'
loop_
 _atom_site_type_symbol
 _atom_site_label
 _atom_site_symmetry_multiplicity
 _atom_site_fract_x
 _atom_site_fract_y
 _atom_site_fract_z
 _atom_site_occupancy
  Ac  Ac0  1  0.250000  0.707006  0.541091  1
  Ac  Ac1  1  0.750000  0.292994  0.458909  1
  Ac  Ac2  1  0.250000  0.792994  0.041091  1
  Ac  Ac3  1  0.750000  0.207006  0.958909  1
  Se  Se4  1  0.750000  0.983734  0.200969  1
  Se  Se5  1  0.250000  0.483734  0.299031  1
  Se  Se6  1  0.250000  0.016266  0.799031  1
  Se  Se7  1  0.750000  0.516266  0.700969  1
  Cl  Cl8  1  0.250000  0.394989  0.951123  1
  Cl  Cl9  1  0.250000  0.105011  0.451123  1
  Cl  Cl10  1  0.750000  0.894989  0.548877  1
  Cl  Cl11  1  0.750000  0.605011  0.048877  1
  O  O12  1  0.750000  0.319972  0.777517  1
  O  O13  1  0.029574  0.967436  0.887434  1
  O  O14  1  0.750000  0.180028  0.277517  1
  O  O15  1  0.970426  0.032564  0.112566  1
  O  O16  1  0.970426  0.467436  0.612566  1
  O  O17  1  0.529574  0.032564  0.112566  1
  O  O18  1  0.470426  0.532564  0.387434  1
  O  O19  1  0.470426  0.967436  0.887434  1
  O  O20  1  0.250000  0.680028  0.222483  1
  O  O21  1  0.529574  0.467436  0.612566  1
  O  O22  1  0.029574  0.532564  0.387434  1
  O  O23  1  0.250000  0.819972  0.722483  1
