# generated using pymatgen
data_Sm2Y4PtI10
_symmetry_space_group_name_H-M   'P 1'
_cell_length_a   7.76873588
_cell_length_b   9.79312144
_cell_length_c   9.86299899
_cell_angle_alpha   107.33207692
_cell_angle_beta   96.82998806
_cell_angle_gamma   104.99278475
_symmetry_Int_Tables_number   1
_chemical_formula_structural   Sm2Y4PtI10
_chemical_formula_sum   'Sm2 Y4 Pt1 I10'
_cell_volume   676.11256317
_cell_formula_units_Z   1
loop_
 _symmetry_equiv_pos_site_id
 _symmetry_equiv_pos_as_xyz
  1  'x, y, z'
loop_
 _atom_site_type_symbol
 _atom_site_label
 _atom_site_symmetry_multiplicity
 _atom_site_fract_x
 _atom_site_fract_y
 _atom_site_fract_z
 _atom_site_occupancy
  Sm  Sm0  1  0.882760  0.958400  0.244099  1
  Sm  Sm1  1  0.117240  0.041600  0.755901  1
  Y  Y2  1  0.350510  0.126799  0.166088  1
  Y  Y3  1  0.649490  0.873201  0.833912  1
  Y  Y4  1  0.971942  0.287646  0.087334  1
  Y  Y5  1  0.028058  0.712354  0.912666  1
  Pt  Pt6  1  0.000000  0.000000  0.000000  1
  I  I7  1  0.355398  0.452769  0.272091  1
  I  I8  1  0.644602  0.547231  0.727909  1
  I  I9  1  0.915634  0.624247  0.176975  1
  I  I10  1  0.084366  0.375753  0.823025  1
  I  I11  1  0.449642  0.816825  0.089442  1
  I  I12  1  0.550358  0.183175  0.910558  1
  I  I13  1  0.266650  0.089811  0.461035  1
  I  I14  1  0.733350  0.910189  0.538965  1
  I  I15  1  0.779506  0.263033  0.346809  1
  I  I16  1  0.220494  0.736967  0.653191  1
