# generated using pymatgen
data_La9Nd7Cd2In2Co3Pd
_symmetry_space_group_name_H-M   'P 1'
_cell_length_a   9.98696996
_cell_length_b   9.95468087
_cell_length_c   9.97593900
_cell_angle_alpha   59.92933667
_cell_angle_beta   60.03653432
_cell_angle_gamma   60.42752927
_symmetry_Int_Tables_number   1
_chemical_formula_structural   La9Nd7Cd2In2Co3Pd
_chemical_formula_sum   'La9 Nd7 Cd2 In2 Co3 Pd1'
_cell_volume   703.34747393
_cell_formula_units_Z   1
loop_
 _symmetry_equiv_pos_site_id
 _symmetry_equiv_pos_as_xyz
  1  'x, y, z'
loop_
 _atom_site_type_symbol
 _atom_site_label
 _atom_site_symmetry_multiplicity
 _atom_site_fract_x
 _atom_site_fract_y
 _atom_site_fract_z
 _atom_site_occupancy
  La  La0  1  0.336156  0.351994  0.351546  1
  La  La1  1  0.336156  0.351994  0.960304  1
  La  La2  1  0.337857  0.959366  0.351389  1
  La  La3  1  0.966004  0.348685  0.342655  1
  La  La4  1  0.822639  0.188962  0.192291  1
  La  La5  1  0.189118  0.808185  0.812477  1
  La  La6  1  0.189118  0.808185  0.190220  1
  La  La7  1  0.822639  0.188962  0.796108  1
  La  La8  1  0.191392  0.187851  0.810379  1
  Nd  Nd9  1  0.815920  0.795974  0.194053  1
  Nd  Nd10  1  0.932658  0.566021  0.566011  1
  Nd  Nd11  1  0.563593  0.936655  0.936510  1
  Nd  Nd12  1  0.563593  0.936655  0.563241  1
  Nd  Nd13  1  0.932658  0.566021  0.935308  1
  Nd  Nd14  1  0.562739  0.563190  0.937035  1
  Nd  Nd15  1  0.933423  0.936989  0.564794  1
  Cd  Cd16  1  0.580636  0.260284  0.579541  1
  Cd  Cd17  1  0.256729  0.581262  0.581004  1
  In  In18  1  0.580472  0.580235  0.579049  1
  In  In19  1  0.580472  0.580235  0.260244  1
  Co  Co20  1  0.139609  0.141863  0.140061  1
  Co  Co21  1  0.139609  0.141863  0.578465  1
  Co  Co22  1  0.147902  0.576647  0.137724  1
  Pd  Pd23  1  0.578906  0.141921  0.139586  1
