# generated using pymatgen
data_Zr6Zn21CuSiAu
_symmetry_space_group_name_H-M   'P 1'
_cell_length_a   8.76969792
_cell_length_b   8.82309116
_cell_length_c   8.76969523
_cell_angle_alpha   59.80095989
_cell_angle_beta   60.24109891
_cell_angle_gamma   59.80089576
_symmetry_Int_Tables_number   1
_chemical_formula_structural   Zr6Zn21CuSiAu
_chemical_formula_sum   'Zr6 Zn21 Cu1 Si1 Au1'
_cell_volume   479.22758594
_cell_formula_units_Z   1
loop_
 _symmetry_equiv_pos_site_id
 _symmetry_equiv_pos_as_xyz
  1  'x, y, z'
loop_
 _atom_site_type_symbol
 _atom_site_label
 _atom_site_symmetry_multiplicity
 _atom_site_fract_x
 _atom_site_fract_y
 _atom_site_fract_z
 _atom_site_occupancy
  Zr  Zr0  1  0.712834  0.288728  0.287190  1
  Zr  Zr1  1  0.287166  0.711272  0.712810  1
  Zr  Zr2  1  0.285414  0.714607  0.285415  1
  Zr  Zr3  1  0.714586  0.285393  0.714585  1
  Zr  Zr4  1  0.287190  0.288729  0.712834  1
  Zr  Zr5  1  0.712810  0.711271  0.287166  1
  Zn  Zn6  1  0.125534  0.125815  0.125533  1
  Zn  Zn7  1  0.874466  0.874185  0.874467  1
  Zn  Zn8  1  0.133669  0.121811  0.622701  1
  Zn  Zn9  1  0.125530  0.623115  0.125531  1
  Zn  Zn10  1  0.866331  0.878189  0.377299  1
  Zn  Zn11  1  0.874470  0.376885  0.874469  1
  Zn  Zn12  1  0.622701  0.121811  0.133669  1
  Zn  Zn13  1  0.377299  0.878189  0.866331  1
  Zn  Zn14  1  0.500000  0.000000  0.000000  1
  Zn  Zn15  1  0.000000  0.500000  0.500000  1
  Zn  Zn16  1  0.000000  0.500000  0.000000  1
  Zn  Zn17  1  0.000000  0.000000  0.500000  1
  Zn  Zn18  1  0.500000  0.500000  0.000000  1
  Zn  Zn19  1  0.341474  0.334842  0.341474  1
  Zn  Zn20  1  0.658526  0.665158  0.658526  1
  Zn  Zn21  1  0.340416  0.337771  0.984052  1
  Zn  Zn22  1  0.341471  0.982222  0.341472  1
  Zn  Zn23  1  0.659584  0.662229  0.015948  1
  Zn  Zn24  1  0.658529  0.017778  0.658528  1
  Zn  Zn25  1  0.984052  0.337770  0.340416  1
  Zn  Zn26  1  0.015948  0.662230  0.659584  1
  Cu  Cu27  1  0.500000  0.000000  0.500000  1
  Si  Si28  1  0.500000  0.500000  0.500000  1
  Au  Au29  1  0.000000  0.000000  0.000000  1
