# generated using pymatgen
data_Yb2Be4Rh5
_symmetry_space_group_name_H-M   'P 1'
_cell_length_a   3.10146600
_cell_length_b   8.76997505
_cell_length_c   10.43982400
_cell_angle_alpha   89.99371509
_cell_angle_beta   90.00000000
_cell_angle_gamma   90.00000000
_symmetry_Int_Tables_number   1
_chemical_formula_structural   Yb2Be4Rh5
_chemical_formula_sum   'Yb4 Be8 Rh10'
_cell_volume   283.96090856
_cell_formula_units_Z   2
loop_
 _symmetry_equiv_pos_site_id
 _symmetry_equiv_pos_as_xyz
  1  'x, y, z'
loop_
 _atom_site_type_symbol
 _atom_site_label
 _atom_site_symmetry_multiplicity
 _atom_site_fract_x
 _atom_site_fract_y
 _atom_site_fract_z
 _atom_site_occupancy
  Yb  Yb0  1  0.500000  0.843098  0.180788  1
  Yb  Yb1  1  0.500000  0.156902  0.819212  1
  Yb  Yb2  1  0.500000  0.656901  0.680788  1
  Yb  Yb3  1  0.500000  0.343099  0.319212  1
  Be  Be4  1  0.500000  0.965504  0.595871  1
  Be  Be5  1  0.500000  0.034496  0.404129  1
  Be  Be6  1  0.500000  0.843857  0.903908  1
  Be  Be7  1  0.500000  0.156143  0.096092  1
  Be  Be8  1  0.500000  0.656154  0.403917  1
  Be  Be9  1  0.500000  0.343846  0.596083  1
  Be  Be10  1  0.500000  0.465496  0.904138  1
  Be  Be11  1  0.500000  0.534504  0.095862  1
  Rh  Rh12  1  0.000000  0.657865  0.956328  1
  Rh  Rh13  1  0.000000  0.342135  0.043672  1
  Rh  Rh14  1  0.000000  0.842152  0.456325  1
  Rh  Rh15  1  0.000000  0.157848  0.543675  1
  Rh  Rh16  1  0.000000  0.000000  0.000000  1
  Rh  Rh17  1  0.000000  0.403001  0.755197  1
  Rh  Rh18  1  0.000000  0.596999  0.244803  1
  Rh  Rh19  1  0.000000  0.500000  0.500000  1
  Rh  Rh20  1  0.000000  0.902987  0.744802  1
  Rh  Rh21  1  0.000000  0.097013  0.255198  1
