# generated using pymatgen
data_Th6Mg3Cd20Ir
_symmetry_space_group_name_H-M   'P 1'
_cell_length_a   9.97687917
_cell_length_b   10.01973995
_cell_length_c   10.01974100
_cell_angle_alpha   60.32080054
_cell_angle_beta   60.47723574
_cell_angle_gamma   60.47723567
_symmetry_Int_Tables_number   1
_chemical_formula_structural   Th6Mg3Cd20Ir
_chemical_formula_sum   'Th6 Mg3 Cd20 Ir1'
_cell_volume   715.06398203
_cell_formula_units_Z   1
loop_
 _symmetry_equiv_pos_site_id
 _symmetry_equiv_pos_as_xyz
  1  'x, y, z'
loop_
 _atom_site_type_symbol
 _atom_site_label
 _atom_site_symmetry_multiplicity
 _atom_site_fract_x
 _atom_site_fract_y
 _atom_site_fract_z
 _atom_site_occupancy
  Th  Th0  1  0.797974  0.797441  0.204830  1
  Th  Th1  1  0.202023  0.795178  0.202548  1
  Th  Th2  1  0.798008  0.198859  0.198818  1
  Th  Th3  1  0.202026  0.202559  0.795170  1
  Th  Th4  1  0.797977  0.204822  0.797452  1
  Th  Th5  1  0.201992  0.801141  0.801182  1
  Mg  Mg6  1  0.000000  0.000000  0.500000  1
  Mg  Mg7  1  0.000000  0.500000  0.000000  1
  Mg  Mg8  1  0.500000  0.500000  0.500000  1
  Cd  Cd9  1  0.833289  0.832465  0.504215  1
  Cd  Cd10  1  0.833262  0.504208  0.832469  1
  Cd  Cd11  1  0.506839  0.830974  0.830996  1
  Cd  Cd12  1  0.833312  0.830157  0.830146  1
  Cd  Cd13  1  0.166711  0.167535  0.495785  1
  Cd  Cd14  1  0.166738  0.495792  0.167531  1
  Cd  Cd15  1  0.493161  0.169026  0.169004  1
  Cd  Cd16  1  0.166688  0.169843  0.169854  1
  Cd  Cd17  1  0.626208  0.618704  0.139770  1
  Cd  Cd18  1  0.626220  0.139776  0.618708  1
  Cd  Cd19  1  0.141214  0.622609  0.622590  1
  Cd  Cd20  1  0.621212  0.619927  0.619941  1
  Cd  Cd21  1  0.373792  0.381296  0.860230  1
  Cd  Cd22  1  0.373780  0.860224  0.381292  1
  Cd  Cd23  1  0.858786  0.377391  0.377410  1
  Cd  Cd24  1  0.378788  0.380073  0.380059  1
  Cd  Cd25  1  0.500000  0.000000  0.500000  1
  Cd  Cd26  1  0.000000  0.500000  0.500000  1
  Cd  Cd27  1  0.500000  0.500000  0.000000  1
  Cd  Cd28  1  0.500000  0.000000  0.000000  1
  Ir  Ir29  1  0.000000  0.000000  0.000000  1
