# generated using pymatgen
data_Dy3Lu5Sc12Si15Ru
_symmetry_space_group_name_H-M   'P 1'
_cell_length_a   7.04275397
_cell_length_b   7.41399159
_cell_length_c   13.88165500
_cell_angle_alpha   90.05139627
_cell_angle_beta   89.96619994
_cell_angle_gamma   90.16064432
_symmetry_Int_Tables_number   1
_chemical_formula_structural   Dy3Lu5Sc12Si15Ru
_chemical_formula_sum   'Dy3 Lu5 Sc12 Si15 Ru1'
_cell_volume   724.82622095
_cell_formula_units_Z   1
loop_
 _symmetry_equiv_pos_site_id
 _symmetry_equiv_pos_as_xyz
  1  'x, y, z'
loop_
 _atom_site_type_symbol
 _atom_site_label
 _atom_site_symmetry_multiplicity
 _atom_site_fract_x
 _atom_site_fract_y
 _atom_site_fract_z
 _atom_site_occupancy
  Dy  Dy0  1  0.010784  0.179129  0.404654  1
  Dy  Dy1  1  0.511573  0.323042  0.404314  1
  Dy  Dy2  1  0.490110  0.676455  0.595416  1
  Lu  Lu3  1  0.011760  0.180840  0.095185  1
  Lu  Lu4  1  0.990659  0.826441  0.906490  1
  Lu  Lu5  1  0.489393  0.678412  0.904928  1
  Lu  Lu6  1  0.990904  0.826256  0.595746  1
  Lu  Lu7  1  0.511501  0.321428  0.095156  1
  Sc  Sc8  1  0.159186  0.505019  0.750827  1
  Sc  Sc9  1  0.838265  0.495506  0.248777  1
  Sc  Sc10  1  0.339967  0.006737  0.248943  1
  Sc  Sc11  1  0.669256  0.995726  0.750819  1
  Sc  Sc12  1  0.314987  0.170063  0.629021  1
  Sc  Sc13  1  0.672714  0.827296  0.373003  1
  Sc  Sc14  1  0.171422  0.678651  0.373366  1
  Sc  Sc15  1  0.671940  0.825887  0.124860  1
  Sc  Sc16  1  0.837558  0.320260  0.629040  1
  Sc  Sc17  1  0.314064  0.170757  0.872404  1
  Sc  Sc18  1  0.838880  0.318402  0.872687  1
  Sc  Sc19  1  0.171192  0.678178  0.124877  1
  Si  Si20  1  0.969483  0.887618  0.248566  1
  Si  Si21  1  0.469934  0.613268  0.248638  1
  Si  Si22  1  0.529149  0.388423  0.751613  1
  Si  Si23  1  0.285296  0.862906  0.751625  1
  Si  Si24  1  0.714140  0.132757  0.247614  1
  Si  Si25  1  0.214724  0.369869  0.247751  1
  Si  Si26  1  0.780778  0.628889  0.751984  1
  Si  Si27  1  0.159172  0.469665  0.538220  1
  Si  Si28  1  0.843866  0.538397  0.462496  1
  Si  Si29  1  0.343964  0.965732  0.460560  1
  Si  Si30  1  0.841470  0.534607  0.038040  1
  Si  Si31  1  0.657757  0.034214  0.539460  1
  Si  Si32  1  0.162090  0.468944  0.962237  1
  Si  Si33  1  0.656463  0.033964  0.960903  1
  Si  Si34  1  0.341760  0.967384  0.039682  1
  Ru  Ru35  1  0.023836  0.098881  0.750097  1
