# generated using pymatgen
data_SrCaBi3
_symmetry_space_group_name_H-M   'P 1'
_cell_length_a   6.62973100
_cell_length_b   6.90830400
_cell_length_c   15.02837700
_cell_angle_alpha   90.00000000
_cell_angle_beta   90.00000000
_cell_angle_gamma   90.00000000
_symmetry_Int_Tables_number   1
_chemical_formula_structural   SrCaBi3
_chemical_formula_sum   'Sr4 Ca4 Bi12'
_cell_volume   688.30262999
_cell_formula_units_Z   4
loop_
 _symmetry_equiv_pos_site_id
 _symmetry_equiv_pos_as_xyz
  1  'x, y, z'
loop_
 _atom_site_type_symbol
 _atom_site_label
 _atom_site_symmetry_multiplicity
 _atom_site_fract_x
 _atom_site_fract_y
 _atom_site_fract_z
 _atom_site_occupancy
  Sr  Sr0  1  0.549312  0.500000  0.250000  1
  Sr  Sr1  1  0.450688  0.500000  0.750000  1
  Sr  Sr2  1  0.950688  0.000000  0.250000  1
  Sr  Sr3  1  0.049312  0.000000  0.750000  1
  Ca  Ca4  1  0.750000  0.750000  0.998948  1
  Ca  Ca5  1  0.250000  0.250000  0.001052  1
  Ca  Ca6  1  0.750000  0.250000  0.501052  1
  Ca  Ca7  1  0.250000  0.750000  0.498948  1
  Bi  Bi8  1  0.750000  0.750000  0.441514  1
  Bi  Bi9  1  0.250000  0.250000  0.558486  1
  Bi  Bi10  1  0.750000  0.250000  0.058486  1
  Bi  Bi11  1  0.250000  0.750000  0.941514  1
  Bi  Bi12  1  0.071758  0.561147  0.146680  1
  Bi  Bi13  1  0.928242  0.438853  0.853320  1
  Bi  Bi14  1  0.071758  0.438853  0.353320  1
  Bi  Bi15  1  0.428242  0.061147  0.353320  1
  Bi  Bi16  1  0.928242  0.561147  0.646680  1
  Bi  Bi17  1  0.571758  0.938853  0.646680  1
  Bi  Bi18  1  0.428242  0.938853  0.146680  1
  Bi  Bi19  1  0.571758  0.061147  0.853320  1
