# generated using pymatgen
data_CaDy5Ni12(B2Ir)2
_symmetry_space_group_name_H-M   'P 1'
_cell_length_a   5.08420900
_cell_length_b   5.08420862
_cell_length_c   14.60445100
_cell_angle_alpha   90.00000000
_cell_angle_beta   90.00000000
_cell_angle_gamma   119.99999598
_symmetry_Int_Tables_number   1
_chemical_formula_structural   CaDy5Ni12(B2Ir)2
_chemical_formula_sum   'Ca1 Dy5 Ni12 B4 Ir2'
_cell_volume   326.93592320
_cell_formula_units_Z   1
loop_
 _symmetry_equiv_pos_site_id
 _symmetry_equiv_pos_as_xyz
  1  'x, y, z'
loop_
 _atom_site_type_symbol
 _atom_site_label
 _atom_site_symmetry_multiplicity
 _atom_site_fract_x
 _atom_site_fract_y
 _atom_site_fract_z
 _atom_site_occupancy
  Ca  Ca0  1  0.333333  0.666667  0.468685  1
  Dy  Dy1  1  0.666667  0.333333  0.968829  1
  Dy  Dy2  1  0.666667  0.333333  0.527951  1
  Dy  Dy3  1  0.333333  0.666667  0.031399  1
  Dy  Dy4  1  0.666667  0.333333  0.749226  1
  Dy  Dy5  1  0.333333  0.666667  0.252041  1
  Ni  Ni6  1  0.835205  0.670412  0.346961  1
  Ni  Ni7  1  0.329588  0.164795  0.346961  1
  Ni  Ni8  1  0.834661  0.165339  0.152313  1
  Ni  Ni9  1  0.671107  0.835553  0.653294  1
  Ni  Ni10  1  0.164447  0.328893  0.653294  1
  Ni  Ni11  1  0.834661  0.669324  0.152313  1
  Ni  Ni12  1  0.330676  0.165339  0.152313  1
  Ni  Ni13  1  0.669267  0.834633  0.847889  1
  Ni  Ni14  1  0.165367  0.330733  0.847889  1
  Ni  Ni15  1  0.164447  0.835553  0.653294  1
  Ni  Ni16  1  0.165367  0.834633  0.847889  1
  Ni  Ni17  1  0.835205  0.164795  0.346961  1
  B  B18  1  0.666667  0.333333  0.250230  1
  B  B19  1  0.333333  0.666667  0.749722  1
  B  B20  1  0.000000  0.000000  0.750465  1
  B  B21  1  0.000000  0.000000  0.249580  1
  Ir  Ir22  1  0.000000  0.000000  0.000039  1
  Ir  Ir23  1  0.000000  0.000000  0.500460  1
