# generated using pymatgen
data_Nd3ThCuRh3
_symmetry_space_group_name_H-M   'P 1'
_cell_length_a   4.30778900
_cell_length_b   5.79676706
_cell_length_c   7.49844021
_cell_angle_alpha   91.72030724
_cell_angle_beta   90.00000000
_cell_angle_gamma   90.00000000
_symmetry_Int_Tables_number   1
_chemical_formula_structural   Nd3ThCuRh3
_chemical_formula_sum   'Nd3 Th1 Cu1 Rh3'
_cell_volume   187.16102566
_cell_formula_units_Z   1
loop_
 _symmetry_equiv_pos_site_id
 _symmetry_equiv_pos_as_xyz
  1  'x, y, z'
loop_
 _atom_site_type_symbol
 _atom_site_label
 _atom_site_symmetry_multiplicity
 _atom_site_fract_x
 _atom_site_fract_y
 _atom_site_fract_z
 _atom_site_occupancy
  Nd  Nd0  1  0.750000  0.645626  0.328279  1
  Nd  Nd1  1  0.750000  0.864073  0.818417  1
  Nd  Nd2  1  0.250000  0.141792  0.184037  1
  Th  Th3  1  0.250000  0.353174  0.673029  1
  Cu  Cu4  1  0.250000  0.623663  0.036675  1
  Rh  Rh5  1  0.250000  0.834968  0.559098  1
  Rh  Rh6  1  0.750000  0.169973  0.460869  1
  Rh  Rh7  1  0.750000  0.366731  0.939595  1
