# generated using pymatgen
data_HfNb(CoSi)2
_symmetry_space_group_name_H-M   'P 1'
_cell_length_a   3.73062400
_cell_length_b   6.31881900
_cell_length_c   7.11211500
_cell_angle_alpha   90.00000000
_cell_angle_beta   90.00000000
_cell_angle_gamma   90.00000000
_symmetry_Int_Tables_number   1
_chemical_formula_structural   HfNb(CoSi)2
_chemical_formula_sum   'Hf2 Nb2 Co4 Si4'
_cell_volume   167.65486704
_cell_formula_units_Z   2
loop_
 _symmetry_equiv_pos_site_id
 _symmetry_equiv_pos_as_xyz
  1  'x, y, z'
loop_
 _atom_site_type_symbol
 _atom_site_label
 _atom_site_symmetry_multiplicity
 _atom_site_fract_x
 _atom_site_fract_y
 _atom_site_fract_z
 _atom_site_occupancy
  Hf  Hf0  1  0.250000  0.018592  0.816209  1
  Hf  Hf1  1  0.250000  0.518592  0.683791  1
  Nb  Nb2  1  0.750000  0.984444  0.186104  1
  Nb  Nb3  1  0.750000  0.484444  0.313896  1
  Co  Co4  1  0.250000  0.141578  0.436702  1
  Co  Co5  1  0.250000  0.641578  0.063298  1
  Co  Co6  1  0.750000  0.854019  0.564010  1
  Co  Co7  1  0.750000  0.354019  0.935990  1
  Si  Si8  1  0.250000  0.778791  0.379517  1
  Si  Si9  1  0.250000  0.278791  0.120483  1
  Si  Si10  1  0.750000  0.222577  0.605951  1
  Si  Si11  1  0.750000  0.722577  0.894049  1
