# generated using pymatgen
data_Cs4Ti2MnZnTe8
_symmetry_space_group_name_H-M   'P 1'
_cell_length_a   15.75461191
_cell_length_b   14.06534025
_cell_length_c   8.43764176
_cell_angle_alpha   84.96781299
_cell_angle_beta   62.78979394
_cell_angle_gamma   32.24238769
_symmetry_Int_Tables_number   1
_chemical_formula_structural   Cs4Ti2MnZnTe8
_chemical_formula_sum   'Cs4 Ti2 Mn1 Zn1 Te8'
_cell_volume   688.74759658
_cell_formula_units_Z   1
loop_
 _symmetry_equiv_pos_site_id
 _symmetry_equiv_pos_as_xyz
  1  'x, y, z'
loop_
 _atom_site_type_symbol
 _atom_site_label
 _atom_site_symmetry_multiplicity
 _atom_site_fract_x
 _atom_site_fract_y
 _atom_site_fract_z
 _atom_site_occupancy
  Cs  Cs0  1  0.818806  0.818806  0.181194  1
  Cs  Cs1  1  0.181194  0.181194  0.818806  1
  Cs  Cs2  1  0.430934  0.430934  0.069066  1
  Cs  Cs3  1  0.069066  0.069066  0.430934  1
  Ti  Ti4  1  0.250000  0.250000  0.250000  1
  Ti  Ti5  1  0.000000  0.000000  0.000000  1
  Mn  Mn6  1  0.500000  0.500000  0.500000  1
  Zn  Zn7  1  0.750000  0.750000  0.750000  1
  Te  Te8  1  0.391959  0.717807  0.800276  1
  Te  Te9  1  0.089958  0.800276  0.717807  1
  Te  Te10  1  0.800276  0.089958  0.391959  1
  Te  Te11  1  0.717807  0.391959  0.089958  1
  Te  Te12  1  0.857653  0.533046  0.450779  1
  Te  Te13  1  0.158522  0.450779  0.533046  1
  Te  Te14  1  0.450779  0.158522  0.857653  1
  Te  Te15  1  0.533046  0.857653  0.158522  1
