# generated using pymatgen
data_Nd10PPb6Au
_symmetry_space_group_name_H-M   'P 1'
_cell_length_a   9.52852900
_cell_length_b   9.52852996
_cell_length_c   7.03829100
_cell_angle_alpha   90.00000000
_cell_angle_beta   90.00000000
_cell_angle_gamma   120.00000012
_symmetry_Int_Tables_number   1
_chemical_formula_structural   Nd10PPb6Au
_chemical_formula_sum   'Nd10 P1 Pb6 Au1'
_cell_volume   553.41332803
_cell_formula_units_Z   1
loop_
 _symmetry_equiv_pos_site_id
 _symmetry_equiv_pos_as_xyz
  1  'x, y, z'
loop_
 _atom_site_type_symbol
 _atom_site_label
 _atom_site_symmetry_multiplicity
 _atom_site_fract_x
 _atom_site_fract_y
 _atom_site_fract_z
 _atom_site_occupancy
  Nd  Nd0  1  0.751561  0.751561  0.232551  1
  Nd  Nd1  1  0.248439  0.000000  0.232551  1
  Nd  Nd2  1  0.000000  0.248439  0.232551  1
  Nd  Nd3  1  0.248439  0.248439  0.767449  1
  Nd  Nd4  1  0.751561  0.000000  0.767449  1
  Nd  Nd5  1  0.000000  0.751561  0.767449  1
  Nd  Nd6  1  0.666667  0.333333  0.500000  1
  Nd  Nd7  1  0.333333  0.666667  0.500000  1
  Nd  Nd8  1  0.333333  0.666667  0.000000  1
  Nd  Nd9  1  0.666667  0.333333  0.000000  1
  P  P10  1  0.000000  0.000000  0.000000  1
  Pb  Pb11  1  0.395427  0.395427  0.248263  1
  Pb  Pb12  1  0.604573  0.000000  0.248263  1
  Pb  Pb13  1  0.000000  0.604573  0.248263  1
  Pb  Pb14  1  0.604573  0.604573  0.751737  1
  Pb  Pb15  1  0.395427  0.000000  0.751737  1
  Pb  Pb16  1  0.000000  0.395427  0.751737  1
  Au  Au17  1  0.000000  0.000000  0.500000  1
