# generated using pymatgen
data_Dy3ZnGaSi4
_symmetry_space_group_name_H-M   'P 1'
_cell_length_a   4.11978060
_cell_length_b   4.10087225
_cell_length_c   21.08897712
_cell_angle_alpha   84.42255912
_cell_angle_beta   95.60023536
_cell_angle_gamma   89.98635594
_symmetry_Int_Tables_number   1
_chemical_formula_structural   Dy3ZnGaSi4
_chemical_formula_sum   'Dy6 Zn2 Ga2 Si8'
_cell_volume   352.89550539
_cell_formula_units_Z   2
loop_
 _symmetry_equiv_pos_site_id
 _symmetry_equiv_pos_as_xyz
  1  'x, y, z'
loop_
 _atom_site_type_symbol
 _atom_site_label
 _atom_site_symmetry_multiplicity
 _atom_site_fract_x
 _atom_site_fract_y
 _atom_site_fract_z
 _atom_site_occupancy
  Dy  Dy0  1  0.373701  0.876268  0.247559  1
  Dy  Dy1  1  0.039446  0.210552  0.578926  1
  Dy  Dy2  1  0.704858  0.545080  0.909825  1
  Dy  Dy3  1  0.294264  0.455802  0.088337  1
  Dy  Dy4  1  0.960297  0.789804  0.420387  1
  Dy  Dy5  1  0.626244  0.123877  0.752274  1
  Zn  Zn6  1  0.903544  0.346485  0.307384  1
  Zn  Zn7  1  0.569600  0.680415  0.639246  1
  Ga  Ga8  1  0.235317  0.014750  0.970630  1
  Ga  Ga9  1  0.764268  0.985580  0.028673  1
  Si  Si10  1  0.431135  0.318730  0.362595  1
  Si  Si11  1  0.097001  0.652963  0.694141  1
  Si  Si12  1  0.847223  0.402390  0.195110  1
  Si  Si13  1  0.513335  0.736354  0.527083  1
  Si  Si14  1  0.178617  0.071031  0.857848  1
  Si  Si15  1  0.821339  0.929000  0.141899  1
  Si  Si16  1  0.487079  0.263277  0.473414  1
  Si  Si17  1  0.152736  0.597641  0.804671  1
