# generated using pymatgen
data_Hf16Co4Ru3Pt
_symmetry_space_group_name_H-M   'P 1'
_cell_length_a   8.58706918
_cell_length_b   8.58286483
_cell_length_c   8.58316115
_cell_angle_alpha   60.00988593
_cell_angle_beta   60.01655204
_cell_angle_gamma   60.01645677
_symmetry_Int_Tables_number   1
_chemical_formula_structural   Hf16Co4Ru3Pt
_chemical_formula_sum   'Hf16 Co4 Ru3 Pt1'
_cell_volume   447.45591371
_cell_formula_units_Z   1
loop_
 _symmetry_equiv_pos_site_id
 _symmetry_equiv_pos_as_xyz
  1  'x, y, z'
loop_
 _atom_site_type_symbol
 _atom_site_label
 _atom_site_symmetry_multiplicity
 _atom_site_fract_x
 _atom_site_fract_y
 _atom_site_fract_z
 _atom_site_occupancy
  Hf  Hf0  1  0.060965  0.646344  0.646376  1
  Hf  Hf1  1  0.645445  0.061173  0.646698  1
  Hf  Hf2  1  0.645444  0.646659  0.061214  1
  Hf  Hf3  1  0.645397  0.646685  0.646722  1
  Hf  Hf4  1  0.801068  0.805063  0.196903  1
  Hf  Hf5  1  0.197682  0.197993  0.802107  1
  Hf  Hf6  1  0.801100  0.196921  0.805021  1
  Hf  Hf7  1  0.197688  0.802158  0.197988  1
  Hf  Hf8  1  0.197665  0.802220  0.802114  1
  Hf  Hf9  1  0.801067  0.196947  0.196922  1
  Hf  Hf10  1  0.436441  0.435783  0.063903  1
  Hf  Hf11  1  0.069243  0.058337  0.436261  1
  Hf  Hf12  1  0.436388  0.063907  0.435821  1
  Hf  Hf13  1  0.069242  0.436235  0.058328  1
  Hf  Hf14  1  0.069284  0.436154  0.436216  1
  Hf  Hf15  1  0.436479  0.063894  0.063894  1
  Co  Co16  1  0.425879  0.858023  0.858037  1
  Co  Co17  1  0.857258  0.425900  0.858435  1
  Co  Co18  1  0.857264  0.858420  0.425897  1
  Co  Co19  1  0.857265  0.858407  0.858438  1
  Ru  Ru20  1  0.413468  0.753934  0.416257  1
  Ru  Ru21  1  0.413458  0.416281  0.753940  1
  Ru  Ru22  1  0.413462  0.416332  0.416303  1
  Pt  Pt23  1  0.751345  0.416231  0.416208  1
