# generated using pymatgen
data_Tb3SmTe7Pd
_symmetry_space_group_name_H-M   'P 1'
_cell_length_a   4.25021385
_cell_length_b   8.69532900
_cell_length_c   9.19185200
_cell_angle_alpha   90.00000000
_cell_angle_beta   90.03627652
_cell_angle_gamma   90.00000000
_symmetry_Int_Tables_number   1
_chemical_formula_structural   Tb3SmTe7Pd
_chemical_formula_sum   'Tb3 Sm1 Te7 Pd1'
_cell_volume   339.70327763
_cell_formula_units_Z   1
loop_
 _symmetry_equiv_pos_site_id
 _symmetry_equiv_pos_as_xyz
  1  'x, y, z'
loop_
 _atom_site_type_symbol
 _atom_site_label
 _atom_site_symmetry_multiplicity
 _atom_site_fract_x
 _atom_site_fract_y
 _atom_site_fract_z
 _atom_site_occupancy
  Tb  Tb0  1  0.001884  0.250000  0.741901  1
  Tb  Tb1  1  0.499471  0.003593  0.268297  1
  Tb  Tb2  1  0.499471  0.496407  0.268297  1
  Sm  Sm3  1  0.000847  0.750000  0.713205  1
  Te  Te4  1  0.998565  0.946768  0.001665  1
  Te  Te5  1  0.998565  0.553232  0.001665  1
  Te  Te6  1  0.501252  0.250000  0.000583  1
  Te  Te7  1  0.999815  0.750000  0.367260  1
  Te  Te8  1  0.999987  0.250000  0.374848  1
  Te  Te9  1  0.501090  0.005782  0.627354  1
  Te  Te10  1  0.501090  0.494218  0.627354  1
  Pd  Pd11  1  0.497964  0.750000  0.008498  1
