# generated using pymatgen
data_BeV3N
_symmetry_space_group_name_H-M   'P 1'
_cell_length_a   5.03325518
_cell_length_b   5.03325492
_cell_length_c   7.52172500
_cell_angle_alpha   90.00000000
_cell_angle_beta   90.00000000
_cell_angle_gamma   146.13661553
_symmetry_Int_Tables_number   1
_chemical_formula_structural   BeV3N
_chemical_formula_sum   'Be2 V6 N2'
_cell_volume   106.17879374
_cell_formula_units_Z   2
loop_
 _symmetry_equiv_pos_site_id
 _symmetry_equiv_pos_as_xyz
  1  'x, y, z'
loop_
 _atom_site_type_symbol
 _atom_site_label
 _atom_site_symmetry_multiplicity
 _atom_site_fract_x
 _atom_site_fract_y
 _atom_site_fract_z
 _atom_site_occupancy
  Be  Be0  1  0.256554  0.743446  0.250000  1
  Be  Be1  1  0.743446  0.256554  0.750000  1
  V  V2  1  0.941318  0.058682  0.250000  1
  V  V3  1  0.058682  0.941318  0.750000  1
  V  V4  1  0.636906  0.363094  0.448030  1
  V  V5  1  0.363094  0.636906  0.551970  1
  V  V6  1  0.636906  0.363094  0.051970  1
  V  V7  1  0.363094  0.636906  0.948030  1
  N  N8  1  0.000000  0.000000  0.500000  1
  N  N9  1  0.000000  0.000000  0.000000  1
