# generated using pymatgen
data_Dy7Ho13Sn15Sb
_symmetry_space_group_name_H-M   'P 1'
_cell_length_a   8.05552048
_cell_length_b   8.15764241
_cell_length_c   15.40664700
_cell_angle_alpha   90.10025450
_cell_angle_beta   90.62513974
_cell_angle_gamma   89.94273499
_symmetry_Int_Tables_number   1
_chemical_formula_structural   Dy7Ho13Sn15Sb
_chemical_formula_sum   'Dy7 Ho13 Sn15 Sb1'
_cell_volume   1012.37095760
_cell_formula_units_Z   1
loop_
 _symmetry_equiv_pos_site_id
 _symmetry_equiv_pos_as_xyz
  1  'x, y, z'
loop_
 _atom_site_type_symbol
 _atom_site_label
 _atom_site_symmetry_multiplicity
 _atom_site_fract_x
 _atom_site_fract_y
 _atom_site_fract_z
 _atom_site_occupancy
  Dy  Dy0  1  0.020668  0.178402  0.597243  1
  Dy  Dy1  1  0.479339  0.677728  0.402747  1
  Dy  Dy2  1  0.971118  0.821171  0.099834  1
  Dy  Dy3  1  0.475246  0.675430  0.098612  1
  Dy  Dy4  1  0.979213  0.821632  0.402674  1
  Dy  Dy5  1  0.520644  0.321454  0.597240  1
  Dy  Dy6  1  0.024271  0.179457  0.900898  1
  Ho  Ho7  1  0.371821  0.838655  0.879181  1
  Ho  Ho8  1  0.867550  0.663066  0.623093  1
  Ho  Ho9  1  0.632639  0.162669  0.376657  1
  Ho  Ho10  1  0.128785  0.339154  0.121810  1
  Ho  Ho11  1  0.629246  0.161449  0.120812  1
  Ho  Ho12  1  0.133177  0.337309  0.376680  1
  Ho  Ho13  1  0.367066  0.837713  0.623049  1
  Ho  Ho14  1  0.870244  0.661828  0.878121  1
  Ho  Ho15  1  0.528246  0.326000  0.899815  1
  Ho  Ho16  1  0.199644  0.502861  0.749819  1
  Ho  Ho17  1  0.699352  0.997310  0.750492  1
  Ho  Ho18  1  0.800467  0.496861  0.250358  1
  Ho  Ho19  1  0.300336  0.002325  0.251423  1
  Sn  Sn20  1  0.794297  0.461833  0.458521  1
  Sn  Sn21  1  0.705960  0.962171  0.541414  1
  Sn  Sn22  1  0.212355  0.534395  0.957692  1
  Sn  Sn23  1  0.714313  0.966196  0.957327  1
  Sn  Sn24  1  0.205918  0.538013  0.541384  1
  Sn  Sn25  1  0.294581  0.037774  0.458547  1
  Sn  Sn26  1  0.789359  0.463706  0.041972  1
  Sn  Sn27  1  0.566444  0.620799  0.750339  1
  Sn  Sn28  1  0.067017  0.880443  0.751748  1
  Sn  Sn29  1  0.433773  0.379337  0.248319  1
  Sn  Sn30  1  0.933349  0.119800  0.248338  1
  Sn  Sn31  1  0.332992  0.148212  0.750050  1
  Sn  Sn32  1  0.832216  0.352504  0.749075  1
  Sn  Sn33  1  0.666116  0.851697  0.250374  1
  Sn  Sn34  1  0.167434  0.647938  0.250532  1
  Sb  Sb35  1  0.284802  0.032712  0.043812  1
