# generated using pymatgen
data_YHo9In8(CoPd)2
_symmetry_space_group_name_H-M   'P 1'
_cell_length_a   3.59075400
_cell_length_b   8.08857908
_cell_length_c   18.09033901
_cell_angle_alpha   90.14367569
_cell_angle_beta   90.00000000
_cell_angle_gamma   90.00000000
_symmetry_Int_Tables_number   1
_chemical_formula_structural   YHo9In8(CoPd)2
_chemical_formula_sum   'Y1 Ho9 In8 Co2 Pd2'
_cell_volume   525.41592154
_cell_formula_units_Z   1
loop_
 _symmetry_equiv_pos_site_id
 _symmetry_equiv_pos_as_xyz
  1  'x, y, z'
loop_
 _atom_site_type_symbol
 _atom_site_label
 _atom_site_symmetry_multiplicity
 _atom_site_fract_x
 _atom_site_fract_y
 _atom_site_fract_z
 _atom_site_occupancy
  Y  Y0  1  0.500000  0.500000  0.500000  1
  Ho  Ho1  1  0.500000  0.226264  0.776423  1
  Ho  Ho2  1  0.500000  0.773736  0.223577  1
  Ho  Ho3  1  0.500000  0.240708  0.281482  1
  Ho  Ho4  1  0.500000  0.759292  0.718518  1
  Ho  Ho5  1  0.500000  0.113668  0.589313  1
  Ho  Ho6  1  0.500000  0.886332  0.410687  1
  Ho  Ho7  1  0.500000  0.380912  0.084993  1
  Ho  Ho8  1  0.500000  0.619088  0.915007  1
  Ho  Ho9  1  0.500000  0.000000  0.000000  1
  In  In10  1  0.000000  0.075344  0.152148  1
  In  In11  1  0.000000  0.924656  0.847852  1
  In  In12  1  0.000000  0.422977  0.650327  1
  In  In13  1  0.000000  0.577023  0.349673  1
  In  In14  1  0.000000  0.204357  0.431221  1
  In  In15  1  0.000000  0.795643  0.568779  1
  In  In16  1  0.000000  0.291772  0.931229  1
  In  In17  1  0.000000  0.708228  0.068771  1
  Co  Co18  1  0.000000  0.018941  0.694382  1
  Co  Co19  1  0.000000  0.981059  0.305618  1
  Pd  Pd20  1  0.000000  0.478874  0.196649  1
  Pd  Pd21  1  0.000000  0.521126  0.803351  1
