# generated using pymatgen
data_Yb3NiSn3Hg2
_symmetry_space_group_name_H-M   'P 1'
_cell_length_a   7.85249700
_cell_length_b   7.85249685
_cell_length_c   4.03874300
_cell_angle_alpha   90.00000000
_cell_angle_beta   90.00000000
_cell_angle_gamma   119.99999642
_symmetry_Int_Tables_number   1
_chemical_formula_structural   Yb3NiSn3Hg2
_chemical_formula_sum   'Yb3 Ni1 Sn3 Hg2'
_cell_volume   215.67132955
_cell_formula_units_Z   1
loop_
 _symmetry_equiv_pos_site_id
 _symmetry_equiv_pos_as_xyz
  1  'x, y, z'
loop_
 _atom_site_type_symbol
 _atom_site_label
 _atom_site_symmetry_multiplicity
 _atom_site_fract_x
 _atom_site_fract_y
 _atom_site_fract_z
 _atom_site_occupancy
  Yb  Yb0  1  0.000000  0.604862  0.000000  1
  Yb  Yb1  1  0.395138  0.395138  0.000000  1
  Yb  Yb2  1  0.604862  0.000000  0.000000  1
  Ni  Ni3  1  0.000000  0.000000  0.000000  1
  Sn  Sn4  1  0.768805  0.768805  0.500000  1
  Sn  Sn5  1  0.000000  0.231195  0.500000  1
  Sn  Sn6  1  0.231195  0.000000  0.500000  1
  Hg  Hg7  1  0.333333  0.666667  0.500000  1
  Hg  Hg8  1  0.666667  0.333333  0.500000  1
