# generated using pymatgen
data_Yb2Ho3Tm15Pt16
_symmetry_space_group_name_H-M   'P 1'
_cell_length_a   7.41998653
_cell_length_b   7.50704912
_cell_length_c   14.61997287
_cell_angle_alpha   90.00146479
_cell_angle_beta   90.03531025
_cell_angle_gamma   89.98125567
_symmetry_Int_Tables_number   1
_chemical_formula_structural   Yb2Ho3Tm15Pt16
_chemical_formula_sum   'Yb2 Ho3 Tm15 Pt16'
_cell_volume   814.36450383
_cell_formula_units_Z   1
loop_
 _symmetry_equiv_pos_site_id
 _symmetry_equiv_pos_as_xyz
  1  'x, y, z'
loop_
 _atom_site_type_symbol
 _atom_site_label
 _atom_site_symmetry_multiplicity
 _atom_site_fract_x
 _atom_site_fract_y
 _atom_site_fract_z
 _atom_site_occupancy
  Yb  Yb0  1  0.001602  0.179037  0.407155  1
  Yb  Yb1  1  0.501646  0.321664  0.407593  1
  Ho  Ho2  1  0.999988  0.179928  0.093704  1
  Ho  Ho3  1  0.500784  0.680982  0.907388  1
  Ho  Ho4  1  0.001502  0.818376  0.592326  1
  Tm  Tm5  1  0.654235  0.168122  0.622185  1
  Tm  Tm6  1  0.154550  0.333100  0.877114  1
  Tm  Tm7  1  0.345071  0.833505  0.122667  1
  Tm  Tm8  1  0.845226  0.665298  0.376998  1
  Tm  Tm9  1  0.345985  0.833928  0.377291  1
  Tm  Tm10  1  0.845203  0.666875  0.122093  1
  Tm  Tm11  1  0.654549  0.167146  0.877408  1
  Tm  Tm12  1  0.154625  0.332117  0.621943  1
  Tm  Tm13  1  0.501933  0.682450  0.592796  1
  Tm  Tm14  1  0.001477  0.817881  0.906489  1
  Tm  Tm15  1  0.499378  0.318657  0.094259  1
  Tm  Tm16  1  0.818463  0.509828  0.749888  1
  Tm  Tm17  1  0.318419  0.990161  0.749995  1
  Tm  Tm18  1  0.182128  0.489681  0.250924  1
  Tm  Tm19  1  0.682208  0.010355  0.250977  1
  Pt  Pt20  1  0.679996  0.956218  0.459574  1
  Pt  Pt21  1  0.185322  0.532509  0.042001  1
  Pt  Pt22  1  0.314817  0.032704  0.958123  1
  Pt  Pt23  1  0.817336  0.472257  0.545743  1
  Pt  Pt24  1  0.319383  0.027583  0.545963  1
  Pt  Pt25  1  0.816645  0.467481  0.958009  1
  Pt  Pt26  1  0.683238  0.967867  0.042183  1
  Pt  Pt27  1  0.180228  0.543773  0.459704  1
  Pt  Pt28  1  0.452592  0.385834  0.749312  1
  Pt  Pt29  1  0.952590  0.114391  0.749850  1
  Pt  Pt30  1  0.545728  0.616869  0.248681  1
  Pt  Pt31  1  0.046072  0.882765  0.249171  1
  Pt  Pt32  1  0.681911  0.857267  0.749120  1
  Pt  Pt33  1  0.181989  0.642856  0.749765  1
  Pt  Pt34  1  0.317227  0.140486  0.245758  1
  Pt  Pt35  1  0.815953  0.360056  0.245848  1
