# generated using pymatgen
data_NdTh2Al2GaPt3
_symmetry_space_group_name_H-M   'P 1'
_cell_length_a   7.31817598
_cell_length_b   7.38154521
_cell_length_c   4.13539000
_cell_angle_alpha   90.00000000
_cell_angle_beta   90.00000000
_cell_angle_gamma   120.14494081
_symmetry_Int_Tables_number   1
_chemical_formula_structural   NdTh2Al2GaPt3
_chemical_formula_sum   'Nd1 Th2 Al2 Ga1 Pt3'
_cell_volume   193.17952220
_cell_formula_units_Z   1
loop_
 _symmetry_equiv_pos_site_id
 _symmetry_equiv_pos_as_xyz
  1  'x, y, z'
loop_
 _atom_site_type_symbol
 _atom_site_label
 _atom_site_symmetry_multiplicity
 _atom_site_fract_x
 _atom_site_fract_y
 _atom_site_fract_z
 _atom_site_occupancy
  Nd  Nd0  1  0.412470  0.414599  0.500000  1
  Th  Th1  1  0.584827  0.003332  0.500000  1
  Th  Th2  1  0.000796  0.578321  0.500000  1
  Al  Al3  1  0.761642  0.759658  0.000000  1
  Al  Al4  1  0.232436  0.002439  0.000000  1
  Ga  Ga5  1  0.005829  0.239086  0.000000  1
  Pt  Pt6  1  0.671026  0.335277  0.000000  1
  Pt  Pt7  1  0.339365  0.686611  0.000000  1
  Pt  Pt8  1  0.991610  0.980676  0.500000  1
