# generated using pymatgen
data_La2Nd3Er3(CdPt)2
_symmetry_space_group_name_H-M   'P 1'
_cell_length_a   9.92554602
_cell_length_b   9.92554531
_cell_length_c   9.92554500
_cell_angle_alpha   59.99999771
_cell_angle_beta   60.00000005
_cell_angle_gamma   60.00000539
_symmetry_Int_Tables_number   1
_chemical_formula_structural   La2Nd3Er3(CdPt)2
_chemical_formula_sum   'La4 Nd6 Er6 Cd4 Pt4'
_cell_volume   691.42990403
_cell_formula_units_Z   2
loop_
 _symmetry_equiv_pos_site_id
 _symmetry_equiv_pos_as_xyz
  1  'x, y, z'
loop_
 _atom_site_type_symbol
 _atom_site_label
 _atom_site_symmetry_multiplicity
 _atom_site_fract_x
 _atom_site_fract_y
 _atom_site_fract_z
 _atom_site_occupancy
  La  La0  1  0.352429  0.352429  0.352429  1
  La  La1  1  0.352429  0.352429  0.942714  1
  La  La2  1  0.352429  0.942714  0.352429  1
  La  La3  1  0.942714  0.352429  0.352429  1
  Nd  Nd4  1  0.935313  0.564687  0.564687  1
  Nd  Nd5  1  0.564687  0.935313  0.935313  1
  Nd  Nd6  1  0.564687  0.935313  0.564687  1
  Nd  Nd7  1  0.935313  0.564687  0.935313  1
  Nd  Nd8  1  0.564687  0.564687  0.935313  1
  Nd  Nd9  1  0.935313  0.935313  0.564687  1
  Er  Er10  1  0.815259  0.184741  0.184741  1
  Er  Er11  1  0.184741  0.815259  0.815259  1
  Er  Er12  1  0.184741  0.815259  0.184741  1
  Er  Er13  1  0.815259  0.184741  0.815259  1
  Er  Er14  1  0.184741  0.184741  0.815259  1
  Er  Er15  1  0.815259  0.815259  0.184741  1
  Cd  Cd16  1  0.580977  0.580977  0.580977  1
  Cd  Cd17  1  0.580977  0.580977  0.257069  1
  Cd  Cd18  1  0.580977  0.257069  0.580977  1
  Cd  Cd19  1  0.257069  0.580977  0.580977  1
  Pt  Pt20  1  0.139625  0.139625  0.139625  1
  Pt  Pt21  1  0.139625  0.139625  0.581126  1
  Pt  Pt22  1  0.139625  0.581126  0.139625  1
  Pt  Pt23  1  0.581126  0.139625  0.139625  1
