# generated using pymatgen
data_Ta5Ti3Co7Si14Rh
_symmetry_space_group_name_H-M   'P 1'
_cell_length_a   9.23885102
_cell_length_b   9.24387629
_cell_length_c   9.22790994
_cell_angle_alpha   94.26959448
_cell_angle_beta   94.21416797
_cell_angle_gamma   148.47179740
_symmetry_Int_Tables_number   1
_chemical_formula_structural   Ta5Ti3Co7Si14Rh
_chemical_formula_sum   'Ta5 Ti3 Co7 Si14 Rh1'
_cell_volume   396.53821416
_cell_formula_units_Z   1
loop_
 _symmetry_equiv_pos_site_id
 _symmetry_equiv_pos_as_xyz
  1  'x, y, z'
loop_
 _atom_site_type_symbol
 _atom_site_label
 _atom_site_symmetry_multiplicity
 _atom_site_fract_x
 _atom_site_fract_y
 _atom_site_fract_z
 _atom_site_occupancy
  Ta  Ta0  1  0.133639  0.133654  0.266886  1
  Ta  Ta1  1  0.866924  0.866999  0.734006  1
  Ta  Ta2  1  0.867530  0.132482  0.001604  1
  Ta  Ta3  1  0.134054  0.869317  0.001699  1
  Ta  Ta4  1  0.501648  0.690473  0.191475  1
  Ti  Ti5  1  0.498142  0.308872  0.809329  1
  Ti  Ti6  1  0.311129  0.500209  0.808969  1
  Ti  Ti7  1  0.690187  0.500608  0.192099  1
  Co  Co8  1  0.103618  0.603236  0.206285  1
  Co  Co9  1  0.101442  0.898928  0.500291  1
  Co  Co10  1  0.399202  0.601404  0.500193  1
  Co  Co11  1  0.597756  0.398920  0.496863  1
  Co  Co12  1  0.898980  0.097461  0.496589  1
  Co  Co13  1  0.899499  0.399332  0.798766  1
  Co  Co14  1  0.599003  0.098623  0.197987  1
  Si  Si15  1  0.293853  0.293663  0.587423  1
  Si  Si16  1  0.708062  0.706613  0.414625  1
  Si  Si17  1  0.720318  0.311540  0.004875  1
  Si  Si18  1  0.281798  0.693293  0.003381  1
  Si  Si19  1  0.998828  0.296340  0.297395  1
  Si  Si20  1  0.985324  0.694646  0.702942  1
  Si  Si21  1  0.717761  0.008305  0.702944  1
  Si  Si22  1  0.297587  0.001234  0.296252  1
  Si  Si23  1  0.503158  0.909126  0.406726  1
  Si  Si24  1  0.514059  0.111929  0.589677  1
  Si  Si25  1  0.075112  0.477927  0.588825  1
  Si  Si26  1  0.901918  0.497105  0.405231  1
  Si  Si27  1  0.749094  0.748420  0.999596  1
  Si  Si28  1  0.251420  0.250495  0.999505  1
  Rh  Rh29  1  0.398955  0.898845  0.797565  1
