# generated using pymatgen
data_TcPb3Br2O5
_symmetry_space_group_name_H-M   'P 1'
_cell_length_a   7.52961261
_cell_length_b   7.52961304
_cell_length_c   11.22606800
_cell_angle_alpha   90.00000000
_cell_angle_beta   90.00000000
_cell_angle_gamma   135.36022850
_symmetry_Int_Tables_number   1
_chemical_formula_structural   TcPb3Br2O5
_chemical_formula_sum   'Tc2 Pb6 Br4 O10'
_cell_volume   447.20869265
_cell_formula_units_Z   2
loop_
 _symmetry_equiv_pos_site_id
 _symmetry_equiv_pos_as_xyz
  1  'x, y, z'
loop_
 _atom_site_type_symbol
 _atom_site_label
 _atom_site_symmetry_multiplicity
 _atom_site_fract_x
 _atom_site_fract_y
 _atom_site_fract_z
 _atom_site_occupancy
  Tc  Tc0  1  0.771520  0.228480  0.250000  1
  Tc  Tc1  1  0.228480  0.771520  0.750000  1
  Pb  Pb2  1  0.881658  0.118342  0.750000  1
  Pb  Pb3  1  0.655028  0.344972  0.526178  1
  Pb  Pb4  1  0.344972  0.655028  0.473822  1
  Pb  Pb5  1  0.655028  0.344972  0.973822  1
  Pb  Pb6  1  0.344972  0.655028  0.026178  1
  Pb  Pb7  1  0.118342  0.881658  0.250000  1
  Br  Br8  1  0.516857  0.483143  0.250000  1
  Br  Br9  1  0.483143  0.516857  0.750000  1
  Br  Br10  1  0.000000  0.000000  0.500000  1
  Br  Br11  1  0.000000  0.000000  0.000000  1
  O  O12  1  0.107316  0.892684  0.750000  1
  O  O13  1  0.040174  0.502733  0.632188  1
  O  O14  1  0.502733  0.040174  0.367812  1
  O  O15  1  0.497267  0.959826  0.632188  1
  O  O16  1  0.959826  0.497267  0.367812  1
  O  O17  1  0.892684  0.107316  0.250000  1
  O  O18  1  0.040174  0.502733  0.867812  1
  O  O19  1  0.497267  0.959826  0.867812  1
  O  O20  1  0.959826  0.497267  0.132188  1
  O  O21  1  0.502733  0.040174  0.132188  1
