# generated using pymatgen
data_Lu3Sc(CrB4)4
_symmetry_space_group_name_H-M   'P 1'
_cell_length_a   3.36869500
_cell_length_b   5.86502228
_cell_length_c   11.31775242
_cell_angle_alpha   90.10112607
_cell_angle_beta   90.00000000
_cell_angle_gamma   90.00000000
_symmetry_Int_Tables_number   1
_chemical_formula_structural   Lu3Sc(CrB4)4
_chemical_formula_sum   'Lu3 Sc1 Cr4 B16'
_cell_volume   223.60981942
_cell_formula_units_Z   1
loop_
 _symmetry_equiv_pos_site_id
 _symmetry_equiv_pos_as_xyz
  1  'x, y, z'
loop_
 _atom_site_type_symbol
 _atom_site_label
 _atom_site_symmetry_multiplicity
 _atom_site_fract_x
 _atom_site_fract_y
 _atom_site_fract_z
 _atom_site_occupancy
  Lu  Lu0  1  0.000000  0.374414  0.649949  1
  Lu  Lu1  1  0.000000  0.125729  0.151239  1
  Lu  Lu2  1  0.000000  0.874194  0.849564  1
  Sc  Sc3  1  0.000000  0.626019  0.350149  1
  Cr  Cr4  1  0.000000  0.625942  0.083159  1
  Cr  Cr5  1  0.000000  0.374279  0.918865  1
  Cr  Cr6  1  0.000000  0.125564  0.417480  1
  Cr  Cr7  1  0.000000  0.873232  0.579840  1
  B  B8  1  0.500000  0.783481  0.186533  1
  B  B9  1  0.500000  0.216193  0.814994  1
  B  B10  1  0.500000  0.286368  0.315236  1
  B  B11  1  0.500000  0.716341  0.684393  1
  B  B12  1  0.500000  0.864487  0.032728  1
  B  B13  1  0.500000  0.135289  0.968320  1
  B  B14  1  0.500000  0.365719  0.466946  1
  B  B15  1  0.500000  0.634499  0.530752  1
  B  B16  1  0.500000  0.883249  0.450888  1
  B  B17  1  0.500000  0.113500  0.546523  1
  B  B18  1  0.500000  0.386377  0.048393  1
  B  B19  1  0.500000  0.614172  0.952976  1
  B  B20  1  0.500000  0.974915  0.306888  1
  B  B21  1  0.500000  0.024171  0.692105  1
  B  B22  1  0.500000  0.477446  0.194809  1
  B  B23  1  0.500000  0.524420  0.807270  1
