# generated using pymatgen
data_Ca5Sb3Cl
_symmetry_space_group_name_H-M   'P 1'
_cell_length_a   9.13705300
_cell_length_b   9.13705324
_cell_length_c   7.08080900
_cell_angle_alpha   90.00000000
_cell_angle_beta   90.00000000
_cell_angle_gamma   120.00000276
_symmetry_Int_Tables_number   1
_chemical_formula_structural   Ca5Sb3Cl
_chemical_formula_sum   'Ca10 Sb6 Cl2'
_cell_volume   511.94793885
_cell_formula_units_Z   2
loop_
 _symmetry_equiv_pos_site_id
 _symmetry_equiv_pos_as_xyz
  1  'x, y, z'
loop_
 _atom_site_type_symbol
 _atom_site_label
 _atom_site_symmetry_multiplicity
 _atom_site_fract_x
 _atom_site_fract_y
 _atom_site_fract_z
 _atom_site_occupancy
  Ca  Ca0  1  0.258069  0.000000  0.250000  1
  Ca  Ca1  1  0.741931  0.000000  0.750000  1
  Ca  Ca2  1  0.000000  0.258069  0.250000  1
  Ca  Ca3  1  0.000000  0.741931  0.750000  1
  Ca  Ca4  1  0.741931  0.741931  0.250000  1
  Ca  Ca5  1  0.258069  0.258069  0.750000  1
  Ca  Ca6  1  0.333333  0.666667  0.000000  1
  Ca  Ca7  1  0.666667  0.333333  0.000000  1
  Ca  Ca8  1  0.666667  0.333333  0.500000  1
  Ca  Ca9  1  0.333333  0.666667  0.500000  1
  Sb  Sb10  1  0.607773  0.000000  0.250000  1
  Sb  Sb11  1  0.392227  0.000000  0.750000  1
  Sb  Sb12  1  0.000000  0.607773  0.250000  1
  Sb  Sb13  1  0.000000  0.392227  0.750000  1
  Sb  Sb14  1  0.392227  0.392227  0.250000  1
  Sb  Sb15  1  0.607773  0.607773  0.750000  1
  Cl  Cl16  1  0.000000  0.000000  0.000000  1
  Cl  Cl17  1  0.000000  0.000000  0.500000  1
