# generated using pymatgen
data_Er3Lu17(CoSb2)4
_symmetry_space_group_name_H-M   'P 1'
_cell_length_a   7.69291639
_cell_length_b   8.69633000
_cell_length_c   11.96025559
_cell_angle_alpha   90.00000000
_cell_angle_beta   90.03620537
_cell_angle_gamma   90.00000000
_symmetry_Int_Tables_number   1
_chemical_formula_structural   Er3Lu17(CoSb2)4
_chemical_formula_sum   'Er3 Lu17 Co4 Sb8'
_cell_volume   800.14260859
_cell_formula_units_Z   1
loop_
 _symmetry_equiv_pos_site_id
 _symmetry_equiv_pos_as_xyz
  1  'x, y, z'
loop_
 _atom_site_type_symbol
 _atom_site_label
 _atom_site_symmetry_multiplicity
 _atom_site_fract_x
 _atom_site_fract_y
 _atom_site_fract_z
 _atom_site_occupancy
  Er  Er0  1  0.122501  0.250000  0.191306  1
  Er  Er1  1  0.377545  0.250000  0.691345  1
  Er  Er2  1  0.877460  0.750000  0.808586  1
  Lu  Lu3  1  0.157728  0.750000  0.204129  1
  Lu  Lu4  1  0.657309  0.250000  0.296041  1
  Lu  Lu5  1  0.842579  0.250000  0.795976  1
  Lu  Lu6  1  0.342575  0.750000  0.704024  1
  Lu  Lu7  1  0.448186  0.750000  0.998086  1
  Lu  Lu8  1  0.947615  0.250000  0.502038  1
  Lu  Lu9  1  0.551970  0.250000  0.002123  1
  Lu  Lu10  1  0.051931  0.750000  0.497974  1
  Lu  Lu11  1  0.621251  0.750000  0.309764  1
  Lu  Lu12  1  0.824496  0.961660  0.065622  1
  Lu  Lu13  1  0.325234  0.037399  0.434302  1
  Lu  Lu14  1  0.175362  0.461660  0.934552  1
  Lu  Lu15  1  0.675325  0.538699  0.564961  1
  Lu  Lu16  1  0.175362  0.038340  0.934552  1
  Lu  Lu17  1  0.675325  0.961301  0.564961  1
  Lu  Lu18  1  0.824496  0.538340  0.065622  1
  Lu  Lu19  1  0.325234  0.462601  0.434302  1
  Co  Co20  1  0.431282  0.750000  0.491031  1
  Co  Co21  1  0.930485  0.250000  0.008389  1
  Co  Co22  1  0.569361  0.250000  0.508151  1
  Co  Co23  1  0.069518  0.750000  0.991690  1
  Sb  Sb24  1  0.931511  0.990910  0.328213  1
  Sb  Sb25  1  0.432870  0.008053  0.172027  1
  Sb  Sb26  1  0.067823  0.491377  0.671765  1
  Sb  Sb27  1  0.567732  0.508557  0.828232  1
  Sb  Sb28  1  0.067823  0.008623  0.671765  1
  Sb  Sb29  1  0.567732  0.991443  0.828232  1
  Sb  Sb30  1  0.931511  0.509090  0.328213  1
  Sb  Sb31  1  0.432870  0.491947  0.172027  1
