# generated using pymatgen
data_Y3Er5Cd2OsPt
_symmetry_space_group_name_H-M   'P 1'
_cell_length_a   9.64976655
_cell_length_b   9.64978702
_cell_length_c   9.70311728
_cell_angle_alpha   59.48103273
_cell_angle_beta   59.48163792
_cell_angle_gamma   59.32274849
_symmetry_Int_Tables_number   1
_chemical_formula_structural   Y3Er5Cd2OsPt
_chemical_formula_sum   'Y6 Er10 Cd4 Os2 Pt2'
_cell_volume   630.58566777
_cell_formula_units_Z   2
loop_
 _symmetry_equiv_pos_site_id
 _symmetry_equiv_pos_as_xyz
  1  'x, y, z'
loop_
 _atom_site_type_symbol
 _atom_site_label
 _atom_site_symmetry_multiplicity
 _atom_site_fract_x
 _atom_site_fract_y
 _atom_site_fract_z
 _atom_site_occupancy
  Y  Y0  1  0.939451  0.556128  0.565887  1
  Y  Y1  1  0.556178  0.938504  0.939804  1
  Y  Y2  1  0.556148  0.939445  0.565892  1
  Y  Y3  1  0.938495  0.556184  0.939814  1
  Y  Y4  1  0.562692  0.562673  0.939229  1
  Y  Y5  1  0.940759  0.940732  0.559670  1
  Er  Er6  1  0.348974  0.348961  0.352678  1
  Er  Er7  1  0.350730  0.350735  0.948592  1
  Er  Er8  1  0.346169  0.955959  0.349847  1
  Er  Er9  1  0.955951  0.346161  0.349849  1
  Er  Er10  1  0.815501  0.187733  0.189116  1
  Er  Er11  1  0.185717  0.815428  0.806855  1
  Er  Er12  1  0.187734  0.815506  0.189106  1
  Er  Er13  1  0.815416  0.185706  0.806856  1
  Er  Er14  1  0.187599  0.187614  0.811835  1
  Er  Er15  1  0.808836  0.808852  0.190124  1
  Cd  Cd16  1  0.578914  0.578908  0.579345  1
  Cd  Cd17  1  0.579914  0.579931  0.257977  1
  Cd  Cd18  1  0.580313  0.256327  0.580487  1
  Cd  Cd19  1  0.256333  0.580303  0.580493  1
  Os  Os20  1  0.144195  0.144200  0.138637  1
  Os  Os21  1  0.144295  0.144314  0.574785  1
  Pt  Pt22  1  0.145019  0.574671  0.141561  1
  Pt  Pt23  1  0.574667  0.145025  0.141561  1
