# generated using pymatgen
data_LiPr16Cd3Pt4
_symmetry_space_group_name_H-M   'P 1'
_cell_length_a   10.10273322
_cell_length_b   10.10273301
_cell_length_c   10.10273317
_cell_angle_alpha   60.13908902
_cell_angle_beta   60.13908792
_cell_angle_gamma   60.13909072
_symmetry_Int_Tables_number   1
_chemical_formula_structural   LiPr16Cd3Pt4
_chemical_formula_sum   'Li1 Pr16 Cd3 Pt4'
_cell_volume   731.42169229
_cell_formula_units_Z   1
loop_
 _symmetry_equiv_pos_site_id
 _symmetry_equiv_pos_as_xyz
  1  'x, y, z'
loop_
 _atom_site_type_symbol
 _atom_site_label
 _atom_site_symmetry_multiplicity
 _atom_site_fract_x
 _atom_site_fract_y
 _atom_site_fract_z
 _atom_site_occupancy
  Li  Li0  1  0.571780  0.571780  0.571780  1
  Pr  Pr1  1  0.349872  0.349872  0.349872  1
  Pr  Pr2  1  0.350923  0.350923  0.948320  1
  Pr  Pr3  1  0.350923  0.948320  0.350923  1
  Pr  Pr4  1  0.948320  0.350923  0.350923  1
  Pr  Pr5  1  0.810038  0.192224  0.192224  1
  Pr  Pr6  1  0.187511  0.811466  0.811466  1
  Pr  Pr7  1  0.192224  0.810038  0.192224  1
  Pr  Pr8  1  0.811466  0.187511  0.811466  1
  Pr  Pr9  1  0.192224  0.192224  0.810038  1
  Pr  Pr10  1  0.811466  0.811466  0.187511  1
  Pr  Pr11  1  0.938665  0.563828  0.563828  1
  Pr  Pr12  1  0.560993  0.936856  0.936856  1
  Pr  Pr13  1  0.563828  0.938665  0.563828  1
  Pr  Pr14  1  0.936856  0.560993  0.936856  1
  Pr  Pr15  1  0.563828  0.563828  0.938665  1
  Pr  Pr16  1  0.936856  0.936856  0.560993  1
  Cd  Cd17  1  0.582145  0.582145  0.256256  1
  Cd  Cd18  1  0.582145  0.256256  0.582145  1
  Cd  Cd19  1  0.256256  0.582145  0.582145  1
  Pt  Pt20  1  0.144690  0.144690  0.144690  1
  Pt  Pt21  1  0.143167  0.143167  0.570655  1
  Pt  Pt22  1  0.143167  0.570655  0.143167  1
  Pt  Pt23  1  0.570655  0.143167  0.143167  1
