# generated using pymatgen
data_Li3Ac2NdGe3
_symmetry_space_group_name_H-M   'P 1'
_cell_length_a   7.56823436
_cell_length_b   7.56823375
_cell_length_c   4.52988300
_cell_angle_alpha   90.00000000
_cell_angle_beta   90.00000000
_cell_angle_gamma   119.28007784
_symmetry_Int_Tables_number   1
_chemical_formula_structural   Li3Ac2NdGe3
_chemical_formula_sum   'Li3 Ac2 Nd1 Ge3'
_cell_volume   226.31418981
_cell_formula_units_Z   1
loop_
 _symmetry_equiv_pos_site_id
 _symmetry_equiv_pos_as_xyz
  1  'x, y, z'
loop_
 _atom_site_type_symbol
 _atom_site_label
 _atom_site_symmetry_multiplicity
 _atom_site_fract_x
 _atom_site_fract_y
 _atom_site_fract_z
 _atom_site_occupancy
  Li  Li0  1  0.232280  0.006593  0.500000  1
  Li  Li1  1  0.765299  0.765299  0.500000  1
  Li  Li2  1  0.006593  0.232280  0.500000  1
  Ac  Ac3  1  0.997765  0.580890  0.000000  1
  Ac  Ac4  1  0.580890  0.997765  0.000000  1
  Nd  Nd5  1  0.411513  0.411513  0.000000  1
  Ge  Ge6  1  0.338090  0.655804  0.500000  1
  Ge  Ge7  1  0.655804  0.338090  0.500000  1
  Ge  Ge8  1  0.011766  0.011766  0.000000  1
