# generated using pymatgen
data_DyHo4Co16(P4Ru)3
_symmetry_space_group_name_H-M   'P 1'
_cell_length_a   12.01584400
_cell_length_b   12.01584523
_cell_length_c   3.70180300
_cell_angle_alpha   90.00000000
_cell_angle_beta   90.00000000
_cell_angle_gamma   120.00000211
_symmetry_Int_Tables_number   1
_chemical_formula_structural   DyHo4Co16(P4Ru)3
_chemical_formula_sum   'Dy1 Ho4 Co16 P12 Ru3'
_cell_volume   462.86307131
_cell_formula_units_Z   1
loop_
 _symmetry_equiv_pos_site_id
 _symmetry_equiv_pos_as_xyz
  1  'x, y, z'
loop_
 _atom_site_type_symbol
 _atom_site_label
 _atom_site_symmetry_multiplicity
 _atom_site_fract_x
 _atom_site_fract_y
 _atom_site_fract_z
 _atom_site_occupancy
  Dy  Dy0  1  0.666667  0.333333  0.000000  1
  Ho  Ho1  1  0.333333  0.666667  0.000000  1
  Ho  Ho2  1  0.815183  0.815183  0.500000  1
  Ho  Ho3  1  0.184817  0.000000  0.500000  1
  Ho  Ho4  1  0.000000  0.184817  0.500000  1
  Co  Co5  1  0.874016  0.357839  0.500000  1
  Co  Co6  1  0.642161  0.516177  0.500000  1
  Co  Co7  1  0.483823  0.125984  0.500000  1
  Co  Co8  1  0.357839  0.874016  0.500000  1
  Co  Co9  1  0.516177  0.642161  0.500000  1
  Co  Co10  1  0.125984  0.483823  0.500000  1
  Co  Co11  1  0.804022  0.179944  0.000000  1
  Co  Co12  1  0.820056  0.624076  0.000000  1
  Co  Co13  1  0.375924  0.195978  0.000000  1
  Co  Co14  1  0.179944  0.804022  0.000000  1
  Co  Co15  1  0.624076  0.820056  0.000000  1
  Co  Co16  1  0.195978  0.375924  0.000000  1
  Co  Co17  1  0.282711  0.282711  0.500000  1
  Co  Co18  1  0.717289  0.000000  0.500000  1
  Co  Co19  1  0.000000  0.717289  0.500000  1
  Co  Co20  1  0.000000  0.000000  0.000000  1
  P  P21  1  0.687185  0.166094  0.500000  1
  P  P22  1  0.833906  0.521091  0.500000  1
  P  P23  1  0.478909  0.312815  0.500000  1
  P  P24  1  0.166094  0.687185  0.500000  1
  P  P25  1  0.521091  0.833906  0.500000  1
  P  P26  1  0.312815  0.478909  0.500000  1
  P  P27  1  0.179854  0.179854  0.000000  1
  P  P28  1  0.820146  0.000000  0.000000  1
  P  P29  1  0.000000  0.820146  0.000000  1
  P  P30  1  0.636547  0.636547  0.000000  1
  P  P31  1  0.363453  0.000000  0.000000  1
  P  P32  1  0.000000  0.363453  0.000000  1
  Ru  Ru33  1  0.445982  0.445982  0.000000  1
  Ru  Ru34  1  0.554018  0.000000  0.000000  1
  Ru  Ru35  1  0.000000  0.554018  0.000000  1
