# generated using pymatgen
data_SrPbF4
_symmetry_space_group_name_H-M   'P 1'
_cell_length_a   4.19330133
_cell_length_b   4.19330161
_cell_length_c   5.93847479
_cell_angle_alpha   89.92112304
_cell_angle_beta   89.92112789
_cell_angle_gamma   90.01139541
_symmetry_Int_Tables_number   1
_chemical_formula_structural   SrPbF4
_chemical_formula_sum   'Sr1 Pb1 F4'
_cell_volume   104.42061763
_cell_formula_units_Z   1
loop_
 _symmetry_equiv_pos_site_id
 _symmetry_equiv_pos_as_xyz
  1  'x, y, z'
loop_
 _atom_site_type_symbol
 _atom_site_label
 _atom_site_symmetry_multiplicity
 _atom_site_fract_x
 _atom_site_fract_y
 _atom_site_fract_z
 _atom_site_occupancy
  Sr  Sr0  1  0.970314  0.029686  0.500000  1
  Pb  Pb1  1  0.469611  0.530389  0.000000  1
  F  F2  1  0.969695  0.529603  0.253431  1
  F  F3  1  0.470397  0.030305  0.746569  1
  F  F4  1  0.470151  0.030663  0.257346  1
  F  F5  1  0.969337  0.529849  0.742654  1
