# generated using pymatgen
data_La3TlIn
_symmetry_space_group_name_H-M   'P 1'
_cell_length_a   12.69716371
_cell_length_b   12.28165694
_cell_length_c   12.28725394
_cell_angle_alpha   62.23541440
_cell_angle_beta   58.86066385
_cell_angle_gamma   58.90391987
_symmetry_Int_Tables_number   1
_chemical_formula_structural   La3TlIn
_chemical_formula_sum   'La24 Tl8 In8'
_cell_volume   1351.72220571
_cell_formula_units_Z   8
loop_
 _symmetry_equiv_pos_site_id
 _symmetry_equiv_pos_as_xyz
  1  'x, y, z'
loop_
 _atom_site_type_symbol
 _atom_site_label
 _atom_site_symmetry_multiplicity
 _atom_site_fract_x
 _atom_site_fract_y
 _atom_site_fract_z
 _atom_site_occupancy
  La  La0  1  0.653398  0.346602  0.346602  1
  La  La1  1  0.151198  0.848802  0.848802  1
  La  La2  1  0.344889  0.655111  0.655111  1
  La  La3  1  0.846501  0.153499  0.153499  1
  La  La4  1  0.700906  0.066998  0.664987  1
  La  La5  1  0.567109  0.664987  0.066998  1
  La  La6  1  0.068641  0.565729  0.164712  1
  La  La7  1  0.200918  0.164712  0.565729  1
  La  La8  1  0.835287  0.799082  0.931359  1
  La  La9  1  0.434271  0.931359  0.799082  1
  La  La10  1  0.335013  0.432891  0.299094  1
  La  La11  1  0.933002  0.299094  0.432891  1
  La  La12  1  0.298132  0.934470  0.333426  1
  La  La13  1  0.433972  0.333426  0.934470  1
  La  La14  1  0.930032  0.433638  0.835606  1
  La  La15  1  0.800725  0.835606  0.433638  1
  La  La16  1  0.164394  0.199275  0.069968  1
  La  La17  1  0.566362  0.069968  0.199275  1
  La  La18  1  0.666574  0.566028  0.701868  1
  La  La19  1  0.065530  0.701868  0.566028  1
  La  La20  1  0.670006  0.666735  0.329994  1
  La  La21  1  0.333265  0.329994  0.666735  1
  La  La22  1  0.830805  0.169195  0.831014  1
  La  La23  1  0.168986  0.831014  0.169195  1
  Tl  Tl24  1  0.117247  0.117878  0.882753  1
  Tl  Tl25  1  0.882122  0.882753  0.117878  1
  Tl  Tl26  1  0.383609  0.616391  0.384243  1
  Tl  Tl27  1  0.615757  0.384243  0.616391  1
  Tl  Tl28  1  0.749793  0.750207  0.750207  1
  Tl  Tl29  1  0.249793  0.250207  0.250207  1
  Tl  Tl30  1  0.473481  0.877274  0.526519  1
  Tl  Tl31  1  0.122726  0.526519  0.877274  1
  In  In32  1  0.500342  0.999658  0.999658  1
  In  In33  1  0.000342  0.499658  0.499658  1
  In  In34  1  0.620891  0.379109  0.027235  1
  In  In35  1  0.972765  0.027235  0.379109  1
  In  In36  1  0.527975  0.122045  0.472025  1
  In  In37  1  0.877955  0.472025  0.122045  1
  In  In38  1  0.378286  0.621714  0.972704  1
  In  In39  1  0.027296  0.972704  0.621714  1
