# generated using pymatgen
data_Ti3Al3Ru5Pt
_symmetry_space_group_name_H-M   'P 1'
_cell_length_a   4.31491300
_cell_length_b   6.16846900
_cell_length_c   12.86024400
_cell_angle_alpha   89.99992720
_cell_angle_beta   90.00181182
_cell_angle_gamma   89.99986859
_symmetry_Int_Tables_number   1
_chemical_formula_structural   Ti3Al3Ru5Pt
_chemical_formula_sum   'Ti6 Al6 Ru10 Pt2'
_cell_volume   342.29348934
_cell_formula_units_Z   2
loop_
 _symmetry_equiv_pos_site_id
 _symmetry_equiv_pos_as_xyz
  1  'x, y, z'
loop_
 _atom_site_type_symbol
 _atom_site_label
 _atom_site_symmetry_multiplicity
 _atom_site_fract_x
 _atom_site_fract_y
 _atom_site_fract_z
 _atom_site_occupancy
  Ti  Ti0  1  0.000001  0.500000  0.999999  1
  Ti  Ti1  1  0.499831  0.000002  0.175209  1
  Ti  Ti2  1  0.999846  0.500001  0.334252  1
  Ti  Ti3  1  0.500000  0.999999  0.500006  1
  Ti  Ti4  1  0.000148  0.500000  0.665753  1
  Ti  Ti5  1  0.500167  0.999999  0.824792  1
  Al  Al6  1  0.000000  0.000001  0.999974  1
  Al  Al7  1  0.499828  0.499998  0.170618  1
  Al  Al8  1  0.999839  0.000000  0.333008  1
  Al  Al9  1  0.500001  0.500000  0.500031  1
  Al  Al10  1  0.000167  0.000001  0.667006  1
  Al  Al11  1  0.500173  0.499999  0.829352  1
  Ru  Ru12  1  0.999837  0.249762  0.163537  1
  Ru  Ru13  1  0.999836  0.750236  0.163536  1
  Ru  Ru14  1  0.499858  0.250141  0.332818  1
  Ru  Ru15  1  0.499858  0.749859  0.332818  1
  Ru  Ru16  1  0.000000  0.249066  0.500004  1
  Ru  Ru17  1  0.000001  0.750933  0.500004  1
  Ru  Ru18  1  0.500147  0.250145  0.667185  1
  Ru  Ru19  1  0.500140  0.749856  0.667185  1
  Ru  Ru20  1  0.000162  0.249770  0.836456  1
  Ru  Ru21  1  0.000161  0.750227  0.836457  1
  Pt  Pt22  1  0.500000  0.249630  0.000000  1
  Pt  Pt23  1  0.500000  0.750369  0.000000  1
