# generated using pymatgen
data_Dy12Si11Os
_symmetry_space_group_name_H-M   'P 1'
_cell_length_a   3.85992600
_cell_length_b   5.71379108
_cell_length_c   23.78639100
_cell_angle_alpha   82.74785240
_cell_angle_beta   90.00000000
_cell_angle_gamma   90.00000000
_symmetry_Int_Tables_number   1
_chemical_formula_structural   Dy12Si11Os
_chemical_formula_sum   'Dy12 Si11 Os1'
_cell_volume   520.40763172
_cell_formula_units_Z   1
loop_
 _symmetry_equiv_pos_site_id
 _symmetry_equiv_pos_as_xyz
  1  'x, y, z'
loop_
 _atom_site_type_symbol
 _atom_site_label
 _atom_site_symmetry_multiplicity
 _atom_site_fract_x
 _atom_site_fract_y
 _atom_site_fract_z
 _atom_site_occupancy
  Dy  Dy0  1  0.750000  0.349184  0.064225  1
  Dy  Dy1  1  0.250000  0.660006  0.939651  1
  Dy  Dy2  1  0.750000  0.521963  0.223806  1
  Dy  Dy3  1  0.250000  0.468905  0.773553  1
  Dy  Dy4  1  0.750000  0.166909  0.393480  1
  Dy  Dy5  1  0.250000  0.826545  0.606475  1
  Dy  Dy6  1  0.750000  0.351960  0.559784  1
  Dy  Dy7  1  0.250000  0.642747  0.439863  1
  Dy  Dy8  1  0.750000  0.994413  0.726899  1
  Dy  Dy9  1  0.250000  0.995959  0.273691  1
  Dy  Dy10  1  0.750000  0.169458  0.892468  1
  Dy  Dy11  1  0.250000  0.830097  0.107181  1
  Si  Si12  1  0.750000  0.878702  0.011564  1
  Si  Si13  1  0.250000  0.145334  0.986615  1
  Si  Si14  1  0.750000  0.055792  0.178470  1
  Si  Si15  1  0.250000  0.955884  0.821132  1
  Si  Si16  1  0.750000  0.703082  0.345883  1
  Si  Si17  1  0.250000  0.290032  0.654050  1
  Si  Si18  1  0.750000  0.863509  0.511826  1
  Si  Si19  1  0.250000  0.133243  0.487547  1
  Si  Si20  1  0.750000  0.531689  0.679247  1
  Si  Si21  1  0.250000  0.462136  0.321438  1
  Si  Si22  1  0.750000  0.683425  0.845638  1
  Os  Os23  1  0.250000  0.319028  0.155516  1
