# generated using pymatgen
data_CoPt2RhO8
_symmetry_space_group_name_H-M   'P 1'
_cell_length_a   5.54870643
_cell_length_b   5.54870673
_cell_length_c   5.54870631
_cell_angle_alpha   108.65735931
_cell_angle_beta   109.12042976
_cell_angle_gamma   110.64257576
_symmetry_Int_Tables_number   1
_chemical_formula_structural   CoPt2RhO8
_chemical_formula_sum   'Co1 Pt2 Rh1 O8'
_cell_volume   131.46494914
_cell_formula_units_Z   1
loop_
 _symmetry_equiv_pos_site_id
 _symmetry_equiv_pos_as_xyz
  1  'x, y, z'
loop_
 _atom_site_type_symbol
 _atom_site_label
 _atom_site_symmetry_multiplicity
 _atom_site_fract_x
 _atom_site_fract_y
 _atom_site_fract_z
 _atom_site_occupancy
  Co  Co0  1  0.499681  0.999680  0.499999  1
  Pt  Pt1  1  0.255080  0.255080  0.000000  1
  Pt  Pt2  1  0.002099  0.502098  0.499999  1
  Rh  Rh3  1  0.743988  0.743988  0.000000  1
  O  O4  1  0.999074  0.190661  0.191585  1
  O  O5  1  0.500627  0.693741  0.193114  1
  O  O6  1  0.058231  0.751606  0.306624  1
  O  O7  1  0.557547  0.248273  0.309274  1
  O  O8  1  0.938999  0.248273  0.690726  1
  O  O9  1  0.444982  0.751606  0.693375  1
  O  O10  1  0.500627  0.307514  0.806885  1
  O  O11  1  0.999074  0.807489  0.808413  1
