# generated using pymatgen
data_CsV2(SeO3)4
_symmetry_space_group_name_H-M   'P 1'
_cell_length_a   5.30885100
_cell_length_b   10.77846903
_cell_length_c   14.57706383
_cell_angle_alpha   48.15764020
_cell_angle_beta   90.00000000
_cell_angle_gamma   90.00000000
_symmetry_Int_Tables_number   1
_chemical_formula_structural   CsV2(SeO3)4
_chemical_formula_sum   'Cs2 V4 Se8 O24'
_cell_volume   621.40399707
_cell_formula_units_Z   2
loop_
 _symmetry_equiv_pos_site_id
 _symmetry_equiv_pos_as_xyz
  1  'x, y, z'
loop_
 _atom_site_type_symbol
 _atom_site_label
 _atom_site_symmetry_multiplicity
 _atom_site_fract_x
 _atom_site_fract_y
 _atom_site_fract_z
 _atom_site_occupancy
  Cs  Cs0  1  0.057130  0.000000  0.750000  1
  Cs  Cs1  1  0.942870  0.000000  0.250000  1
  V  V2  1  0.000000  0.500000  0.500000  1
  V  V3  1  0.500000  0.000000  0.000000  1
  V  V4  1  0.500000  0.000000  0.500000  1
  V  V5  1  0.000000  0.500000  0.000000  1
  Se  Se6  1  0.495317  0.348896  0.185865  1
  Se  Se7  1  0.008753  0.741329  0.598524  1
  Se  Se8  1  0.008753  0.258671  0.901476  1
  Se  Se9  1  0.991247  0.258671  0.401476  1
  Se  Se10  1  0.504683  0.348896  0.685865  1
  Se  Se11  1  0.504683  0.651104  0.814135  1
  Se  Se12  1  0.495317  0.651104  0.314135  1
  Se  Se13  1  0.991247  0.741329  0.098524  1
  O  O14  1  0.214973  0.684009  0.354159  1
  O  O15  1  0.278986  0.825027  0.026373  1
  O  O16  1  0.785027  0.684009  0.854159  1
  O  O17  1  0.785511  0.907709  0.983230  1
  O  O18  1  0.721014  0.825027  0.526373  1
  O  O19  1  0.302997  0.355952  0.589663  1
  O  O20  1  0.214489  0.092291  0.016770  1
  O  O21  1  0.697003  0.355952  0.089663  1
  O  O22  1  0.785027  0.315991  0.645841  1
  O  O23  1  0.563554  0.144076  0.321150  1
  O  O24  1  0.697003  0.644048  0.410337  1
  O  O25  1  0.278986  0.174973  0.473627  1
  O  O26  1  0.563554  0.855924  0.178850  1
  O  O27  1  0.785511  0.092291  0.516770  1
  O  O28  1  0.436446  0.144076  0.821150  1
  O  O29  1  0.055608  0.403293  0.912847  1
  O  O30  1  0.721014  0.174973  0.973627  1
  O  O31  1  0.944392  0.403293  0.412847  1
  O  O32  1  0.055608  0.596707  0.587153  1
  O  O33  1  0.436446  0.855924  0.678850  1
  O  O34  1  0.302997  0.644048  0.910337  1
  O  O35  1  0.214489  0.907709  0.483230  1
  O  O36  1  0.944392  0.596707  0.087153  1
  O  O37  1  0.214973  0.315991  0.145841  1
