# generated using pymatgen
data_Ba8Ga3Si12Ag
_symmetry_space_group_name_H-M   'P 1'
_cell_length_a   12.61446165
_cell_length_b   11.02067617
_cell_length_c   8.56642917
_cell_angle_alpha   79.09685208
_cell_angle_beta   59.04619476
_cell_angle_gamma   41.82341094
_symmetry_Int_Tables_number   1
_chemical_formula_structural   Ba8Ga3Si12Ag
_chemical_formula_sum   'Ba8 Ga3 Si12 Ag1'
_cell_volume   640.59214928
_cell_formula_units_Z   1
loop_
 _symmetry_equiv_pos_site_id
 _symmetry_equiv_pos_as_xyz
  1  'x, y, z'
loop_
 _atom_site_type_symbol
 _atom_site_label
 _atom_site_symmetry_multiplicity
 _atom_site_fract_x
 _atom_site_fract_y
 _atom_site_fract_z
 _atom_site_occupancy
  Ba  Ba0  1  0.126761  0.123658  0.372889  1
  Ba  Ba1  1  0.876568  0.874517  0.124866  1
  Ba  Ba2  1  0.124866  0.124049  0.876568  1
  Ba  Ba3  1  0.372889  0.376693  0.126761  1
  Ba  Ba4  1  0.623247  0.624603  0.375857  1
  Ba  Ba5  1  0.375857  0.376293  0.623247  1
  Ba  Ba6  1  0.624010  0.627117  0.875686  1
  Ba  Ba7  1  0.875686  0.873187  0.624010  1
  Ga  Ga8  1  0.082241  0.417759  0.082241  1
  Ga  Ga9  1  0.167027  0.832973  0.167027  1
  Ga  Ga10  1  0.417529  0.082471  0.417529  1
  Si  Si11  1  0.335685  0.659339  0.823271  1
  Si  Si12  1  0.177431  0.828023  0.660546  1
  Si  Si13  1  0.823271  0.181704  0.335685  1
  Si  Si14  1  0.660546  0.333999  0.177431  1
  Si  Si15  1  0.918789  0.589267  0.419233  1
  Si  Si16  1  0.073029  0.419894  0.589007  1
  Si  Si17  1  0.419233  0.072711  0.918789  1
  Si  Si18  1  0.914721  0.585279  0.914721  1
  Si  Si19  1  0.663191  0.336809  0.663191  1
  Si  Si20  1  0.339991  0.660009  0.339991  1
  Si  Si21  1  0.585364  0.914636  0.585364  1
  Si  Si22  1  0.589007  0.918071  0.073029  1
  Ag  Ag23  1  0.833062  0.166938  0.833062  1
