# generated using pymatgen
data_YbPrYSe3
_symmetry_space_group_name_H-M   'P 1'
_cell_length_a   4.17068400
_cell_length_b   4.17068324
_cell_length_c   10.27157700
_cell_angle_alpha   90.00000000
_cell_angle_beta   90.00000000
_cell_angle_gamma   119.99999013
_symmetry_Int_Tables_number   1
_chemical_formula_structural   YbPrYSe3
_chemical_formula_sum   'Yb1 Pr1 Y1 Se3'
_cell_volume   154.73276784
_cell_formula_units_Z   1
loop_
 _symmetry_equiv_pos_site_id
 _symmetry_equiv_pos_as_xyz
  1  'x, y, z'
loop_
 _atom_site_type_symbol
 _atom_site_label
 _atom_site_symmetry_multiplicity
 _atom_site_fract_x
 _atom_site_fract_y
 _atom_site_fract_z
 _atom_site_occupancy
  Yb  Yb0  1  0.000000  0.000000  0.001954  1
  Pr  Pr1  1  0.333333  0.666667  0.656611  1
  Y  Y2  1  0.666667  0.333333  0.341352  1
  Se  Se3  1  0.333333  0.666667  0.170279  1
  Se  Se4  1  0.666667  0.333333  0.842130  1
  Se  Se5  1  0.000000  0.000000  0.487674  1
