# generated using pymatgen
data_FeSi12(P4Ir)3
_symmetry_space_group_name_H-M   'P 1'
_cell_length_a   5.88537903
_cell_length_b   6.09226501
_cell_length_c   13.00626824
_cell_angle_alpha   90.01938418
_cell_angle_beta   89.96080268
_cell_angle_gamma   90.12418052
_symmetry_Int_Tables_number   1
_chemical_formula_structural   FeSi12(P4Ir)3
_chemical_formula_sum   'Fe1 Si12 P12 Ir3'
_cell_volume   466.34227271
_cell_formula_units_Z   1
loop_
 _symmetry_equiv_pos_site_id
 _symmetry_equiv_pos_as_xyz
  1  'x, y, z'
loop_
 _atom_site_type_symbol
 _atom_site_label
 _atom_site_symmetry_multiplicity
 _atom_site_fract_x
 _atom_site_fract_y
 _atom_site_fract_z
 _atom_site_occupancy
  Fe  Fe0  1  0.031989  0.517384  0.385027  1
  Si  Si1  1  0.976287  0.171359  0.317684  1
  Si  Si2  1  0.466685  0.840152  0.680780  1
  Si  Si3  1  0.930703  0.622824  0.222461  1
  Si  Si4  1  0.431046  0.371056  0.785115  1
  Si  Si5  1  0.339235  0.916053  0.950973  1
  Si  Si6  1  0.840157  0.082020  0.049560  1
  Si  Si7  1  0.919048  0.528054  0.670743  1
  Si  Si8  1  0.403329  0.474984  0.329984  1
  Si  Si9  1  0.000603  0.061264  0.566440  1
  Si  Si10  1  0.500335  0.935751  0.428156  1
  Si  Si11  1  0.905503  0.623201  0.928475  1
  Si  Si12  1  0.403967  0.376097  0.073889  1
  P  P13  1  0.577799  0.028132  0.825243  1
  P  P14  1  0.077883  0.968153  0.175728  1
  P  P15  1  0.514888  0.559984  0.930148  1
  P  P16  1  0.013125  0.439796  0.073400  1
  P  P17  1  0.612202  0.113046  0.572007  1
  P  P18  1  0.112680  0.875526  0.422523  1
  P  P19  1  0.542768  0.644164  0.183328  1
  P  P20  1  0.044504  0.355115  0.818700  1
  P  P21  1  0.581523  0.139153  0.289351  1
  P  P22  1  0.078926  0.869461  0.708944  1
  P  P23  1  0.155095  0.407389  0.546807  1
  P  P24  1  0.664512  0.596379  0.445326  1
  Ir  Ir25  1  0.964621  0.986340  0.878836  1
  Ir  Ir26  1  0.465767  0.012503  0.122575  1
  Ir  Ir27  1  0.538622  0.484658  0.617794  1
