# generated using pymatgen
data_Y3Tm5CdHgIr2
_symmetry_space_group_name_H-M   'P 1'
_cell_length_a   9.55251009
_cell_length_b   9.55251049
_cell_length_c   9.55176400
_cell_angle_alpha   60.00258502
_cell_angle_beta   60.00258362
_cell_angle_gamma   60.04214970
_symmetry_Int_Tables_number   1
_chemical_formula_structural   Y3Tm5CdHgIr2
_chemical_formula_sum   'Y6 Tm10 Cd2 Hg2 Ir4'
_cell_volume   616.53642562
_cell_formula_units_Z   2
loop_
 _symmetry_equiv_pos_site_id
 _symmetry_equiv_pos_as_xyz
  1  'x, y, z'
loop_
 _atom_site_type_symbol
 _atom_site_label
 _atom_site_symmetry_multiplicity
 _atom_site_fract_x
 _atom_site_fract_y
 _atom_site_fract_z
 _atom_site_occupancy
  Y  Y0  1  0.938746  0.560441  0.560660  1
  Y  Y1  1  0.560441  0.938746  0.940153  1
  Y  Y2  1  0.560441  0.938746  0.560660  1
  Y  Y3  1  0.938746  0.560441  0.940153  1
  Y  Y4  1  0.560304  0.560304  0.939696  1
  Y  Y5  1  0.939313  0.939313  0.560687  1
  Tm  Tm6  1  0.348965  0.348965  0.347638  1
  Tm  Tm7  1  0.348965  0.348965  0.954432  1
  Tm  Tm8  1  0.350342  0.951594  0.349033  1
  Tm  Tm9  1  0.951594  0.350342  0.349033  1
  Tm  Tm10  1  0.810323  0.188163  0.189921  1
  Tm  Tm11  1  0.188163  0.810323  0.811592  1
  Tm  Tm12  1  0.188163  0.810323  0.189921  1
  Tm  Tm13  1  0.810323  0.188163  0.811592  1
  Tm  Tm14  1  0.188731  0.188731  0.811269  1
  Tm  Tm15  1  0.810464  0.810464  0.189536  1
  Cd  Cd16  1  0.580169  0.258419  0.580707  1
  Cd  Cd17  1  0.258419  0.580169  0.580707  1
  Hg  Hg18  1  0.582854  0.582854  0.584414  1
  Hg  Hg19  1  0.582854  0.582854  0.249880  1
  Ir  Ir20  1  0.142140  0.142140  0.141299  1
  Ir  Ir21  1  0.142140  0.142140  0.574422  1
  Ir  Ir22  1  0.142121  0.575285  0.141298  1
  Ir  Ir23  1  0.575285  0.142121  0.141298  1
