# generated using pymatgen
data_Dy6Ti4Al12Ir7
_symmetry_space_group_name_H-M   'P 1'
_cell_length_a   8.97531989
_cell_length_b   8.97532054
_cell_length_c   8.97532100
_cell_angle_alpha   60.00000198
_cell_angle_beta   59.99999959
_cell_angle_gamma   60.00000637
_symmetry_Int_Tables_number   1
_chemical_formula_structural   Dy6Ti4Al12Ir7
_chemical_formula_sum   'Dy6 Ti4 Al12 Ir7'
_cell_volume   511.25188459
_cell_formula_units_Z   1
loop_
 _symmetry_equiv_pos_site_id
 _symmetry_equiv_pos_as_xyz
  1  'x, y, z'
loop_
 _atom_site_type_symbol
 _atom_site_label
 _atom_site_symmetry_multiplicity
 _atom_site_fract_x
 _atom_site_fract_y
 _atom_site_fract_z
 _atom_site_occupancy
  Dy  Dy0  1  0.704208  0.704208  0.295792  1
  Dy  Dy1  1  0.295792  0.704208  0.295792  1
  Dy  Dy2  1  0.704208  0.295792  0.295792  1
  Dy  Dy3  1  0.295792  0.295792  0.704208  1
  Dy  Dy4  1  0.704208  0.295792  0.704208  1
  Dy  Dy5  1  0.295792  0.704208  0.704208  1
  Ti  Ti6  1  0.880360  0.880360  0.358920  1
  Ti  Ti7  1  0.880360  0.358920  0.880360  1
  Ti  Ti8  1  0.358920  0.880360  0.880360  1
  Ti  Ti9  1  0.880360  0.880360  0.880360  1
  Al  Al10  1  0.119316  0.119316  0.642053  1
  Al  Al11  1  0.119316  0.642053  0.119316  1
  Al  Al12  1  0.642053  0.119316  0.119316  1
  Al  Al13  1  0.119316  0.119316  0.119316  1
  Al  Al14  1  0.669265  0.669265  0.992203  1
  Al  Al15  1  0.669265  0.992203  0.669265  1
  Al  Al16  1  0.992203  0.669265  0.669265  1
  Al  Al17  1  0.669265  0.669265  0.669265  1
  Al  Al18  1  0.329062  0.329062  0.012816  1
  Al  Al19  1  0.329062  0.012816  0.329062  1
  Al  Al20  1  0.012816  0.329062  0.329062  1
  Al  Al21  1  0.329062  0.329062  0.329062  1
  Ir  Ir22  1  0.000000  0.000000  0.000000  1
  Ir  Ir23  1  0.998753  0.998753  0.501247  1
  Ir  Ir24  1  0.501247  0.998753  0.501247  1
  Ir  Ir25  1  0.998753  0.501247  0.501247  1
  Ir  Ir26  1  0.501247  0.501247  0.998753  1
  Ir  Ir27  1  0.998753  0.501247  0.998753  1
  Ir  Ir28  1  0.501247  0.998753  0.998753  1
