# generated using pymatgen
data_Ba6Gd2Te2WO18
_symmetry_space_group_name_H-M   'P 1'
_cell_length_a   10.47326118
_cell_length_b   10.47326028
_cell_length_c   10.47326038
_cell_angle_alpha   146.51062042
_cell_angle_beta   131.80321304
_cell_angle_gamma   59.96278290
_symmetry_Int_Tables_number   1
_chemical_formula_structural   Ba6Gd2Te2WO18
_chemical_formula_sum   'Ba6 Gd2 Te2 W1 O18'
_cell_volume   468.22748814
_cell_formula_units_Z   1
loop_
 _symmetry_equiv_pos_site_id
 _symmetry_equiv_pos_as_xyz
  1  'x, y, z'
loop_
 _atom_site_type_symbol
 _atom_site_label
 _atom_site_symmetry_multiplicity
 _atom_site_fract_x
 _atom_site_fract_y
 _atom_site_fract_z
 _atom_site_occupancy
  Ba  Ba0  1  0.777615  0.499750  0.277865  1
  Ba  Ba1  1  0.386489  0.153798  0.232691  1
  Ba  Ba2  1  0.080223  0.846283  0.233939  1
  Ba  Ba3  1  0.221885  0.499750  0.722135  1
  Ba  Ba4  1  0.921107  0.153798  0.767309  1
  Ba  Ba5  1  0.612343  0.846283  0.766061  1
  Gd  Gd6  1  0.666090  0.666090  0.000000  1
  Gd  Gd7  1  0.333851  0.333851  0.000000  1
  Te  Te8  1  0.500155  0.000155  0.500000  1
  Te  Te9  1  0.829929  0.329929  0.500000  1
  W  W10  1  0.169398  0.669398  0.500000  1
  O  O11  1  0.723709  0.000326  0.723383  1
  O  O12  1  0.401135  0.668868  0.732266  1
  O  O13  1  0.063102  0.330528  0.732572  1
  O  O14  1  0.578166  0.845558  0.267390  1
  O  O15  1  0.246109  0.512548  0.266439  1
  O  O16  1  0.905276  0.179711  0.274434  1
  O  O17  1  0.422502  0.690274  0.267771  1
  O  O18  1  0.094934  0.370645  0.275711  1
  O  O19  1  0.753747  0.022969  0.269222  1
  O  O20  1  0.276943  0.000326  0.276617  1
  O  O21  1  0.936601  0.668868  0.267734  1
  O  O22  1  0.597956  0.330528  0.267428  1
  O  O23  1  0.422502  0.154730  0.732229  1
  O  O24  1  0.094934  0.819222  0.724289  1
  O  O25  1  0.753747  0.484524  0.730778  1
  O  O26  1  0.578166  0.310775  0.732610  1
  O  O27  1  0.246109  0.979670  0.733561  1
  O  O28  1  0.905276  0.630843  0.725566  1
