# generated using pymatgen
data_Tb4Co15Si8P4Ru5
_symmetry_space_group_name_H-M   'P 1'
_cell_length_a   3.74087500
_cell_length_b   10.54234404
_cell_length_c   11.95084379
_cell_angle_alpha   90.15510769
_cell_angle_beta   90.00000000
_cell_angle_gamma   90.00000000
_symmetry_Int_Tables_number   1
_chemical_formula_structural   Tb4Co15Si8P4Ru5
_chemical_formula_sum   'Tb4 Co15 Si8 P4 Ru5'
_cell_volume   471.31076582
_cell_formula_units_Z   1
loop_
 _symmetry_equiv_pos_site_id
 _symmetry_equiv_pos_as_xyz
  1  'x, y, z'
loop_
 _atom_site_type_symbol
 _atom_site_label
 _atom_site_symmetry_multiplicity
 _atom_site_fract_x
 _atom_site_fract_y
 _atom_site_fract_z
 _atom_site_occupancy
  Tb  Tb0  1  0.250000  0.582875  0.704112  1
  Tb  Tb1  1  0.250000  0.918652  0.202338  1
  Tb  Tb2  1  0.750000  0.418744  0.293799  1
  Tb  Tb3  1  0.750000  0.081472  0.797309  1
  Co  Co4  1  0.250000  0.088992  0.989420  1
  Co  Co5  1  0.750000  0.595604  0.511842  1
  Co  Co6  1  0.750000  0.910605  0.010226  1
  Co  Co7  1  0.250000  0.211740  0.170868  1
  Co  Co8  1  0.250000  0.283363  0.675934  1
  Co  Co9  1  0.750000  0.787908  0.828276  1
  Co  Co10  1  0.750000  0.713754  0.327097  1
  Co  Co11  1  0.250000  0.886214  0.704231  1
  Co  Co12  1  0.250000  0.615286  0.202017  1
  Co  Co13  1  0.750000  0.112850  0.295646  1
  Co  Co14  1  0.750000  0.386626  0.797356  1
  Co  Co15  1  0.250000  0.468777  0.931011  1
  Co  Co16  1  0.250000  0.030523  0.430815  1
  Co  Co17  1  0.750000  0.531793  0.068667  1
  Co  Co18  1  0.750000  0.967215  0.569040  1
  Si  Si19  1  0.250000  0.415807  0.110740  1
  Si  Si20  1  0.250000  0.082148  0.611855  1
  Si  Si21  1  0.750000  0.584391  0.888693  1
  Si  Si22  1  0.750000  0.916263  0.388107  1
  Si  Si23  1  0.250000  0.272256  0.867077  1
  Si  Si24  1  0.250000  0.225269  0.364198  1
  Si  Si25  1  0.750000  0.727655  0.133921  1
  Si  Si26  1  0.750000  0.772707  0.635077  1
  P  P27  1  0.250000  0.603649  0.389452  1
  P  P28  1  0.250000  0.901343  0.891959  1
  P  P29  1  0.750000  0.398448  0.610669  1
  P  P30  1  0.750000  0.098713  0.107573  1
  Ru  Ru31  1  0.250000  0.710316  0.989244  1
  Ru  Ru32  1  0.250000  0.792084  0.490251  1
  Ru  Ru33  1  0.750000  0.289918  0.009866  1
  Ru  Ru34  1  0.750000  0.204792  0.512081  1
  Ru  Ru35  1  0.250000  0.411248  0.489232  1
