# generated using pymatgen
data_Dy2Tm8In8GaIr2Pt
_symmetry_space_group_name_H-M   'P 1'
_cell_length_a   3.58951200
_cell_length_b   8.10224557
_cell_length_c   18.12317800
_cell_angle_alpha   90.08334582
_cell_angle_beta   90.00000000
_cell_angle_gamma   90.00000000
_symmetry_Int_Tables_number   1
_chemical_formula_structural   Dy2Tm8In8GaIr2Pt
_chemical_formula_sum   'Dy2 Tm8 In8 Ga1 Ir2 Pt1'
_cell_volume   527.07778014
_cell_formula_units_Z   1
loop_
 _symmetry_equiv_pos_site_id
 _symmetry_equiv_pos_as_xyz
  1  'x, y, z'
loop_
 _atom_site_type_symbol
 _atom_site_label
 _atom_site_symmetry_multiplicity
 _atom_site_fract_x
 _atom_site_fract_y
 _atom_site_fract_z
 _atom_site_occupancy
  Dy  Dy0  1  0.000000  0.001176  0.999813  1
  Dy  Dy1  1  0.000000  0.500067  0.499753  1
  Tm  Tm2  1  0.000000  0.117013  0.412604  1
  Tm  Tm3  1  0.000000  0.883798  0.586042  1
  Tm  Tm4  1  0.000000  0.375900  0.918722  1
  Tm  Tm5  1  0.000000  0.616278  0.086710  1
  Tm  Tm6  1  0.000000  0.237180  0.221923  1
  Tm  Tm7  1  0.000000  0.777997  0.776984  1
  Tm  Tm8  1  0.000000  0.242161  0.717171  1
  Tm  Tm9  1  0.000000  0.749546  0.280305  1
  In  In10  1  0.500000  0.423051  0.350873  1
  In  In11  1  0.500000  0.579579  0.648660  1
  In  In12  1  0.500000  0.074196  0.851464  1
  In  In13  1  0.500000  0.925416  0.149219  1
  In  In14  1  0.500000  0.292872  0.067857  1
  In  In15  1  0.500000  0.703952  0.933865  1
  In  In16  1  0.500000  0.203963  0.566720  1
  In  In17  1  0.500000  0.795477  0.432614  1
  Ga  Ga18  1  0.500000  0.477642  0.801709  1
  Ir  Ir19  1  0.500000  0.022487  0.303955  1
  Ir  Ir20  1  0.500000  0.978134  0.696689  1
  Pt  Pt21  1  0.500000  0.522113  0.196351  1
