# generated using pymatgen
data_Ni2GeMo3C
_symmetry_space_group_name_H-M   'P 1'
_cell_length_a   7.91273926
_cell_length_b   7.91273897
_cell_length_c   7.91273900
_cell_angle_alpha   59.99999571
_cell_angle_beta   59.99999691
_cell_angle_gamma   59.99999674
_symmetry_Int_Tables_number   1
_chemical_formula_structural   Ni2GeMo3C
_chemical_formula_sum   'Ni8 Ge4 Mo12 C4'
_cell_volume   350.32046021
_cell_formula_units_Z   4
loop_
 _symmetry_equiv_pos_site_id
 _symmetry_equiv_pos_as_xyz
  1  'x, y, z'
loop_
 _atom_site_type_symbol
 _atom_site_label
 _atom_site_symmetry_multiplicity
 _atom_site_fract_x
 _atom_site_fract_y
 _atom_site_fract_z
 _atom_site_occupancy
  Ni  Ni0  1  0.916781  0.916781  0.249657  1
  Ni  Ni1  1  0.333219  0.333219  0.333219  1
  Ni  Ni2  1  0.249657  0.916781  0.916781  1
  Ni  Ni3  1  0.333219  0.000343  0.333219  1
  Ni  Ni4  1  0.000343  0.333219  0.333219  1
  Ni  Ni5  1  0.333219  0.333219  0.000343  1
  Ni  Ni6  1  0.916781  0.916781  0.916781  1
  Ni  Ni7  1  0.916781  0.249657  0.916781  1
  Ge  Ge8  1  0.125000  0.125000  0.125000  1
  Ge  Ge9  1  0.625000  0.125000  0.125000  1
  Ge  Ge10  1  0.125000  0.125000  0.625000  1
  Ge  Ge11  1  0.125000  0.625000  0.125000  1
  Mo  Mo12  1  0.689292  0.310708  0.310708  1
  Mo  Mo13  1  0.939292  0.939292  0.560708  1
  Mo  Mo14  1  0.689292  0.689292  0.310708  1
  Mo  Mo15  1  0.689292  0.310708  0.689292  1
  Mo  Mo16  1  0.310708  0.689292  0.310708  1
  Mo  Mo17  1  0.560708  0.939292  0.560708  1
  Mo  Mo18  1  0.560708  0.939292  0.939292  1
  Mo  Mo19  1  0.939292  0.560708  0.560708  1
  Mo  Mo20  1  0.939292  0.560708  0.939292  1
  Mo  Mo21  1  0.310708  0.310708  0.689292  1
  Mo  Mo22  1  0.560708  0.560708  0.939292  1
  Mo  Mo23  1  0.310708  0.689292  0.689292  1
  C  C24  1  0.625000  0.625000  0.625000  1
  C  C25  1  0.625000  0.625000  0.125000  1
  C  C26  1  0.125000  0.625000  0.625000  1
  C  C27  1  0.625000  0.125000  0.625000  1
