# generated using pymatgen
data_LaAl2Pd5
_symmetry_space_group_name_H-M   'P 1'
_cell_length_a   4.20024736
_cell_length_b   4.20024697
_cell_length_c   8.11878600
_cell_angle_alpha   104.99142925
_cell_angle_beta   104.99142781
_cell_angle_gamma   89.99998978
_symmetry_Int_Tables_number   1
_chemical_formula_structural   LaAl2Pd5
_chemical_formula_sum   'La1 Al2 Pd5'
_cell_volume   133.30413097
_cell_formula_units_Z   1
loop_
 _symmetry_equiv_pos_site_id
 _symmetry_equiv_pos_as_xyz
  1  'x, y, z'
loop_
 _atom_site_type_symbol
 _atom_site_label
 _atom_site_symmetry_multiplicity
 _atom_site_fract_x
 _atom_site_fract_y
 _atom_site_fract_z
 _atom_site_occupancy
  La  La0  1  0.000000  0.000000  0.000000  1
  Al  Al1  1  0.746541  0.746541  0.493081  1
  Al  Al2  1  0.253460  0.253460  0.506919  1
  Pd  Pd3  1  0.500001  0.500001  0.000000  1
  Pd  Pd4  1  0.647733  0.147732  0.295464  1
  Pd  Pd5  1  0.147732  0.647733  0.295464  1
  Pd  Pd6  1  0.852268  0.352268  0.704537  1
  Pd  Pd7  1  0.352268  0.852268  0.704537  1
