# generated using pymatgen
data_Ce4Pt4PbAu
_symmetry_space_group_name_H-M   'P 1'
_cell_length_a   7.91711600
_cell_length_b   7.91711600
_cell_length_c   3.69493400
_cell_angle_alpha   90.00000000
_cell_angle_beta   90.00000000
_cell_angle_gamma   90.00000000
_symmetry_Int_Tables_number   1
_chemical_formula_structural   Ce4Pt4PbAu
_chemical_formula_sum   'Ce4 Pt4 Pb1 Au1'
_cell_volume   231.60114475
_cell_formula_units_Z   1
loop_
 _symmetry_equiv_pos_site_id
 _symmetry_equiv_pos_as_xyz
  1  'x, y, z'
loop_
 _atom_site_type_symbol
 _atom_site_label
 _atom_site_symmetry_multiplicity
 _atom_site_fract_x
 _atom_site_fract_y
 _atom_site_fract_z
 _atom_site_occupancy
  Ce  Ce0  1  0.180637  0.334773  0.500000  1
  Ce  Ce1  1  0.334773  0.819363  0.500000  1
  Ce  Ce2  1  0.819363  0.665227  0.500000  1
  Ce  Ce3  1  0.665227  0.180637  0.500000  1
  Pt  Pt4  1  0.627262  0.870378  0.000000  1
  Pt  Pt5  1  0.129622  0.627262  0.000000  1
  Pt  Pt6  1  0.870378  0.372738  0.000000  1
  Pt  Pt7  1  0.372738  0.129622  0.000000  1
  Pb  Pb8  1  0.000000  0.000000  0.000000  1
  Au  Au9  1  0.500000  0.500000  0.000000  1
