# generated using pymatgen
data_Tb2Sc2RhAu
_symmetry_space_group_name_H-M   'P 1'
_cell_length_a   4.63853500
_cell_length_b   7.03342479
_cell_length_c   8.52022458
_cell_angle_alpha   89.35955034
_cell_angle_beta   90.00000000
_cell_angle_gamma   90.00000000
_symmetry_Int_Tables_number   1
_chemical_formula_structural   Tb2Sc2RhAu
_chemical_formula_sum   'Tb4 Sc4 Rh2 Au2'
_cell_volume   277.95314700
_cell_formula_units_Z   2
loop_
 _symmetry_equiv_pos_site_id
 _symmetry_equiv_pos_as_xyz
  1  'x, y, z'
loop_
 _atom_site_type_symbol
 _atom_site_label
 _atom_site_symmetry_multiplicity
 _atom_site_fract_x
 _atom_site_fract_y
 _atom_site_fract_z
 _atom_site_occupancy
  Tb  Tb0  1  0.250000  0.520689  0.168926  1
  Tb  Tb1  1  0.750000  0.479311  0.831074  1
  Tb  Tb2  1  0.250000  0.028353  0.312067  1
  Tb  Tb3  1  0.750000  0.971647  0.687933  1
  Sc  Sc4  1  0.250000  0.139241  0.930303  1
  Sc  Sc5  1  0.750000  0.860759  0.069697  1
  Sc  Sc6  1  0.250000  0.643043  0.576336  1
  Sc  Sc7  1  0.750000  0.356957  0.423664  1
  Rh  Rh8  1  0.750000  0.239811  0.098234  1
  Rh  Rh9  1  0.250000  0.760189  0.901766  1
  Au  Au10  1  0.750000  0.747081  0.394630  1
  Au  Au11  1  0.250000  0.252919  0.605370  1
