# generated using pymatgen
data_Np6Sb8PdAu5
_symmetry_space_group_name_H-M   'P 1'
_cell_length_a   8.67604481
_cell_length_b   8.67604522
_cell_length_c   8.67604446
_cell_angle_alpha   109.50438825
_cell_angle_beta   109.40489998
_cell_angle_gamma   109.50439409
_symmetry_Int_Tables_number   1
_chemical_formula_structural   Np6Sb8PdAu5
_chemical_formula_sum   'Np6 Sb8 Pd1 Au5'
_cell_volume   502.73952939
_cell_formula_units_Z   1
loop_
 _symmetry_equiv_pos_site_id
 _symmetry_equiv_pos_as_xyz
  1  'x, y, z'
loop_
 _atom_site_type_symbol
 _atom_site_label
 _atom_site_symmetry_multiplicity
 _atom_site_fract_x
 _atom_site_fract_y
 _atom_site_fract_z
 _atom_site_occupancy
  Np  Np0  1  0.625000  0.750000  0.375000  1
  Np  Np1  1  0.743886  0.373596  0.626211  1
  Np  Np2  1  0.252614  0.126404  0.870289  1
  Np  Np3  1  0.373789  0.617675  0.747386  1
  Np  Np4  1  0.129711  0.882325  0.256114  1
  Np  Np5  1  0.875000  0.250000  0.125000  1
  Sb  Sb6  1  0.177558  0.498785  0.000182  1
  Sb  Sb7  1  0.324273  0.320965  0.328185  1
  Sb  Sb8  1  0.007220  0.179035  0.503308  1
  Sb  Sb9  1  0.821226  0.822623  0.822442  1
  Sb  Sb10  1  0.496692  0.003912  0.675727  1
  Sb  Sb11  1  0.999818  0.677377  0.498603  1
  Sb  Sb12  1  0.501397  0.001215  0.178774  1
  Sb  Sb13  1  0.671815  0.496088  0.992780  1
  Pd  Pd14  1  0.375000  0.250000  0.625000  1
  Au  Au15  1  0.873415  0.124235  0.748801  1
  Au  Au16  1  0.251199  0.624614  0.375434  1
  Au  Au17  1  0.750819  0.875386  0.126585  1
  Au  Au18  1  0.125000  0.750000  0.875000  1
  Au  Au19  1  0.624566  0.375765  0.249181  1
