# generated using pymatgen
data_Er4Hf3ScPtRh3
_symmetry_space_group_name_H-M   'P 1'
_cell_length_a   4.59165400
_cell_length_b   6.97072955
_cell_length_c   8.24162244
_cell_angle_alpha   90.63436769
_cell_angle_beta   90.00000000
_cell_angle_gamma   90.00000000
_symmetry_Int_Tables_number   1
_chemical_formula_structural   Er4Hf3ScPtRh3
_chemical_formula_sum   'Er4 Hf3 Sc1 Pt1 Rh3'
_cell_volume   263.77491005
_cell_formula_units_Z   1
loop_
 _symmetry_equiv_pos_site_id
 _symmetry_equiv_pos_as_xyz
  1  'x, y, z'
loop_
 _atom_site_type_symbol
 _atom_site_label
 _atom_site_symmetry_multiplicity
 _atom_site_fract_x
 _atom_site_fract_y
 _atom_site_fract_z
 _atom_site_occupancy
  Er  Er0  1  0.250000  0.984281  0.325180  1
  Er  Er1  1  0.250000  0.484224  0.176174  1
  Er  Er2  1  0.750000  0.017557  0.677669  1
  Er  Er3  1  0.750000  0.514875  0.821911  1
  Hf  Hf4  1  0.250000  0.364389  0.574204  1
  Hf  Hf5  1  0.250000  0.854015  0.927922  1
  Hf  Hf6  1  0.750000  0.643565  0.425003  1
  Sc  Sc7  1  0.750000  0.137846  0.077696  1
  Pt  Pt8  1  0.250000  0.234316  0.898304  1
  Rh  Rh9  1  0.250000  0.736653  0.588423  1
  Rh  Rh10  1  0.750000  0.758111  0.089653  1
  Rh  Rh11  1  0.750000  0.270171  0.417861  1
