# generated using pymatgen
data_Mg2Ge(SbPt)3
_symmetry_space_group_name_H-M   'P 1'
_cell_length_a   7.77409871
_cell_length_b   7.77570855
_cell_length_c   7.79890037
_cell_angle_alpha   99.92615288
_cell_angle_beta   99.92189341
_cell_angle_gamma   119.70344066
_symmetry_Int_Tables_number   1
_chemical_formula_structural   Mg2Ge(SbPt)3
_chemical_formula_sum   'Mg4 Ge2 Sb6 Pt6'
_cell_volume   384.62714207
_cell_formula_units_Z   2
loop_
 _symmetry_equiv_pos_site_id
 _symmetry_equiv_pos_as_xyz
  1  'x, y, z'
loop_
 _atom_site_type_symbol
 _atom_site_label
 _atom_site_symmetry_multiplicity
 _atom_site_fract_x
 _atom_site_fract_y
 _atom_site_fract_z
 _atom_site_occupancy
  Mg  Mg0  1  0.330614  0.164264  0.499116  1
  Mg  Mg1  1  0.998998  0.503478  0.499791  1
  Mg  Mg2  1  0.164243  0.330600  0.999117  1
  Mg  Mg3  1  0.503490  0.998995  0.999813  1
  Ge  Ge4  1  0.669880  0.832583  0.500431  1
  Ge  Ge5  1  0.832638  0.669858  0.000443  1
  Sb  Sb6  1  0.920664  0.099211  0.247981  1
  Sb  Sb7  1  0.257159  0.748889  0.248606  1
  Sb  Sb8  1  0.572752  0.402599  0.255386  1
  Sb  Sb9  1  0.099200  0.920767  0.748014  1
  Sb  Sb10  1  0.748844  0.257186  0.748601  1
  Sb  Sb11  1  0.402570  0.572787  0.755393  1
  Pt  Pt12  1  0.194463  0.026543  0.120180  1
  Pt  Pt13  1  0.872478  0.389428  0.120599  1
  Pt  Pt14  1  0.556754  0.709272  0.132879  1
  Pt  Pt15  1  0.026569  0.194438  0.620171  1
  Pt  Pt16  1  0.389392  0.872442  0.620562  1
  Pt  Pt17  1  0.709248  0.556618  0.632915  1
