# generated using pymatgen
data_Zr4TiAl(Co5B2)2
_symmetry_space_group_name_H-M   'P 1'
_cell_length_a   8.71642500
_cell_length_b   8.71642500
_cell_length_c   3.12687100
_cell_angle_alpha   90.00000000
_cell_angle_beta   90.00000000
_cell_angle_gamma   90.00000000
_symmetry_Int_Tables_number   1
_chemical_formula_structural   Zr4TiAl(Co5B2)2
_chemical_formula_sum   'Zr4 Ti1 Al1 Co10 B4'
_cell_volume   237.56735366
_cell_formula_units_Z   1
loop_
 _symmetry_equiv_pos_site_id
 _symmetry_equiv_pos_as_xyz
  1  'x, y, z'
loop_
 _atom_site_type_symbol
 _atom_site_label
 _atom_site_symmetry_multiplicity
 _atom_site_fract_x
 _atom_site_fract_y
 _atom_site_fract_z
 _atom_site_occupancy
  Zr  Zr0  1  0.825413  0.321257  0.000000  1
  Zr  Zr1  1  0.321257  0.174587  0.000000  1
  Zr  Zr2  1  0.678743  0.825413  0.000000  1
  Zr  Zr3  1  0.174587  0.678743  0.000000  1
  Ti  Ti4  1  0.500000  0.500000  0.000000  1
  Al  Al5  1  0.000000  0.000000  0.000000  1
  Co  Co6  1  0.500000  0.000000  0.500000  1
  Co  Co7  1  0.000000  0.500000  0.500000  1
  Co  Co8  1  0.069568  0.224403  0.500000  1
  Co  Co9  1  0.224403  0.930432  0.500000  1
  Co  Co10  1  0.775597  0.069568  0.500000  1
  Co  Co11  1  0.930432  0.775597  0.500000  1
  Co  Co12  1  0.431258  0.723621  0.500000  1
  Co  Co13  1  0.568742  0.276379  0.500000  1
  Co  Co14  1  0.723621  0.568742  0.500000  1
  Co  Co15  1  0.276379  0.431258  0.500000  1
  B  B16  1  0.618575  0.118139  0.000000  1
  B  B17  1  0.118139  0.381425  0.000000  1
  B  B18  1  0.881861  0.618575  0.000000  1
  B  B19  1  0.381425  0.881861  0.000000  1
