# generated using pymatgen
data_GdYB5
_symmetry_space_group_name_H-M   'P 1'
_cell_length_a   7.13558800
_cell_length_b   7.13070390
_cell_length_c   7.16123794
_cell_angle_alpha   77.06613040
_cell_angle_beta   90.00000000
_cell_angle_gamma   90.00000000
_symmetry_Int_Tables_number   1
_chemical_formula_structural   GdYB5
_chemical_formula_sum   'Gd4 Y4 B20'
_cell_volume   355.13185205
_cell_formula_units_Z   4
loop_
 _symmetry_equiv_pos_site_id
 _symmetry_equiv_pos_as_xyz
  1  'x, y, z'
loop_
 _atom_site_type_symbol
 _atom_site_label
 _atom_site_symmetry_multiplicity
 _atom_site_fract_x
 _atom_site_fract_y
 _atom_site_fract_z
 _atom_site_occupancy
  Gd  Gd0  1  0.692066  0.768752  0.628174  1
  Gd  Gd1  1  0.192066  0.231248  0.871826  1
  Gd  Gd2  1  0.307934  0.231248  0.371826  1
  Gd  Gd3  1  0.807934  0.768752  0.128174  1
  Y  Y4  1  0.315083  0.756628  0.253929  1
  Y  Y5  1  0.815083  0.243372  0.246071  1
  Y  Y6  1  0.684917  0.243372  0.746071  1
  Y  Y7  1  0.184917  0.756628  0.753929  1
  B  B8  1  0.502001  0.314580  0.039927  1
  B  B9  1  0.002001  0.685420  0.460073  1
  B  B10  1  0.497999  0.685420  0.960073  1
  B  B11  1  0.997999  0.314580  0.539927  1
  B  B12  1  0.490275  0.924705  0.926876  1
  B  B13  1  0.990275  0.075295  0.573124  1
  B  B14  1  0.509725  0.075295  0.073124  1
  B  B15  1  0.009725  0.924705  0.426876  1
  B  B16  1  0.326329  0.496498  0.039682  1
  B  B17  1  0.826329  0.503502  0.460318  1
  B  B18  1  0.673671  0.503502  0.960318  1
  B  B19  1  0.173671  0.496498  0.539682  1
  B  B20  1  0.910643  0.498973  0.910671  1
  B  B21  1  0.410643  0.501027  0.589329  1
  B  B22  1  0.089357  0.501027  0.089329  1
  B  B23  1  0.589357  0.498973  0.410671  1
  B  B24  1  0.961621  0.496692  0.674097  1
  B  B25  1  0.461621  0.503308  0.825903  1
  B  B26  1  0.038379  0.503308  0.325903  1
  B  B27  1  0.538379  0.496692  0.174097  1
