# generated using pymatgen
data_La4Hg2PdRh3
_symmetry_space_group_name_H-M   'P 1'
_cell_length_a   7.82938959
_cell_length_b   7.82938982
_cell_length_c   3.91961000
_cell_angle_alpha   90.00000000
_cell_angle_beta   90.00000000
_cell_angle_gamma   89.63888990
_symmetry_Int_Tables_number   1
_chemical_formula_structural   La4Hg2PdRh3
_chemical_formula_sum   'La4 Hg2 Pd1 Rh3'
_cell_volume   240.26474658
_cell_formula_units_Z   1
loop_
 _symmetry_equiv_pos_site_id
 _symmetry_equiv_pos_as_xyz
  1  'x, y, z'
loop_
 _atom_site_type_symbol
 _atom_site_label
 _atom_site_symmetry_multiplicity
 _atom_site_fract_x
 _atom_site_fract_y
 _atom_site_fract_z
 _atom_site_occupancy
  La  La0  1  0.660936  0.160936  0.500000  1
  La  La1  1  0.182779  0.330464  0.500000  1
  La  La2  1  0.830464  0.682779  0.500000  1
  La  La3  1  0.324642  0.824642  0.500000  1
  Hg  Hg4  1  0.000065  0.003851  0.000000  1
  Hg  Hg5  1  0.503851  0.500065  0.000000  1
  Pd  Pd6  1  0.870061  0.370061  0.000000  1
  Rh  Rh7  1  0.366334  0.132156  0.000000  1
  Rh  Rh8  1  0.128710  0.628710  0.000000  1
  Rh  Rh9  1  0.632156  0.866334  0.000000  1
