# generated using pymatgen
data_Er20IrRu11
_symmetry_space_group_name_H-M   'P 1'
_cell_length_a   10.69922522
_cell_length_b   10.69922522
_cell_length_c   6.30950225
_cell_angle_alpha   89.97732612
_cell_angle_beta   89.97732612
_cell_angle_gamma   89.99587431
_symmetry_Int_Tables_number   1
_chemical_formula_structural   Er20IrRu11
_chemical_formula_sum   'Er20 Ir1 Ru11'
_cell_volume   722.27018719
_cell_formula_units_Z   1
loop_
 _symmetry_equiv_pos_site_id
 _symmetry_equiv_pos_as_xyz
  1  'x, y, z'
loop_
 _atom_site_type_symbol
 _atom_site_label
 _atom_site_symmetry_multiplicity
 _atom_site_fract_x
 _atom_site_fract_y
 _atom_site_fract_z
 _atom_site_occupancy
  Er  Er0  1  0.292022  0.086214  0.376305  1
  Er  Er1  1  0.291950  0.914628  0.876378  1
  Er  Er2  1  0.708148  0.086455  0.876296  1
  Er  Er3  1  0.708258  0.913536  0.376162  1
  Er  Er4  1  0.586387  0.792453  0.876661  1
  Er  Er5  1  0.586291  0.207488  0.376352  1
  Er  Er6  1  0.414103  0.792657  0.376513  1
  Er  Er7  1  0.413649  0.208330  0.876456  1
  Er  Er8  1  0.207547  0.413613  0.623339  1
  Er  Er9  1  0.207343  0.585897  0.123487  1
  Er  Er10  1  0.792512  0.413709  0.123648  1
  Er  Er11  1  0.791670  0.586351  0.623544  1
  Er  Er12  1  0.913786  0.707978  0.123695  1
  Er  Er13  1  0.913545  0.291852  0.623704  1
  Er  Er14  1  0.085372  0.708050  0.623622  1
  Er  Er15  1  0.086464  0.291742  0.123838  1
  Er  Er16  1  0.000151  0.000200  0.500066  1
  Er  Er17  1  0.999800  0.999849  0.999934  1
  Er  Er18  1  0.501156  0.499617  0.000822  1
  Er  Er19  1  0.500383  0.498844  0.499178  1
  Ir  Ir20  1  0.346055  0.653945  0.750000  1
  Ru  Ru21  1  0.846593  0.153407  0.250000  1
  Ru  Ru22  1  0.846480  0.846324  0.749808  1
  Ru  Ru23  1  0.153676  0.153520  0.750192  1
  Ru  Ru24  1  0.154237  0.845763  0.250000  1
  Ru  Ru25  1  0.653171  0.346829  0.750000  1
  Ru  Ru26  1  0.652688  0.653640  0.250294  1
  Ru  Ru27  1  0.346360  0.347312  0.249706  1
  Ru  Ru28  1  0.500004  0.999676  0.124537  1
  Ru  Ru29  1  0.500056  0.000179  0.624947  1
  Ru  Ru30  1  0.999821  0.499944  0.875053  1
  Ru  Ru31  1  0.000324  0.499996  0.375463  1
