# generated using pymatgen
data_Pr3Tm2Sn3
_symmetry_space_group_name_H-M   'P 1'
_cell_length_a   6.67649700
_cell_length_b   9.18053098
_cell_length_c   9.18091311
_cell_angle_alpha   119.99861315
_cell_angle_beta   90.00000000
_cell_angle_gamma   90.00000000
_symmetry_Int_Tables_number   1
_chemical_formula_structural   Pr3Tm2Sn3
_chemical_formula_sum   'Pr6 Tm4 Sn6'
_cell_volume   487.34782986
_cell_formula_units_Z   2
loop_
 _symmetry_equiv_pos_site_id
 _symmetry_equiv_pos_as_xyz
  1  'x, y, z'
loop_
 _atom_site_type_symbol
 _atom_site_label
 _atom_site_symmetry_multiplicity
 _atom_site_fract_x
 _atom_site_fract_y
 _atom_site_fract_z
 _atom_site_occupancy
  Pr  Pr0  1  0.750003  0.241793  0.000000  1
  Pr  Pr1  1  0.749997  0.758135  0.758168  1
  Pr  Pr2  1  0.749997  0.999966  0.241832  1
  Pr  Pr3  1  0.250003  0.758207  0.000000  1
  Pr  Pr4  1  0.249997  0.241865  0.241832  1
  Pr  Pr5  1  0.249997  0.000034  0.758168  1
  Tm  Tm6  1  0.500000  0.333345  0.666705  1
  Tm  Tm7  1  0.500000  0.666640  0.333295  1
  Tm  Tm8  1  0.000000  0.666655  0.333295  1
  Tm  Tm9  1  0.000000  0.333360  0.666705  1
  Sn  Sn10  1  0.750000  0.600577  0.000000  1
  Sn  Sn11  1  0.750001  0.399373  0.399365  1
  Sn  Sn12  1  0.750001  0.000008  0.600635  1
  Sn  Sn13  1  0.250000  0.399423  0.000000  1
  Sn  Sn14  1  0.250001  0.600627  0.600635  1
  Sn  Sn15  1  0.250001  0.999992  0.399365  1
