# generated using pymatgen
data_Sr3PrSb3
_symmetry_space_group_name_H-M   'P 1'
_cell_length_a   8.57297033
_cell_length_b   8.57296968
_cell_length_c   9.93128207
_cell_angle_alpha   55.09443395
_cell_angle_beta   55.09443487
_cell_angle_gamma   70.80460359
_symmetry_Int_Tables_number   1
_chemical_formula_structural   Sr3PrSb3
_chemical_formula_sum   'Sr6 Pr2 Sb6'
_cell_volume   490.90420503
_cell_formula_units_Z   2
loop_
 _symmetry_equiv_pos_site_id
 _symmetry_equiv_pos_as_xyz
  1  'x, y, z'
loop_
 _atom_site_type_symbol
 _atom_site_label
 _atom_site_symmetry_multiplicity
 _atom_site_fract_x
 _atom_site_fract_y
 _atom_site_fract_z
 _atom_site_occupancy
  Sr  Sr0  1  0.000410  0.135575  0.112361  1
  Sr  Sr1  1  0.864425  0.999590  0.887639  1
  Sr  Sr2  1  0.500043  0.857098  0.750669  1
  Sr  Sr3  1  0.142902  0.499957  0.249331  1
  Sr  Sr4  1  0.999372  0.645269  0.604839  1
  Sr  Sr5  1  0.354731  0.000628  0.395161  1
  Pr  Pr6  1  0.634464  0.498404  0.249020  1
  Pr  Pr7  1  0.501596  0.365536  0.750980  1
  Sb  Sb8  1  0.861686  0.138314  0.500000  1
  Sb  Sb9  1  0.624320  0.375680  0.000000  1
  Sb  Sb10  1  0.264866  0.259104  0.618814  1
  Sb  Sb11  1  0.740896  0.735134  0.381186  1
  Sb  Sb12  1  0.124851  0.614563  0.878624  1
  Sb  Sb13  1  0.385437  0.875149  0.121376  1
