# generated using pymatgen
data_CdHg(PAu)4
_symmetry_space_group_name_H-M   'P 1'
_cell_length_a   5.99283260
_cell_length_b   5.99283309
_cell_length_c   11.35343500
_cell_angle_alpha   90.00000000
_cell_angle_beta   90.00000000
_cell_angle_gamma   148.26858362
_symmetry_Int_Tables_number   1
_chemical_formula_structural   CdHg(PAu)4
_chemical_formula_sum   'Cd1 Hg1 P4 Au4'
_cell_volume   214.45008855
_cell_formula_units_Z   1
loop_
 _symmetry_equiv_pos_site_id
 _symmetry_equiv_pos_as_xyz
  1  'x, y, z'
loop_
 _atom_site_type_symbol
 _atom_site_label
 _atom_site_symmetry_multiplicity
 _atom_site_fract_x
 _atom_site_fract_y
 _atom_site_fract_z
 _atom_site_occupancy
  Cd  Cd0  1  0.479475  0.520525  0.250000  1
  Hg  Hg1  1  0.519971  0.480029  0.750000  1
  P  P2  1  0.798896  0.201104  0.542350  1
  P  P3  1  0.201910  0.798090  0.042562  1
  P  P4  1  0.201910  0.798090  0.457438  1
  P  P5  1  0.798896  0.201104  0.957650  1
  Au  Au6  1  0.999352  0.000648  0.005839  1
  Au  Au7  1  0.777885  0.222115  0.750000  1
  Au  Au8  1  0.999352  0.000648  0.494161  1
  Au  Au9  1  0.222355  0.777645  0.250000  1
