# generated using pymatgen
data_U3PaP8
_symmetry_space_group_name_H-M   'P 1'
_cell_length_a   5.40470574
_cell_length_b   5.40470627
_cell_length_c   8.61071627
_cell_angle_alpha   108.29054784
_cell_angle_beta   108.29055245
_cell_angle_gamma   90.00000155
_symmetry_Int_Tables_number   1
_chemical_formula_structural   U3PaP8
_chemical_formula_sum   'U3 Pa1 P8'
_cell_volume   225.39538226
_cell_formula_units_Z   1
loop_
 _symmetry_equiv_pos_site_id
 _symmetry_equiv_pos_as_xyz
  1  'x, y, z'
loop_
 _atom_site_type_symbol
 _atom_site_label
 _atom_site_symmetry_multiplicity
 _atom_site_fract_x
 _atom_site_fract_y
 _atom_site_fract_z
 _atom_site_occupancy
  U  U0  1  0.508511  0.508511  0.017020  1
  U  U1  1  0.719501  0.219500  0.439001  1
  U  U2  1  0.219500  0.719501  0.439001  1
  Pa  Pa3  1  0.995180  0.995180  0.990359  1
  P  P4  1  0.539237  0.039236  0.078472  1
  P  P5  1  0.039236  0.539237  0.078472  1
  P  P6  1  0.179019  0.179019  0.358038  1
  P  P7  1  0.686168  0.686168  0.372334  1
  P  P8  1  0.135304  0.135304  0.719276  1
  P  P9  1  0.583972  0.135304  0.719276  1
  P  P10  1  0.135304  0.583972  0.719276  1
  P  P11  1  0.583972  0.583972  0.719276  1
