# generated using pymatgen
data_AcMg2GaSn
_symmetry_space_group_name_H-M   'P 1'
_cell_length_a   6.96659968
_cell_length_b   6.96660014
_cell_length_c   6.96659916
_cell_angle_alpha   141.11304400
_cell_angle_beta   141.11305012
_cell_angle_gamma   56.16713865
_symmetry_Int_Tables_number   1
_chemical_formula_structural   AcMg2GaSn
_chemical_formula_sum   'Ac1 Mg2 Ga1 Sn1'
_cell_volume   132.21691908
_cell_formula_units_Z   1
loop_
 _symmetry_equiv_pos_site_id
 _symmetry_equiv_pos_as_xyz
  1  'x, y, z'
loop_
 _atom_site_type_symbol
 _atom_site_label
 _atom_site_symmetry_multiplicity
 _atom_site_fract_x
 _atom_site_fract_y
 _atom_site_fract_z
 _atom_site_occupancy
  Ac  Ac0  1  0.997136  0.997136  0.000000  1
  Mg  Mg1  1  0.755780  0.255780  0.500001  1
  Mg  Mg2  1  0.255780  0.755780  0.500001  1
  Ga  Ga3  1  0.384348  0.384348  0.000000  1
  Sn  Sn4  1  0.606956  0.606956  0.000000  1
