# generated using pymatgen
data_Ca(Th2B15)2
_symmetry_space_group_name_H-M   'P 1'
_cell_length_a   4.11796100
_cell_length_b   4.11796100
_cell_length_c   20.60151000
_cell_angle_alpha   90.00000000
_cell_angle_beta   90.00000000
_cell_angle_gamma   90.00000000
_symmetry_Int_Tables_number   1
_chemical_formula_structural   Ca(Th2B15)2
_chemical_formula_sum   'Ca1 Th4 B30'
_cell_volume   349.35222361
_cell_formula_units_Z   1
loop_
 _symmetry_equiv_pos_site_id
 _symmetry_equiv_pos_as_xyz
  1  'x, y, z'
loop_
 _atom_site_type_symbol
 _atom_site_label
 _atom_site_symmetry_multiplicity
 _atom_site_fract_x
 _atom_site_fract_y
 _atom_site_fract_z
 _atom_site_occupancy
  Ca  Ca0  1  0.000000  0.000000  0.000000  1
  Th  Th1  1  0.000000  0.000000  0.201989  1
  Th  Th2  1  0.000000  0.000000  0.400921  1
  Th  Th3  1  0.000000  0.000000  0.599079  1
  Th  Th4  1  0.000000  0.000000  0.798011  1
  B  B5  1  0.500000  0.500000  0.160641  1
  B  B6  1  0.500000  0.500000  0.360684  1
  B  B7  1  0.500000  0.500000  0.560406  1
  B  B8  1  0.500000  0.500000  0.760304  1
  B  B9  1  0.500000  0.500000  0.959933  1
  B  B10  1  0.500000  0.199054  0.100347  1
  B  B11  1  0.500000  0.197546  0.300247  1
  B  B12  1  0.500000  0.197210  0.500000  1
  B  B13  1  0.500000  0.197546  0.699753  1
  B  B14  1  0.500000  0.199054  0.899653  1
  B  B15  1  0.199054  0.500000  0.100347  1
  B  B16  1  0.197546  0.500000  0.300247  1
  B  B17  1  0.197210  0.500000  0.500000  1
  B  B18  1  0.197546  0.500000  0.699753  1
  B  B19  1  0.199054  0.500000  0.899653  1
  B  B20  1  0.500000  0.500000  0.040067  1
  B  B21  1  0.500000  0.500000  0.239696  1
  B  B22  1  0.500000  0.500000  0.439594  1
  B  B23  1  0.500000  0.500000  0.639316  1
  B  B24  1  0.500000  0.500000  0.839359  1
  B  B25  1  0.500000  0.800946  0.100347  1
  B  B26  1  0.500000  0.802454  0.300247  1
  B  B27  1  0.500000  0.802790  0.500000  1
  B  B28  1  0.500000  0.802454  0.699753  1
  B  B29  1  0.500000  0.800946  0.899653  1
  B  B30  1  0.800946  0.500000  0.100347  1
  B  B31  1  0.802454  0.500000  0.300247  1
  B  B32  1  0.802790  0.500000  0.500000  1
  B  B33  1  0.802454  0.500000  0.699753  1
  B  B34  1  0.800946  0.500000  0.899653  1
