# generated using pymatgen
data_DyMnAl10Co
_symmetry_space_group_name_H-M   'P 1'
_cell_length_a   6.78940728
_cell_length_b   6.78940828
_cell_length_c   9.01164239
_cell_angle_alpha   90.61326303
_cell_angle_beta   90.61326431
_cell_angle_gamma   97.28230317
_symmetry_Int_Tables_number   1
_chemical_formula_structural   DyMnAl10Co
_chemical_formula_sum   'Dy2 Mn2 Al20 Co2'
_cell_volume   411.99635537
_cell_formula_units_Z   2
loop_
 _symmetry_equiv_pos_site_id
 _symmetry_equiv_pos_as_xyz
  1  'x, y, z'
loop_
 _atom_site_type_symbol
 _atom_site_label
 _atom_site_symmetry_multiplicity
 _atom_site_fract_x
 _atom_site_fract_y
 _atom_site_fract_z
 _atom_site_occupancy
  Dy  Dy0  1  0.874259  0.125741  0.750000  1
  Dy  Dy1  1  0.125741  0.874259  0.250000  1
  Mn  Mn2  1  0.000000  0.500000  0.000000  1
  Mn  Mn3  1  0.500000  0.000000  0.500000  1
  Al  Al4  1  0.623640  0.373631  0.547072  1
  Al  Al5  1  0.376360  0.626369  0.452928  1
  Al  Al6  1  0.373631  0.623640  0.047072  1
  Al  Al7  1  0.626369  0.376360  0.952928  1
  Al  Al8  1  0.228961  0.226828  0.499435  1
  Al  Al9  1  0.771039  0.773172  0.500565  1
  Al  Al10  1  0.773172  0.771039  0.000565  1
  Al  Al11  1  0.226828  0.228961  0.999435  1
  Al  Al12  1  0.844523  0.158004  0.096722  1
  Al  Al13  1  0.155477  0.841996  0.903278  1
  Al  Al14  1  0.158004  0.844523  0.596722  1
  Al  Al15  1  0.841996  0.155477  0.403278  1
  Al  Al16  1  0.865252  0.587029  0.750060  1
  Al  Al17  1  0.134748  0.412971  0.249940  1
  Al  Al18  1  0.412971  0.134748  0.749940  1
  Al  Al19  1  0.587029  0.865252  0.250060  1
  Al  Al20  1  0.220805  0.477590  0.752607  1
  Al  Al21  1  0.779195  0.522410  0.247393  1
  Al  Al22  1  0.522410  0.779195  0.747393  1
  Al  Al23  1  0.477590  0.220805  0.252607  1
  Co  Co24  1  0.000000  0.500000  0.500000  1
  Co  Co25  1  0.500000  0.000000  0.000000  1
