# generated using pymatgen
data_Ti10Si3As3C2
_symmetry_space_group_name_H-M   'P 1'
_cell_length_a   7.51155147
_cell_length_b   7.48578917
_cell_length_c   5.22411700
_cell_angle_alpha   90.00000000
_cell_angle_beta   90.00000000
_cell_angle_gamma   120.27582333
_symmetry_Int_Tables_number   1
_chemical_formula_structural   Ti10Si3As3C2
_chemical_formula_sum   'Ti10 Si3 As3 C2'
_cell_volume   253.68627637
_cell_formula_units_Z   1
loop_
 _symmetry_equiv_pos_site_id
 _symmetry_equiv_pos_as_xyz
  1  'x, y, z'
loop_
 _atom_site_type_symbol
 _atom_site_label
 _atom_site_symmetry_multiplicity
 _atom_site_fract_x
 _atom_site_fract_y
 _atom_site_fract_z
 _atom_site_occupancy
  Ti  Ti0  1  0.333455  0.665439  0.998690  1
  Ti  Ti1  1  0.666579  0.334405  0.998722  1
  Ti  Ti2  1  0.666579  0.334405  0.501278  1
  Ti  Ti3  1  0.333455  0.665439  0.501310  1
  Ti  Ti4  1  0.228995  0.002919  0.250000  1
  Ti  Ti5  1  0.772118  0.999894  0.750000  1
  Ti  Ti6  1  0.003617  0.231013  0.250000  1
  Ti  Ti7  1  0.996379  0.768107  0.750000  1
  Ti  Ti8  1  0.768600  0.767886  0.250000  1
  Ti  Ti9  1  0.230219  0.233672  0.750000  1
  Si  Si10  1  0.000098  0.403706  0.750000  1
  Si  Si11  1  0.409109  0.409276  0.250000  1
  Si  Si12  1  0.591412  0.591460  0.750000  1
  As  As13  1  0.598751  0.000186  0.250000  1
  As  As14  1  0.400714  0.000230  0.750000  1
  As  As15  1  0.999988  0.592737  0.250000  1
  C  C16  1  0.999965  0.999612  0.000031  1
  C  C17  1  0.999965  0.999612  0.499969  1
