# generated using pymatgen
data_Pr6Y2Sc11Si16Hg
_symmetry_space_group_name_H-M   'P 1'
_cell_length_a   7.18154465
_cell_length_b   7.52290284
_cell_length_c   14.24922272
_cell_angle_alpha   89.96119928
_cell_angle_beta   90.10502471
_cell_angle_gamma   90.21346356
_symmetry_Int_Tables_number   1
_chemical_formula_structural   Pr6Y2Sc11Si16Hg
_chemical_formula_sum   'Pr6 Y2 Sc11 Si16 Hg1'
_cell_volume   769.82259047
_cell_formula_units_Z   1
loop_
 _symmetry_equiv_pos_site_id
 _symmetry_equiv_pos_as_xyz
  1  'x, y, z'
loop_
 _atom_site_type_symbol
 _atom_site_label
 _atom_site_symmetry_multiplicity
 _atom_site_fract_x
 _atom_site_fract_y
 _atom_site_fract_z
 _atom_site_occupancy
  Pr  Pr0  1  0.492065  0.679206  0.899810  1
  Pr  Pr1  1  0.491098  0.679844  0.598090  1
  Pr  Pr2  1  0.980228  0.829026  0.598961  1
  Pr  Pr3  1  0.981208  0.829289  0.899085  1
  Pr  Pr4  1  0.509793  0.330666  0.099028  1
  Pr  Pr5  1  0.012194  0.172961  0.098897  1
  Y  Y6  1  0.011790  0.176299  0.400075  1
  Y  Y7  1  0.511462  0.327078  0.399782  1
  Sc  Sc8  1  0.336757  0.176129  0.623425  1
  Sc  Sc9  1  0.670686  0.820534  0.374104  1
  Sc  Sc10  1  0.170943  0.676568  0.376114  1
  Sc  Sc11  1  0.826971  0.315383  0.875761  1
  Sc  Sc12  1  0.827325  0.314433  0.623739  1
  Sc  Sc13  1  0.840121  0.499507  0.251465  1
  Sc  Sc14  1  0.339353  0.999929  0.251577  1
  Sc  Sc15  1  0.337337  0.174677  0.875627  1
  Sc  Sc16  1  0.171436  0.676423  0.125705  1
  Sc  Sc17  1  0.671047  0.820746  0.127927  1
  Sc  Sc18  1  0.158787  0.496742  0.749708  1
  Si  Si19  1  0.272723  0.880702  0.749383  1
  Si  Si20  1  0.466339  0.620699  0.251899  1
  Si  Si21  1  0.050298  0.129390  0.749514  1
  Si  Si22  1  0.531486  0.389740  0.749152  1
  Si  Si23  1  0.152505  0.461892  0.539372  1
  Si  Si24  1  0.967269  0.876727  0.251816  1
  Si  Si25  1  0.711775  0.121203  0.253362  1
  Si  Si26  1  0.849111  0.536417  0.038744  1
  Si  Si27  1  0.347774  0.962519  0.039543  1
  Si  Si28  1  0.153297  0.465747  0.959061  1
  Si  Si29  1  0.655058  0.046611  0.525948  1
  Si  Si30  1  0.344076  0.969189  0.458305  1
  Si  Si31  1  0.845901  0.529826  0.459286  1
  Si  Si32  1  0.793795  0.592663  0.749568  1
  Si  Si33  1  0.211398  0.379711  0.253920  1
  Si  Si34  1  0.653959  0.041449  0.972007  1
  Hg  Hg35  1  0.652632  0.000075  0.750243  1
