# generated using pymatgen
data_Dy(S8Br)3
_symmetry_space_group_name_H-M   'P 1'
_cell_length_a   4.16022327
_cell_length_b   15.46728733
_cell_length_c   15.46728700
_cell_angle_alpha   119.20543395
_cell_angle_beta   95.14384531
_cell_angle_gamma   95.14383557
_symmetry_Int_Tables_number   1
_chemical_formula_structural   Dy(S8Br)3
_chemical_formula_sum   'Dy1 S24 Br3'
_cell_volume   855.00868962
_cell_formula_units_Z   1
loop_
 _symmetry_equiv_pos_site_id
 _symmetry_equiv_pos_as_xyz
  1  'x, y, z'
loop_
 _atom_site_type_symbol
 _atom_site_label
 _atom_site_symmetry_multiplicity
 _atom_site_fract_x
 _atom_site_fract_y
 _atom_site_fract_z
 _atom_site_occupancy
  Dy  Dy0  1  0.550165  0.000000  0.000000  1
  S  S1  1  0.403297  0.408132  0.000000  1
  S  S2  1  0.548187  0.721311  0.000000  1
  S  S3  1  0.262318  0.520876  0.125787  1
  S  S4  1  0.364225  0.740413  0.126938  1
  S  S5  1  0.573088  0.653308  0.176442  1
  S  S6  1  0.623813  0.386525  0.259587  1
  S  S7  1  0.826874  0.278689  0.278689  1
  S  S8  1  0.919779  0.523133  0.346691  1
  S  S9  1  0.136531  0.874214  0.395089  1
  S  S10  1  0.623813  0.259587  0.386525  1
  S  S11  1  0.403297  0.000000  0.408132  1
  S  S12  1  0.396646  0.823559  0.476867  1
  S  S13  1  0.741443  0.604911  0.479125  1
  S  S14  1  0.262318  0.125787  0.520876  1
  S  S15  1  0.919779  0.346691  0.523133  1
  S  S16  1  0.995167  0.591868  0.591868  1
  S  S17  1  0.237288  0.873062  0.613475  1
  S  S18  1  0.741443  0.479125  0.604911  1
  S  S19  1  0.573088  0.176442  0.653308  1
  S  S20  1  0.548187  0.000000  0.721311  1
  S  S21  1  0.364225  0.126938  0.740413  1
  S  S22  1  0.396646  0.476867  0.823559  1
  S  S23  1  0.237288  0.613475  0.873062  1
  S  S24  1  0.136531  0.395089  0.874214  1
  Br  Br25  1  0.099951  0.132374  0.000000  1
  Br  Br26  1  0.099951  0.000000  0.132374  1
  Br  Br27  1  0.967577  0.867626  0.867626  1
