# generated using pymatgen
data_Tb4PrDy(RuBr3)2
_symmetry_space_group_name_H-M   'P 1'
_cell_length_a   4.15564600
_cell_length_b   8.55143532
_cell_length_c   11.99824312
_cell_angle_alpha   86.71818555
_cell_angle_beta   90.00000000
_cell_angle_gamma   90.00000000
_symmetry_Int_Tables_number   1
_chemical_formula_structural   Tb4PrDy(RuBr3)2
_chemical_formula_sum   'Tb4 Pr1 Dy1 Ru2 Br6'
_cell_volume   425.67917720
_cell_formula_units_Z   1
loop_
 _symmetry_equiv_pos_site_id
 _symmetry_equiv_pos_as_xyz
  1  'x, y, z'
loop_
 _atom_site_type_symbol
 _atom_site_label
 _atom_site_symmetry_multiplicity
 _atom_site_fract_x
 _atom_site_fract_y
 _atom_site_fract_z
 _atom_site_occupancy
  Tb  Tb0  1  0.250000  0.277549  0.399848  1
  Tb  Tb1  1  0.750000  0.721089  0.603337  1
  Tb  Tb2  1  0.250000  0.863051  0.368364  1
  Tb  Tb3  1  0.250000  0.887909  0.823469  1
  Pr  Pr4  1  0.750000  0.114382  0.169199  1
  Dy  Dy5  1  0.750000  0.133289  0.630978  1
  Ru  Ru6  1  0.250000  0.939942  0.595180  1
  Ru  Ru7  1  0.750000  0.058152  0.405154  1
  Br  Br8  1  0.250000  0.426865  0.630870  1
  Br  Br9  1  0.750000  0.570292  0.375074  1
  Br  Br10  1  0.250000  0.866730  0.104557  1
  Br  Br11  1  0.750000  0.121116  0.888339  1
  Br  Br12  1  0.250000  0.368580  0.149260  1
  Br  Br13  1  0.750000  0.651052  0.856375  1
