# generated using pymatgen
data_Tb4Cd2Si3Ge
_symmetry_space_group_name_H-M   'P 1'
_cell_length_a   7.23034811
_cell_length_b   7.23034828
_cell_length_c   4.23578200
_cell_angle_alpha   90.00000000
_cell_angle_beta   90.00000000
_cell_angle_gamma   90.13217031
_symmetry_Int_Tables_number   1
_chemical_formula_structural   Tb4Cd2Si3Ge
_chemical_formula_sum   'Tb4 Cd2 Si3 Ge1'
_cell_volume   221.43734691
_cell_formula_units_Z   1
loop_
 _symmetry_equiv_pos_site_id
 _symmetry_equiv_pos_as_xyz
  1  'x, y, z'
loop_
 _atom_site_type_symbol
 _atom_site_label
 _atom_site_symmetry_multiplicity
 _atom_site_fract_x
 _atom_site_fract_y
 _atom_site_fract_z
 _atom_site_occupancy
  Tb  Tb0  1  0.679843  0.177629  0.500000  1
  Tb  Tb1  1  0.322371  0.820157  0.500000  1
  Tb  Tb2  1  0.176067  0.323933  0.500000  1
  Tb  Tb3  1  0.822633  0.677367  0.500000  1
  Cd  Cd4  1  0.501017  0.502577  0.000000  1
  Cd  Cd5  1  0.997423  0.998983  0.000000  1
  Si  Si6  1  0.117042  0.617138  0.000000  1
  Si  Si7  1  0.882862  0.382958  0.000000  1
  Si  Si8  1  0.620010  0.879990  0.000000  1
  Ge  Ge9  1  0.380734  0.119266  0.000000  1
