# generated using pymatgen
data_Ho8Al2FeRh
_symmetry_space_group_name_H-M   'P 1'
_cell_length_a   9.46733333
_cell_length_b   9.49570940
_cell_length_c   9.46733291
_cell_angle_alpha   59.90079956
_cell_angle_beta   59.84890358
_cell_angle_gamma   59.90079998
_symmetry_Int_Tables_number   1
_chemical_formula_structural   Ho8Al2FeRh
_chemical_formula_sum   'Ho16 Al4 Fe2 Rh2'
_cell_volume   600.23045408
_cell_formula_units_Z   2
loop_
 _symmetry_equiv_pos_site_id
 _symmetry_equiv_pos_as_xyz
  1  'x, y, z'
loop_
 _atom_site_type_symbol
 _atom_site_label
 _atom_site_symmetry_multiplicity
 _atom_site_fract_x
 _atom_site_fract_y
 _atom_site_fract_z
 _atom_site_occupancy
  Ho  Ho0  1  0.187180  0.189652  0.809745  1
  Ho  Ho1  1  0.595184  0.600981  0.202853  1
  Ho  Ho2  1  0.441808  0.058192  0.441808  1
  Ho  Ho3  1  0.442188  0.444492  0.061849  1
  Ho  Ho4  1  0.812068  0.187932  0.812068  1
  Ho  Ho5  1  0.189439  0.810561  0.189439  1
  Ho  Ho6  1  0.442188  0.051472  0.061849  1
  Ho  Ho7  1  0.187180  0.813424  0.809745  1
  Ho  Ho8  1  0.055130  0.444870  0.055130  1
  Ho  Ho9  1  0.809745  0.813424  0.187180  1
  Ho  Ho10  1  0.202853  0.600981  0.595184  1
  Ho  Ho11  1  0.061849  0.444492  0.442188  1
  Ho  Ho12  1  0.061849  0.051472  0.442188  1
  Ho  Ho13  1  0.809745  0.189652  0.187180  1
  Ho  Ho14  1  0.598620  0.196576  0.598620  1
  Ho  Ho15  1  0.598620  0.606183  0.598620  1
  Al  Al16  1  0.827146  0.825939  0.827146  1
  Al  Al17  1  0.827955  0.826930  0.518185  1
  Al  Al18  1  0.518185  0.826930  0.827955  1
  Al  Al19  1  0.827146  0.519769  0.827146  1
  Fe  Fe20  1  0.391113  0.830453  0.391113  1
  Fe  Fe21  1  0.391113  0.387320  0.391113  1
  Rh  Rh22  1  0.827934  0.389151  0.393763  1
  Rh  Rh23  1  0.393763  0.389151  0.827934  1
