# generated using pymatgen
data_Lu12InFe3Cu
_symmetry_space_group_name_H-M   'P 1'
_cell_length_a   8.09565313
_cell_length_b   8.09565194
_cell_length_c   8.09565303
_cell_angle_alpha   106.79808105
_cell_angle_beta   110.52900784
_cell_angle_gamma   111.11977287
_symmetry_Int_Tables_number   1
_chemical_formula_structural   Lu12InFe3Cu
_chemical_formula_sum   'Lu12 In1 Fe3 Cu1'
_cell_volume   407.77083997
_cell_formula_units_Z   1
loop_
 _symmetry_equiv_pos_site_id
 _symmetry_equiv_pos_as_xyz
  1  'x, y, z'
loop_
 _atom_site_type_symbol
 _atom_site_label
 _atom_site_symmetry_multiplicity
 _atom_site_fract_x
 _atom_site_fract_y
 _atom_site_fract_z
 _atom_site_occupancy
  Lu  Lu0  1  0.309136  0.308813  0.617949  1
  Lu  Lu1  1  0.690864  0.691187  0.382051  1
  Lu  Lu2  1  0.690864  0.308813  0.999676  1
  Lu  Lu3  1  0.309136  0.691187  0.000324  1
  Lu  Lu4  1  0.188538  0.414033  0.225494  1
  Lu  Lu5  1  0.811462  0.585967  0.774506  1
  Lu  Lu6  1  0.188538  0.963043  0.774506  1
  Lu  Lu7  1  0.932946  0.190056  0.742891  1
  Lu  Lu8  1  0.811462  0.036957  0.225494  1
  Lu  Lu9  1  0.067054  0.809944  0.257109  1
  Lu  Lu10  1  0.447165  0.190056  0.257109  1
  Lu  Lu11  1  0.552835  0.809944  0.742891  1
  In  In12  1  0.000000  0.500000  0.500000  1
  Fe  Fe13  1  0.381690  0.381690  0.000000  1
  Fe  Fe14  1  0.618310  0.618310  0.000000  1
  Fe  Fe15  1  0.000000  0.000000  0.000000  1
  Cu  Cu16  1  0.500000  0.000000  0.500000  1
