# generated using pymatgen
data_LiTa3Pd2Pt7Rh3
_symmetry_space_group_name_H-M   'P 1'
_cell_length_a   5.58897801
_cell_length_b   5.58897810
_cell_length_c   9.05620400
_cell_angle_alpha   90.00000000
_cell_angle_beta   90.00000000
_cell_angle_gamma   119.93094820
_symmetry_Int_Tables_number   1
_chemical_formula_structural   LiTa3Pd2Pt7Rh3
_chemical_formula_sum   'Li1 Ta3 Pd2 Pt7 Rh3'
_cell_volume   245.15649538
_cell_formula_units_Z   1
loop_
 _symmetry_equiv_pos_site_id
 _symmetry_equiv_pos_as_xyz
  1  'x, y, z'
loop_
 _atom_site_type_symbol
 _atom_site_label
 _atom_site_symmetry_multiplicity
 _atom_site_fract_x
 _atom_site_fract_y
 _atom_site_fract_z
 _atom_site_occupancy
  Li  Li0  1  0.333440  0.666560  0.000000  1
  Ta  Ta1  1  0.666169  0.333831  0.500000  1
  Ta  Ta2  1  0.999168  0.000832  0.745065  1
  Ta  Ta3  1  0.999168  0.000832  0.254935  1
  Pd  Pd4  1  0.832261  0.663620  0.000000  1
  Pd  Pd5  1  0.336380  0.167739  0.000000  1
  Pt  Pt6  1  0.831762  0.168238  0.000000  1
  Pt  Pt7  1  0.998622  0.499536  0.747959  1
  Pt  Pt8  1  0.500661  0.499339  0.747597  1
  Pt  Pt9  1  0.500464  0.001378  0.747959  1
  Pt  Pt10  1  0.998622  0.499536  0.252041  1
  Pt  Pt11  1  0.500661  0.499339  0.252403  1
  Pt  Pt12  1  0.500464  0.001378  0.252041  1
  Rh  Rh13  1  0.169930  0.830070  0.500000  1
  Rh  Rh14  1  0.168577  0.336347  0.500000  1
  Rh  Rh15  1  0.663653  0.831423  0.500000  1
