# generated using pymatgen
data_K2Rb4HoInAs4
_symmetry_space_group_name_H-M   'P 1'
_cell_length_a   9.64783537
_cell_length_b   9.64783520
_cell_length_c   9.64783472
_cell_angle_alpha   131.32091489
_cell_angle_beta   66.70143794
_cell_angle_gamma   137.32806035
_symmetry_Int_Tables_number   1
_chemical_formula_structural   K2Rb4HoInAs4
_chemical_formula_sum   'K2 Rb4 Ho1 In1 As4'
_cell_volume   449.94245821
_cell_formula_units_Z   1
loop_
 _symmetry_equiv_pos_site_id
 _symmetry_equiv_pos_as_xyz
  1  'x, y, z'
loop_
 _atom_site_type_symbol
 _atom_site_label
 _atom_site_symmetry_multiplicity
 _atom_site_fract_x
 _atom_site_fract_y
 _atom_site_fract_z
 _atom_site_occupancy
  K  K0  1  0.750000  0.250000  0.500000  1
  K  K1  1  0.250000  0.750000  0.500001  1
  Rb  Rb2  1  0.808628  0.209099  0.034195  1
  Rb  Rb3  1  0.691373  0.725568  0.400472  1
  Rb  Rb4  1  0.325096  0.290901  0.599529  1
  Rb  Rb5  1  0.174905  0.774432  0.965805  1
  Ho  Ho6  1  0.250000  0.250000  0.000000  1
  In  In7  1  0.750000  0.750000  0.000000  1
  As  As8  1  0.407338  0.700225  0.098329  1
  As  As9  1  0.092663  0.190992  0.292887  1
  As  As10  1  0.898105  0.799777  0.707113  1
  As  As11  1  0.601895  0.309009  0.901672  1
