# generated using pymatgen
data_SmY4Zr3(As3Pd4)4
_symmetry_space_group_name_H-M   'P 1'
_cell_length_a   13.57370300
_cell_length_b   13.57370271
_cell_length_c   4.11453700
_cell_angle_alpha   90.00000000
_cell_angle_beta   90.00000000
_cell_angle_gamma   120.00000314
_symmetry_Int_Tables_number   1
_chemical_formula_structural   SmY4Zr3(As3Pd4)4
_chemical_formula_sum   'Sm1 Y4 Zr3 As12 Pd16'
_cell_volume   656.52046062
_cell_formula_units_Z   1
loop_
 _symmetry_equiv_pos_site_id
 _symmetry_equiv_pos_as_xyz
  1  'x, y, z'
loop_
 _atom_site_type_symbol
 _atom_site_label
 _atom_site_symmetry_multiplicity
 _atom_site_fract_x
 _atom_site_fract_y
 _atom_site_fract_z
 _atom_site_occupancy
  Sm  Sm0  1  0.333333  0.666667  0.000000  1
  Y  Y1  1  0.189346  0.189360  0.500000  1
  Y  Y2  1  0.810640  0.999986  0.500000  1
  Y  Y3  1  0.000014  0.810654  0.500000  1
  Y  Y4  1  0.666667  0.333333  0.000000  1
  Zr  Zr5  1  0.556740  0.556457  0.000000  1
  Zr  Zr6  1  0.443543  0.000283  0.000000  1
  Zr  Zr7  1  0.999717  0.443260  0.000000  1
  As  As8  1  0.826025  0.825885  0.000000  1
  As  As9  1  0.174115  0.000141  0.000000  1
  As  As10  1  0.999859  0.173975  0.000000  1
  As  As11  1  0.165822  0.482372  0.500000  1
  As  As12  1  0.517628  0.683450  0.500000  1
  As  As13  1  0.316550  0.834178  0.500000  1
  As  As14  1  0.683747  0.516720  0.500000  1
  As  As15  1  0.832972  0.316253  0.500000  1
  As  As16  1  0.483280  0.167028  0.500000  1
  As  As17  1  0.358247  0.358274  0.000000  1
  As  As18  1  0.641726  0.999973  0.000000  1
  As  As19  1  0.000027  0.641753  0.000000  1
  Pd  Pd20  1  0.722560  0.722225  0.500000  1
  Pd  Pd21  1  0.277775  0.000335  0.500000  1
  Pd  Pd22  1  0.999665  0.277440  0.500000  1
  Pd  Pd23  1  0.181195  0.371763  0.000000  1
  Pd  Pd24  1  0.628237  0.809431  0.000000  1
  Pd  Pd25  1  0.190569  0.818805  0.000000  1
  Pd  Pd26  1  0.809215  0.627804  0.000000  1
  Pd  Pd27  1  0.818589  0.190785  0.000000  1
  Pd  Pd28  1  0.372196  0.181411  0.000000  1
  Pd  Pd29  1  0.356976  0.484146  0.500000  1
  Pd  Pd30  1  0.515854  0.872829  0.500000  1
  Pd  Pd31  1  0.127171  0.643024  0.500000  1
  Pd  Pd32  1  0.871524  0.514825  0.500000  1
  Pd  Pd33  1  0.643301  0.128476  0.500000  1
  Pd  Pd34  1  0.485175  0.356699  0.500000  1
  Pd  Pd35  1  0.000000  0.000000  0.000000  1
