# generated using pymatgen
data_La7Yb(SmRu2)2
_symmetry_space_group_name_H-M   'P 1'
_cell_length_a   9.02508547
_cell_length_b   8.97015826
_cell_length_c   7.35351981
_cell_angle_alpha   84.42326634
_cell_angle_beta   84.70618328
_cell_angle_gamma   43.56951637
_symmetry_Int_Tables_number   1
_chemical_formula_structural   La7Yb(SmRu2)2
_chemical_formula_sum   'La7 Yb1 Sm2 Ru4'
_cell_volume   408.16200368
_cell_formula_units_Z   1
loop_
 _symmetry_equiv_pos_site_id
 _symmetry_equiv_pos_as_xyz
  1  'x, y, z'
loop_
 _atom_site_type_symbol
 _atom_site_label
 _atom_site_symmetry_multiplicity
 _atom_site_fract_x
 _atom_site_fract_y
 _atom_site_fract_z
 _atom_site_occupancy
  La  La0  1  0.019327  0.792090  0.908014  1
  La  La1  1  0.201335  0.982639  0.590061  1
  La  La2  1  0.981314  0.202540  0.091740  1
  La  La3  1  0.792325  0.021303  0.406877  1
  La  La4  1  0.360947  0.213915  0.813468  1
  La  La5  1  0.793754  0.633923  0.679937  1
  La  La6  1  0.639160  0.787648  0.183476  1
  Yb  Yb7  1  0.209382  0.361159  0.313528  1
  Sm  Sm8  1  0.574938  0.427263  0.752485  1
  Sm  Sm9  1  0.421476  0.572724  0.250598  1
  Ru  Ru10  1  0.171836  0.613834  0.593284  1
  Ru  Ru11  1  0.400083  0.828131  0.919569  1
  Ru  Ru12  1  0.819799  0.396229  0.417486  1
  Ru  Ru13  1  0.614324  0.166603  0.079476  1
