# generated using pymatgen
data_Ca20In2Ga9Sb
_symmetry_space_group_name_H-M   'P 1'
_cell_length_a   8.11304600
_cell_length_b   8.11304600
_cell_length_c   14.74266200
_cell_angle_alpha   90.00000000
_cell_angle_beta   90.00000000
_cell_angle_gamma   90.00000000
_symmetry_Int_Tables_number   1
_chemical_formula_structural   Ca20In2Ga9Sb
_chemical_formula_sum   'Ca20 In2 Ga9 Sb1'
_cell_volume   970.38435384
_cell_formula_units_Z   1
loop_
 _symmetry_equiv_pos_site_id
 _symmetry_equiv_pos_as_xyz
  1  'x, y, z'
loop_
 _atom_site_type_symbol
 _atom_site_label
 _atom_site_symmetry_multiplicity
 _atom_site_fract_x
 _atom_site_fract_y
 _atom_site_fract_z
 _atom_site_occupancy
  Ca  Ca0  1  0.680896  0.170295  0.107194  1
  Ca  Ca1  1  0.175815  0.675659  0.610663  1
  Ca  Ca2  1  0.319104  0.829705  0.107194  1
  Ca  Ca3  1  0.824185  0.324341  0.610663  1
  Ca  Ca4  1  0.829705  0.680896  0.107194  1
  Ca  Ca5  1  0.324341  0.175815  0.610663  1
  Ca  Ca6  1  0.170295  0.319104  0.107194  1
  Ca  Ca7  1  0.675659  0.824185  0.610663  1
  Ca  Ca8  1  0.829705  0.319104  0.892806  1
  Ca  Ca9  1  0.324341  0.824185  0.389337  1
  Ca  Ca10  1  0.170295  0.680896  0.892806  1
  Ca  Ca11  1  0.675659  0.175815  0.389337  1
  Ca  Ca12  1  0.680896  0.829705  0.892806  1
  Ca  Ca13  1  0.175815  0.324341  0.389337  1
  Ca  Ca14  1  0.319104  0.170295  0.892806  1
  Ca  Ca15  1  0.824185  0.675659  0.389337  1
  Ca  Ca16  1  0.500000  0.500000  0.755399  1
  Ca  Ca17  1  0.000000  0.000000  0.248218  1
  Ca  Ca18  1  0.000000  0.000000  0.751782  1
  Ca  Ca19  1  0.500000  0.500000  0.244601  1
  In  In20  1  0.500000  0.500000  0.000000  1
  In  In21  1  0.000000  0.000000  0.500000  1
  Ga  Ga22  1  0.611212  0.112516  0.750787  1
  Ga  Ga23  1  0.112516  0.611212  0.249213  1
  Ga  Ga24  1  0.887484  0.388788  0.249213  1
  Ga  Ga25  1  0.388788  0.887484  0.750787  1
  Ga  Ga26  1  0.887484  0.611212  0.750787  1
  Ga  Ga27  1  0.388788  0.112516  0.249213  1
  Ga  Ga28  1  0.112516  0.388788  0.750787  1
  Ga  Ga29  1  0.611212  0.887484  0.249213  1
  Ga  Ga30  1  0.000000  0.000000  0.000000  1
  Sb  Sb31  1  0.500000  0.500000  0.500000  1
