# generated using pymatgen
data_Tb6Tm10Cd3HgIr3Pt
_symmetry_space_group_name_H-M   'P 1'
_cell_length_a   9.57049765
_cell_length_b   9.57049754
_cell_length_c   9.57049800
_cell_angle_alpha   60.12868777
_cell_angle_beta   60.12868814
_cell_angle_gamma   60.12869299
_symmetry_Int_Tables_number   1
_chemical_formula_structural   Tb6Tm10Cd3HgIr3Pt
_chemical_formula_sum   'Tb6 Tm10 Cd3 Hg1 Ir3 Pt1'
_cell_volume   621.65989410
_cell_formula_units_Z   1
loop_
 _symmetry_equiv_pos_site_id
 _symmetry_equiv_pos_as_xyz
  1  'x, y, z'
loop_
 _atom_site_type_symbol
 _atom_site_label
 _atom_site_symmetry_multiplicity
 _atom_site_fract_x
 _atom_site_fract_y
 _atom_site_fract_z
 _atom_site_occupancy
  Tb  Tb0  1  0.188889  0.810965  0.810965  1
  Tb  Tb1  1  0.812096  0.188992  0.188992  1
  Tb  Tb2  1  0.810965  0.188889  0.810965  1
  Tb  Tb3  1  0.188992  0.812096  0.188992  1
  Tb  Tb4  1  0.810965  0.810965  0.188889  1
  Tb  Tb5  1  0.188992  0.188992  0.812096  1
  Tm  Tm6  1  0.597506  0.597506  0.597506  1
  Tm  Tm7  1  0.602320  0.602320  0.199302  1
  Tm  Tm8  1  0.602320  0.199302  0.602320  1
  Tm  Tm9  1  0.199302  0.602320  0.602320  1
  Tm  Tm10  1  0.057094  0.439350  0.439350  1
  Tm  Tm11  1  0.436342  0.061373  0.061373  1
  Tm  Tm12  1  0.439350  0.057094  0.439350  1
  Tm  Tm13  1  0.061373  0.436342  0.061373  1
  Tm  Tm14  1  0.439350  0.439350  0.057094  1
  Tm  Tm15  1  0.061373  0.061373  0.436342  1
  Cd  Cd16  1  0.830546  0.830546  0.507430  1
  Cd  Cd17  1  0.830546  0.507430  0.830546  1
  Cd  Cd18  1  0.507430  0.830546  0.830546  1
  Hg  Hg19  1  0.833123  0.833123  0.833123  1
  Ir  Ir20  1  0.391895  0.391895  0.824595  1
  Ir  Ir21  1  0.391895  0.824595  0.391895  1
  Ir  Ir22  1  0.824595  0.391895  0.391895  1
  Pt  Pt23  1  0.392742  0.392742  0.392742  1
