# generated using pymatgen
data_Th2Pa6CrS17
_symmetry_space_group_name_H-M   'P 1'
_cell_length_a   7.84018881
_cell_length_b   7.84018723
_cell_length_c   10.44189900
_cell_angle_alpha   80.52768945
_cell_angle_beta   80.52769879
_cell_angle_gamma   65.23899128
_symmetry_Int_Tables_number   1
_chemical_formula_structural   Th2Pa6CrS17
_chemical_formula_sum   'Th2 Pa6 Cr1 S17'
_cell_volume   571.60473716
_cell_formula_units_Z   1
loop_
 _symmetry_equiv_pos_site_id
 _symmetry_equiv_pos_as_xyz
  1  'x, y, z'
loop_
 _atom_site_type_symbol
 _atom_site_label
 _atom_site_symmetry_multiplicity
 _atom_site_fract_x
 _atom_site_fract_y
 _atom_site_fract_z
 _atom_site_occupancy
  Th  Th0  1  0.681735  0.681735  0.977975  1
  Th  Th1  1  0.318265  0.318265  0.022025  1
  Pa  Pa2  1  0.818870  0.299605  0.301877  1
  Pa  Pa3  1  0.700395  0.181130  0.698123  1
  Pa  Pa4  1  0.181130  0.700395  0.698123  1
  Pa  Pa5  1  0.299605  0.818870  0.301877  1
  Pa  Pa6  1  0.203283  0.203283  0.544728  1
  Pa  Pa7  1  0.796717  0.796717  0.455272  1
  Cr  Cr8  1  0.000000  0.000000  0.000000  1
  S  S9  1  0.821438  0.433576  0.536152  1
  S  S10  1  0.566424  0.178562  0.463848  1
  S  S11  1  0.178562  0.566424  0.463848  1
  S  S12  1  0.433576  0.821438  0.536152  1
  S  S13  1  0.942335  0.318281  0.033016  1
  S  S14  1  0.681718  0.057665  0.966984  1
  S  S15  1  0.057665  0.681718  0.966984  1
  S  S16  1  0.318282  0.942335  0.033016  1
  S  S17  1  0.211151  0.211151  0.282000  1
  S  S18  1  0.788849  0.788849  0.718000  1
  S  S19  1  0.057164  0.057164  0.773114  1
  S  S20  1  0.942836  0.942836  0.226886  1
  S  S21  1  0.301966  0.301966  0.752638  1
  S  S22  1  0.698034  0.698034  0.247362  1
  S  S23  1  0.520056  0.520056  0.825634  1
  S  S24  1  0.479944  0.479944  0.174366  1
  S  S25  1  0.000000  0.000000  0.500000  1
