# generated using pymatgen
data_LaY3(HoBi)6
_symmetry_space_group_name_H-M   'P 1'
_cell_length_a   8.31599200
_cell_length_b   9.54121900
_cell_length_c   12.17175800
_cell_angle_alpha   90.00000000
_cell_angle_beta   90.00000000
_cell_angle_gamma   90.00000000
_symmetry_Int_Tables_number   1
_chemical_formula_structural   LaY3(HoBi)6
_chemical_formula_sum   'La2 Y6 Ho12 Bi12'
_cell_volume   965.76449762
_cell_formula_units_Z   2
loop_
 _symmetry_equiv_pos_site_id
 _symmetry_equiv_pos_as_xyz
  1  'x, y, z'
loop_
 _atom_site_type_symbol
 _atom_site_label
 _atom_site_symmetry_multiplicity
 _atom_site_fract_x
 _atom_site_fract_y
 _atom_site_fract_z
 _atom_site_occupancy
  La  La0  1  0.183748  0.750000  0.721752  1
  La  La1  1  0.683748  0.750000  0.778248  1
  Y  Y2  1  0.814031  0.250000  0.281342  1
  Y  Y3  1  0.314031  0.250000  0.218658  1
  Y  Y4  1  0.353667  0.750000  0.217429  1
  Y  Y5  1  0.853667  0.750000  0.282571  1
  Y  Y6  1  0.647478  0.250000  0.784812  1
  Y  Y7  1  0.147478  0.250000  0.715188  1
  Ho  Ho8  1  0.024712  0.750000  0.990007  1
  Ho  Ho9  1  0.524712  0.750000  0.509993  1
  Ho  Ho10  1  0.974728  0.250000  0.012647  1
  Ho  Ho11  1  0.474728  0.250000  0.487353  1
  Ho  Ho12  1  0.307198  0.435462  0.940966  1
  Ho  Ho13  1  0.807198  0.064538  0.559034  1
  Ho  Ho14  1  0.693404  0.936214  0.061193  1
  Ho  Ho15  1  0.193404  0.563786  0.438807  1
  Ho  Ho16  1  0.693404  0.563786  0.061193  1
  Ho  Ho17  1  0.193404  0.936214  0.438807  1
  Ho  Ho18  1  0.307198  0.064538  0.940966  1
  Ho  Ho19  1  0.807198  0.435462  0.559034  1
  Bi  Bi20  1  0.434851  0.010051  0.670771  1
  Bi  Bi21  1  0.934851  0.489949  0.829229  1
  Bi  Bi22  1  0.566589  0.503496  0.326822  1
  Bi  Bi23  1  0.066589  0.996504  0.173178  1
  Bi  Bi24  1  0.566589  0.996504  0.326822  1
  Bi  Bi25  1  0.066589  0.503496  0.173178  1
  Bi  Bi26  1  0.434851  0.489949  0.670771  1
  Bi  Bi27  1  0.934851  0.010051  0.829229  1
  Bi  Bi28  1  0.406217  0.750000  0.963977  1
  Bi  Bi29  1  0.906217  0.750000  0.536023  1
  Bi  Bi30  1  0.591337  0.250000  0.041922  1
  Bi  Bi31  1  0.091337  0.250000  0.458078  1
