# generated using pymatgen
data_Dy12InCo2Si2Hg
_symmetry_space_group_name_H-M   'P 1'
_cell_length_a   8.45337629
_cell_length_b   8.45337775
_cell_length_c   8.45337721
_cell_angle_alpha   113.79092680
_cell_angle_beta   110.32364903
_cell_angle_gamma   104.43472678
_symmetry_Int_Tables_number   1
_chemical_formula_structural   Dy12InCo2Si2Hg
_chemical_formula_sum   'Dy12 In1 Co2 Si2 Hg1'
_cell_volume   461.88763359
_cell_formula_units_Z   1
loop_
 _symmetry_equiv_pos_site_id
 _symmetry_equiv_pos_as_xyz
  1  'x, y, z'
loop_
 _atom_site_type_symbol
 _atom_site_label
 _atom_site_symmetry_multiplicity
 _atom_site_fract_x
 _atom_site_fract_y
 _atom_site_fract_z
 _atom_site_occupancy
  Dy  Dy0  1  0.436300  0.236856  0.199444  1
  Dy  Dy1  1  0.563700  0.763144  0.800556  1
  Dy  Dy2  1  0.037412  0.236856  0.800556  1
  Dy  Dy3  1  0.962588  0.763144  0.199444  1
  Dy  Dy4  1  0.187441  0.288807  0.476248  1
  Dy  Dy5  1  0.812559  0.711193  0.523752  1
  Dy  Dy6  1  0.187441  0.711193  0.898633  1
  Dy  Dy7  1  0.812559  0.288807  0.101367  1
  Dy  Dy8  1  0.305086  0.616350  0.311264  1
  Dy  Dy9  1  0.694914  0.383650  0.688736  1
  Dy  Dy10  1  0.305086  0.993822  0.688736  1
  Dy  Dy11  1  0.694914  0.006178  0.311264  1
  In  In12  1  0.500000  0.500000  0.000000  1
  Co  Co13  1  0.107777  0.607777  0.500000  1
  Co  Co14  1  0.892223  0.392223  0.500000  1
  Si  Si15  1  0.365274  0.000000  0.365274  1
  Si  Si16  1  0.634726  0.000000  0.634726  1
  Hg  Hg17  1  0.000000  0.000000  0.000000  1
