# generated using pymatgen
data_RbCd12Ag
_symmetry_space_group_name_H-M   'P 1'
_cell_length_a   9.95568601
_cell_length_b   9.95568553
_cell_length_c   9.95568600
_cell_angle_alpha   59.99999843
_cell_angle_beta   60.00000003
_cell_angle_gamma   59.99999842
_symmetry_Int_Tables_number   1
_chemical_formula_structural   RbCd12Ag
_chemical_formula_sum   'Rb2 Cd24 Ag2'
_cell_volume   697.74790890
_cell_formula_units_Z   2
loop_
 _symmetry_equiv_pos_site_id
 _symmetry_equiv_pos_as_xyz
  1  'x, y, z'
loop_
 _atom_site_type_symbol
 _atom_site_label
 _atom_site_symmetry_multiplicity
 _atom_site_fract_x
 _atom_site_fract_y
 _atom_site_fract_z
 _atom_site_occupancy
  Rb  Rb0  1  0.250000  0.250000  0.250000  1
  Rb  Rb1  1  0.750000  0.750000  0.750000  1
  Cd  Cd2  1  0.441363  0.201468  0.798532  1
  Cd  Cd3  1  0.941363  0.701468  0.058637  1
  Cd  Cd4  1  0.701468  0.941363  0.298532  1
  Cd  Cd5  1  0.298532  0.701468  0.941363  1
  Cd  Cd6  1  0.941363  0.058637  0.298532  1
  Cd  Cd7  1  0.701468  0.058637  0.941363  1
  Cd  Cd8  1  0.298532  0.941363  0.058637  1
  Cd  Cd9  1  0.798532  0.441363  0.201468  1
  Cd  Cd10  1  0.201468  0.798532  0.441363  1
  Cd  Cd11  1  0.441363  0.558637  0.201468  1
  Cd  Cd12  1  0.441363  0.798532  0.558637  1
  Cd  Cd13  1  0.201468  0.558637  0.798532  1
  Cd  Cd14  1  0.558637  0.441363  0.798532  1
  Cd  Cd15  1  0.558637  0.201468  0.441363  1
  Cd  Cd16  1  0.798532  0.201468  0.558637  1
  Cd  Cd17  1  0.058637  0.941363  0.701468  1
  Cd  Cd18  1  0.058637  0.298532  0.941363  1
  Cd  Cd19  1  0.941363  0.298532  0.701468  1
  Cd  Cd20  1  0.058637  0.701468  0.298532  1
  Cd  Cd21  1  0.298532  0.058637  0.701468  1
  Cd  Cd22  1  0.701468  0.298532  0.058637  1
  Cd  Cd23  1  0.201468  0.441363  0.558637  1
  Cd  Cd24  1  0.798532  0.558637  0.441363  1
  Cd  Cd25  1  0.558637  0.798532  0.201468  1
  Ag  Ag26  1  0.000000  0.000000  0.000000  1
  Ag  Ag27  1  0.500000  0.500000  0.500000  1
