# generated using pymatgen
data_Ca2LaYb5(MgRu)2
_symmetry_space_group_name_H-M   'P 1'
_cell_length_a   10.04111783
_cell_length_b   10.04053378
_cell_length_c   9.95027002
_cell_angle_alpha   60.30081345
_cell_angle_beta   60.29497450
_cell_angle_gamma   59.40421106
_symmetry_Int_Tables_number   1
_chemical_formula_structural   Ca2LaYb5(MgRu)2
_chemical_formula_sum   'Ca4 La2 Yb10 Mg4 Ru4'
_cell_volume   709.23261987
_cell_formula_units_Z   2
loop_
 _symmetry_equiv_pos_site_id
 _symmetry_equiv_pos_as_xyz
  1  'x, y, z'
loop_
 _atom_site_type_symbol
 _atom_site_label
 _atom_site_symmetry_multiplicity
 _atom_site_fract_x
 _atom_site_fract_y
 _atom_site_fract_z
 _atom_site_occupancy
  Ca  Ca0  1  0.797274  0.202726  0.202726  1
  Ca  Ca1  1  0.199768  0.199768  0.800232  1
  Ca  Ca2  1  0.800232  0.800232  0.199768  1
  Ca  Ca3  1  0.202726  0.797274  0.797274  1
  La  La4  1  0.065343  0.065343  0.434657  1
  La  La5  1  0.434657  0.434657  0.065343  1
  Yb  Yb6  1  0.590799  0.590924  0.228058  1
  Yb  Yb7  1  0.441886  0.058114  0.058114  1
  Yb  Yb8  1  0.058162  0.441838  0.058162  1
  Yb  Yb9  1  0.441838  0.058162  0.441838  1
  Yb  Yb10  1  0.228058  0.590219  0.590799  1
  Yb  Yb11  1  0.058114  0.441886  0.441886  1
  Yb  Yb12  1  0.590219  0.228058  0.590924  1
  Yb  Yb13  1  0.590924  0.590799  0.590219  1
  Yb  Yb14  1  0.204705  0.795295  0.204705  1
  Yb  Yb15  1  0.795295  0.204705  0.795295  1
  Mg  Mg16  1  0.829046  0.829254  0.826244  1
  Mg  Mg17  1  0.515458  0.826244  0.829254  1
  Mg  Mg18  1  0.826244  0.515458  0.829046  1
  Mg  Mg19  1  0.829254  0.829046  0.515458  1
  Ru  Ru20  1  0.858243  0.356995  0.393496  1
  Ru  Ru21  1  0.391266  0.393496  0.356995  1
  Ru  Ru22  1  0.356995  0.858243  0.391266  1
  Ru  Ru23  1  0.393496  0.391266  0.858243  1
