# generated using pymatgen
data_Nd2Fe7Co3Ni2P7
_symmetry_space_group_name_H-M   'P 1'
_cell_length_a   9.09029587
_cell_length_b   9.11069108
_cell_length_c   3.67801800
_cell_angle_alpha   90.00000000
_cell_angle_beta   90.00000000
_cell_angle_gamma   120.08394051
_symmetry_Int_Tables_number   1
_chemical_formula_structural   Nd2Fe7Co3Ni2P7
_chemical_formula_sum   'Nd2 Fe7 Co3 Ni2 P7'
_cell_volume   263.57599611
_cell_formula_units_Z   1
loop_
 _symmetry_equiv_pos_site_id
 _symmetry_equiv_pos_as_xyz
  1  'x, y, z'
loop_
 _atom_site_type_symbol
 _atom_site_label
 _atom_site_symmetry_multiplicity
 _atom_site_fract_x
 _atom_site_fract_y
 _atom_site_fract_z
 _atom_site_occupancy
  Nd  Nd0  1  0.666386  0.333270  0.000000  1
  Nd  Nd1  1  0.332757  0.666757  0.500000  1
  Fe  Fe2  1  0.272452  0.119076  0.000000  1
  Fe  Fe3  1  0.849111  0.729972  0.000000  1
  Fe  Fe4  1  0.882053  0.152657  0.000000  1
  Fe  Fe5  1  0.952160  0.384848  0.500000  1
  Fe  Fe6  1  0.099762  0.875975  0.500000  1
  Fe  Fe7  1  0.785486  0.903765  0.500000  1
  Fe  Fe8  1  0.116978  0.213630  0.500000  1
  Co  Co9  1  0.058742  0.632998  0.000000  1
  Co  Co10  1  0.431891  0.047298  0.500000  1
  Co  Co11  1  0.616795  0.568463  0.500000  1
  Ni  Ni12  1  0.568253  0.939253  0.000000  1
  Ni  Ni13  1  0.368351  0.430244  0.000000  1
  P  P14  1  0.294184  0.893727  0.000000  1
  P  P15  1  0.597401  0.701036  0.000000  1
  P  P16  1  0.101946  0.406315  0.000000  1
  P  P17  1  0.394971  0.284285  0.500000  1
  P  P18  1  0.891431  0.603226  0.500000  1
  P  P19  1  0.717274  0.112717  0.500000  1
  P  P20  1  0.001618  0.000489  0.000000  1
