# generated using pymatgen
data_La2Cd14Ag3
_symmetry_space_group_name_H-M   'P 1'
_cell_length_a   7.65604911
_cell_length_b   7.65604985
_cell_length_c   7.65604911
_cell_angle_alpha   82.46040067
_cell_angle_beta   82.46040885
_cell_angle_gamma   82.46039505
_symmetry_Int_Tables_number   1
_chemical_formula_structural   La2Cd14Ag3
_chemical_formula_sum   'La2 Cd14 Ag3'
_cell_volume   438.05708285
_cell_formula_units_Z   1
loop_
 _symmetry_equiv_pos_site_id
 _symmetry_equiv_pos_as_xyz
  1  'x, y, z'
loop_
 _atom_site_type_symbol
 _atom_site_label
 _atom_site_symmetry_multiplicity
 _atom_site_fract_x
 _atom_site_fract_y
 _atom_site_fract_z
 _atom_site_occupancy
  La  La0  1  0.335699  0.335699  0.335699  1
  La  La1  1  0.664301  0.664301  0.664301  1
  Cd  Cd2  1  0.298465  0.701535  0.000000  1
  Cd  Cd3  1  0.844301  0.352392  0.352392  1
  Cd  Cd4  1  0.647608  0.155699  0.647608  1
  Cd  Cd5  1  0.106849  0.106849  0.106849  1
  Cd  Cd6  1  0.298465  0.000000  0.701535  1
  Cd  Cd7  1  0.701535  0.298465  0.000000  1
  Cd  Cd8  1  0.352392  0.352392  0.844301  1
  Cd  Cd9  1  0.893151  0.893151  0.893151  1
  Cd  Cd10  1  0.000000  0.701535  0.298465  1
  Cd  Cd11  1  0.701535  0.000000  0.298465  1
  Cd  Cd12  1  0.352392  0.844301  0.352392  1
  Cd  Cd13  1  0.155699  0.647608  0.647608  1
  Cd  Cd14  1  0.647608  0.647608  0.155699  1
  Cd  Cd15  1  0.000000  0.298465  0.701535  1
  Ag  Ag16  1  0.000000  0.000000  0.500000  1
  Ag  Ag17  1  0.500000  0.000000  0.000000  1
  Ag  Ag18  1  0.000000  0.500000  0.000000  1
