# generated using pymatgen
data_Ce3PrF15
_symmetry_space_group_name_H-M   'P 1'
_cell_length_a   7.89280532
_cell_length_b   7.89280527
_cell_length_c   7.89280549
_cell_angle_alpha   112.83334940
_cell_angle_beta   112.83335444
_cell_angle_gamma   112.83335642
_symmetry_Int_Tables_number   1
_chemical_formula_structural   Ce3PrF15
_chemical_formula_sum   'Ce3 Pr1 F15'
_cell_volume   322.94072677
_cell_formula_units_Z   1
loop_
 _symmetry_equiv_pos_site_id
 _symmetry_equiv_pos_as_xyz
  1  'x, y, z'
loop_
 _atom_site_type_symbol
 _atom_site_label
 _atom_site_symmetry_multiplicity
 _atom_site_fract_x
 _atom_site_fract_y
 _atom_site_fract_z
 _atom_site_occupancy
  Ce  Ce0  1  0.854831  0.284198  0.854831  1
  Ce  Ce1  1  0.284198  0.854831  0.854831  1
  Ce  Ce2  1  0.854831  0.854831  0.284198  1
  Pr  Pr3  1  0.493568  0.493568  0.493568  1
  F  F4  1  0.600089  0.930910  0.144245  1
  F  F5  1  0.930910  0.144245  0.600089  1
  F  F6  1  0.144245  0.600089  0.930910  1
  F  F7  1  0.930910  0.600089  0.144245  1
  F  F8  1  0.595451  0.595451  0.262456  1
  F  F9  1  0.262456  0.595451  0.595451  1
  F  F10  1  0.595451  0.262456  0.595451  1
  F  F11  1  0.145558  0.145558  0.362650  1
  F  F12  1  0.362650  0.145558  0.145558  1
  F  F13  1  0.145558  0.362650  0.145558  1
  F  F14  1  0.671230  0.671230  0.899666  1
  F  F15  1  0.899666  0.671230  0.671230  1
  F  F16  1  0.671230  0.899666  0.671230  1
  F  F17  1  0.144245  0.930910  0.600089  1
  F  F18  1  0.600089  0.144245  0.930910  1
