# generated using pymatgen
data_La8In5Hg3Rh8
_symmetry_space_group_name_H-M   'P 1'
_cell_length_a   7.79233187
_cell_length_b   4.17675800
_cell_length_c   17.45915100
_cell_angle_alpha   90.00000000
_cell_angle_beta   90.44485137
_cell_angle_gamma   90.00000000
_symmetry_Int_Tables_number   1
_chemical_formula_structural   La8In5Hg3Rh8
_chemical_formula_sum   'La8 In5 Hg3 Rh8'
_cell_volume   568.22035149
_cell_formula_units_Z   1
loop_
 _symmetry_equiv_pos_site_id
 _symmetry_equiv_pos_as_xyz
  1  'x, y, z'
loop_
 _atom_site_type_symbol
 _atom_site_label
 _atom_site_symmetry_multiplicity
 _atom_site_fract_x
 _atom_site_fract_y
 _atom_site_fract_z
 _atom_site_occupancy
  La  La0  1  0.064606  0.250001  0.283223  1
  La  La1  1  0.436869  0.750000  0.784245  1
  La  La2  1  0.561981  0.250001  0.218423  1
  La  La3  1  0.937749  0.750000  0.716300  1
  La  La4  1  0.169999  0.250001  0.060894  1
  La  La5  1  0.333182  0.750000  0.562425  1
  La  La6  1  0.665399  0.250001  0.438297  1
  La  La7  1  0.834027  0.750000  0.937617  1
  In  In8  1  0.887114  0.750000  0.152250  1
  In  In9  1  0.994407  0.250001  0.565288  1
  In  In10  1  0.506755  0.750000  0.067051  1
  In  In11  1  0.497289  0.250001  0.935883  1
  In  In12  1  0.002767  0.750000  0.433931  1
  Hg  Hg13  1  0.111528  0.250001  0.846870  1
  Hg  Hg14  1  0.387732  0.750000  0.346688  1
  Hg  Hg15  1  0.612619  0.250001  0.653935  1
  Rh  Rh16  1  0.240861  0.250001  0.442354  1
  Rh  Rh17  1  0.260532  0.750000  0.941589  1
  Rh  Rh18  1  0.748668  0.250001  0.063000  1
  Rh  Rh19  1  0.757172  0.750000  0.557243  1
  Rh  Rh20  1  0.235724  0.250001  0.683812  1
  Rh  Rh21  1  0.251123  0.750000  0.180846  1
  Rh  Rh22  1  0.734671  0.250001  0.817358  1
  Rh  Rh23  1  0.767226  0.750000  0.310479  1
