# generated using pymatgen
data_LiTb15YCd3Pt4
_symmetry_space_group_name_H-M   'P 1'
_cell_length_a   9.73521624
_cell_length_b   9.73521650
_cell_length_c   9.72036523
_cell_angle_alpha   59.92997044
_cell_angle_beta   59.92996912
_cell_angle_gamma   60.01404364
_symmetry_Int_Tables_number   1
_chemical_formula_structural   LiTb15YCd3Pt4
_chemical_formula_sum   'Li1 Tb15 Y1 Cd3 Pt4'
_cell_volume   650.79508094
_cell_formula_units_Z   1
loop_
 _symmetry_equiv_pos_site_id
 _symmetry_equiv_pos_as_xyz
  1  'x, y, z'
loop_
 _atom_site_type_symbol
 _atom_site_label
 _atom_site_symmetry_multiplicity
 _atom_site_fract_x
 _atom_site_fract_y
 _atom_site_fract_z
 _atom_site_occupancy
  Li  Li0  1  0.571857  0.571857  0.571750  1
  Tb  Tb1  1  0.350859  0.350859  0.351118  1
  Tb  Tb2  1  0.351767  0.351767  0.945590  1
  Tb  Tb3  1  0.351745  0.945432  0.351854  1
  Tb  Tb4  1  0.945432  0.351745  0.351854  1
  Tb  Tb5  1  0.810150  0.191939  0.191686  1
  Tb  Tb6  1  0.187665  0.812358  0.812634  1
  Tb  Tb7  1  0.191939  0.810150  0.191686  1
  Tb  Tb8  1  0.812358  0.187665  0.812634  1
  Tb  Tb9  1  0.191918  0.191918  0.810227  1
  Tb  Tb10  1  0.812338  0.812338  0.187830  1
  Tb  Tb11  1  0.936107  0.565241  0.565265  1
  Tb  Tb12  1  0.563878  0.936174  0.935702  1
  Tb  Tb13  1  0.565241  0.936107  0.565265  1
  Tb  Tb14  1  0.936174  0.563878  0.935702  1
  Tb  Tb15  1  0.565457  0.565457  0.935743  1
  Y  Y16  1  0.935946  0.935946  0.563596  1
  Cd  Cd17  1  0.582481  0.582481  0.253376  1
  Cd  Cd18  1  0.582535  0.253638  0.582447  1
  Cd  Cd19  1  0.253638  0.582535  0.582447  1
  Pt  Pt20  1  0.143906  0.143906  0.144161  1
  Pt  Pt21  1  0.142851  0.142851  0.571120  1
  Pt  Pt22  1  0.143011  0.570747  0.143157  1
  Pt  Pt23  1  0.570747  0.143011  0.143157  1
