# generated using pymatgen
data_Ca2Sm(B3Rh4)2
_symmetry_space_group_name_H-M   'P 1'
_cell_length_a   9.91775030
_cell_length_b   9.06716251
_cell_length_c   5.61388234
_cell_angle_alpha   81.31799238
_cell_angle_beta   64.65677408
_cell_angle_gamma   34.02522158
_symmetry_Int_Tables_number   1
_chemical_formula_structural   Ca2Sm(B3Rh4)2
_chemical_formula_sum   'Ca2 Sm1 B6 Rh8'
_cell_volume   233.64660611
_cell_formula_units_Z   1
loop_
 _symmetry_equiv_pos_site_id
 _symmetry_equiv_pos_as_xyz
  1  'x, y, z'
loop_
 _atom_site_type_symbol
 _atom_site_label
 _atom_site_symmetry_multiplicity
 _atom_site_fract_x
 _atom_site_fract_y
 _atom_site_fract_z
 _atom_site_occupancy
  Ca  Ca0  1  0.315286  0.315286  0.684714  1
  Ca  Ca1  1  0.684714  0.684714  0.315286  1
  Sm  Sm2  1  0.500000  0.500000  0.500000  1
  B  B3  1  0.668652  0.987363  0.012637  1
  B  B4  1  0.987363  0.668652  0.331348  1
  B  B5  1  0.331348  0.012637  0.987363  1
  B  B6  1  0.012637  0.331348  0.668652  1
  B  B7  1  0.166917  0.833083  0.166917  1
  B  B8  1  0.833083  0.166917  0.833083  1
  Rh  Rh9  1  0.585304  0.585304  0.914696  1
  Rh  Rh10  1  0.913262  0.913262  0.086738  1
  Rh  Rh11  1  0.414696  0.414696  0.085304  1
  Rh  Rh12  1  0.085304  0.085304  0.414696  1
  Rh  Rh13  1  0.914696  0.914696  0.585304  1
  Rh  Rh14  1  0.250000  0.250000  0.250000  1
  Rh  Rh15  1  0.086738  0.086738  0.913262  1
  Rh  Rh16  1  0.750000  0.750000  0.750000  1
