# generated using pymatgen
data_Rb2CrSi3O8
_symmetry_space_group_name_H-M   'P 1'
_cell_length_a   5.24091012
_cell_length_b   7.14127954
_cell_length_c   6.75415690
_cell_angle_alpha   78.63503286
_cell_angle_beta   74.65533183
_cell_angle_gamma   67.99305936
_symmetry_Int_Tables_number   1
_chemical_formula_structural   Rb2CrSi3O8
_chemical_formula_sum   'Rb2 Cr1 Si3 O8'
_cell_volume   224.65426801
_cell_formula_units_Z   1
loop_
 _symmetry_equiv_pos_site_id
 _symmetry_equiv_pos_as_xyz
  1  'x, y, z'
loop_
 _atom_site_type_symbol
 _atom_site_label
 _atom_site_symmetry_multiplicity
 _atom_site_fract_x
 _atom_site_fract_y
 _atom_site_fract_z
 _atom_site_occupancy
  Rb  Rb0  1  0.962596  0.309934  0.827324  1
  Rb  Rb1  1  0.068979  0.679766  0.179460  1
  Cr  Cr2  1  0.638986  0.885164  0.773090  1
  Si  Si3  1  0.332569  0.088109  0.259572  1
  Si  Si4  1  0.677253  0.284339  0.416582  1
  Si  Si5  1  0.337098  0.700999  0.590829  1
  O  O6  1  0.006248  0.254275  0.290646  1
  O  O7  1  0.461844  0.663804  0.795783  1
  O  O8  1  0.531101  0.224447  0.257878  1
  O  O9  1  0.019656  0.702712  0.626060  1
  O  O10  1  0.366939  0.922245  0.465888  1
  O  O11  1  0.653625  0.165409  0.642744  1
  O  O12  1  0.404913  0.987467  0.052158  1
  O  O13  1  0.538191  0.533331  0.419984  1
