# generated using pymatgen
data_TbPr5Al24(Os3Rh)2
_symmetry_space_group_name_H-M   'P 1'
_cell_length_a   8.95813027
_cell_length_b   8.90015438
_cell_length_c   9.69710400
_cell_angle_alpha   90.00000000
_cell_angle_beta   90.00000000
_cell_angle_gamma   120.11938951
_symmetry_Int_Tables_number   1
_chemical_formula_structural   TbPr5Al24(Os3Rh)2
_chemical_formula_sum   'Tb1 Pr5 Al24 Os6 Rh2'
_cell_volume   668.75010510
_cell_formula_units_Z   1
loop_
 _symmetry_equiv_pos_site_id
 _symmetry_equiv_pos_as_xyz
  1  'x, y, z'
loop_
 _atom_site_type_symbol
 _atom_site_label
 _atom_site_symmetry_multiplicity
 _atom_site_fract_x
 _atom_site_fract_y
 _atom_site_fract_z
 _atom_site_occupancy
  Tb  Tb0  1  0.813335  0.200226  0.750000  1
  Pr  Pr1  1  0.190652  0.383692  0.250000  1
  Pr  Pr2  1  0.809309  0.616320  0.750000  1
  Pr  Pr3  1  0.617513  0.803762  0.250000  1
  Pr  Pr4  1  0.381754  0.195800  0.750000  1
  Pr  Pr5  1  0.187448  0.803661  0.250000  1
  Al  Al6  1  0.332178  0.665388  0.013153  1
  Al  Al7  1  0.667889  0.333203  0.983606  1
  Al  Al8  1  0.667889  0.333203  0.516394  1
  Al  Al9  1  0.332178  0.665388  0.486847  1
  Al  Al10  1  0.162834  0.327896  0.576023  1
  Al  Al11  1  0.835404  0.670712  0.426059  1
  Al  Al12  1  0.674495  0.837281  0.577393  1
  Al  Al13  1  0.835404  0.670712  0.073941  1
  Al  Al14  1  0.326648  0.164760  0.424705  1
  Al  Al15  1  0.162834  0.327896  0.923977  1
  Al  Al16  1  0.161938  0.835160  0.575451  1
  Al  Al17  1  0.326648  0.164760  0.075295  1
  Al  Al18  1  0.837912  0.164362  0.428145  1
  Al  Al19  1  0.674495  0.837281  0.922607  1
  Al  Al20  1  0.837912  0.164362  0.071855  1
  Al  Al21  1  0.161938  0.835160  0.924549  1
  Al  Al22  1  0.561677  0.122085  0.250000  1
  Al  Al23  1  0.442006  0.880943  0.750000  1
  Al  Al24  1  0.872219  0.434360  0.250000  1
  Al  Al25  1  0.126059  0.562813  0.750000  1
  Al  Al26  1  0.562341  0.434153  0.250000  1
  Al  Al27  1  0.437658  0.565469  0.750000  1
  Al  Al28  1  0.998277  0.996980  0.250000  1
  Al  Al29  1  0.999005  0.005297  0.750000  1
  Os  Os30  1  0.998812  0.498196  0.998727  1
  Os  Os31  1  0.500468  0.499679  0.999406  1
  Os  Os32  1  0.998812  0.498196  0.501273  1
  Os  Os33  1  0.500468  0.499679  0.500594  1
  Os  Os34  1  0.000039  0.999815  0.999558  1
  Os  Os35  1  0.000039  0.999815  0.500442  1
  Rh  Rh36  1  0.501757  0.000769  0.999013  1
  Rh  Rh37  1  0.501757  0.000769  0.500987  1
