# generated using pymatgen
data_Dy5Be5P7Ir19
_symmetry_space_group_name_H-M   'P 1'
_cell_length_a   12.55859573
_cell_length_b   12.48437702
_cell_length_c   3.95054500
_cell_angle_alpha   90.00000000
_cell_angle_beta   90.00000000
_cell_angle_gamma   119.77386292
_symmetry_Int_Tables_number   1
_chemical_formula_structural   Dy5Be5P7Ir19
_chemical_formula_sum   'Dy5 Be5 P7 Ir19'
_cell_volume   537.62657449
_cell_formula_units_Z   1
loop_
 _symmetry_equiv_pos_site_id
 _symmetry_equiv_pos_as_xyz
  1  'x, y, z'
loop_
 _atom_site_type_symbol
 _atom_site_label
 _atom_site_symmetry_multiplicity
 _atom_site_fract_x
 _atom_site_fract_y
 _atom_site_fract_z
 _atom_site_occupancy
  Dy  Dy0  1  0.333988  0.665699  0.500000  1
  Dy  Dy1  1  0.664090  0.321201  0.500000  1
  Dy  Dy2  1  0.188988  0.191028  0.000000  1
  Dy  Dy3  1  0.812204  0.001948  0.000000  1
  Dy  Dy4  1  0.006203  0.816709  0.000000  1
  Be  Be5  1  0.311588  0.835231  0.000000  1
  Be  Be6  1  0.164687  0.477195  0.000000  1
  Be  Be7  1  0.522921  0.687208  0.000000  1
  Be  Be8  1  0.832248  0.307461  0.000000  1
  Be  Be9  1  0.477698  0.164705  0.000000  1
  P  P10  1  0.692948  0.515670  0.000000  1
  P  P11  1  0.367030  0.374436  0.500000  1
  P  P12  1  0.624014  0.999323  0.500000  1
  P  P13  1  0.006375  0.630344  0.500000  1
  P  P14  1  0.817297  0.819563  0.500000  1
  P  P15  1  0.185385  0.003608  0.500000  1
  P  P16  1  0.998994  0.183363  0.500000  1
  Ir  Ir17  1  0.194445  0.818473  0.500000  1
  Ir  Ir18  1  0.181375  0.376916  0.500000  1
  Ir  Ir19  1  0.624463  0.809107  0.500000  1
  Ir  Ir20  1  0.814134  0.190025  0.500000  1
  Ir  Ir21  1  0.377173  0.189694  0.500000  1
  Ir  Ir22  1  0.809130  0.622950  0.500000  1
  Ir  Ir23  1  0.125510  0.638972  0.000000  1
  Ir  Ir24  1  0.359104  0.487396  0.000000  1
  Ir  Ir25  1  0.510177  0.871112  0.000000  1
  Ir  Ir26  1  0.637761  0.124158  0.000000  1
  Ir  Ir27  1  0.496926  0.364769  0.000000  1
  Ir  Ir28  1  0.872241  0.508126  0.000000  1
  Ir  Ir29  1  0.548293  0.557183  0.500000  1
  Ir  Ir30  1  0.444217  0.002661  0.500000  1
  Ir  Ir31  1  0.996137  0.443129  0.500000  1
  Ir  Ir32  1  0.719226  0.715679  0.000000  1
  Ir  Ir33  1  0.283245  0.003323  0.000000  1
  Ir  Ir34  1  0.999307  0.281480  0.000000  1
  Ir  Ir35  1  0.000476  0.000155  0.500000  1
