# generated using pymatgen
data_Nd3Gd5(OsBr4)2
_symmetry_space_group_name_H-M   'P 1'
_cell_length_a   9.19115006
_cell_length_b   9.17712927
_cell_length_c   6.54170000
_cell_angle_alpha   89.29444924
_cell_angle_beta   89.43425487
_cell_angle_gamma   89.41415200
_symmetry_Int_Tables_number   1
_chemical_formula_structural   Nd3Gd5(OsBr4)2
_chemical_formula_sum   'Nd3 Gd5 Os2 Br8'
_cell_volume   551.68484865
_cell_formula_units_Z   1
loop_
 _symmetry_equiv_pos_site_id
 _symmetry_equiv_pos_as_xyz
  1  'x, y, z'
loop_
 _atom_site_type_symbol
 _atom_site_label
 _atom_site_symmetry_multiplicity
 _atom_site_fract_x
 _atom_site_fract_y
 _atom_site_fract_z
 _atom_site_occupancy
  Nd  Nd0  1  0.253166  0.097869  0.494488  1
  Nd  Nd1  1  0.097479  0.253696  0.994404  1
  Nd  Nd2  1  0.901055  0.746163  0.005915  1
  Gd  Gd3  1  0.247748  0.902240  0.008567  1
  Gd  Gd4  1  0.750753  0.096496  0.991513  1
  Gd  Gd5  1  0.096422  0.751075  0.492820  1
  Gd  Gd6  1  0.902812  0.247844  0.507055  1
  Gd  Gd7  1  0.751934  0.903948  0.507109  1
  Os  Os8  1  0.996818  0.002183  0.250142  1
  Os  Os9  1  0.001977  0.997314  0.749977  1
  Br  Br10  1  0.412379  0.810439  0.436723  1
  Br  Br11  1  0.590325  0.185867  0.564152  1
  Br  Br12  1  0.190628  0.588499  0.065703  1
  Br  Br13  1  0.809732  0.410987  0.933650  1
  Br  Br14  1  0.414506  0.183229  0.064934  1
  Br  Br15  1  0.585950  0.816875  0.931377  1
  Br  Br16  1  0.813078  0.590036  0.435778  1
  Br  Br17  1  0.183238  0.415241  0.565692  1
