# generated using pymatgen
data_Ac8ZnNi6
_symmetry_space_group_name_H-M   'P 1'
_cell_length_a   7.81186230
_cell_length_b   7.81186218
_cell_length_c   7.81186282
_cell_angle_alpha   73.97875428
_cell_angle_beta   73.97874267
_cell_angle_gamma   73.97875589
_symmetry_Int_Tables_number   1
_chemical_formula_structural   Ac8ZnNi6
_chemical_formula_sum   'Ac8 Zn1 Ni6'
_cell_volume   429.98188319
_cell_formula_units_Z   1
loop_
 _symmetry_equiv_pos_site_id
 _symmetry_equiv_pos_as_xyz
  1  'x, y, z'
loop_
 _atom_site_type_symbol
 _atom_site_label
 _atom_site_symmetry_multiplicity
 _atom_site_fract_x
 _atom_site_fract_y
 _atom_site_fract_z
 _atom_site_occupancy
  Ac  Ac0  1  0.300816  0.300816  0.300816  1
  Ac  Ac1  1  0.699184  0.699184  0.699184  1
  Ac  Ac2  1  0.809198  0.336674  0.142700  1
  Ac  Ac3  1  0.336674  0.142700  0.809198  1
  Ac  Ac4  1  0.142700  0.809198  0.336674  1
  Ac  Ac5  1  0.190802  0.663326  0.857300  1
  Ac  Ac6  1  0.663326  0.857300  0.190802  1
  Ac  Ac7  1  0.857300  0.190802  0.663326  1
  Zn  Zn8  1  0.500000  0.500000  0.500000  1
  Ni  Ni9  1  0.466657  0.630599  0.089277  1
  Ni  Ni10  1  0.630599  0.089277  0.466657  1
  Ni  Ni11  1  0.089277  0.466657  0.630599  1
  Ni  Ni12  1  0.533343  0.369401  0.910723  1
  Ni  Ni13  1  0.369401  0.910723  0.533343  1
  Ni  Ni14  1  0.910723  0.533343  0.369401  1
