# generated using pymatgen
data_ScNb3(AsRh)4
_symmetry_space_group_name_H-M   'P 1'
_cell_length_a   6.49318347
_cell_length_b   3.92703400
_cell_length_c   7.51155176
_cell_angle_alpha   90.00000000
_cell_angle_beta   90.42475598
_cell_angle_gamma   90.00000000
_symmetry_Int_Tables_number   1
_chemical_formula_structural   ScNb3(AsRh)4
_chemical_formula_sum   'Sc1 Nb3 As4 Rh4'
_cell_volume   191.53143647
_cell_formula_units_Z   1
loop_
 _symmetry_equiv_pos_site_id
 _symmetry_equiv_pos_as_xyz
  1  'x, y, z'
loop_
 _atom_site_type_symbol
 _atom_site_label
 _atom_site_symmetry_multiplicity
 _atom_site_fract_x
 _atom_site_fract_y
 _atom_site_fract_z
 _atom_site_occupancy
  Sc  Sc0  1  0.969404  0.749998  0.182542  1
  Nb  Nb1  1  0.468936  0.749998  0.329678  1
  Nb  Nb2  1  0.529995  0.249999  0.675414  1
  Nb  Nb3  1  0.032408  0.249999  0.818884  1
  As  As4  1  0.260471  0.249999  0.121138  1
  As  As5  1  0.752032  0.249999  0.378990  1
  As  As6  1  0.242215  0.749998  0.624235  1
  As  As7  1  0.743062  0.749998  0.873097  1
  Rh  Rh8  1  0.647583  0.249999  0.060378  1
  Rh  Rh9  1  0.143241  0.249999  0.436597  1
  Rh  Rh10  1  0.853897  0.749998  0.559940  1
  Rh  Rh11  1  0.356755  0.749998  0.939106  1
