# generated using pymatgen
data_Lu10AlBiPb4
_symmetry_space_group_name_H-M   'P 1'
_cell_length_a   6.47035700
_cell_length_b   8.80095982
_cell_length_c   8.85469288
_cell_angle_alpha   119.84435562
_cell_angle_beta   90.00046473
_cell_angle_gamma   89.99742016
_symmetry_Int_Tables_number   1
_chemical_formula_structural   Lu10AlBiPb4
_chemical_formula_sum   'Lu10 Al1 Bi1 Pb4'
_cell_volume   437.36237420
_cell_formula_units_Z   1
loop_
 _symmetry_equiv_pos_site_id
 _symmetry_equiv_pos_as_xyz
  1  'x, y, z'
loop_
 _atom_site_type_symbol
 _atom_site_label
 _atom_site_symmetry_multiplicity
 _atom_site_fract_x
 _atom_site_fract_y
 _atom_site_fract_z
 _atom_site_occupancy
  Lu  Lu0  1  0.750041  0.237680  0.996373  1
  Lu  Lu1  1  0.750052  0.762525  0.776208  1
  Lu  Lu2  1  0.750050  0.984212  0.225913  1
  Lu  Lu3  1  0.250117  0.766028  0.999524  1
  Lu  Lu4  1  0.249907  0.234263  0.233834  1
  Lu  Lu5  1  0.249913  0.000823  0.765891  1
  Lu  Lu6  1  0.502433  0.340965  0.677761  1
  Lu  Lu7  1  0.502360  0.668520  0.323854  1
  Lu  Lu8  1  0.997629  0.668327  0.323517  1
  Lu  Lu9  1  0.997548  0.341091  0.678124  1
  Al  Al10  1  0.749819  0.598712  0.999438  1
  Bi  Bi11  1  0.749989  0.389539  0.391054  1
  Pb  Pb12  1  0.749821  0.998228  0.605936  1
  Pb  Pb13  1  0.250519  0.398018  0.001338  1
  Pb  Pb14  1  0.249910  0.605887  0.601805  1
  Pb  Pb15  1  0.249894  0.005182  0.399429  1
