# generated using pymatgen
data_TbY(BOs)8
_symmetry_space_group_name_H-M   'P 1'
_cell_length_a   7.55835200
_cell_length_b   7.55835200
_cell_length_c   4.01599000
_cell_angle_alpha   90.00000000
_cell_angle_beta   90.00000000
_cell_angle_gamma   90.00000000
_symmetry_Int_Tables_number   1
_chemical_formula_structural   TbY(BOs)8
_chemical_formula_sum   'Tb1 Y1 B8 Os8'
_cell_volume   229.42822750
_cell_formula_units_Z   1
loop_
 _symmetry_equiv_pos_site_id
 _symmetry_equiv_pos_as_xyz
  1  'x, y, z'
loop_
 _atom_site_type_symbol
 _atom_site_label
 _atom_site_symmetry_multiplicity
 _atom_site_fract_x
 _atom_site_fract_y
 _atom_site_fract_z
 _atom_site_occupancy
  Tb  Tb0  1  0.250000  0.250000  0.250000  1
  Y  Y1  1  0.750000  0.750000  0.750000  1
  B  B2  1  0.913694  0.030622  0.363421  1
  B  B3  1  0.586306  0.469378  0.363421  1
  B  B4  1  0.530611  0.086342  0.863223  1
  B  B5  1  0.969389  0.413658  0.863223  1
  B  B6  1  0.086342  0.969389  0.636777  1
  B  B7  1  0.413658  0.530611  0.636777  1
  B  B8  1  0.469378  0.913694  0.136579  1
  B  B9  1  0.030622  0.586306  0.136579  1
  Os  Os10  1  0.396530  0.642226  0.134468  1
  Os  Os11  1  0.103470  0.857774  0.134468  1
  Os  Os12  1  0.142142  0.603736  0.634629  1
  Os  Os13  1  0.357858  0.896264  0.634629  1
  Os  Os14  1  0.603736  0.357858  0.865371  1
  Os  Os15  1  0.896264  0.142142  0.865371  1
  Os  Os16  1  0.857774  0.396530  0.365532  1
  Os  Os17  1  0.642226  0.103470  0.365532  1
