# generated using pymatgen
data_DyY3ReOs7
_symmetry_space_group_name_H-M   'P 1'
_cell_length_a   5.32251924
_cell_length_b   5.32252034
_cell_length_c   8.82575604
_cell_angle_alpha   90.00934233
_cell_angle_beta   89.99065799
_cell_angle_gamma   118.31747825
_symmetry_Int_Tables_number   1
_chemical_formula_structural   DyY3ReOs7
_chemical_formula_sum   'Dy1 Y3 Re1 Os7'
_cell_volume   220.10672423
_cell_formula_units_Z   1
loop_
 _symmetry_equiv_pos_site_id
 _symmetry_equiv_pos_as_xyz
  1  'x, y, z'
loop_
 _atom_site_type_symbol
 _atom_site_label
 _atom_site_symmetry_multiplicity
 _atom_site_fract_x
 _atom_site_fract_y
 _atom_site_fract_z
 _atom_site_occupancy
  Dy  Dy0  1  0.330545  0.669455  0.063711  1
  Y  Y1  1  0.330642  0.669358  0.435921  1
  Y  Y2  1  0.665817  0.334183  0.565974  1
  Y  Y3  1  0.665694  0.334306  0.934186  1
  Re  Re4  1  0.834055  0.165945  0.249967  1
  Os  Os5  1  0.992923  0.007077  0.500113  1
  Os  Os6  1  0.992810  0.007190  0.000042  1
  Os  Os7  1  0.827657  0.649467  0.249869  1
  Os  Os8  1  0.350533  0.172343  0.249869  1
  Os  Os9  1  0.177194  0.822806  0.750158  1
  Os  Os10  1  0.171323  0.339193  0.750095  1
  Os  Os11  1  0.660807  0.828677  0.750095  1
