# generated using pymatgen
data_Yb3Cd(Rh2O7)2
_symmetry_space_group_name_H-M   'P 1'
_cell_length_a   7.24466531
_cell_length_b   7.14281937
_cell_length_c   7.24466600
_cell_angle_alpha   59.52719753
_cell_angle_beta   59.99999684
_cell_angle_gamma   59.52719591
_symmetry_Int_Tables_number   1
_chemical_formula_structural   Yb3Cd(Rh2O7)2
_chemical_formula_sum   'Yb3 Cd1 Rh4 O14'
_cell_volume   263.17852691
_cell_formula_units_Z   1
loop_
 _symmetry_equiv_pos_site_id
 _symmetry_equiv_pos_as_xyz
  1  'x, y, z'
loop_
 _atom_site_type_symbol
 _atom_site_label
 _atom_site_symmetry_multiplicity
 _atom_site_fract_x
 _atom_site_fract_y
 _atom_site_fract_z
 _atom_site_occupancy
  Yb  Yb0  1  0.125000  0.125000  0.125000  1
  Yb  Yb1  1  0.625000  0.125000  0.125000  1
  Yb  Yb2  1  0.125000  0.125000  0.625000  1
  Cd  Cd3  1  0.125000  0.625000  0.125000  1
  Rh  Rh4  1  0.625000  0.625000  0.625000  1
  Rh  Rh5  1  0.625000  0.625000  0.125000  1
  Rh  Rh6  1  0.125000  0.625000  0.625000  1
  Rh  Rh7  1  0.625000  0.125000  0.625000  1
  O  O8  1  0.244049  0.267852  0.244049  1
  O  O9  1  0.299841  0.701930  0.299841  1
  O  O10  1  0.954625  0.957226  0.544075  1
  O  O11  1  0.544075  0.957226  0.544075  1
  O  O12  1  0.698389  0.701930  0.299841  1
  O  O13  1  0.950159  0.548070  0.551611  1
  O  O14  1  0.705925  0.292774  0.705925  1
  O  O15  1  0.295375  0.292774  0.705925  1
  O  O16  1  0.705925  0.292774  0.295375  1
  O  O17  1  0.299841  0.701930  0.698389  1
  O  O18  1  0.950159  0.548070  0.950159  1
  O  O19  1  0.551611  0.548070  0.950159  1
  O  O20  1  0.005951  0.982148  0.005951  1
  O  O21  1  0.544075  0.957226  0.954625  1
