# generated using pymatgen
data_TaNb12Co12W
_symmetry_space_group_name_H-M   'P 1'
_cell_length_a   4.97810773
_cell_length_b   4.97847513
_cell_length_c   17.75135426
_cell_angle_alpha   97.99777774
_cell_angle_beta   97.99537033
_cell_angle_gamma   60.06591814
_symmetry_Int_Tables_number   1
_chemical_formula_structural   TaNb12Co12W
_chemical_formula_sum   'Ta1 Nb12 Co12 W1'
_cell_volume   376.29659626
_cell_formula_units_Z   1
loop_
 _symmetry_equiv_pos_site_id
 _symmetry_equiv_pos_as_xyz
  1  'x, y, z'
loop_
 _atom_site_type_symbol
 _atom_site_label
 _atom_site_symmetry_multiplicity
 _atom_site_fract_x
 _atom_site_fract_y
 _atom_site_fract_z
 _atom_site_occupancy
  Ta  Ta0  1  0.500000  0.500000  0.500000  1
  Nb  Nb1  1  0.417106  0.417079  0.250522  1
  Nb  Nb2  1  0.916754  0.916723  0.751472  1
  Nb  Nb3  1  0.083246  0.083277  0.248528  1
  Nb  Nb4  1  0.582894  0.582921  0.749478  1
  Nb  Nb5  1  0.774399  0.774409  0.325886  1
  Nb  Nb6  1  0.274488  0.274487  0.825283  1
  Nb  Nb7  1  0.725512  0.725513  0.174717  1
  Nb  Nb8  1  0.225601  0.225591  0.674114  1
  Nb  Nb9  1  0.827876  0.827862  0.481593  1
  Nb  Nb10  1  0.327374  0.327419  0.980004  1
  Nb  Nb11  1  0.672626  0.672581  0.019996  1
  Nb  Nb12  1  0.172124  0.172138  0.518407  1
  Co  Co13  1  0.698844  0.209172  0.115959  1
  Co  Co14  1  0.199489  0.710786  0.618414  1
  Co  Co15  1  0.208470  0.208482  0.116128  1
  Co  Co16  1  0.709695  0.709710  0.618564  1
  Co  Co17  1  0.209166  0.698837  0.115957  1
  Co  Co18  1  0.710788  0.199477  0.618413  1
  Co  Co19  1  0.800511  0.289214  0.381586  1
  Co  Co20  1  0.301156  0.790828  0.884041  1
  Co  Co21  1  0.290305  0.290290  0.381436  1
  Co  Co22  1  0.791530  0.791518  0.883872  1
  Co  Co23  1  0.289212  0.800523  0.381587  1
  Co  Co24  1  0.790834  0.301163  0.884043  1
  W  W25  1  0.000000  0.000000  0.000000  1
