# generated using pymatgen
data_La4Nd12Cd4NiPd3
_symmetry_space_group_name_H-M   'P 1'
_cell_length_a   10.02724506
_cell_length_b   10.02724490
_cell_length_c   10.02724589
_cell_angle_alpha   60.15568778
_cell_angle_beta   60.15568851
_cell_angle_gamma   60.15568942
_symmetry_Int_Tables_number   1
_chemical_formula_structural   La4Nd12Cd4NiPd3
_chemical_formula_sum   'La4 Nd12 Cd4 Ni1 Pd3'
_cell_volume   715.41609561
_cell_formula_units_Z   1
loop_
 _symmetry_equiv_pos_site_id
 _symmetry_equiv_pos_as_xyz
  1  'x, y, z'
loop_
 _atom_site_type_symbol
 _atom_site_label
 _atom_site_symmetry_multiplicity
 _atom_site_fract_x
 _atom_site_fract_y
 _atom_site_fract_z
 _atom_site_occupancy
  La  La0  1  0.351097  0.351097  0.351097  1
  La  La1  1  0.346705  0.346705  0.947442  1
  La  La2  1  0.346705  0.947442  0.346705  1
  La  La3  1  0.947442  0.346705  0.346705  1
  Nd  Nd4  1  0.817361  0.189958  0.189958  1
  Nd  Nd5  1  0.191708  0.809279  0.809279  1
  Nd  Nd6  1  0.189958  0.817361  0.189958  1
  Nd  Nd7  1  0.809279  0.191708  0.809279  1
  Nd  Nd8  1  0.189958  0.189958  0.817361  1
  Nd  Nd9  1  0.809279  0.809279  0.191708  1
  Nd  Nd10  1  0.937662  0.564652  0.564652  1
  Nd  Nd11  1  0.565774  0.933547  0.933547  1
  Nd  Nd12  1  0.564652  0.937662  0.564652  1
  Nd  Nd13  1  0.933547  0.565774  0.933547  1
  Nd  Nd14  1  0.564652  0.564652  0.937662  1
  Nd  Nd15  1  0.933547  0.933547  0.565774  1
  Cd  Cd16  1  0.580285  0.580285  0.580285  1
  Cd  Cd17  1  0.581415  0.581415  0.256968  1
  Cd  Cd18  1  0.581415  0.256968  0.581415  1
  Cd  Cd19  1  0.256968  0.581415  0.581415  1
  Ni  Ni20  1  0.142694  0.142694  0.142694  1
  Pd  Pd21  1  0.143472  0.143472  0.570954  1
  Pd  Pd22  1  0.143472  0.570954  0.143472  1
  Pd  Pd23  1  0.570954  0.143472  0.143472  1
