# generated using pymatgen
data_Rb(CrS)3
_symmetry_space_group_name_H-M   'P 1'
_cell_length_a   8.99271200
_cell_length_b   8.99271110
_cell_length_c   4.10299800
_cell_angle_alpha   90.00000000
_cell_angle_beta   90.00000000
_cell_angle_gamma   120.00000332
_symmetry_Int_Tables_number   1
_chemical_formula_structural   Rb(CrS)3
_chemical_formula_sum   'Rb2 Cr6 S6'
_cell_volume   287.35135463
_cell_formula_units_Z   2
loop_
 _symmetry_equiv_pos_site_id
 _symmetry_equiv_pos_as_xyz
  1  'x, y, z'
loop_
 _atom_site_type_symbol
 _atom_site_label
 _atom_site_symmetry_multiplicity
 _atom_site_fract_x
 _atom_site_fract_y
 _atom_site_fract_z
 _atom_site_occupancy
  Rb  Rb0  1  0.333333  0.666667  0.750000  1
  Rb  Rb1  1  0.666667  0.333333  0.250000  1
  Cr  Cr2  1  0.973144  0.831583  0.250000  1
  Cr  Cr3  1  0.858439  0.026856  0.250000  1
  Cr  Cr4  1  0.141561  0.973144  0.750000  1
  Cr  Cr5  1  0.026856  0.168417  0.750000  1
  Cr  Cr6  1  0.168417  0.141561  0.250000  1
  Cr  Cr7  1  0.831583  0.858439  0.750000  1
  S  S8  1  0.947612  0.676498  0.750000  1
  S  S9  1  0.052388  0.323502  0.250000  1
  S  S10  1  0.271113  0.947612  0.250000  1
  S  S11  1  0.676498  0.728887  0.250000  1
  S  S12  1  0.323502  0.271113  0.750000  1
  S  S13  1  0.728887  0.052388  0.750000  1
