# generated using pymatgen
data_Ce10SnBi5Os2
_symmetry_space_group_name_H-M   'P 1'
_cell_length_a   6.37668401
_cell_length_b   9.66935050
_cell_length_c   9.65569906
_cell_angle_alpha   119.97052971
_cell_angle_beta   89.99659603
_cell_angle_gamma   89.99652623
_symmetry_Int_Tables_number   1
_chemical_formula_structural   Ce10SnBi5Os2
_chemical_formula_sum   'Ce10 Sn1 Bi5 Os2'
_cell_volume   515.74549375
_cell_formula_units_Z   1
loop_
 _symmetry_equiv_pos_site_id
 _symmetry_equiv_pos_as_xyz
  1  'x, y, z'
loop_
 _atom_site_type_symbol
 _atom_site_label
 _atom_site_symmetry_multiplicity
 _atom_site_fract_x
 _atom_site_fract_y
 _atom_site_fract_z
 _atom_site_occupancy
  Ce  Ce0  1  0.749998  0.240666  0.999755  1
  Ce  Ce1  1  0.750055  0.759267  0.759226  1
  Ce  Ce2  1  0.750061  0.000020  0.242567  1
  Ce  Ce3  1  0.249971  0.760179  0.003079  1
  Ce  Ce4  1  0.249931  0.239739  0.242919  1
  Ce  Ce5  1  0.249960  0.000123  0.757773  1
  Ce  Ce6  1  0.497687  0.330352  0.663961  1
  Ce  Ce7  1  0.497787  0.669638  0.333643  1
  Ce  Ce8  1  0.002290  0.669650  0.333656  1
  Ce  Ce9  1  0.002256  0.330372  0.664014  1
  Sn  Sn10  1  0.249942  0.000060  0.392870  1
  Bi  Bi11  1  0.750075  0.606724  0.999126  1
  Bi  Bi12  1  0.750058  0.393195  0.392413  1
  Bi  Bi13  1  0.750059  0.000055  0.606027  1
  Bi  Bi14  1  0.249964  0.392180  0.000129  1
  Bi  Bi15  1  0.249943  0.607808  0.608059  1
  Os  Os16  1  0.499820  0.999986  0.000391  1
  Os  Os17  1  0.000147  0.999985  0.000391  1
