# generated using pymatgen
data_Gd4Mg3InIr4
_symmetry_space_group_name_H-M   'P 1'
_cell_length_a   4.11045900
_cell_length_b   7.06949531
_cell_length_c   8.57119100
_cell_angle_alpha   89.77131861
_cell_angle_beta   90.00000000
_cell_angle_gamma   90.00000000
_symmetry_Int_Tables_number   1
_chemical_formula_structural   Gd4Mg3InIr4
_chemical_formula_sum   'Gd4 Mg3 In1 Ir4'
_cell_volume   249.06714646
_cell_formula_units_Z   1
loop_
 _symmetry_equiv_pos_site_id
 _symmetry_equiv_pos_as_xyz
  1  'x, y, z'
loop_
 _atom_site_type_symbol
 _atom_site_label
 _atom_site_symmetry_multiplicity
 _atom_site_fract_x
 _atom_site_fract_y
 _atom_site_fract_z
 _atom_site_occupancy
  Gd  Gd0  1  0.250000  0.539459  0.174827  1
  Gd  Gd1  1  0.750000  0.458578  0.824474  1
  Gd  Gd2  1  0.250000  0.039956  0.323424  1
  Gd  Gd3  1  0.750000  0.961424  0.677243  1
  Mg  Mg4  1  0.250000  0.132300  0.940429  1
  Mg  Mg5  1  0.750000  0.865716  0.059180  1
  Mg  Mg6  1  0.250000  0.636996  0.559189  1
  In  In7  1  0.750000  0.366000  0.438401  1
  Ir  Ir8  1  0.750000  0.753888  0.370261  1
  Ir  Ir9  1  0.250000  0.250995  0.633045  1
  Ir  Ir10  1  0.750000  0.246296  0.128153  1
  Ir  Ir11  1  0.250000  0.748392  0.871378  1
