# generated using pymatgen
data_TbY3(AlPd)4
_symmetry_space_group_name_H-M   'P 1'
_cell_length_a   4.48610300
_cell_length_b   6.92443424
_cell_length_c   7.77295227
_cell_angle_alpha   89.96964744
_cell_angle_beta   90.00000000
_cell_angle_gamma   90.00000000
_symmetry_Int_Tables_number   1
_chemical_formula_structural   TbY3(AlPd)4
_chemical_formula_sum   'Tb1 Y3 Al4 Pd4'
_cell_volume   241.45681975
_cell_formula_units_Z   1
loop_
 _symmetry_equiv_pos_site_id
 _symmetry_equiv_pos_as_xyz
  1  'x, y, z'
loop_
 _atom_site_type_symbol
 _atom_site_label
 _atom_site_symmetry_multiplicity
 _atom_site_fract_x
 _atom_site_fract_y
 _atom_site_fract_z
 _atom_site_occupancy
  Tb  Tb0  1  0.750000  0.966887  0.319705  1
  Y  Y1  1  0.250000  0.532088  0.818303  1
  Y  Y2  1  0.750000  0.467597  0.181441  1
  Y  Y3  1  0.250000  0.032538  0.681941  1
  Al  Al4  1  0.250000  0.645819  0.437425  1
  Al  Al5  1  0.750000  0.354146  0.563168  1
  Al  Al6  1  0.250000  0.146928  0.062272  1
  Al  Al7  1  0.750000  0.853808  0.936750  1
  Pd  Pd8  1  0.750000  0.725541  0.616692  1
  Pd  Pd9  1  0.250000  0.274667  0.382684  1
  Pd  Pd10  1  0.750000  0.225076  0.882537  1
  Pd  Pd11  1  0.250000  0.774904  0.117082  1
