# generated using pymatgen
data_La2Er3(SiGe)2
_symmetry_space_group_name_H-M   'P 1'
_cell_length_a   7.84676300
_cell_length_b   7.84676300
_cell_length_c   14.47131900
_cell_angle_alpha   90.00000000
_cell_angle_beta   90.00000000
_cell_angle_gamma   90.00000000
_symmetry_Int_Tables_number   1
_chemical_formula_structural   La2Er3(SiGe)2
_chemical_formula_sum   'La8 Er12 Si8 Ge8'
_cell_volume   891.02356125
_cell_formula_units_Z   4
loop_
 _symmetry_equiv_pos_site_id
 _symmetry_equiv_pos_as_xyz
  1  'x, y, z'
loop_
 _atom_site_type_symbol
 _atom_site_label
 _atom_site_symmetry_multiplicity
 _atom_site_fract_x
 _atom_site_fract_y
 _atom_site_fract_z
 _atom_site_occupancy
  La  La0  1  0.991687  0.646947  0.039433  1
  La  La1  1  0.008313  0.353053  0.539433  1
  La  La2  1  0.646947  0.991687  0.960567  1
  La  La3  1  0.146947  0.508313  0.789433  1
  La  La4  1  0.853053  0.491687  0.289433  1
  La  La5  1  0.508313  0.146947  0.210567  1
  La  La6  1  0.491687  0.853053  0.710567  1
  La  La7  1  0.353053  0.008313  0.460567  1
  Er  Er8  1  0.355046  0.490823  0.376740  1
  Er  Er9  1  0.855046  0.009177  0.373260  1
  Er  Er10  1  0.990823  0.144954  0.126740  1
  Er  Er11  1  0.009177  0.855046  0.626740  1
  Er  Er12  1  0.644954  0.509177  0.876740  1
  Er  Er13  1  0.490823  0.355046  0.623260  1
  Er  Er14  1  0.509177  0.644954  0.123260  1
  Er  Er15  1  0.144954  0.990823  0.873260  1
  Er  Er16  1  0.677931  0.677931  0.500000  1
  Er  Er17  1  0.822069  0.177931  0.750000  1
  Er  Er18  1  0.177931  0.822069  0.250000  1
  Er  Er19  1  0.322069  0.322069  0.000000  1
  Si  Si20  1  0.852018  0.799575  0.812523  1
  Si  Si21  1  0.147982  0.200425  0.312523  1
  Si  Si22  1  0.799575  0.852018  0.187477  1
  Si  Si23  1  0.299575  0.647982  0.562523  1
  Si  Si24  1  0.700425  0.352018  0.062523  1
  Si  Si25  1  0.647982  0.299575  0.437477  1
  Si  Si26  1  0.352018  0.700425  0.937477  1
  Si  Si27  1  0.200425  0.147982  0.687477  1
  Ge  Ge28  1  0.055350  0.711029  0.435704  1
  Ge  Ge29  1  0.944650  0.288971  0.935704  1
  Ge  Ge30  1  0.711029  0.055350  0.564296  1
  Ge  Ge31  1  0.211030  0.444650  0.185704  1
  Ge  Ge32  1  0.788971  0.555350  0.685704  1
  Ge  Ge33  1  0.444650  0.211030  0.814296  1
  Ge  Ge34  1  0.555350  0.788971  0.314296  1
  Ge  Ge35  1  0.288971  0.944650  0.064296  1
