# generated using pymatgen
data_Nd2DyHo3Ta2O14
_symmetry_space_group_name_H-M   'P 1'
_cell_length_a   6.50348101
_cell_length_b   6.50097123
_cell_length_c   7.58781101
_cell_angle_alpha   90.00162339
_cell_angle_beta   90.00427784
_cell_angle_gamma   109.11788221
_symmetry_Int_Tables_number   1
_chemical_formula_structural   Nd2DyHo3Ta2O14
_chemical_formula_sum   'Nd2 Dy1 Ho3 Ta2 O14'
_cell_volume   303.11120621
_cell_formula_units_Z   1
loop_
 _symmetry_equiv_pos_site_id
 _symmetry_equiv_pos_as_xyz
  1  'x, y, z'
loop_
 _atom_site_type_symbol
 _atom_site_label
 _atom_site_symmetry_multiplicity
 _atom_site_fract_x
 _atom_site_fract_y
 _atom_site_fract_z
 _atom_site_occupancy
  Nd  Nd0  1  0.514016  0.514055  0.500064  1
  Nd  Nd1  1  0.485870  0.485885  0.999939  1
  Dy  Dy2  1  0.000621  0.533798  0.245719  1
  Ho  Ho3  1  0.998967  0.466648  0.745771  1
  Ho  Ho4  1  0.533333  0.001006  0.754223  1
  Ho  Ho5  1  0.466733  0.999051  0.254236  1
  Ta  Ta6  1  0.001633  0.001597  0.500120  1
  Ta  Ta7  1  0.998360  0.998401  0.999886  1
  O  O8  1  0.934789  0.065153  0.749998  1
  O  O9  1  0.065223  0.935147  0.249993  1
  O  O10  1  0.357519  0.643967  0.250010  1
  O  O11  1  0.643754  0.356296  0.750009  1
  O  O12  1  0.363077  0.636870  0.750001  1
  O  O13  1  0.635738  0.362567  0.250032  1
  O  O14  1  0.323758  0.073004  0.971729  1
  O  O15  1  0.676281  0.926961  0.471725  1
  O  O16  1  0.315902  0.062099  0.537857  1
  O  O17  1  0.684142  0.937878  0.037861  1
  O  O18  1  0.062372  0.315604  0.462681  1
  O  O19  1  0.937769  0.684226  0.961752  1
  O  O20  1  0.926819  0.676358  0.528669  1
  O  O21  1  0.073325  0.323431  0.027725  1
