# generated using pymatgen
data_Ac6P5Cl
_symmetry_space_group_name_H-M   'P 1'
_cell_length_a   7.67665415
_cell_length_b   7.67012883
_cell_length_c   7.68497705
_cell_angle_alpha   80.50493951
_cell_angle_beta   80.43996733
_cell_angle_gamma   119.99468595
_symmetry_Int_Tables_number   1
_chemical_formula_structural   Ac6P5Cl
_chemical_formula_sum   'Ac6 P5 Cl1'
_cell_volume   369.80293159
_cell_formula_units_Z   1
loop_
 _symmetry_equiv_pos_site_id
 _symmetry_equiv_pos_as_xyz
  1  'x, y, z'
loop_
 _atom_site_type_symbol
 _atom_site_label
 _atom_site_symmetry_multiplicity
 _atom_site_fract_x
 _atom_site_fract_y
 _atom_site_fract_z
 _atom_site_occupancy
  Ac  Ac0  1  0.171286  0.884987  0.472420  1
  Ac  Ac1  1  0.866909  0.232634  0.471442  1
  Ac  Ac2  1  0.345756  0.710988  0.988243  1
  Ac  Ac3  1  0.694236  0.407598  0.988716  1
  Ac  Ac4  1  0.996924  0.059091  0.988165  1
  Ac  Ac5  1  0.518852  0.580249  0.471059  1
  P  P6  1  0.100217  0.478215  0.729768  1
  P  P7  1  0.933546  0.646831  0.230144  1
  P  P8  1  0.268384  0.308738  0.229598  1
  P  P9  1  0.595094  0.982018  0.230175  1
  P  P10  1  0.764114  0.812969  0.729626  1
  Cl  Cl11  1  0.433013  0.147954  0.730193  1
