# generated using pymatgen
data_Tb3Er5(CdPd)2
_symmetry_space_group_name_H-M   'P 1'
_cell_length_a   9.65549169
_cell_length_b   9.65549199
_cell_length_c   9.65549200
_cell_angle_alpha   59.99999997
_cell_angle_beta   59.99999894
_cell_angle_gamma   59.99999637
_symmetry_Int_Tables_number   1
_chemical_formula_structural   Tb3Er5(CdPd)2
_chemical_formula_sum   'Tb6 Er10 Cd4 Pd4'
_cell_volume   636.51434737
_cell_formula_units_Z   2
loop_
 _symmetry_equiv_pos_site_id
 _symmetry_equiv_pos_as_xyz
  1  'x, y, z'
loop_
 _atom_site_type_symbol
 _atom_site_label
 _atom_site_symmetry_multiplicity
 _atom_site_fract_x
 _atom_site_fract_y
 _atom_site_fract_z
 _atom_site_occupancy
  Tb  Tb0  1  0.934668  0.565332  0.565332  1
  Tb  Tb1  1  0.565332  0.934668  0.934668  1
  Tb  Tb2  1  0.565332  0.934668  0.565332  1
  Tb  Tb3  1  0.934668  0.565332  0.934668  1
  Tb  Tb4  1  0.565332  0.565332  0.934668  1
  Tb  Tb5  1  0.934668  0.934668  0.565332  1
  Er  Er6  1  0.353495  0.353495  0.353495  1
  Er  Er7  1  0.353495  0.353495  0.939516  1
  Er  Er8  1  0.353495  0.939516  0.353495  1
  Er  Er9  1  0.939516  0.353495  0.353495  1
  Er  Er10  1  0.810966  0.189034  0.189034  1
  Er  Er11  1  0.189034  0.810966  0.810966  1
  Er  Er12  1  0.189034  0.810966  0.189034  1
  Er  Er13  1  0.810966  0.189034  0.810966  1
  Er  Er14  1  0.189034  0.189034  0.810966  1
  Er  Er15  1  0.810966  0.810966  0.189034  1
  Cd  Cd16  1  0.581828  0.581828  0.581828  1
  Cd  Cd17  1  0.581828  0.581828  0.254515  1
  Cd  Cd18  1  0.581828  0.254515  0.581828  1
  Cd  Cd19  1  0.254515  0.581828  0.581828  1
  Pd  Pd20  1  0.144241  0.144241  0.144241  1
  Pd  Pd21  1  0.144241  0.144241  0.567278  1
  Pd  Pd22  1  0.144241  0.567278  0.144241  1
  Pd  Pd23  1  0.567278  0.144241  0.144241  1
