# generated using pymatgen
data_La20ZnSi10Ge
_symmetry_space_group_name_H-M   'P 1'
_cell_length_a   7.90621200
_cell_length_b   7.90621200
_cell_length_c   14.53922200
_cell_angle_alpha   90.00000000
_cell_angle_beta   90.00000000
_cell_angle_gamma   90.00000000
_symmetry_Int_Tables_number   1
_chemical_formula_structural   La20ZnSi10Ge
_chemical_formula_sum   'La20 Zn1 Si10 Ge1'
_cell_volume   908.82042490
_cell_formula_units_Z   1
loop_
 _symmetry_equiv_pos_site_id
 _symmetry_equiv_pos_as_xyz
  1  'x, y, z'
loop_
 _atom_site_type_symbol
 _atom_site_label
 _atom_site_symmetry_multiplicity
 _atom_site_fract_x
 _atom_site_fract_y
 _atom_site_fract_z
 _atom_site_occupancy
  La  La0  1  0.500000  0.000000  0.777002  1
  La  La1  1  0.330304  0.313586  0.105275  1
  La  La2  1  0.828172  0.815853  0.894630  1
  La  La3  1  0.000000  0.500000  0.226270  1
  La  La4  1  0.826187  0.181056  0.393162  1
  La  La5  1  0.171828  0.184147  0.894630  1
  La  La6  1  0.669696  0.686414  0.105275  1
  La  La7  1  0.000000  0.500000  0.721010  1
  La  La8  1  0.810726  0.835183  0.607430  1
  La  La9  1  0.318944  0.326187  0.393162  1
  La  La10  1  0.186414  0.830304  0.105275  1
  La  La11  1  0.189274  0.164817  0.607430  1
  La  La12  1  0.813586  0.169696  0.105275  1
  La  La13  1  0.335183  0.689274  0.607430  1
  La  La14  1  0.500000  0.000000  0.275831  1
  La  La15  1  0.684147  0.328172  0.894630  1
  La  La16  1  0.664817  0.310726  0.607430  1
  La  La17  1  0.315853  0.671828  0.894630  1
  La  La18  1  0.173813  0.818944  0.393162  1
  La  La19  1  0.681056  0.673813  0.393162  1
  Zn  Zn20  1  0.000000  0.500000  0.502423  1
  Si  Si21  1  0.613485  0.387819  0.248981  1
  Si  Si22  1  0.887634  0.113874  0.751467  1
  Si  Si23  1  0.500000  0.000000  0.494028  1
  Si  Si24  1  0.887819  0.886515  0.248981  1
  Si  Si25  1  0.112366  0.886126  0.751467  1
  Si  Si26  1  0.386126  0.387634  0.751467  1
  Si  Si27  1  0.112181  0.113485  0.248981  1
  Si  Si28  1  0.386515  0.612181  0.248981  1
  Si  Si29  1  0.613874  0.612366  0.751467  1
  Si  Si30  1  0.500000  0.000000  0.994663  1
  Ge  Ge31  1  0.000000  0.500000  0.004981  1
