# generated using pymatgen
data_Er2Lu3Pb4
_symmetry_space_group_name_H-M   'P 1'
_cell_length_a   8.11531300
_cell_length_b   8.17089300
_cell_length_c   15.41166700
_cell_angle_alpha   90.00000000
_cell_angle_beta   90.00000000
_cell_angle_gamma   90.00000000
_symmetry_Int_Tables_number   1
_chemical_formula_structural   Er2Lu3Pb4
_chemical_formula_sum   'Er8 Lu12 Pb16'
_cell_volume   1021.93768568
_cell_formula_units_Z   4
loop_
 _symmetry_equiv_pos_site_id
 _symmetry_equiv_pos_as_xyz
  1  'x, y, z'
loop_
 _atom_site_type_symbol
 _atom_site_label
 _atom_site_symmetry_multiplicity
 _atom_site_fract_x
 _atom_site_fract_y
 _atom_site_fract_z
 _atom_site_occupancy
  Er  Er0  1  0.539173  0.323489  0.900497  1
  Er  Er1  1  0.039173  0.176511  0.599503  1
  Er  Er2  1  0.460827  0.676511  0.400497  1
  Er  Er3  1  0.960827  0.823489  0.099503  1
  Er  Er4  1  0.460827  0.676511  0.099503  1
  Er  Er5  1  0.960827  0.823489  0.400497  1
  Er  Er6  1  0.539173  0.323489  0.599503  1
  Er  Er7  1  0.039173  0.176511  0.900497  1
  Lu  Lu8  1  0.377287  0.842931  0.878199  1
  Lu  Lu9  1  0.877287  0.657069  0.621801  1
  Lu  Lu10  1  0.622713  0.157069  0.378199  1
  Lu  Lu11  1  0.122713  0.342931  0.121801  1
  Lu  Lu12  1  0.622713  0.157069  0.121801  1
  Lu  Lu13  1  0.122713  0.342931  0.378199  1
  Lu  Lu14  1  0.377287  0.842931  0.621801  1
  Lu  Lu15  1  0.877287  0.657069  0.878199  1
  Lu  Lu16  1  0.208926  0.505387  0.750000  1
  Lu  Lu17  1  0.708926  0.994613  0.750000  1
  Lu  Lu18  1  0.791074  0.494613  0.250000  1
  Lu  Lu19  1  0.291074  0.005387  0.250000  1
  Pb  Pb20  1  0.281283  0.033750  0.042709  1
  Pb  Pb21  1  0.781283  0.466250  0.457291  1
  Pb  Pb22  1  0.718717  0.966250  0.542709  1
  Pb  Pb23  1  0.218717  0.533750  0.957291  1
  Pb  Pb24  1  0.718717  0.966250  0.957291  1
  Pb  Pb25  1  0.218717  0.533750  0.542709  1
  Pb  Pb26  1  0.281283  0.033750  0.457291  1
  Pb  Pb27  1  0.781283  0.466250  0.042709  1
  Pb  Pb28  1  0.571090  0.628158  0.750000  1
  Pb  Pb29  1  0.071090  0.871842  0.750000  1
  Pb  Pb30  1  0.428910  0.371842  0.250000  1
  Pb  Pb31  1  0.928910  0.128158  0.250000  1
  Pb  Pb32  1  0.349766  0.155905  0.750000  1
  Pb  Pb33  1  0.849766  0.344095  0.750000  1
  Pb  Pb34  1  0.650234  0.844095  0.250000  1
  Pb  Pb35  1  0.150234  0.655905  0.250000  1
