# generated using pymatgen
data_SrVSbAs2O7
_symmetry_space_group_name_H-M   'P 1'
_cell_length_a   13.12718001
_cell_length_b   13.12717975
_cell_length_c   13.12717941
_cell_angle_alpha   100.50742247
_cell_angle_beta   100.50742346
_cell_angle_gamma   129.44031919
_symmetry_Int_Tables_number   1
_chemical_formula_structural   SrVSbAs2O7
_chemical_formula_sum   'Sr8 V8 Sb8 As16 O56'
_cell_volume   1579.69469447
_cell_formula_units_Z   8
loop_
 _symmetry_equiv_pos_site_id
 _symmetry_equiv_pos_as_xyz
  1  'x, y, z'
loop_
 _atom_site_type_symbol
 _atom_site_label
 _atom_site_symmetry_multiplicity
 _atom_site_fract_x
 _atom_site_fract_y
 _atom_site_fract_z
 _atom_site_occupancy
  Sr  Sr0  1  0.795665  0.455249  0.957693  1
  Sr  Sr1  1  0.705249  0.247556  0.159584  1
  Sr  Sr2  1  0.162028  0.204335  0.659584  1
  Sr  Sr3  1  0.544751  0.502444  0.340416  1
  Sr  Sr4  1  0.454335  0.294751  0.542307  1
  Sr  Sr5  1  0.752444  0.912028  0.457693  1
  Sr  Sr6  1  0.087972  0.545665  0.840416  1
  Sr  Sr7  1  0.497556  0.837972  0.042307  1
  V  V8  1  0.353669  0.101309  0.729008  1
  V  V9  1  0.372300  0.624661  0.270992  1
  V  V10  1  0.375339  0.646331  0.747640  1
  V  V11  1  0.351309  0.122300  0.247640  1
  V  V12  1  0.874661  0.103669  0.752360  1
  V  V13  1  0.896331  0.648691  0.770992  1
  V  V14  1  0.898691  0.627700  0.252360  1
  V  V15  1  0.877700  0.125339  0.229008  1
  Sb  Sb16  1  0.946097  0.795569  0.496989  1
  Sb  Sb17  1  0.298580  0.449109  0.503011  1
  Sb  Sb18  1  0.303903  0.954431  0.003011  1
  Sb  Sb19  1  0.550891  0.053903  0.849471  1
  Sb  Sb20  1  0.951420  0.300891  0.996989  1
  Sb  Sb21  1  0.699109  0.696097  0.650529  1
  Sb  Sb22  1  0.204431  0.701420  0.150529  1
  Sb  Sb23  1  0.045569  0.048580  0.349471  1
  As  As24  1  0.267136  0.933365  0.435124  1
  As  As25  1  0.530291  0.364473  0.041577  1
  As  As26  1  0.927103  0.261286  0.541577  1
  As  As27  1  0.082013  0.017136  0.833771  1
  As  As28  1  0.738714  0.280291  0.665818  1
  As  As29  1  0.498242  0.832013  0.564876  1
  As  As30  1  0.066635  0.501758  0.333771  1
  As  As31  1  0.511286  0.469709  0.834182  1
  As  As32  1  0.183365  0.248242  0.166229  1
  As  As33  1  0.751758  0.917987  0.935124  1
  As  As34  1  0.719709  0.385527  0.458423  1
  As  As35  1  0.614473  0.072897  0.334182  1
  As  As36  1  0.982864  0.816635  0.064876  1
  As  As37  1  0.322897  0.488714  0.958423  1
  As  As38  1  0.635527  0.677103  0.165818  1
  As  As39  1  0.167987  0.732864  0.666229  1
  O  O40  1  0.575888  0.697619  0.271065  1
  O  O41  1  0.732055  0.098180  0.457741  1
  O  O42  1  0.303309  0.461964  0.659889  1
  O  O43  1  0.763139  0.998893  0.070787  1
  O  O44  1  0.711964  0.552075  0.658655  1
  O  O45  1  0.356580  0.696691  0.158655  1
  O  O46  1  0.075711  0.816517  0.391429  1
  O  O47  1  0.321894  0.057647  0.570787  1
  O  O48  1  0.753835  0.731947  0.519201  1
  O  O49  1  0.942353  0.513139  0.264247  1
  O  O50  1  0.268053  0.787254  0.021888  1
  O  O51  1  0.001107  0.071894  0.764247  1
  O  O52  1  0.517945  0.651820  0.042259  1
  O  O53  1  0.893420  0.053309  0.341345  1
  O  O54  1  0.554824  0.325888  0.378269  1
  O  O55  1  0.688488  0.939315  0.632317  1
  O  O56  1  0.609562  0.475686  0.957741  1
  O  O57  1  0.824911  0.065717  0.891429  1
  O  O58  1  0.695176  0.424112  0.121731  1
  O  O59  1  0.674112  0.052381  0.228935  1
  O  O60  1  0.183483  0.574911  0.259194  1
  O  O61  1  0.640438  0.274314  0.542259  1
  O  O62  1  0.486861  0.751107  0.429213  1
  O  O63  1  0.823446  0.445176  0.771065  1
  O  O64  1  0.943002  0.693829  0.132317  1
  O  O65  1  0.981947  0.962746  0.478112  1
  O  O66  1  0.212746  0.234634  0.480799  1
  O  O67  1  0.189315  0.056998  0.750828  1
  O  O68  1  0.765366  0.246165  0.978112  1
  O  O69  1  0.524314  0.482055  0.133875  1
  O  O70  1  0.496165  0.018053  0.980799  1
  O  O71  1  0.066517  0.175089  0.240806  1
  O  O72  1  0.060685  0.693002  0.749172  1
  O  O73  1  0.348180  0.390438  0.866125  1
  O  O74  1  0.248893  0.678106  0.735753  1
  O  O75  1  0.315717  0.924289  0.740806  1
  O  O76  1  0.946691  0.288036  0.840111  1
  O  O77  1  0.943829  0.311512  0.250828  1
  O  O78  1  0.306171  0.438488  0.249172  1
  O  O79  1  0.447925  0.106580  0.159889  1
  O  O80  1  0.174289  0.933483  0.108571  1
  O  O81  1  0.802075  0.643420  0.340111  1
  O  O82  1  0.484634  0.503835  0.521888  1
  O  O83  1  0.934283  0.825711  0.759194  1
  O  O84  1  0.561512  0.810685  0.867683  1
  O  O85  1  0.426554  0.304824  0.728935  1
  O  O86  1  0.306998  0.056171  0.367683  1
  O  O87  1  0.901820  0.359562  0.633875  1
  O  O88  1  0.928106  0.692353  0.929213  1
  O  O89  1  0.425089  0.684283  0.608571  1
  O  O90  1  0.947619  0.176554  0.621731  1
  O  O91  1  0.302381  0.573446  0.878269  1
  O  O92  1  0.538036  0.197925  0.841345  1
  O  O93  1  0.725686  0.267945  0.366125  1
  O  O94  1  0.037254  0.515366  0.019201  1
  O  O95  1  0.307647  0.236861  0.235753  1
