# generated using pymatgen
data_Tm3Cd2Ga3Ag
_symmetry_space_group_name_H-M   'P 1'
_cell_length_a   7.07542200
_cell_length_b   7.13735054
_cell_length_c   4.40262800
_cell_angle_alpha   90.00000000
_cell_angle_beta   90.00000000
_cell_angle_gamma   119.71339026
_symmetry_Int_Tables_number   1
_chemical_formula_structural   Tm3Cd2Ga3Ag
_chemical_formula_sum   'Tm3 Cd2 Ga3 Ag1'
_cell_volume   193.09856191
_cell_formula_units_Z   1
loop_
 _symmetry_equiv_pos_site_id
 _symmetry_equiv_pos_as_xyz
  1  'x, y, z'
loop_
 _atom_site_type_symbol
 _atom_site_label
 _atom_site_symmetry_multiplicity
 _atom_site_fract_x
 _atom_site_fract_y
 _atom_site_fract_z
 _atom_site_occupancy
  Tm  Tm0  1  0.999541  0.575686  0.000000  1
  Tm  Tm1  1  0.423855  0.424314  0.000000  1
  Tm  Tm2  1  0.569403  0.000000  0.000000  1
  Cd  Cd3  1  0.003223  0.245908  0.500000  1
  Cd  Cd4  1  0.757315  0.754092  0.500000  1
  Ga  Ga5  1  0.660304  0.328199  0.500000  1
  Ga  Ga6  1  0.332104  0.671801  0.500000  1
  Ga  Ga7  1  0.007683  0.000000  0.000000  1
  Ag  Ag8  1  0.246575  0.000000  0.500000  1
