# generated using pymatgen
data_Sc6Ti4Al12Co5IrRu
_symmetry_space_group_name_H-M   'P 1'
_cell_length_a   8.60673052
_cell_length_b   8.60673012
_cell_length_c   8.60673100
_cell_angle_alpha   60.00000814
_cell_angle_beta   60.00000968
_cell_angle_gamma   60.00000047
_symmetry_Int_Tables_number   1
_chemical_formula_structural   Sc6Ti4Al12Co5IrRu
_chemical_formula_sum   'Sc6 Ti4 Al12 Co5 Ir1 Ru1'
_cell_volume   450.81637427
_cell_formula_units_Z   1
loop_
 _symmetry_equiv_pos_site_id
 _symmetry_equiv_pos_as_xyz
  1  'x, y, z'
loop_
 _atom_site_type_symbol
 _atom_site_label
 _atom_site_symmetry_multiplicity
 _atom_site_fract_x
 _atom_site_fract_y
 _atom_site_fract_z
 _atom_site_occupancy
  Sc  Sc0  1  0.704320  0.706332  0.293666  1
  Sc  Sc1  1  0.295682  0.706332  0.293666  1
  Sc  Sc2  1  0.705458  0.294542  0.294542  1
  Sc  Sc3  1  0.295682  0.293666  0.706332  1
  Sc  Sc4  1  0.704320  0.293666  0.706332  1
  Sc  Sc5  1  0.294019  0.705981  0.705981  1
  Ti  Ti6  1  0.879555  0.877666  0.363223  1
  Ti  Ti7  1  0.879555  0.363223  0.877666  1
  Ti  Ti8  1  0.363205  0.877322  0.877322  1
  Ti  Ti9  1  0.882151  0.877322  0.877322  1
  Al  Al10  1  0.120719  0.122348  0.636213  1
  Al  Al11  1  0.120719  0.636213  0.122348  1
  Al  Al12  1  0.636444  0.122614  0.122614  1
  Al  Al13  1  0.118327  0.122614  0.122614  1
  Al  Al14  1  0.669145  0.660749  0.000962  1
  Al  Al15  1  0.669145  0.000962  0.660749  1
  Al  Al16  1  0.003158  0.665128  0.665128  1
  Al  Al17  1  0.666588  0.665128  0.665128  1
  Al  Al18  1  0.330216  0.338771  0.000796  1
  Al  Al19  1  0.330216  0.000796  0.338771  1
  Al  Al20  1  0.997384  0.334410  0.334410  1
  Al  Al21  1  0.333794  0.334410  0.334410  1
  Co  Co22  1  0.997388  0.996851  0.502652  1
  Co  Co23  1  0.503109  0.996851  0.502652  1
  Co  Co24  1  0.997199  0.502801  0.502801  1
  Co  Co25  1  0.503109  0.502652  0.996851  1
  Co  Co26  1  0.997388  0.502652  0.996851  1
  Ir  Ir27  1  0.000266  0.999734  0.999734  1
  Ru  Ru28  1  0.501735  0.998265  0.998265  1
