# generated using pymatgen
data_LuMgZnCu3
_symmetry_space_group_name_H-M   'P 1'
_cell_length_a   5.08749167
_cell_length_b   5.08749154
_cell_length_c   5.08749310
_cell_angle_alpha   60.64432915
_cell_angle_beta   60.64432729
_cell_angle_gamma   60.64433909
_symmetry_Int_Tables_number   1
_chemical_formula_structural   LuMgZnCu3
_chemical_formula_sum   'Lu1 Mg1 Zn1 Cu3'
_cell_volume   94.46455028
_cell_formula_units_Z   1
loop_
 _symmetry_equiv_pos_site_id
 _symmetry_equiv_pos_as_xyz
  1  'x, y, z'
loop_
 _atom_site_type_symbol
 _atom_site_label
 _atom_site_symmetry_multiplicity
 _atom_site_fract_x
 _atom_site_fract_y
 _atom_site_fract_z
 _atom_site_occupancy
  Lu  Lu0  1  0.751061  0.751061  0.751061  1
  Mg  Mg1  1  0.000067  0.000067  0.000067  1
  Zn  Zn2  1  0.373924  0.373924  0.373924  1
  Cu  Cu3  1  0.877104  0.373922  0.373922  1
  Cu  Cu4  1  0.373922  0.877104  0.373922  1
  Cu  Cu5  1  0.373922  0.373922  0.877104  1
