# generated using pymatgen
data_LiCe3In3IrRh
_symmetry_space_group_name_H-M   'P 1'
_cell_length_a   7.73303300
_cell_length_b   7.73303273
_cell_length_c   3.90056200
_cell_angle_alpha   90.00000000
_cell_angle_beta   90.00000000
_cell_angle_gamma   119.99999689
_symmetry_Int_Tables_number   1
_chemical_formula_structural   LiCe3In3IrRh
_chemical_formula_sum   'Li1 Ce3 In3 Ir1 Rh1'
_cell_volume   202.00287122
_cell_formula_units_Z   1
loop_
 _symmetry_equiv_pos_site_id
 _symmetry_equiv_pos_as_xyz
  1  'x, y, z'
loop_
 _atom_site_type_symbol
 _atom_site_label
 _atom_site_symmetry_multiplicity
 _atom_site_fract_x
 _atom_site_fract_y
 _atom_site_fract_z
 _atom_site_occupancy
  Li  Li0  1  0.000000  0.000000  0.000000  1
  Ce  Ce1  1  0.423066  0.421926  0.000000  1
  Ce  Ce2  1  0.578074  0.001140  0.000000  1
  Ce  Ce3  1  0.998860  0.576934  0.000000  1
  In  In4  1  0.000227  0.248463  0.500000  1
  In  In5  1  0.751537  0.751764  0.500000  1
  In  In6  1  0.248236  0.999773  0.500000  1
  Ir  Ir7  1  0.666667  0.333333  0.500000  1
  Rh  Rh8  1  0.333333  0.666667  0.500000  1
