# generated using pymatgen
data_DyEr3Al16(GeIr3)2
_symmetry_space_group_name_H-M   'P 1'
_cell_length_a   7.54711876
_cell_length_b   7.54687521
_cell_length_c   9.42112500
_cell_angle_alpha   90.00000000
_cell_angle_beta   90.00000000
_cell_angle_gamma   119.69970383
_symmetry_Int_Tables_number   1
_chemical_formula_structural   DyEr3Al16(GeIr3)2
_chemical_formula_sum   'Dy1 Er3 Al16 Ge2 Ir6'
_cell_volume   466.10952826
_cell_formula_units_Z   1
loop_
 _symmetry_equiv_pos_site_id
 _symmetry_equiv_pos_as_xyz
  1  'x, y, z'
loop_
 _atom_site_type_symbol
 _atom_site_label
 _atom_site_symmetry_multiplicity
 _atom_site_fract_x
 _atom_site_fract_y
 _atom_site_fract_z
 _atom_site_occupancy
  Dy  Dy0  1  0.324288  0.004509  0.250000  1
  Er  Er1  1  0.995503  0.675884  0.750000  1
  Er  Er2  1  0.004412  0.324132  0.250000  1
  Er  Er3  1  0.675951  0.995509  0.750000  1
  Al  Al4  1  0.000213  0.337317  0.574189  1
  Al  Al5  1  0.999475  0.662361  0.426018  1
  Al  Al6  1  0.999475  0.662361  0.073982  1
  Al  Al7  1  0.337334  0.000220  0.925530  1
  Al  Al8  1  0.000213  0.337317  0.925811  1
  Al  Al9  1  0.662953  0.999753  0.074013  1
  Al  Al10  1  0.662953  0.999753  0.425987  1
  Al  Al11  1  0.337334  0.000220  0.574470  1
  Al  Al12  1  0.335401  0.335702  0.059051  1
  Al  Al13  1  0.664593  0.664605  0.940665  1
  Al  Al14  1  0.664593  0.664605  0.559335  1
  Al  Al15  1  0.335401  0.335702  0.440949  1
  Al  Al16  1  0.336047  0.553264  0.750000  1
  Al  Al17  1  0.664248  0.447121  0.250000  1
  Al  Al18  1  0.553281  0.336097  0.750000  1
  Al  Al19  1  0.446848  0.663759  0.250000  1
  Ge  Ge20  1  0.134177  0.134227  0.750000  1
  Ge  Ge21  1  0.865548  0.865716  0.250000  1
  Ir  Ir22  1  0.671323  0.328871  0.500124  1
  Ir  Ir23  1  0.328758  0.671099  0.500108  1
  Ir  Ir24  1  0.328758  0.671099  0.999892  1
  Ir  Ir25  1  0.671323  0.328871  0.999876  1
  Ir  Ir26  1  0.999799  0.999962  0.500156  1
  Ir  Ir27  1  0.999799  0.999962  0.999844  1
