# generated using pymatgen
data_Nd3Ga6NiPd8
_symmetry_space_group_name_H-M   'P 1'
_cell_length_a   9.42577401
_cell_length_b   9.24670162
_cell_length_c   4.37052200
_cell_angle_alpha   90.00000000
_cell_angle_beta   90.00000000
_cell_angle_gamma   119.63663691
_symmetry_Int_Tables_number   1
_chemical_formula_structural   Nd3Ga6NiPd8
_chemical_formula_sum   'Nd3 Ga6 Ni1 Pd8'
_cell_volume   331.09022308
_cell_formula_units_Z   1
loop_
 _symmetry_equiv_pos_site_id
 _symmetry_equiv_pos_as_xyz
  1  'x, y, z'
loop_
 _atom_site_type_symbol
 _atom_site_label
 _atom_site_symmetry_multiplicity
 _atom_site_fract_x
 _atom_site_fract_y
 _atom_site_fract_z
 _atom_site_occupancy
  Nd  Nd0  1  0.335073  0.668837  0.500000  1
  Nd  Nd1  1  0.655710  0.328061  0.500000  1
  Nd  Nd2  1  0.001822  0.003751  0.000000  1
  Ga  Ga3  1  0.463396  0.010103  0.000000  1
  Ga  Ga4  1  0.003792  0.464105  0.000000  1
  Ga  Ga5  1  0.535568  0.524761  0.000000  1
  Ga  Ga6  1  0.731003  0.999274  0.500000  1
  Ga  Ga7  1  0.001189  0.733901  0.500000  1
  Ga  Ga8  1  0.277962  0.273339  0.500000  1
  Ni  Ni9  1  0.381900  0.217693  0.000000  1
  Pd  Pd10  1  0.226153  0.391107  0.000000  1
  Pd  Pd11  1  0.603734  0.826264  0.000000  1
  Pd  Pd12  1  0.171888  0.780585  0.000000  1
  Pd  Pd13  1  0.831812  0.607493  0.000000  1
  Pd  Pd14  1  0.776368  0.171482  0.000000  1
  Pd  Pd15  1  0.289018  0.006221  0.500000  1
  Pd  Pd16  1  0.002432  0.283720  0.500000  1
  Pd  Pd17  1  0.711181  0.709304  0.500000  1
