# generated using pymatgen
data_Eu(GePd)2
_symmetry_space_group_name_H-M   'P 1'
_cell_length_a   6.08130663
_cell_length_b   6.08130651
_cell_length_c   6.08130593
_cell_angle_alpha   137.71895924
_cell_angle_beta   137.71895978
_cell_angle_gamma   61.33369414
_symmetry_Int_Tables_number   1
_chemical_formula_structural   Eu(GePd)2
_chemical_formula_sum   'Eu1 Ge2 Pd2'
_cell_volume   100.64939096
_cell_formula_units_Z   1
loop_
 _symmetry_equiv_pos_site_id
 _symmetry_equiv_pos_as_xyz
  1  'x, y, z'
loop_
 _atom_site_type_symbol
 _atom_site_label
 _atom_site_symmetry_multiplicity
 _atom_site_fract_x
 _atom_site_fract_y
 _atom_site_fract_z
 _atom_site_occupancy
  Eu  Eu0  1  0.000000  0.000000  0.000000  1
  Ge  Ge1  1  0.625026  0.625026  0.000000  1
  Ge  Ge2  1  0.374974  0.374974  0.000000  1
  Pd  Pd3  1  0.250000  0.750000  0.500000  1
  Pd  Pd4  1  0.750000  0.250000  0.500000  1
