# generated using pymatgen
data_Zn15Cu11
_symmetry_space_group_name_H-M   'P 1'
_cell_length_a   7.66805068
_cell_length_b   7.66024990
_cell_length_c   7.66024964
_cell_angle_alpha   109.45058668
_cell_angle_beta   109.49184859
_cell_angle_gamma   109.49185077
_symmetry_Int_Tables_number   1
_chemical_formula_structural   Zn15Cu11
_chemical_formula_sum   'Zn15 Cu11'
_cell_volume   346.28868278
_cell_formula_units_Z   1
loop_
 _symmetry_equiv_pos_site_id
 _symmetry_equiv_pos_as_xyz
  1  'x, y, z'
loop_
 _atom_site_type_symbol
 _atom_site_label
 _atom_site_symmetry_multiplicity
 _atom_site_fract_x
 _atom_site_fract_y
 _atom_site_fract_z
 _atom_site_occupancy
  Zn  Zn0  1  0.002957  0.215955  0.000000  1
  Zn  Zn1  1  0.002957  0.000000  0.215955  1
  Zn  Zn2  1  0.787002  0.784045  0.784045  1
  Zn  Zn3  1  0.346367  0.726448  0.000000  1
  Zn  Zn4  1  0.619919  0.273552  0.273552  1
  Zn  Zn5  1  0.346367  0.000000  0.726448  1
  Zn  Zn6  1  0.722619  0.347907  0.000000  1
  Zn  Zn7  1  0.999717  0.347386  0.721278  1
  Zn  Zn8  1  0.278439  0.626109  0.278722  1
  Zn  Zn9  1  0.278439  0.278722  0.626109  1
  Zn  Zn10  1  0.999717  0.721278  0.347386  1
  Zn  Zn11  1  0.722619  0.000000  0.347907  1
  Zn  Zn12  1  0.652330  0.652614  0.373891  1
  Zn  Zn13  1  0.374712  0.652093  0.652093  1
  Zn  Zn14  1  0.652330  0.373891  0.652614  1
  Cu  Cu15  1  0.217961  0.000000  0.000000  1
  Cu  Cu16  1  0.655065  0.000000  0.000000  1
  Cu  Cu17  1  0.999588  0.654693  0.000000  1
  Cu  Cu18  1  0.999588  0.000000  0.654693  1
  Cu  Cu19  1  0.344895  0.345307  0.345307  1
  Cu  Cu20  1  0.000169  0.643748  0.643748  1
  Cu  Cu21  1  0.356421  0.000000  0.356252  1
  Cu  Cu22  1  0.356421  0.356252  0.000000  1
  Cu  Cu23  1  0.998030  0.355344  0.355344  1
  Cu  Cu24  1  0.642686  0.000000  0.644656  1
  Cu  Cu25  1  0.642686  0.644656  0.000000  1
