# generated using pymatgen
data_Ti7V5(ZnSn4)2
_symmetry_space_group_name_H-M   'P 1'
_cell_length_a   9.10978600
_cell_length_b   9.08017915
_cell_length_c   5.48468409
_cell_angle_alpha   90.01425286
_cell_angle_beta   90.00000000
_cell_angle_gamma   120.10791857
_symmetry_Int_Tables_number   1
_chemical_formula_structural   Ti7V5(ZnSn4)2
_chemical_formula_sum   'Ti7 V5 Zn2 Sn8'
_cell_volume   392.47456645
_cell_formula_units_Z   1
loop_
 _symmetry_equiv_pos_site_id
 _symmetry_equiv_pos_as_xyz
  1  'x, y, z'
loop_
 _atom_site_type_symbol
 _atom_site_label
 _atom_site_symmetry_multiplicity
 _atom_site_fract_x
 _atom_site_fract_y
 _atom_site_fract_z
 _atom_site_occupancy
  Ti  Ti0  1  0.846443  0.692887  0.748559  1
  Ti  Ti1  1  0.149174  0.843889  0.250373  1
  Ti  Ti2  1  0.694715  0.843889  0.250373  1
  Ti  Ti3  1  0.305285  0.156111  0.749627  1
  Ti  Ti4  1  0.850826  0.156111  0.749627  1
  Ti  Ti5  1  0.153557  0.307113  0.251441  1
  Ti  Ti6  1  0.500000  0.000000  0.000000  1
  V  V7  1  0.500000  0.000000  0.500000  1
  V  V8  1  0.500000  0.500000  0.000000  1
  V  V9  1  0.000000  0.500000  0.000000  1
  V  V10  1  0.000000  0.500000  0.500000  1
  V  V11  1  0.500000  0.500000  0.500000  1
  Zn  Zn12  1  0.000000  0.000000  0.500000  1
  Zn  Zn13  1  0.000000  0.000000  0.000000  1
  Sn  Sn14  1  0.203430  0.406862  0.751326  1
  Sn  Sn15  1  0.800839  0.201299  0.252309  1
  Sn  Sn16  1  0.400461  0.201299  0.252309  1
  Sn  Sn17  1  0.599539  0.798701  0.747691  1
  Sn  Sn18  1  0.199161  0.798701  0.747691  1
  Sn  Sn19  1  0.796570  0.593138  0.248674  1
  Sn  Sn20  1  0.667287  0.334574  0.745239  1
  Sn  Sn21  1  0.332713  0.665426  0.254761  1
