# generated using pymatgen
data_Li2AcDyPb2
_symmetry_space_group_name_H-M   'P 1'
_cell_length_a   4.87103600
_cell_length_b   7.98069395
_cell_length_c   8.41670846
_cell_angle_alpha   89.87448078
_cell_angle_beta   90.00000000
_cell_angle_gamma   90.00000000
_symmetry_Int_Tables_number   1
_chemical_formula_structural   Li2AcDyPb2
_chemical_formula_sum   'Li4 Ac2 Dy2 Pb4'
_cell_volume   327.19242282
_cell_formula_units_Z   2
loop_
 _symmetry_equiv_pos_site_id
 _symmetry_equiv_pos_as_xyz
  1  'x, y, z'
loop_
 _atom_site_type_symbol
 _atom_site_label
 _atom_site_symmetry_multiplicity
 _atom_site_fract_x
 _atom_site_fract_y
 _atom_site_fract_z
 _atom_site_occupancy
  Li  Li0  1  0.750000  0.191227  0.416154  1
  Li  Li1  1  0.250000  0.177714  0.917389  1
  Li  Li2  1  0.750000  0.822286  0.082611  1
  Li  Li3  1  0.250000  0.808773  0.583846  1
  Ac  Ac4  1  0.250000  0.500473  0.248311  1
  Ac  Ac5  1  0.750000  0.499527  0.751689  1
  Dy  Dy6  1  0.250000  0.000323  0.253185  1
  Dy  Dy7  1  0.750000  0.999677  0.746815  1
  Pb  Pb8  1  0.250000  0.225586  0.584205  1
  Pb  Pb9  1  0.750000  0.223568  0.083213  1
  Pb  Pb10  1  0.250000  0.776432  0.916787  1
  Pb  Pb11  1  0.750000  0.774414  0.415795  1
