# generated using pymatgen
data_LuNp3O10
_symmetry_space_group_name_H-M   'P 1'
_cell_length_a   5.67415532
_cell_length_b   5.69515860
_cell_length_c   7.80310433
_cell_angle_alpha   69.70620618
_cell_angle_beta   70.93329748
_cell_angle_gamma   72.98697832
_symmetry_Int_Tables_number   1
_chemical_formula_structural   LuNp3O10
_chemical_formula_sum   'Lu1 Np3 O10'
_cell_volume   218.91204663
_cell_formula_units_Z   1
loop_
 _symmetry_equiv_pos_site_id
 _symmetry_equiv_pos_as_xyz
  1  'x, y, z'
loop_
 _atom_site_type_symbol
 _atom_site_label
 _atom_site_symmetry_multiplicity
 _atom_site_fract_x
 _atom_site_fract_y
 _atom_site_fract_z
 _atom_site_occupancy
  Lu  Lu0  1  0.500000  0.500000  0.500000  1
  Np  Np1  1  0.964349  0.028457  0.267483  1
  Np  Np2  1  0.500000  0.500000  0.000000  1
  Np  Np3  1  0.035651  0.971543  0.732517  1
  O  O4  1  0.397100  0.595247  0.763259  1
  O  O5  1  0.261596  0.198170  0.629640  1
  O  O6  1  0.738404  0.801830  0.370360  1
  O  O7  1  0.193500  0.255854  0.149125  1
  O  O8  1  0.602900  0.404753  0.236741  1
  O  O9  1  0.806500  0.744146  0.850875  1
  O  O10  1  0.218234  0.799290  0.046946  1
  O  O11  1  0.822022  0.192472  0.532042  1
  O  O12  1  0.781766  0.200710  0.953054  1
  O  O13  1  0.177978  0.807528  0.467958  1
