# generated using pymatgen
data_Zr2FeP2Rh
_symmetry_space_group_name_H-M   'P 1'
_cell_length_a   3.77553500
_cell_length_b   6.45457085
_cell_length_c   7.28434037
_cell_angle_alpha   89.20172076
_cell_angle_beta   90.00000000
_cell_angle_gamma   90.00000000
_symmetry_Int_Tables_number   1
_chemical_formula_structural   Zr2FeP2Rh
_chemical_formula_sum   'Zr4 Fe2 P4 Rh2'
_cell_volume   177.49819859
_cell_formula_units_Z   2
loop_
 _symmetry_equiv_pos_site_id
 _symmetry_equiv_pos_as_xyz
  1  'x, y, z'
loop_
 _atom_site_type_symbol
 _atom_site_label
 _atom_site_symmetry_multiplicity
 _atom_site_fract_x
 _atom_site_fract_y
 _atom_site_fract_z
 _atom_site_occupancy
  Zr  Zr0  1  0.250000  0.524321  0.686625  1
  Zr  Zr1  1  0.750000  0.475679  0.313375  1
  Zr  Zr2  1  0.250000  0.017265  0.823083  1
  Zr  Zr3  1  0.750000  0.982735  0.176917  1
  Fe  Fe4  1  0.750000  0.359881  0.942756  1
  Fe  Fe5  1  0.250000  0.640119  0.057244  1
  P  P6  1  0.250000  0.283697  0.100302  1
  P  P7  1  0.750000  0.716303  0.899698  1
  P  P8  1  0.250000  0.762656  0.363732  1
  P  P9  1  0.750000  0.237344  0.636268  1
  Rh  Rh10  1  0.750000  0.849610  0.562878  1
  Rh  Rh11  1  0.250000  0.150390  0.437122  1
