# generated using pymatgen
data_Tm3ZrZn2Ir3
_symmetry_space_group_name_H-M   'P 1'
_cell_length_a   7.12232749
_cell_length_b   7.05032018
_cell_length_c   4.09547100
_cell_angle_alpha   90.00000000
_cell_angle_beta   90.00000000
_cell_angle_gamma   119.66613288
_symmetry_Int_Tables_number   1
_chemical_formula_structural   Tm3ZrZn2Ir3
_chemical_formula_sum   'Tm3 Zr1 Zn2 Ir3'
_cell_volume   178.69670289
_cell_formula_units_Z   1
loop_
 _symmetry_equiv_pos_site_id
 _symmetry_equiv_pos_as_xyz
  1  'x, y, z'
loop_
 _atom_site_type_symbol
 _atom_site_label
 _atom_site_symmetry_multiplicity
 _atom_site_fract_x
 _atom_site_fract_y
 _atom_site_fract_z
 _atom_site_occupancy
  Tm  Tm0  1  0.000000  0.387918  0.500000  1
  Tm  Tm1  1  0.568580  0.582664  0.500000  1
  Tm  Tm2  1  0.431420  0.014084  0.500000  1
  Zr  Zr3  1  0.000000  0.759877  0.000000  1
  Zn  Zn4  1  0.250846  0.250251  0.000000  1
  Zn  Zn5  1  0.749154  0.999405  0.000000  1
  Ir  Ir6  1  0.328075  0.671057  0.000000  1
  Ir  Ir7  1  0.671925  0.342981  0.000000  1
  Ir  Ir8  1  0.000000  0.991765  0.500000  1
