# generated using pymatgen
data_Nd12Ga4Ge4RuRh7
_symmetry_space_group_name_H-M   'P 1'
_cell_length_a   5.73778390
_cell_length_b   8.16339379
_cell_length_c   13.53237293
_cell_angle_alpha   89.79375931
_cell_angle_beta   90.24694107
_cell_angle_gamma   90.18494525
_symmetry_Int_Tables_number   1
_chemical_formula_structural   Nd12Ga4Ge4RuRh7
_chemical_formula_sum   'Nd12 Ga4 Ge4 Ru1 Rh7'
_cell_volume   633.84023571
_cell_formula_units_Z   1
loop_
 _symmetry_equiv_pos_site_id
 _symmetry_equiv_pos_as_xyz
  1  'x, y, z'
loop_
 _atom_site_type_symbol
 _atom_site_label
 _atom_site_symmetry_multiplicity
 _atom_site_fract_x
 _atom_site_fract_y
 _atom_site_fract_z
 _atom_site_occupancy
  Nd  Nd0  1  0.635486  0.252281  0.249275  1
  Nd  Nd1  1  0.362987  0.747339  0.750076  1
  Nd  Nd2  1  0.363638  0.755356  0.248185  1
  Nd  Nd3  1  0.639132  0.246172  0.750750  1
  Nd  Nd4  1  0.149188  0.394379  0.100089  1
  Nd  Nd5  1  0.850623  0.603528  0.900257  1
  Nd  Nd6  1  0.850945  0.603308  0.600037  1
  Nd  Nd7  1  0.850518  0.896218  0.400392  1
  Nd  Nd8  1  0.148025  0.396751  0.399872  1
  Nd  Nd9  1  0.149389  0.104123  0.599949  1
  Nd  Nd10  1  0.151157  0.103287  0.901622  1
  Nd  Nd11  1  0.850050  0.900630  0.100265  1
  Ga  Ga12  1  0.631595  0.248917  0.000276  1
  Ga  Ga13  1  0.365888  0.750027  0.000768  1
  Ga  Ga14  1  0.364450  0.749786  0.500005  1
  Ga  Ga15  1  0.635528  0.250288  0.500141  1
  Ge  Ge16  1  0.138456  0.109392  0.250647  1
  Ge  Ge17  1  0.864022  0.889903  0.749418  1
  Ge  Ge18  1  0.861859  0.609421  0.249881  1
  Ge  Ge19  1  0.139592  0.390246  0.750054  1
  Ru  Ru20  1  0.363344  0.028616  0.091916  1
  Rh  Rh21  1  0.632916  0.967825  0.905701  1
  Rh  Rh22  1  0.631966  0.969660  0.592974  1
  Rh  Rh23  1  0.631190  0.531204  0.407219  1
  Rh  Rh24  1  0.367378  0.030153  0.407788  1
  Rh  Rh25  1  0.369261  0.469703  0.592862  1
  Rh  Rh26  1  0.368227  0.472228  0.906711  1
  Rh  Rh27  1  0.633189  0.529259  0.092867  1
