# generated using pymatgen
data_TbDy2Tm3Ru2
_symmetry_space_group_name_H-M   'P 1'
_cell_length_a   6.29618585
_cell_length_b   7.29514300
_cell_length_c   9.13624300
_cell_angle_alpha   90.00000000
_cell_angle_beta   90.20638111
_cell_angle_gamma   90.00000000
_symmetry_Int_Tables_number   1
_chemical_formula_structural   TbDy2Tm3Ru2
_chemical_formula_sum   'Tb2 Dy4 Tm6 Ru4'
_cell_volume   419.63931824
_cell_formula_units_Z   2
loop_
 _symmetry_equiv_pos_site_id
 _symmetry_equiv_pos_as_xyz
  1  'x, y, z'
loop_
 _atom_site_type_symbol
 _atom_site_label
 _atom_site_symmetry_multiplicity
 _atom_site_fract_x
 _atom_site_fract_y
 _atom_site_fract_z
 _atom_site_occupancy
  Tb  Tb0  1  0.132684  0.459849  0.749913  1
  Tb  Tb1  1  0.367316  0.959849  0.750087  1
  Dy  Dy2  1  0.330624  0.676977  0.064834  1
  Dy  Dy3  1  0.169376  0.176977  0.435166  1
  Dy  Dy4  1  0.865543  0.540137  0.250310  1
  Dy  Dy5  1  0.634457  0.040137  0.249690  1
  Tm  Tm6  1  0.669211  0.323873  0.565195  1
  Tm  Tm7  1  0.830789  0.823873  0.934805  1
  Tm  Tm8  1  0.669353  0.323422  0.934715  1
  Tm  Tm9  1  0.830647  0.823422  0.565285  1
  Tm  Tm10  1  0.331222  0.675909  0.435403  1
  Tm  Tm11  1  0.168778  0.175909  0.064597  1
  Ru  Ru12  1  0.040296  0.884691  0.249968  1
  Ru  Ru13  1  0.459704  0.384691  0.250032  1
  Ru  Ru14  1  0.957381  0.115142  0.751336  1
  Ru  Ru15  1  0.542619  0.615142  0.748664  1
