# generated using pymatgen
data_Tb20Si3Bi5Ru4
_symmetry_space_group_name_H-M   'P 1'
_cell_length_a   7.89539563
_cell_length_b   8.94019415
_cell_length_c   12.21006679
_cell_angle_alpha   90.10133393
_cell_angle_beta   90.06444813
_cell_angle_gamma   90.10518946
_symmetry_Int_Tables_number   1
_chemical_formula_structural   Tb20Si3Bi5Ru4
_chemical_formula_sum   'Tb20 Si3 Bi5 Ru4'
_cell_volume   861.86094133
_cell_formula_units_Z   1
loop_
 _symmetry_equiv_pos_site_id
 _symmetry_equiv_pos_as_xyz
  1  'x, y, z'
loop_
 _atom_site_type_symbol
 _atom_site_label
 _atom_site_symmetry_multiplicity
 _atom_site_fract_x
 _atom_site_fract_y
 _atom_site_fract_z
 _atom_site_occupancy
  Tb  Tb0  1  0.838453  0.725411  0.789277  1
  Tb  Tb1  1  0.167613  0.262741  0.206488  1
  Tb  Tb2  1  0.339866  0.274384  0.715963  1
  Tb  Tb3  1  0.649176  0.739094  0.287326  1
  Tb  Tb4  1  0.370699  0.727759  0.698272  1
  Tb  Tb5  1  0.615647  0.261685  0.300698  1
  Tb  Tb6  1  0.869516  0.270724  0.801035  1
  Tb  Tb7  1  0.138611  0.739061  0.191736  1
  Tb  Tb8  1  0.954426  0.740011  0.509927  1
  Tb  Tb9  1  0.054327  0.260652  0.505067  1
  Tb  Tb10  1  0.455787  0.271003  0.996048  1
  Tb  Tb11  1  0.544609  0.729055  0.002117  1
  Tb  Tb12  1  0.676395  0.040049  0.566775  1
  Tb  Tb13  1  0.319386  0.960821  0.434777  1
  Tb  Tb14  1  0.180124  0.963619  0.933069  1
  Tb  Tb15  1  0.326878  0.539689  0.429129  1
  Tb  Tb16  1  0.821947  0.038009  0.065491  1
  Tb  Tb17  1  0.680313  0.459870  0.578029  1
  Tb  Tb18  1  0.816433  0.459413  0.062970  1
  Tb  Tb19  1  0.180690  0.539775  0.926717  1
  Si  Si20  1  0.566539  0.495500  0.830657  1
  Si  Si21  1  0.433641  0.504503  0.169996  1
  Si  Si22  1  0.066293  0.504866  0.669952  1
  Bi  Bi23  1  0.428793  0.993690  0.168390  1
  Bi  Bi24  1  0.928099  0.492583  0.327284  1
  Bi  Bi25  1  0.572785  0.005196  0.828743  1
  Bi  Bi26  1  0.927759  0.006819  0.328177  1
  Bi  Bi27  1  0.073558  0.993648  0.676327  1
  Ru  Ru28  1  0.576080  0.746628  0.512429  1
  Ru  Ru29  1  0.423736  0.252568  0.490524  1
  Ru  Ru30  1  0.074325  0.254205  0.986192  1
  Ru  Ru31  1  0.927495  0.746970  0.010421  1
