# generated using pymatgen
data_Pr4B4Rh9Au
_symmetry_space_group_name_H-M   'P 1'
_cell_length_a   5.58038723
_cell_length_b   5.58038865
_cell_length_c   21.35758800
_cell_angle_alpha   90.00000000
_cell_angle_beta   90.00000000
_cell_angle_gamma   120.03776329
_symmetry_Int_Tables_number   1
_chemical_formula_structural   Pr4B4Rh9Au
_chemical_formula_sum   'Pr8 B8 Rh18 Au2'
_cell_volume   575.76628724
_cell_formula_units_Z   2
loop_
 _symmetry_equiv_pos_site_id
 _symmetry_equiv_pos_as_xyz
  1  'x, y, z'
loop_
 _atom_site_type_symbol
 _atom_site_label
 _atom_site_symmetry_multiplicity
 _atom_site_fract_x
 _atom_site_fract_y
 _atom_site_fract_z
 _atom_site_occupancy
  Pr  Pr0  1  0.666679  0.333321  0.523874  1
  Pr  Pr1  1  0.333321  0.666679  0.476126  1
  Pr  Pr2  1  0.333321  0.666679  0.023874  1
  Pr  Pr3  1  0.666679  0.333321  0.976126  1
  Pr  Pr4  1  0.666754  0.333246  0.675325  1
  Pr  Pr5  1  0.333246  0.666754  0.324675  1
  Pr  Pr6  1  0.333246  0.666754  0.175325  1
  Pr  Pr7  1  0.666754  0.333246  0.824675  1
  B  B8  1  0.000103  0.999897  0.676881  1
  B  B9  1  0.999897  0.000103  0.323119  1
  B  B10  1  0.999897  0.000103  0.176881  1
  B  B11  1  0.000103  0.999897  0.823119  1
  B  B12  1  0.666611  0.333389  0.324466  1
  B  B13  1  0.333389  0.666611  0.675534  1
  B  B14  1  0.333389  0.666611  0.824466  1
  B  B15  1  0.666611  0.333389  0.175534  1
  Rh  Rh16  1  0.166466  0.332700  0.750000  1
  Rh  Rh17  1  0.166444  0.833556  0.750000  1
  Rh  Rh18  1  0.667300  0.833534  0.750000  1
  Rh  Rh19  1  0.833534  0.667300  0.250000  1
  Rh  Rh20  1  0.833556  0.166444  0.250000  1
  Rh  Rh21  1  0.332700  0.166466  0.250000  1
  Rh  Rh22  1  0.165904  0.331547  0.610258  1
  Rh  Rh23  1  0.165894  0.834106  0.610230  1
  Rh  Rh24  1  0.668453  0.834096  0.610258  1
  Rh  Rh25  1  0.834096  0.668453  0.389742  1
  Rh  Rh26  1  0.834106  0.165894  0.389770  1
  Rh  Rh27  1  0.331547  0.165904  0.389742  1
  Rh  Rh28  1  0.834096  0.668453  0.110258  1
  Rh  Rh29  1  0.834106  0.165894  0.110230  1
  Rh  Rh30  1  0.331547  0.165904  0.110258  1
  Rh  Rh31  1  0.165904  0.331547  0.889742  1
  Rh  Rh32  1  0.165894  0.834106  0.889770  1
  Rh  Rh33  1  0.668453  0.834096  0.889742  1
  Au  Au34  1  0.000000  0.000000  0.500000  1
  Au  Au35  1  0.000000  0.000000  0.000000  1
