# generated using pymatgen
data_La8Al3Ga5Ir8
_symmetry_space_group_name_H-M   'P 1'
_cell_length_a   4.26479900
_cell_length_b   7.29300855
_cell_length_c   16.33383938
_cell_angle_alpha   90.00594540
_cell_angle_beta   90.00000000
_cell_angle_gamma   90.00000000
_symmetry_Int_Tables_number   1
_chemical_formula_structural   La8Al3Ga5Ir8
_chemical_formula_sum   'La8 Al3 Ga5 Ir8'
_cell_volume   508.03492480
_cell_formula_units_Z   1
loop_
 _symmetry_equiv_pos_site_id
 _symmetry_equiv_pos_as_xyz
  1  'x, y, z'
loop_
 _atom_site_type_symbol
 _atom_site_label
 _atom_site_symmetry_multiplicity
 _atom_site_fract_x
 _atom_site_fract_y
 _atom_site_fract_z
 _atom_site_occupancy
  La  La0  1  0.250000  0.513813  0.778838  1
  La  La1  1  0.750000  0.485255  0.219345  1
  La  La2  1  0.750000  0.985947  0.279437  1
  La  La3  1  0.250000  0.014177  0.721107  1
  La  La4  1  0.250000  0.653618  0.559535  1
  La  La5  1  0.750000  0.346781  0.440098  1
  La  La6  1  0.750000  0.844500  0.060002  1
  La  La7  1  0.250000  0.155447  0.941565  1
  Al  Al8  1  0.750000  0.493948  0.938483  1
  Al  Al9  1  0.750000  0.994265  0.560915  1
  Al  Al10  1  0.250000  0.005765  0.439279  1
  Ga  Ga11  1  0.250000  0.654856  0.350152  1
  Ga  Ga12  1  0.750000  0.345611  0.649148  1
  Ga  Ga13  1  0.750000  0.846778  0.850375  1
  Ga  Ga14  1  0.250000  0.151279  0.149434  1
  Ga  Ga15  1  0.250000  0.508358  0.061070  1
  Ir  Ir16  1  0.250000  0.771986  0.179686  1
  Ir  Ir17  1  0.750000  0.232536  0.822750  1
  Ir  Ir18  1  0.750000  0.731693  0.677352  1
  Ir  Ir19  1  0.250000  0.268700  0.322346  1
  Ir  Ir20  1  0.250000  0.715419  0.928213  1
  Ir  Ir21  1  0.750000  0.280035  0.070662  1
  Ir  Ir22  1  0.750000  0.786606  0.429633  1
  Ir  Ir23  1  0.250000  0.212628  0.570576  1
