# generated using pymatgen
data_Hf10In2CuSb5
_symmetry_space_group_name_H-M   'P 1'
_cell_length_a   5.85384962
_cell_length_b   8.69951312
_cell_length_c   8.66295547
_cell_angle_alpha   120.13969386
_cell_angle_beta   90.02691396
_cell_angle_gamma   89.94640727
_symmetry_Int_Tables_number   1
_chemical_formula_structural   Hf10In2CuSb5
_chemical_formula_sum   'Hf10 In2 Cu1 Sb5'
_cell_volume   381.52234282
_cell_formula_units_Z   1
loop_
 _symmetry_equiv_pos_site_id
 _symmetry_equiv_pos_as_xyz
  1  'x, y, z'
loop_
 _atom_site_type_symbol
 _atom_site_label
 _atom_site_symmetry_multiplicity
 _atom_site_fract_x
 _atom_site_fract_y
 _atom_site_fract_z
 _atom_site_occupancy
  Hf  Hf0  1  0.498327  0.333102  0.667159  1
  Hf  Hf1  1  0.498327  0.665943  0.332841  1
  Hf  Hf2  1  0.002256  0.665500  0.332177  1
  Hf  Hf3  1  0.002256  0.333322  0.667823  1
  Hf  Hf4  1  0.735750  0.271488  0.000000  1
  Hf  Hf5  1  0.731629  0.730636  0.730146  1
  Hf  Hf6  1  0.731629  0.000490  0.269854  1
  Hf  Hf7  1  0.268037  0.721844  0.000000  1
  Hf  Hf8  1  0.267900  0.276877  0.275616  1
  Hf  Hf9  1  0.267900  0.001261  0.724384  1
  In  In10  1  0.243906  0.616387  0.616561  1
  In  In11  1  0.243906  0.999826  0.383439  1
  Cu  Cu12  1  0.489258  0.997028  0.000000  1
  Sb  Sb13  1  0.754627  0.611806  0.000000  1
  Sb  Sb14  1  0.754393  0.390982  0.392366  1
  Sb  Sb15  1  0.754393  0.998615  0.607634  1
  Sb  Sb16  1  0.248538  0.385973  0.000000  1
  Sb  Sb17  1  0.006971  0.998919  0.000000  1
