# generated using pymatgen
data_Tb7Dy2Lu(In2Ni)4
_symmetry_space_group_name_H-M   'P 1'
_cell_length_a   3.61287700
_cell_length_b   8.00172245
_cell_length_c   17.91410140
_cell_angle_alpha   90.00714340
_cell_angle_beta   90.00000000
_cell_angle_gamma   90.00000000
_symmetry_Int_Tables_number   1
_chemical_formula_structural   Tb7Dy2Lu(In2Ni)4
_chemical_formula_sum   'Tb7 Dy2 Lu1 In8 Ni4'
_cell_volume   517.88303455
_cell_formula_units_Z   1
loop_
 _symmetry_equiv_pos_site_id
 _symmetry_equiv_pos_as_xyz
  1  'x, y, z'
loop_
 _atom_site_type_symbol
 _atom_site_label
 _atom_site_symmetry_multiplicity
 _atom_site_fract_x
 _atom_site_fract_y
 _atom_site_fract_z
 _atom_site_occupancy
  Tb  Tb0  1  0.000000  0.744361  0.778425  1
  Tb  Tb1  1  0.000000  0.382805  0.412009  1
  Tb  Tb2  1  0.000000  0.117377  0.911526  1
  Tb  Tb3  1  0.000000  0.244751  0.720307  1
  Tb  Tb4  1  0.000000  0.499727  0.999873  1
  Tb  Tb5  1  0.000000  0.255263  0.221203  1
  Tb  Tb6  1  0.000000  0.000724  0.500430  1
  Dy  Dy7  1  0.000000  0.882523  0.088685  1
  Dy  Dy8  1  0.000000  0.754710  0.278976  1
  Lu  Lu9  1  0.000000  0.616553  0.589855  1
  In  In10  1  0.500000  0.205044  0.068671  1
  In  In11  1  0.500000  0.426754  0.847010  1
  In  In12  1  0.500000  0.574047  0.152611  1
  In  In13  1  0.500000  0.072516  0.347871  1
  In  In14  1  0.500000  0.922101  0.651464  1
  In  In15  1  0.500000  0.794191  0.931220  1
  In  In16  1  0.500000  0.705460  0.432754  1
  In  In17  1  0.500000  0.299361  0.568775  1
  Ni  Ni18  1  0.500000  0.976080  0.196174  1
  Ni  Ni19  1  0.500000  0.022620  0.803684  1
  Ni  Ni20  1  0.500000  0.524700  0.694114  1
  Ni  Ni21  1  0.500000  0.478331  0.304363  1
