# generated using pymatgen
data_Eu3In3Ge2Pd
_symmetry_space_group_name_H-M   'P 1'
_cell_length_a   7.55810000
_cell_length_b   7.55810034
_cell_length_c   4.49588800
_cell_angle_alpha   90.00000000
_cell_angle_beta   90.00000000
_cell_angle_gamma   119.99999850
_symmetry_Int_Tables_number   1
_chemical_formula_structural   Eu3In3Ge2Pd
_chemical_formula_sum   'Eu3 In3 Ge2 Pd1'
_cell_volume   222.41875685
_cell_formula_units_Z   1
loop_
 _symmetry_equiv_pos_site_id
 _symmetry_equiv_pos_as_xyz
  1  'x, y, z'
loop_
 _atom_site_type_symbol
 _atom_site_label
 _atom_site_symmetry_multiplicity
 _atom_site_fract_x
 _atom_site_fract_y
 _atom_site_fract_z
 _atom_site_occupancy
  Eu  Eu0  1  0.415674  0.000000  0.500000  1
  Eu  Eu1  1  0.000000  0.415674  0.500000  1
  Eu  Eu2  1  0.584326  0.584326  0.500000  1
  In  In3  1  0.758927  0.000000  0.000000  1
  In  In4  1  0.000000  0.758927  0.000000  1
  In  In5  1  0.241073  0.241073  0.000000  1
  Ge  Ge6  1  0.333333  0.666667  0.000000  1
  Ge  Ge7  1  0.666667  0.333333  0.000000  1
  Pd  Pd8  1  0.000000  0.000000  0.500000  1
