# generated using pymatgen
data_EuErTm2(ZnSn)4
_symmetry_space_group_name_H-M   'P 1'
_cell_length_a   4.53397100
_cell_length_b   4.53397156
_cell_length_c   15.91728800
_cell_angle_alpha   90.00000000
_cell_angle_beta   90.00000000
_cell_angle_gamma   119.99998863
_symmetry_Int_Tables_number   1
_chemical_formula_structural   EuErTm2(ZnSn)4
_chemical_formula_sum   'Eu1 Er1 Tm2 Zn4 Sn4'
_cell_volume   283.37222828
_cell_formula_units_Z   1
loop_
 _symmetry_equiv_pos_site_id
 _symmetry_equiv_pos_as_xyz
  1  'x, y, z'
loop_
 _atom_site_type_symbol
 _atom_site_label
 _atom_site_symmetry_multiplicity
 _atom_site_fract_x
 _atom_site_fract_y
 _atom_site_fract_z
 _atom_site_occupancy
  Eu  Eu0  1  0.000000  0.000000  0.000000  1
  Er  Er1  1  0.000000  0.000000  0.500000  1
  Tm  Tm2  1  0.000000  0.000000  0.257237  1
  Tm  Tm3  1  0.000000  0.000000  0.742763  1
  Zn  Zn4  1  0.333333  0.666667  0.170744  1
  Zn  Zn5  1  0.666667  0.333333  0.829256  1
  Zn  Zn6  1  0.666667  0.333333  0.657877  1
  Zn  Zn7  1  0.333333  0.666667  0.342123  1
  Sn  Sn8  1  0.333333  0.666667  0.608162  1
  Sn  Sn9  1  0.666667  0.333333  0.391838  1
  Sn  Sn10  1  0.666667  0.333333  0.124601  1
  Sn  Sn11  1  0.333333  0.666667  0.875399  1
