# generated using pymatgen
data_SrCa3As2(BrO4)2
_symmetry_space_group_name_H-M   'P 1'
_cell_length_a   6.43803971
_cell_length_b   7.33142994
_cell_length_c   11.61411400
_cell_angle_alpha   90.00000000
_cell_angle_beta   90.00000000
_cell_angle_gamma   89.80152570
_symmetry_Int_Tables_number   1
_chemical_formula_structural   SrCa3As2(BrO4)2
_chemical_formula_sum   'Sr2 Ca6 As4 Br4 O16'
_cell_volume   548.18332223
_cell_formula_units_Z   2
loop_
 _symmetry_equiv_pos_site_id
 _symmetry_equiv_pos_as_xyz
  1  'x, y, z'
loop_
 _atom_site_type_symbol
 _atom_site_label
 _atom_site_symmetry_multiplicity
 _atom_site_fract_x
 _atom_site_fract_y
 _atom_site_fract_z
 _atom_site_occupancy
  Sr  Sr0  1  0.883405  0.979429  0.250000  1
  Sr  Sr1  1  0.116595  0.020571  0.750000  1
  Ca  Ca2  1  0.117136  0.478956  0.250000  1
  Ca  Ca3  1  0.882864  0.521044  0.750000  1
  Ca  Ca4  1  0.629317  0.252678  0.500178  1
  Ca  Ca5  1  0.629317  0.252678  0.999822  1
  Ca  Ca6  1  0.370683  0.747322  0.499822  1
  Ca  Ca7  1  0.370683  0.747322  0.000178  1
  As  As8  1  0.131890  0.256276  0.999719  1
  As  As9  1  0.868110  0.743724  0.499719  1
  As  As10  1  0.131890  0.256276  0.500281  1
  As  As11  1  0.868110  0.743724  0.000281  1
  Br  Br12  1  0.504003  0.694443  0.250000  1
  Br  Br13  1  0.473828  0.195061  0.250000  1
  Br  Br14  1  0.526172  0.804939  0.750000  1
  Br  Br15  1  0.495997  0.305557  0.750000  1
  O  O16  1  0.967547  0.275550  0.618208  1
  O  O17  1  0.282900  0.066128  0.524470  1
  O  O18  1  0.302441  0.431131  0.022380  1
  O  O19  1  0.302441  0.431131  0.477620  1
  O  O20  1  0.697559  0.568869  0.522380  1
  O  O21  1  0.032453  0.724450  0.381792  1
  O  O22  1  0.968761  0.251657  0.118701  1
  O  O23  1  0.031239  0.748343  0.618701  1
  O  O24  1  0.032453  0.724450  0.118208  1
  O  O25  1  0.031239  0.748343  0.881299  1
  O  O26  1  0.968761  0.251657  0.381299  1
  O  O27  1  0.282900  0.066128  0.975530  1
  O  O28  1  0.717100  0.933872  0.475530  1
  O  O29  1  0.697559  0.568869  0.977620  1
  O  O30  1  0.717100  0.933872  0.024470  1
  O  O31  1  0.967547  0.275550  0.881792  1
