# generated using pymatgen
data_Gd3DyCrMo5O24
_symmetry_space_group_name_H-M   'P 1'
_cell_length_a   7.46777484
_cell_length_b   7.46777449
_cell_length_c   10.74066741
_cell_angle_alpha   89.77432268
_cell_angle_beta   89.77432236
_cell_angle_gamma   90.34305037
_symmetry_Int_Tables_number   1
_chemical_formula_structural   Gd3DyCrMo5O24
_chemical_formula_sum   'Gd3 Dy1 Cr1 Mo5 O24'
_cell_volume   598.96178679
_cell_formula_units_Z   1
loop_
 _symmetry_equiv_pos_site_id
 _symmetry_equiv_pos_as_xyz
  1  'x, y, z'
loop_
 _atom_site_type_symbol
 _atom_site_label
 _atom_site_symmetry_multiplicity
 _atom_site_fract_x
 _atom_site_fract_y
 _atom_site_fract_z
 _atom_site_occupancy
  Gd  Gd0  1  0.186654  0.686654  0.733955  1
  Gd  Gd1  1  0.683617  0.809196  0.263373  1
  Gd  Gd2  1  0.309196  0.183617  0.263373  1
  Dy  Dy3  1  0.812467  0.312467  0.739949  1
  Cr  Cr4  1  0.208041  0.708041  0.356198  1
  Mo  Mo5  1  0.791912  0.291912  0.357050  1
  Mo  Mo6  1  0.708926  0.794009  0.644367  1
  Mo  Mo7  1  0.294009  0.208926  0.644367  1
  Mo  Mo8  1  0.002097  0.997933  0.999377  1
  Mo  Mo9  1  0.497933  0.502097  0.999377  1
  O  O10  1  0.003203  0.224539  0.295788  1
  O  O11  1  0.010303  0.768338  0.301828  1
  O  O12  1  0.224345  0.995292  0.701294  1
  O  O13  1  0.495292  0.724345  0.701294  1
  O  O14  1  0.774983  0.006253  0.705097  1
  O  O15  1  0.506253  0.274983  0.705097  1
  O  O16  1  0.268338  0.510303  0.301828  1
  O  O17  1  0.724539  0.503203  0.295788  1
  O  O18  1  0.194288  0.041162  0.093804  1
  O  O19  1  0.815007  0.952183  0.099806  1
  O  O20  1  0.043497  0.808675  0.901843  1
  O  O21  1  0.308675  0.543497  0.901843  1
  O  O22  1  0.955470  0.189139  0.903316  1
  O  O23  1  0.689139  0.455470  0.903316  1
  O  O24  1  0.452183  0.315007  0.099806  1
  O  O25  1  0.541162  0.694288  0.093804  1
  O  O26  1  0.624736  0.124736  0.309861  1
  O  O27  1  0.365234  0.865234  0.310851  1
  O  O28  1  0.124205  0.372734  0.690360  1
  O  O29  1  0.872734  0.624205  0.690360  1
  O  O30  1  0.198405  0.698405  0.510696  1
  O  O31  1  0.803977  0.303977  0.522461  1
  O  O32  1  0.700438  0.808742  0.479235  1
  O  O33  1  0.308742  0.200438  0.479235  1
