# generated using pymatgen
data_Tb6Al21Si3Ru8
_symmetry_space_group_name_H-M   'P 1'
_cell_length_a   8.71478800
_cell_length_b   8.71478954
_cell_length_c   9.64697300
_cell_angle_alpha   90.00000000
_cell_angle_beta   90.00000000
_cell_angle_gamma   120.00000174
_symmetry_Int_Tables_number   1
_chemical_formula_structural   Tb6Al21Si3Ru8
_chemical_formula_sum   'Tb6 Al21 Si3 Ru8'
_cell_volume   634.50553861
_cell_formula_units_Z   1
loop_
 _symmetry_equiv_pos_site_id
 _symmetry_equiv_pos_as_xyz
  1  'x, y, z'
loop_
 _atom_site_type_symbol
 _atom_site_label
 _atom_site_symmetry_multiplicity
 _atom_site_fract_x
 _atom_site_fract_y
 _atom_site_fract_z
 _atom_site_occupancy
  Tb  Tb0  1  0.194484  0.388968  0.247782  1
  Tb  Tb1  1  0.804858  0.609714  0.752500  1
  Tb  Tb2  1  0.611032  0.805516  0.247782  1
  Tb  Tb3  1  0.390286  0.195142  0.752500  1
  Tb  Tb4  1  0.194484  0.805516  0.247782  1
  Tb  Tb5  1  0.804858  0.195142  0.752500  1
  Al  Al6  1  0.333333  0.666667  0.479598  1
  Al  Al7  1  0.163395  0.326791  0.575283  1
  Al  Al8  1  0.835332  0.670663  0.422458  1
  Al  Al9  1  0.673209  0.836605  0.575283  1
  Al  Al10  1  0.835051  0.670103  0.077115  1
  Al  Al11  1  0.329337  0.164668  0.422458  1
  Al  Al12  1  0.165387  0.330772  0.922409  1
  Al  Al13  1  0.163395  0.836605  0.575283  1
  Al  Al14  1  0.329897  0.164949  0.077115  1
  Al  Al15  1  0.835332  0.164668  0.422458  1
  Al  Al16  1  0.669228  0.834613  0.922409  1
  Al  Al17  1  0.835051  0.164949  0.077115  1
  Al  Al18  1  0.165387  0.834613  0.922409  1
  Al  Al19  1  0.563417  0.126836  0.248491  1
  Al  Al20  1  0.436952  0.873904  0.748513  1
  Al  Al21  1  0.873164  0.436583  0.248491  1
  Al  Al22  1  0.126096  0.563048  0.748513  1
  Al  Al23  1  0.563417  0.436583  0.248491  1
  Al  Al24  1  0.436952  0.563048  0.748513  1
  Al  Al25  1  0.000000  0.000000  0.249197  1
  Al  Al26  1  0.000000  0.000000  0.749568  1
  Si  Si27  1  0.333333  0.666667  0.038823  1
  Si  Si28  1  0.666667  0.333333  0.962856  1
  Si  Si29  1  0.666667  0.333333  0.538549  1
  Ru  Ru30  1  0.499936  0.999872  0.998461  1
  Ru  Ru31  1  0.000128  0.500064  0.998461  1
  Ru  Ru32  1  0.504457  0.008916  0.501282  1
  Ru  Ru33  1  0.499936  0.500064  0.998461  1
  Ru  Ru34  1  0.991084  0.495543  0.501282  1
  Ru  Ru35  1  0.504457  0.495543  0.501282  1
  Ru  Ru36  1  0.000000  0.000000  0.999086  1
  Ru  Ru37  1  0.000000  0.000000  0.499441  1
