# generated using pymatgen
data_Y7Sn23Ir5Rh
_symmetry_space_group_name_H-M   'P 1'
_cell_length_a   9.91187100
_cell_length_b   9.89021128
_cell_length_c   10.08797433
_cell_angle_alpha   90.05750329
_cell_angle_beta   90.00000000
_cell_angle_gamma   120.07248167
_symmetry_Int_Tables_number   1
_chemical_formula_structural   Y7Sn23Ir5Rh
_chemical_formula_sum   'Y7 Sn23 Ir5 Rh1'
_cell_volume   855.81098766
_cell_formula_units_Z   1
loop_
 _symmetry_equiv_pos_site_id
 _symmetry_equiv_pos_as_xyz
  1  'x, y, z'
loop_
 _atom_site_type_symbol
 _atom_site_label
 _atom_site_symmetry_multiplicity
 _atom_site_fract_x
 _atom_site_fract_y
 _atom_site_fract_z
 _atom_site_occupancy
  Y  Y0  1  0.003175  0.006350  0.995730  1
  Y  Y1  1  0.041642  0.519636  0.310152  1
  Y  Y2  1  0.479257  0.958513  0.308611  1
  Y  Y3  1  0.477994  0.519636  0.310152  1
  Y  Y4  1  0.959352  0.479540  0.691470  1
  Y  Y5  1  0.520249  0.040498  0.692190  1
  Y  Y6  1  0.520188  0.479540  0.691470  1
  Sn  Sn7  1  0.999715  0.999430  0.499508  1
  Sn  Sn8  1  0.117060  0.880535  0.280329  1
  Sn  Sn9  1  0.763473  0.880535  0.280329  1
  Sn  Sn10  1  0.118086  0.236173  0.283957  1
  Sn  Sn11  1  0.880714  0.117753  0.715762  1
  Sn  Sn12  1  0.237041  0.117753  0.715762  1
  Sn  Sn13  1  0.881058  0.762117  0.716033  1
  Sn  Sn14  1  0.352293  0.999738  0.000111  1
  Sn  Sn15  1  0.650065  0.648416  0.000485  1
  Sn  Sn16  1  0.000300  0.354567  0.000802  1
  Sn  Sn17  1  0.354268  0.354567  0.000802  1
  Sn  Sn18  1  0.998351  0.648416  0.000485  1
  Sn  Sn19  1  0.647445  0.999738  0.000111  1
  Sn  Sn20  1  0.779519  0.559036  0.455984  1
  Sn  Sn21  1  0.778596  0.220183  0.456985  1
  Sn  Sn22  1  0.441587  0.220183  0.456985  1
  Sn  Sn23  1  0.221054  0.442107  0.544025  1
  Sn  Sn24  1  0.220924  0.780001  0.543089  1
  Sn  Sn25  1  0.559077  0.780001  0.543089  1
  Sn  Sn26  1  0.666595  0.333189  0.175340  1
  Sn  Sn27  1  0.333048  0.666095  0.826715  1
  Sn  Sn28  1  0.667255  0.334508  0.882689  1
  Sn  Sn29  1  0.332515  0.665031  0.118873  1
  Ir  Ir30  1  0.168486  0.830440  0.801182  1
  Ir  Ir31  1  0.661954  0.830440  0.801182  1
  Ir  Ir32  1  0.168005  0.336009  0.802256  1
  Ir  Ir33  1  0.831124  0.168938  0.199100  1
  Ir  Ir34  1  0.337814  0.168938  0.199100  1
  Rh  Rh35  1  0.830723  0.661445  0.199154  1
