# generated using pymatgen
data_Hf3Pa5Co12
_symmetry_space_group_name_H-M   'P 1'
_cell_length_a   5.29227400
_cell_length_b   7.26037145
_cell_length_c   8.26720079
_cell_angle_alpha   89.34617307
_cell_angle_beta   90.00000000
_cell_angle_gamma   90.00000000
_symmetry_Int_Tables_number   1
_chemical_formula_structural   Hf3Pa5Co12
_chemical_formula_sum   'Hf3 Pa5 Co12'
_cell_volume   317.63720791
_cell_formula_units_Z   1
loop_
 _symmetry_equiv_pos_site_id
 _symmetry_equiv_pos_as_xyz
  1  'x, y, z'
loop_
 _atom_site_type_symbol
 _atom_site_label
 _atom_site_symmetry_multiplicity
 _atom_site_fract_x
 _atom_site_fract_y
 _atom_site_fract_z
 _atom_site_occupancy
  Hf  Hf0  1  0.750000  0.443229  0.090061  1
  Hf  Hf1  1  0.250000  0.065079  0.605861  1
  Hf  Hf2  1  0.250000  0.557157  0.902151  1
  Pa  Pa3  1  0.750000  0.889029  0.859336  1
  Pa  Pa4  1  0.750000  0.389546  0.647928  1
  Pa  Pa5  1  0.250000  0.111984  0.139635  1
  Pa  Pa6  1  0.250000  0.601933  0.349700  1
  Pa  Pa7  1  0.750000  0.939664  0.407633  1
  Co  Co8  1  0.750000  0.592838  0.374922  1
  Co  Co9  1  0.750000  0.087065  0.134952  1
  Co  Co10  1  0.250000  0.413860  0.617618  1
  Co  Co11  1  0.250000  0.910233  0.879114  1
  Co  Co12  1  0.992424  0.263838  0.373788  1
  Co  Co13  1  0.504388  0.763734  0.125074  1
  Co  Co14  1  0.493055  0.737846  0.623484  1
  Co  Co15  1  0.007182  0.233774  0.873199  1
  Co  Co16  1  0.006945  0.737846  0.623484  1
  Co  Co17  1  0.492818  0.233774  0.873199  1
  Co  Co18  1  0.507576  0.263838  0.373788  1
  Co  Co19  1  0.995612  0.763734  0.125074  1
