# generated using pymatgen
data_K8Ba4HfZrSb8
_symmetry_space_group_name_H-M   'P 1'
_cell_length_a   11.20683798
_cell_length_b   11.20676400
_cell_length_c   8.65087916
_cell_angle_alpha   88.97807784
_cell_angle_beta   88.98284413
_cell_angle_gamma   119.87631380
_symmetry_Int_Tables_number   1
_chemical_formula_structural   K8Ba4HfZrSb8
_chemical_formula_sum   'K8 Ba4 Hf1 Zr1 Sb8'
_cell_volume   941.49925752
_cell_formula_units_Z   1
loop_
 _symmetry_equiv_pos_site_id
 _symmetry_equiv_pos_as_xyz
  1  'x, y, z'
loop_
 _atom_site_type_symbol
 _atom_site_label
 _atom_site_symmetry_multiplicity
 _atom_site_fract_x
 _atom_site_fract_y
 _atom_site_fract_z
 _atom_site_occupancy
  K  K0  1  0.055977  0.526127  0.623073  1
  K  K1  1  0.526103  0.055939  0.123039  1
  K  K2  1  0.278338  0.135927  0.820993  1
  K  K3  1  0.868838  0.724790  0.779574  1
  K  K4  1  0.860717  0.145526  0.801616  1
  K  K5  1  0.724777  0.868827  0.279542  1
  K  K6  1  0.135932  0.278337  0.320975  1
  K  K7  1  0.145535  0.860716  0.301586  1
  Ba  Ba8  1  0.468840  0.941312  0.617569  1
  Ba  Ba9  1  0.468748  0.523031  0.624943  1
  Ba  Ba10  1  0.941419  0.468902  0.117430  1
  Ba  Ba11  1  0.522998  0.468782  0.124868  1
  Hf  Hf12  1  0.335834  0.667723  0.014342  1
  Zr  Zr13  1  0.667773  0.335826  0.514400  1
  Sb  Sb14  1  0.607061  0.797429  0.888973  1
  Sb  Sb15  1  0.197928  0.389849  0.923597  1
  Sb  Sb16  1  0.193804  0.798683  0.909518  1
  Sb  Sb17  1  0.389036  0.197543  0.423308  1
  Sb  Sb18  1  0.797776  0.607813  0.388603  1
  Sb  Sb19  1  0.799078  0.193388  0.409190  1
  Sb  Sb20  1  0.667600  0.345496  0.842621  1
  Sb  Sb21  1  0.345448  0.667593  0.341511  1
