# generated using pymatgen
data_Tc5Ge10Ir
_symmetry_space_group_name_H-M   'P 1'
_cell_length_a   5.92513700
_cell_length_b   5.92513700
_cell_length_c   14.27093200
_cell_angle_alpha   90.00000000
_cell_angle_beta   90.00000000
_cell_angle_gamma   90.00000000
_symmetry_Int_Tables_number   1
_chemical_formula_structural   Tc5Ge10Ir
_chemical_formula_sum   'Tc10 Ge20 Ir2'
_cell_volume   501.01315560
_cell_formula_units_Z   2
loop_
 _symmetry_equiv_pos_site_id
 _symmetry_equiv_pos_as_xyz
  1  'x, y, z'
loop_
 _atom_site_type_symbol
 _atom_site_label
 _atom_site_symmetry_multiplicity
 _atom_site_fract_x
 _atom_site_fract_y
 _atom_site_fract_z
 _atom_site_occupancy
  Tc  Tc0  1  0.000000  0.000000  0.000000  1
  Tc  Tc1  1  0.500000  0.500000  0.500000  1
  Tc  Tc2  1  0.500000  0.000000  0.086195  1
  Tc  Tc3  1  0.000000  0.500000  0.913805  1
  Tc  Tc4  1  0.000000  0.500000  0.586196  1
  Tc  Tc5  1  0.500000  0.000000  0.413804  1
  Tc  Tc6  1  0.000000  0.000000  0.326445  1
  Tc  Tc7  1  0.000000  0.000000  0.673555  1
  Tc  Tc8  1  0.500000  0.500000  0.826447  1
  Tc  Tc9  1  0.500000  0.500000  0.173553  1
  Ge  Ge10  1  0.662479  0.162470  0.249999  1
  Ge  Ge11  1  0.837530  0.662479  0.750001  1
  Ge  Ge12  1  0.337521  0.837530  0.249999  1
  Ge  Ge13  1  0.162470  0.337521  0.750001  1
  Ge  Ge14  1  0.153254  0.188261  0.153224  1
  Ge  Ge15  1  0.811739  0.153254  0.846776  1
  Ge  Ge16  1  0.846746  0.811739  0.153224  1
  Ge  Ge17  1  0.188261  0.846746  0.846776  1
  Ge  Ge18  1  0.346739  0.688254  0.653225  1
  Ge  Ge19  1  0.688254  0.653261  0.346775  1
  Ge  Ge20  1  0.653261  0.311746  0.653225  1
  Ge  Ge21  1  0.311746  0.346739  0.346775  1
  Ge  Ge22  1  0.348323  0.235410  0.949716  1
  Ge  Ge23  1  0.764590  0.348323  0.050284  1
  Ge  Ge24  1  0.651677  0.764590  0.949716  1
  Ge  Ge25  1  0.235410  0.651677  0.050284  1
  Ge  Ge26  1  0.151681  0.735405  0.449716  1
  Ge  Ge27  1  0.735405  0.848319  0.550284  1
  Ge  Ge28  1  0.848319  0.264595  0.449716  1
  Ge  Ge29  1  0.264595  0.151681  0.550284  1
  Ir  Ir30  1  0.500000  0.000000  0.750000  1
  Ir  Ir31  1  0.000000  0.500000  0.250000  1
