# generated using pymatgen
data_LaBi3(As4O9)2
_symmetry_space_group_name_H-M   'P 1'
_cell_length_a   7.07274998
_cell_length_b   7.74899484
_cell_length_c   10.10549370
_cell_angle_alpha   95.12463419
_cell_angle_beta   104.80411915
_cell_angle_gamma   104.04661747
_symmetry_Int_Tables_number   1
_chemical_formula_structural   LaBi3(As4O9)2
_chemical_formula_sum   'La1 Bi3 As8 O18'
_cell_volume   512.64554846
_cell_formula_units_Z   1
loop_
 _symmetry_equiv_pos_site_id
 _symmetry_equiv_pos_as_xyz
  1  'x, y, z'
loop_
 _atom_site_type_symbol
 _atom_site_label
 _atom_site_symmetry_multiplicity
 _atom_site_fract_x
 _atom_site_fract_y
 _atom_site_fract_z
 _atom_site_occupancy
  La  La0  1  0.281506  0.455363  0.593444  1
  Bi  Bi1  1  0.240309  0.918038  0.622173  1
  Bi  Bi2  1  0.761542  0.082756  0.374795  1
  Bi  Bi3  1  0.707749  0.546842  0.407023  1
  As  As4  1  0.670507  0.771740  0.065812  1
  As  As5  1  0.328253  0.226486  0.936891  1
  As  As6  1  0.181004  0.760801  0.914209  1
  As  As7  1  0.818860  0.239191  0.084724  1
  As  As8  1  0.746034  0.913290  0.704954  1
  As  As9  1  0.254054  0.086593  0.293747  1
  As  As10  1  0.807599  0.342816  0.698277  1
  As  As11  1  0.191188  0.658376  0.300443  1
  O  O12  1  0.722943  0.742240  0.239948  1
  O  O13  1  0.282651  0.264340  0.765617  1
  O  O14  1  0.317573  0.983614  0.882195  1
  O  O15  1  0.679943  0.015517  0.115160  1
  O  O16  1  0.607759  0.318727  0.992550  1
  O  O17  1  0.391003  0.683349  0.012008  1
  O  O18  1  0.143705  0.668606  0.739025  1
  O  O19  1  0.864204  0.329470  0.261786  1
  O  O20  1  0.831567  0.856000  0.557133  1
  O  O21  1  0.165858  0.138901  0.440145  1
  O  O22  1  0.493637  0.773764  0.665679  1
  O  O23  1  0.508373  0.227138  0.333371  1
  O  O24  1  0.372164  0.544777  0.373939  1
  O  O25  1  0.630305  0.455831  0.620952  1
  O  O26  1  0.093505  0.667148  0.451892  1
  O  O27  1  0.908104  0.328042  0.549748  1
  O  O28  1  0.357750  0.897424  0.355212  1
  O  O29  1  0.640349  0.102819  0.647147  1
