# generated using pymatgen
data_NpUSbN2
_symmetry_space_group_name_H-M   'P 1'
_cell_length_a   6.77484088
_cell_length_b   6.77484108
_cell_length_c   6.77484165
_cell_angle_alpha   146.82125061
_cell_angle_beta   146.82125235
_cell_angle_gamma   47.62852236
_symmetry_Int_Tables_number   1
_chemical_formula_structural   NpUSbN2
_chemical_formula_sum   'Np1 U1 Sb1 N2'
_cell_volume   92.75902961
_cell_formula_units_Z   1
loop_
 _symmetry_equiv_pos_site_id
 _symmetry_equiv_pos_as_xyz
  1  'x, y, z'
loop_
 _atom_site_type_symbol
 _atom_site_label
 _atom_site_symmetry_multiplicity
 _atom_site_fract_x
 _atom_site_fract_y
 _atom_site_fract_z
 _atom_site_occupancy
  Np  Np0  1  0.343442  0.343442  0.000000  1
  U  U1  1  0.660219  0.660219  0.000000  1
  Sb  Sb2  1  0.002079  0.002079  0.000000  1
  N  N3  1  0.747130  0.247130  0.500000  1
  N  N4  1  0.247130  0.747130  0.500000  1
