# generated using pymatgen
data_Hf4MnSi4
_symmetry_space_group_name_H-M   'P 1'
_cell_length_a   5.21786974
_cell_length_b   5.21786963
_cell_length_c   8.67350531
_cell_angle_alpha   71.70868167
_cell_angle_beta   71.70868088
_cell_angle_gamma   42.01371465
_symmetry_Int_Tables_number   1
_chemical_formula_structural   Hf4MnSi4
_chemical_formula_sum   'Hf4 Mn1 Si4'
_cell_volume   148.85484306
_cell_formula_units_Z   1
loop_
 _symmetry_equiv_pos_site_id
 _symmetry_equiv_pos_as_xyz
  1  'x, y, z'
loop_
 _atom_site_type_symbol
 _atom_site_label
 _atom_site_symmetry_multiplicity
 _atom_site_fract_x
 _atom_site_fract_y
 _atom_site_fract_z
 _atom_site_occupancy
  Hf  Hf0  1  0.109335  0.109335  0.616161  1
  Hf  Hf1  1  0.890665  0.890665  0.383839  1
  Hf  Hf2  1  0.749519  0.749519  0.846100  1
  Hf  Hf3  1  0.250481  0.250481  0.153900  1
  Mn  Mn4  1  0.000000  0.000000  0.000000  1
  Si  Si5  1  0.386265  0.386265  0.614443  1
  Si  Si6  1  0.613735  0.613735  0.385557  1
  Si  Si7  1  0.463493  0.463493  0.851113  1
  Si  Si8  1  0.536507  0.536507  0.148887  1
