# generated using pymatgen
data_TbGd3(MgCu2)2
_symmetry_space_group_name_H-M   'P 1'
_cell_length_a   7.61144500
_cell_length_b   7.61144500
_cell_length_c   3.73027000
_cell_angle_alpha   90.00000000
_cell_angle_beta   90.00000000
_cell_angle_gamma   89.99897625
_symmetry_Int_Tables_number   1
_chemical_formula_structural   TbGd3(MgCu2)2
_chemical_formula_sum   'Tb1 Gd3 Mg2 Cu4'
_cell_volume   216.10981649
_cell_formula_units_Z   1
loop_
 _symmetry_equiv_pos_site_id
 _symmetry_equiv_pos_as_xyz
  1  'x, y, z'
loop_
 _atom_site_type_symbol
 _atom_site_label
 _atom_site_symmetry_multiplicity
 _atom_site_fract_x
 _atom_site_fract_y
 _atom_site_fract_z
 _atom_site_occupancy
  Tb  Tb0  1  0.669100  0.830899  0.500000  1
  Gd  Gd1  1  0.330901  0.169100  0.500000  1
  Gd  Gd2  1  0.830900  0.330900  0.500000  1
  Gd  Gd3  1  0.169101  0.669099  0.500000  1
  Mg  Mg4  1  0.999999  0.000000  0.000000  1
  Mg  Mg5  1  0.500001  0.500002  0.000000  1
  Cu  Cu6  1  0.623640  0.123641  0.000000  1
  Cu  Cu7  1  0.123638  0.376363  0.000000  1
  Cu  Cu8  1  0.876362  0.623638  0.000000  1
  Cu  Cu9  1  0.376360  0.876360  0.000000  1
