# generated using pymatgen
data_Sb4MoWSe2
_symmetry_space_group_name_H-M   'P 1'
_cell_length_a   6.55440200
_cell_length_b   6.66299204
_cell_length_c   18.84467416
_cell_angle_alpha   85.81793685
_cell_angle_beta   90.00000000
_cell_angle_gamma   90.00000000
_symmetry_Int_Tables_number   1
_chemical_formula_structural   Sb4MoWSe2
_chemical_formula_sum   'Sb16 Mo4 W4 Se8'
_cell_volume   820.79194857
_cell_formula_units_Z   4
loop_
 _symmetry_equiv_pos_site_id
 _symmetry_equiv_pos_as_xyz
  1  'x, y, z'
loop_
 _atom_site_type_symbol
 _atom_site_label
 _atom_site_symmetry_multiplicity
 _atom_site_fract_x
 _atom_site_fract_y
 _atom_site_fract_z
 _atom_site_occupancy
  Sb  Sb0  1  0.401176  0.201791  0.274070  1
  Sb  Sb1  1  0.901176  0.798209  0.225930  1
  Sb  Sb2  1  0.598824  0.798209  0.725930  1
  Sb  Sb3  1  0.098824  0.201791  0.774070  1
  Sb  Sb4  1  0.849524  0.202602  0.273804  1
  Sb  Sb5  1  0.349524  0.797398  0.226196  1
  Sb  Sb6  1  0.150476  0.797398  0.726196  1
  Sb  Sb7  1  0.650476  0.202602  0.773804  1
  Sb  Sb8  1  0.375121  0.074879  0.426178  1
  Sb  Sb9  1  0.875121  0.925121  0.073822  1
  Sb  Sb10  1  0.624879  0.925121  0.573822  1
  Sb  Sb11  1  0.124879  0.074879  0.926178  1
  Sb  Sb12  1  0.874996  0.074403  0.426005  1
  Sb  Sb13  1  0.374996  0.925597  0.073995  1
  Sb  Sb14  1  0.125004  0.925597  0.573995  1
  Sb  Sb15  1  0.625004  0.074403  0.926005  1
  Mo  Mo16  1  0.625378  0.325278  0.505101  1
  Mo  Mo17  1  0.125378  0.674722  0.994899  1
  Mo  Mo18  1  0.374622  0.674722  0.494899  1
  Mo  Mo19  1  0.874622  0.325278  0.005101  1
  W  W20  1  0.875672  0.671710  0.494495  1
  W  W21  1  0.375672  0.328290  0.005505  1
  W  W22  1  0.124328  0.328290  0.505505  1
  W  W23  1  0.624328  0.671710  0.994495  1
  Se  Se24  1  0.874240  0.412505  0.600186  1
  Se  Se25  1  0.374240  0.587495  0.899814  1
  Se  Se26  1  0.125760  0.587495  0.399814  1
  Se  Se27  1  0.625760  0.412505  0.100186  1
  Se  Se28  1  0.624801  0.588800  0.400453  1
  Se  Se29  1  0.124801  0.411200  0.099547  1
  Se  Se30  1  0.375199  0.411200  0.599547  1
  Se  Se31  1  0.875199  0.588800  0.900453  1
