# generated using pymatgen
data_Pa2VReC4
_symmetry_space_group_name_H-M   'P 1'
_cell_length_a   3.30855900
_cell_length_b   5.68144300
_cell_length_c   10.86022300
_cell_angle_alpha   90.00000000
_cell_angle_beta   90.00000000
_cell_angle_gamma   90.00000000
_symmetry_Int_Tables_number   1
_chemical_formula_structural   Pa2VReC4
_chemical_formula_sum   'Pa4 V2 Re2 C8'
_cell_volume   204.14384038
_cell_formula_units_Z   2
loop_
 _symmetry_equiv_pos_site_id
 _symmetry_equiv_pos_as_xyz
  1  'x, y, z'
loop_
 _atom_site_type_symbol
 _atom_site_label
 _atom_site_symmetry_multiplicity
 _atom_site_fract_x
 _atom_site_fract_y
 _atom_site_fract_z
 _atom_site_occupancy
  Pa  Pa0  1  0.250000  0.081700  0.859333  1
  Pa  Pa1  1  0.750000  0.920578  0.143146  1
  Pa  Pa2  1  0.250000  0.581700  0.640667  1
  Pa  Pa3  1  0.750000  0.420578  0.356854  1
  V  V4  1  0.250000  0.918446  0.398700  1
  V  V5  1  0.250000  0.418446  0.101300  1
  Re  Re6  1  0.750000  0.077980  0.599499  1
  Re  Re7  1  0.750000  0.577980  0.900501  1
  C  C8  1  0.250000  0.730255  0.991083  1
  C  C9  1  0.750000  0.267624  0.013659  1
  C  C10  1  0.250000  0.230255  0.508917  1
  C  C11  1  0.750000  0.767624  0.486341  1
  C  C12  1  0.250000  0.166700  0.246271  1
  C  C13  1  0.750000  0.336718  0.748040  1
  C  C14  1  0.250000  0.666700  0.253729  1
  C  C15  1  0.750000  0.836718  0.751960  1
