# generated using pymatgen
data_Yb2TmPa5(Pt2Pb)4
_symmetry_space_group_name_H-M   'P 1'
_cell_length_a   7.92100668
_cell_length_b   7.92100665
_cell_length_c   7.24322700
_cell_angle_alpha   90.00000000
_cell_angle_beta   90.00000000
_cell_angle_gamma   91.68746338
_symmetry_Int_Tables_number   1
_chemical_formula_structural   Yb2TmPa5(Pt2Pb)4
_chemical_formula_sum   'Yb2 Tm1 Pa5 Pt8 Pb4'
_cell_volume   454.25997325
_cell_formula_units_Z   1
loop_
 _symmetry_equiv_pos_site_id
 _symmetry_equiv_pos_as_xyz
  1  'x, y, z'
loop_
 _atom_site_type_symbol
 _atom_site_label
 _atom_site_symmetry_multiplicity
 _atom_site_fract_x
 _atom_site_fract_y
 _atom_site_fract_z
 _atom_site_occupancy
  Yb  Yb0  1  0.175835  0.824165  0.500000  1
  Yb  Yb1  1  0.161582  0.838418  0.000000  1
  Tm  Tm2  1  0.840228  0.159772  0.000000  1
  Pa  Pa3  1  0.680971  0.677647  0.000000  1
  Pa  Pa4  1  0.335973  0.337039  0.500000  1
  Pa  Pa5  1  0.825448  0.174552  0.500000  1
  Pa  Pa6  1  0.662961  0.664027  0.500000  1
  Pa  Pa7  1  0.322353  0.319029  0.000000  1
  Pt  Pt8  1  0.861860  0.873613  0.733678  1
  Pt  Pt9  1  0.126387  0.138140  0.733678  1
  Pt  Pt10  1  0.631504  0.368496  0.762951  1
  Pt  Pt11  1  0.631504  0.368496  0.237049  1
  Pt  Pt12  1  0.382017  0.617983  0.232937  1
  Pt  Pt13  1  0.126387  0.138140  0.266322  1
  Pt  Pt14  1  0.861860  0.873613  0.266322  1
  Pt  Pt15  1  0.382017  0.617983  0.767063  1
  Pb  Pb16  1  0.491268  0.995711  0.752497  1
  Pb  Pb17  1  0.491268  0.995711  0.247503  1
  Pb  Pb18  1  0.004289  0.508732  0.752497  1
  Pb  Pb19  1  0.004289  0.508732  0.247503  1
