# generated using pymatgen
data_Sc10TlIn8Ir2Rh
_symmetry_space_group_name_H-M   'P 1'
_cell_length_a   3.38042700
_cell_length_b   7.87278277
_cell_length_c   17.84570006
_cell_angle_alpha   90.32609033
_cell_angle_beta   90.00000000
_cell_angle_gamma   90.00000000
_symmetry_Int_Tables_number   1
_chemical_formula_structural   Sc10TlIn8Ir2Rh
_chemical_formula_sum   'Sc10 Tl1 In8 Ir2 Rh1'
_cell_volume   474.92648132
_cell_formula_units_Z   1
loop_
 _symmetry_equiv_pos_site_id
 _symmetry_equiv_pos_as_xyz
  1  'x, y, z'
loop_
 _atom_site_type_symbol
 _atom_site_label
 _atom_site_symmetry_multiplicity
 _atom_site_fract_x
 _atom_site_fract_y
 _atom_site_fract_z
 _atom_site_occupancy
  Sc  Sc0  1  0.000000  0.000936  0.002054  1
  Sc  Sc1  1  0.000000  0.499436  0.497257  1
  Sc  Sc2  1  0.000000  0.782268  0.775365  1
  Sc  Sc3  1  0.000000  0.250495  0.223522  1
  Sc  Sc4  1  0.000000  0.224839  0.711111  1
  Sc  Sc5  1  0.000000  0.757373  0.278924  1
  Sc  Sc6  1  0.000000  0.878275  0.579729  1
  Sc  Sc7  1  0.000000  0.122899  0.412452  1
  Sc  Sc8  1  0.000000  0.365592  0.931308  1
  Sc  Sc9  1  0.000000  0.618470  0.089582  1
  Tl  Tl10  1  0.500000  0.465180  0.803194  1
  In  In11  1  0.500000  0.795852  0.431910  1
  In  In12  1  0.500000  0.204336  0.561598  1
  In  In13  1  0.500000  0.290502  0.073581  1
  In  In14  1  0.500000  0.704677  0.940560  1
  In  In15  1  0.500000  0.927207  0.148673  1
  In  In16  1  0.500000  0.069543  0.854529  1
  In  In17  1  0.500000  0.430643  0.350533  1
  In  In18  1  0.500000  0.580095  0.641843  1
  Ir  Ir19  1  0.500000  0.964307  0.691737  1
  Ir  Ir20  1  0.500000  0.033045  0.304645  1
  Rh  Rh21  1  0.500000  0.534028  0.195892  1
