# generated using pymatgen
data_Cs4Cr3MoN8
_symmetry_space_group_name_H-M   'P 1'
_cell_length_a   5.89759000
_cell_length_b   8.32943400
_cell_length_c   11.80495800
_cell_angle_alpha   90.00000000
_cell_angle_beta   90.00000000
_cell_angle_gamma   90.00000000
_symmetry_Int_Tables_number   1
_chemical_formula_structural   Cs4Cr3MoN8
_chemical_formula_sum   'Cs8 Cr6 Mo2 N16'
_cell_volume   579.90187738
_cell_formula_units_Z   2
loop_
 _symmetry_equiv_pos_site_id
 _symmetry_equiv_pos_as_xyz
  1  'x, y, z'
loop_
 _atom_site_type_symbol
 _atom_site_label
 _atom_site_symmetry_multiplicity
 _atom_site_fract_x
 _atom_site_fract_y
 _atom_site_fract_z
 _atom_site_occupancy
  Cs  Cs0  1  0.750000  0.115721  0.000000  1
  Cs  Cs1  1  0.250000  0.884279  0.500000  1
  Cs  Cs2  1  0.250000  0.873643  0.000000  1
  Cs  Cs3  1  0.750000  0.126357  0.500000  1
  Cs  Cs4  1  0.742604  0.371161  0.244582  1
  Cs  Cs5  1  0.242604  0.628839  0.255418  1
  Cs  Cs6  1  0.257396  0.628839  0.744582  1
  Cs  Cs7  1  0.757396  0.371161  0.755418  1
  Cr  Cr8  1  0.750000  0.639794  0.000000  1
  Cr  Cr9  1  0.250000  0.360206  0.500000  1
  Cr  Cr10  1  0.245046  0.119505  0.252280  1
  Cr  Cr11  1  0.745046  0.880495  0.247720  1
  Cr  Cr12  1  0.754954  0.880495  0.752280  1
  Cr  Cr13  1  0.254954  0.119505  0.747720  1
  Mo  Mo14  1  0.250000  0.378342  0.000000  1
  Mo  Mo15  1  0.750000  0.621658  0.500000  1
  N  N16  1  0.992799  0.002279  0.250019  1
  N  N17  1  0.492799  0.997721  0.249981  1
  N  N18  1  0.007201  0.997721  0.750019  1
  N  N19  1  0.507201  0.002279  0.749981  1
  N  N20  1  0.248218  0.238661  0.377550  1
  N  N21  1  0.748218  0.761339  0.122450  1
  N  N22  1  0.751782  0.761339  0.877550  1
  N  N23  1  0.251782  0.238661  0.622450  1
  N  N24  1  0.751828  0.752584  0.630978  1
  N  N25  1  0.251828  0.247416  0.869022  1
  N  N26  1  0.248172  0.247416  0.130978  1
  N  N27  1  0.748172  0.752584  0.369022  1
  N  N28  1  0.493280  0.488530  0.499961  1
  N  N29  1  0.993280  0.511470  0.000039  1
  N  N30  1  0.506720  0.511470  0.999961  1
  N  N31  1  0.006720  0.488530  0.500039  1
