# generated using pymatgen
data_Pr2Re2TcB5
_symmetry_space_group_name_H-M   'P 1'
_cell_length_a   5.80027786
_cell_length_b   5.80027768
_cell_length_c   8.24935795
_cell_angle_alpha   123.39071652
_cell_angle_beta   123.39070429
_cell_angle_gamma   41.69575133
_symmetry_Int_Tables_number   1
_chemical_formula_structural   Pr2Re2TcB5
_chemical_formula_sum   'Pr2 Re2 Tc1 B5'
_cell_volume   149.20213892
_cell_formula_units_Z   1
loop_
 _symmetry_equiv_pos_site_id
 _symmetry_equiv_pos_as_xyz
  1  'x, y, z'
loop_
 _atom_site_type_symbol
 _atom_site_label
 _atom_site_symmetry_multiplicity
 _atom_site_fract_x
 _atom_site_fract_y
 _atom_site_fract_z
 _atom_site_occupancy
  Pr  Pr0  1  0.069814  0.601382  0.238374  1
  Pr  Pr1  1  0.398618  0.930186  0.761627  1
  Re  Re2  1  0.880117  0.387592  0.402809  1
  Re  Re3  1  0.612409  0.119884  0.597191  1
  Tc  Tc4  1  0.004070  0.995930  0.000000  1
  B  B5  1  0.527290  0.524476  0.118743  1
  B  B6  1  0.373943  0.905218  0.311064  1
  B  B7  1  0.729706  0.270293  0.500000  1
  B  B8  1  0.094782  0.626058  0.688937  1
  B  B9  1  0.475524  0.472710  0.881258  1
