# generated using pymatgen
data_CaLa(NiIr)2
_symmetry_space_group_name_H-M   'P 1'
_cell_length_a   5.28251807
_cell_length_b   5.41161604
_cell_length_c   5.28251823
_cell_angle_alpha   59.18822468
_cell_angle_beta   58.94962060
_cell_angle_gamma   59.18822499
_symmetry_Int_Tables_number   1
_chemical_formula_structural   CaLa(NiIr)2
_chemical_formula_sum   'Ca1 La1 Ni2 Ir2'
_cell_volume   104.61015420
_cell_formula_units_Z   1
loop_
 _symmetry_equiv_pos_site_id
 _symmetry_equiv_pos_as_xyz
  1  'x, y, z'
loop_
 _atom_site_type_symbol
 _atom_site_label
 _atom_site_symmetry_multiplicity
 _atom_site_fract_x
 _atom_site_fract_y
 _atom_site_fract_z
 _atom_site_occupancy
  Ca  Ca0  1  0.998877  0.001123  0.998877  1
  La  La1  1  0.750005  0.749995  0.750005  1
  Ni  Ni2  1  0.876640  0.374399  0.374561  1
  Ni  Ni3  1  0.374561  0.374399  0.876640  1
  Ir  Ir4  1  0.374958  0.875713  0.374958  1
  Ir  Ir5  1  0.374958  0.374371  0.374958  1
