# generated using pymatgen
data_ReTc3(BW)8
_symmetry_space_group_name_H-M   'P 1'
_cell_length_a   3.11444600
_cell_length_b   7.54902723
_cell_length_c   9.69642430
_cell_angle_alpha   90.02851369
_cell_angle_beta   90.00000000
_cell_angle_gamma   90.00000000
_symmetry_Int_Tables_number   1
_chemical_formula_structural   ReTc3(BW)8
_chemical_formula_sum   'Re1 Tc3 B8 W8'
_cell_volume   227.97296877
_cell_formula_units_Z   1
loop_
 _symmetry_equiv_pos_site_id
 _symmetry_equiv_pos_as_xyz
  1  'x, y, z'
loop_
 _atom_site_type_symbol
 _atom_site_label
 _atom_site_symmetry_multiplicity
 _atom_site_fract_x
 _atom_site_fract_y
 _atom_site_fract_z
 _atom_site_occupancy
  Re  Re0  1  0.500000  0.623118  0.395548  1
  Tc  Tc1  1  0.500000  0.376184  0.605170  1
  Tc  Tc2  1  0.000000  0.876475  0.894915  1
  Tc  Tc3  1  0.000000  0.123668  0.105249  1
  B  B4  1  0.500000  0.115928  0.460191  1
  B  B5  1  0.500000  0.884381  0.540047  1
  B  B6  1  0.000000  0.384204  0.959824  1
  B  B7  1  0.000000  0.615633  0.039961  1
  B  B8  1  0.500000  0.124072  0.266933  1
  B  B9  1  0.500000  0.876214  0.733142  1
  B  B10  1  0.000000  0.375833  0.767205  1
  B  B11  1  0.000000  0.624036  0.232187  1
  W  W12  1  0.500000  0.811763  0.129839  1
  W  W13  1  0.500000  0.188201  0.869746  1
  W  W14  1  0.000000  0.688570  0.630582  1
  W  W15  1  0.000000  0.311788  0.369589  1
  W  W16  1  0.500000  0.576533  0.861542  1
  W  W17  1  0.500000  0.423258  0.138240  1
  W  W18  1  0.000000  0.923716  0.361258  1
  W  W19  1  0.000000  0.076426  0.638834  1
