# generated using pymatgen
data_Sc4SiCl6
_symmetry_space_group_name_H-M   'P 1'
_cell_length_a   3.70869500
_cell_length_b   12.08916100
_cell_length_c   12.81536300
_cell_angle_alpha   90.00000000
_cell_angle_beta   90.00000000
_cell_angle_gamma   90.00000000
_symmetry_Int_Tables_number   1
_chemical_formula_structural   Sc4SiCl6
_chemical_formula_sum   'Sc8 Si2 Cl12'
_cell_volume   574.57694050
_cell_formula_units_Z   2
loop_
 _symmetry_equiv_pos_site_id
 _symmetry_equiv_pos_as_xyz
  1  'x, y, z'
loop_
 _atom_site_type_symbol
 _atom_site_label
 _atom_site_symmetry_multiplicity
 _atom_site_fract_x
 _atom_site_fract_y
 _atom_site_fract_z
 _atom_site_occupancy
  Sc  Sc0  1  0.500000  0.120711  0.337718  1
  Sc  Sc1  1  0.500000  0.879289  0.662282  1
  Sc  Sc2  1  0.500000  0.620711  0.162282  1
  Sc  Sc3  1  0.500000  0.379289  0.837718  1
  Sc  Sc4  1  0.000000  0.123465  0.581818  1
  Sc  Sc5  1  0.000000  0.876535  0.418182  1
  Sc  Sc6  1  0.000000  0.623465  0.918182  1
  Sc  Sc7  1  0.000000  0.376535  0.081818  1
  Si  Si8  1  0.500000  0.000000  0.500000  1
  Si  Si9  1  0.500000  0.500000  0.000000  1
  Cl  Cl10  1  0.500000  0.245073  0.163235  1
  Cl  Cl11  1  0.500000  0.754927  0.836765  1
  Cl  Cl12  1  0.500000  0.745073  0.336765  1
  Cl  Cl13  1  0.500000  0.254927  0.663235  1
  Cl  Cl14  1  0.000000  0.251500  0.410101  1
  Cl  Cl15  1  0.000000  0.748500  0.589899  1
  Cl  Cl16  1  0.000000  0.751500  0.089899  1
  Cl  Cl17  1  0.000000  0.248500  0.910101  1
  Cl  Cl18  1  0.000000  0.004168  0.246259  1
  Cl  Cl19  1  0.000000  0.995832  0.753741  1
  Cl  Cl20  1  0.000000  0.504168  0.253741  1
  Cl  Cl21  1  0.000000  0.495832  0.746259  1
