# generated using pymatgen
data_Ho6Lu4Si6HC
_symmetry_space_group_name_H-M   'P 1'
_cell_length_a   6.24085500
_cell_length_b   8.34491478
_cell_length_c   8.34468800
_cell_angle_alpha   120.00096376
_cell_angle_beta   90.00130560
_cell_angle_gamma   89.99884437
_symmetry_Int_Tables_number   1
_chemical_formula_structural   Ho6Lu4Si6HC
_chemical_formula_sum   'Ho6 Lu4 Si6 H1 C1'
_cell_volume   376.35918176
_cell_formula_units_Z   1
loop_
 _symmetry_equiv_pos_site_id
 _symmetry_equiv_pos_as_xyz
  1  'x, y, z'
loop_
 _atom_site_type_symbol
 _atom_site_label
 _atom_site_symmetry_multiplicity
 _atom_site_fract_x
 _atom_site_fract_y
 _atom_site_fract_z
 _atom_site_occupancy
  Ho  Ho0  1  0.766377  0.234993  0.000001  1
  Ho  Ho1  1  0.766382  0.765021  0.765014  1
  Ho  Ho2  1  0.766387  0.000007  0.234991  1
  Ho  Ho3  1  0.233623  0.765009  0.000000  1
  Ho  Ho4  1  0.233613  0.234989  0.234994  1
  Ho  Ho5  1  0.233618  0.999994  0.765010  1
  Lu  Lu6  1  0.500001  0.333328  0.666654  1
  Lu  Lu7  1  0.499993  0.666673  0.333344  1
  Lu  Lu8  1  0.999996  0.666697  0.333399  1
  Lu  Lu9  1  0.999999  0.333293  0.666600  1
  Si  Si10  1  0.752158  0.599898  0.999999  1
  Si  Si11  1  0.752116  0.400100  0.400134  1
  Si  Si12  1  0.752114  0.999967  0.599869  1
  Si  Si13  1  0.247849  0.400105  0.999999  1
  Si  Si14  1  0.247886  0.599900  0.599866  1
  Si  Si15  1  0.247885  0.000033  0.400133  1
  H  H16  1  0.500001  0.999994  0.999999  1
  C  C17  1  0.000004  0.999999  0.999995  1
