# generated using pymatgen
data_Dy4ScIr2Os
_symmetry_space_group_name_H-M   'P 1'
_cell_length_a   10.74879400
_cell_length_b   10.74879400
_cell_length_c   6.31023400
_cell_angle_alpha   90.00000000
_cell_angle_beta   90.00000000
_cell_angle_gamma   90.00000000
_symmetry_Int_Tables_number   1
_chemical_formula_structural   Dy4ScIr2Os
_chemical_formula_sum   'Dy16 Sc4 Ir8 Os4'
_cell_volume   729.06280775
_cell_formula_units_Z   4
loop_
 _symmetry_equiv_pos_site_id
 _symmetry_equiv_pos_as_xyz
  1  'x, y, z'
loop_
 _atom_site_type_symbol
 _atom_site_label
 _atom_site_symmetry_multiplicity
 _atom_site_fract_x
 _atom_site_fract_y
 _atom_site_fract_z
 _atom_site_occupancy
  Dy  Dy0  1  0.290166  0.085035  0.377496  1
  Dy  Dy1  1  0.290166  0.914965  0.877496  1
  Dy  Dy2  1  0.709834  0.085035  0.877496  1
  Dy  Dy3  1  0.709834  0.914965  0.377496  1
  Dy  Dy4  1  0.585035  0.790166  0.877496  1
  Dy  Dy5  1  0.585035  0.209834  0.377496  1
  Dy  Dy6  1  0.414965  0.790166  0.377496  1
  Dy  Dy7  1  0.414965  0.209834  0.877496  1
  Dy  Dy8  1  0.209834  0.414965  0.622504  1
  Dy  Dy9  1  0.209834  0.585035  0.122504  1
  Dy  Dy10  1  0.790166  0.414965  0.122504  1
  Dy  Dy11  1  0.790166  0.585035  0.622504  1
  Dy  Dy12  1  0.914965  0.709834  0.122504  1
  Dy  Dy13  1  0.914965  0.290166  0.622504  1
  Dy  Dy14  1  0.085035  0.709834  0.622504  1
  Dy  Dy15  1  0.085035  0.290166  0.122504  1
  Sc  Sc16  1  0.000000  0.000000  0.500000  1
  Sc  Sc17  1  0.000000  0.000000  0.000000  1
  Sc  Sc18  1  0.500000  0.500000  0.000000  1
  Sc  Sc19  1  0.500000  0.500000  0.500000  1
  Ir  Ir20  1  0.853751  0.146249  0.250000  1
  Ir  Ir21  1  0.853751  0.853751  0.750000  1
  Ir  Ir22  1  0.146249  0.146249  0.750000  1
  Ir  Ir23  1  0.146249  0.853751  0.250000  1
  Ir  Ir24  1  0.646249  0.353751  0.750000  1
  Ir  Ir25  1  0.646249  0.646249  0.250000  1
  Ir  Ir26  1  0.353751  0.353751  0.250000  1
  Ir  Ir27  1  0.353751  0.646249  0.750000  1
  Os  Os28  1  0.500000  0.000000  0.124118  1
  Os  Os29  1  0.500000  0.000000  0.624118  1
  Os  Os30  1  0.000000  0.500000  0.875882  1
  Os  Os31  1  0.000000  0.500000  0.375882  1
