# generated using pymatgen
data_Yb3GdAl3RuO12
_symmetry_space_group_name_H-M   'P 1'
_cell_length_a   5.28886915
_cell_length_b   5.31414640
_cell_length_c   7.52064042
_cell_angle_alpha   89.63639044
_cell_angle_beta   89.84758633
_cell_angle_gamma   89.67029645
_symmetry_Int_Tables_number   1
_chemical_formula_structural   Yb3GdAl3RuO12
_chemical_formula_sum   'Yb3 Gd1 Al3 Ru1 O12'
_cell_volume   211.36531992
_cell_formula_units_Z   1
loop_
 _symmetry_equiv_pos_site_id
 _symmetry_equiv_pos_as_xyz
  1  'x, y, z'
loop_
 _atom_site_type_symbol
 _atom_site_label
 _atom_site_symmetry_multiplicity
 _atom_site_fract_x
 _atom_site_fract_y
 _atom_site_fract_z
 _atom_site_occupancy
  Yb  Yb0  1  0.997230  0.033380  0.270013  1
  Yb  Yb1  1  0.491584  0.460885  0.733881  1
  Yb  Yb2  1  0.004020  0.967788  0.728546  1
  Gd  Gd3  1  0.507329  0.540916  0.271699  1
  Al  Al4  1  0.499371  0.002271  0.505629  1
  Al  Al5  1  0.001358  0.499411  0.502059  1
  Al  Al6  1  0.501183  0.000617  0.996840  1
  Ru  Ru7  1  0.001103  0.498903  0.996122  1
  O  O8  1  0.432980  0.984127  0.243739  1
  O  O9  1  0.073465  0.482896  0.250321  1
  O  O10  1  0.568788  0.015468  0.755372  1
  O  O11  1  0.925503  0.517745  0.748794  1
  O  O12  1  0.800723  0.798706  0.040951  1
  O  O13  1  0.724628  0.279182  0.466666  1
  O  O14  1  0.222992  0.226597  0.532938  1
  O  O15  1  0.303232  0.699043  0.961428  1
  O  O16  1  0.196609  0.197394  0.959668  1
  O  O17  1  0.275752  0.721694  0.530664  1
  O  O18  1  0.775867  0.773511  0.464182  1
  O  O19  1  0.696284  0.299466  0.040485  1
