# generated using pymatgen
data_Dy4Lu6AlSb5
_symmetry_space_group_name_H-M   'P 1'
_cell_length_a   6.27559701
_cell_length_b   8.83294866
_cell_length_c   8.81929799
_cell_angle_alpha   120.05327024
_cell_angle_beta   89.99779633
_cell_angle_gamma   90.00478751
_symmetry_Int_Tables_number   1
_chemical_formula_structural   Dy4Lu6AlSb5
_chemical_formula_sum   'Dy4 Lu6 Al1 Sb5'
_cell_volume   423.14774106
_cell_formula_units_Z   1
loop_
 _symmetry_equiv_pos_site_id
 _symmetry_equiv_pos_as_xyz
  1  'x, y, z'
loop_
 _atom_site_type_symbol
 _atom_site_label
 _atom_site_symmetry_multiplicity
 _atom_site_fract_x
 _atom_site_fract_y
 _atom_site_fract_z
 _atom_site_occupancy
  Dy  Dy0  1  0.749996  0.753584  0.763358  1
  Dy  Dy1  1  0.750008  0.990240  0.236649  1
  Dy  Dy2  1  0.249988  0.244841  0.243178  1
  Dy  Dy3  1  0.249990  0.001646  0.756801  1
  Lu  Lu4  1  0.501410  0.338394  0.672913  1
  Lu  Lu5  1  0.501430  0.665495  0.327106  1
  Lu  Lu6  1  0.998569  0.665490  0.327092  1
  Lu  Lu7  1  0.998590  0.338397  0.672909  1
  Lu  Lu8  1  0.749954  0.249073  0.000003  1
  Lu  Lu9  1  0.249992  0.755952  0.999990  1
  Al  Al10  1  0.750005  0.600425  0.999994  1
  Sb  Sb11  1  0.750008  0.388819  0.388950  1
  Sb  Sb12  1  0.750019  0.999867  0.611063  1
  Sb  Sb13  1  0.250007  0.396833  0.000012  1
  Sb  Sb14  1  0.250010  0.609795  0.608636  1
  Sb  Sb15  1  0.250023  0.001150  0.391346  1
