# generated using pymatgen
data_MgSiP3(RuRh)3
_symmetry_space_group_name_H-M   'P 1'
_cell_length_a   7.06039600
_cell_length_b   7.06039611
_cell_length_c   3.58224800
_cell_angle_alpha   90.00000000
_cell_angle_beta   90.00000000
_cell_angle_gamma   119.99999012
_symmetry_Int_Tables_number   1
_chemical_formula_structural   MgSiP3(RuRh)3
_chemical_formula_sum   'Mg1 Si1 P3 Ru3 Rh3'
_cell_volume   154.64805098
_cell_formula_units_Z   1
loop_
 _symmetry_equiv_pos_site_id
 _symmetry_equiv_pos_as_xyz
  1  'x, y, z'
loop_
 _atom_site_type_symbol
 _atom_site_label
 _atom_site_symmetry_multiplicity
 _atom_site_fract_x
 _atom_site_fract_y
 _atom_site_fract_z
 _atom_site_occupancy
  Mg  Mg0  1  0.000000  0.000000  0.000000  1
  Si  Si1  1  0.333333  0.666667  0.000000  1
  P  P2  1  0.808504  0.191496  0.500000  1
  P  P3  1  0.382991  0.191496  0.500000  1
  P  P4  1  0.808504  0.617009  0.500000  1
  Ru  Ru5  1  0.537993  0.075987  0.000000  1
  Ru  Ru6  1  0.924013  0.462007  0.000000  1
  Ru  Ru7  1  0.537993  0.462007  0.000000  1
  Rh  Rh8  1  0.190116  0.809884  0.500000  1
  Rh  Rh9  1  0.190116  0.380233  0.500000  1
  Rh  Rh10  1  0.619767  0.809884  0.500000  1
