# generated using pymatgen
data_Cs2KLuBr6
_symmetry_space_group_name_H-M   'P 1'
_cell_length_a   8.40001619
_cell_length_b   8.40001628
_cell_length_c   8.40001677
_cell_angle_alpha   121.28327161
_cell_angle_beta   121.28326987
_cell_angle_gamma   87.79132228
_symmetry_Int_Tables_number   1
_chemical_formula_structural   Cs2KLuBr6
_chemical_formula_sum   'Cs2 K1 Lu1 Br6'
_cell_volume   410.64677948
_cell_formula_units_Z   1
loop_
 _symmetry_equiv_pos_site_id
 _symmetry_equiv_pos_as_xyz
  1  'x, y, z'
loop_
 _atom_site_type_symbol
 _atom_site_label
 _atom_site_symmetry_multiplicity
 _atom_site_fract_x
 _atom_site_fract_y
 _atom_site_fract_z
 _atom_site_occupancy
  Cs  Cs0  1  0.749999  0.250000  0.500000  1
  Cs  Cs1  1  0.250000  0.749999  0.500000  1
  K  K2  1  0.500000  0.500000  0.000000  1
  Lu  Lu3  1  0.000000  0.000000  0.000000  1
  Br  Br4  1  0.228562  0.228562  0.000000  1
  Br  Br5  1  0.771438  0.771438  0.000000  1
  Br  Br6  1  0.290955  0.834691  0.125645  1
  Br  Br7  1  0.165308  0.290954  0.456262  1
  Br  Br8  1  0.834691  0.709046  0.543737  1
  Br  Br9  1  0.709045  0.165308  0.874354  1
