# generated using pymatgen
data_Sm3Hg3PtAu2
_symmetry_space_group_name_H-M   'P 1'
_cell_length_a   8.01107900
_cell_length_b   8.01107795
_cell_length_c   3.83051100
_cell_angle_alpha   90.00000000
_cell_angle_beta   90.00000000
_cell_angle_gamma   120.00000021
_symmetry_Int_Tables_number   1
_chemical_formula_structural   Sm3Hg3PtAu2
_chemical_formula_sum   'Sm3 Hg3 Pt1 Au2'
_cell_volume   212.89688963
_cell_formula_units_Z   1
loop_
 _symmetry_equiv_pos_site_id
 _symmetry_equiv_pos_as_xyz
  1  'x, y, z'
loop_
 _atom_site_type_symbol
 _atom_site_label
 _atom_site_symmetry_multiplicity
 _atom_site_fract_x
 _atom_site_fract_y
 _atom_site_fract_z
 _atom_site_occupancy
  Sm  Sm0  1  0.591575  0.983528  0.000000  1
  Sm  Sm1  1  0.016472  0.608047  0.000000  1
  Sm  Sm2  1  0.391953  0.408425  0.000000  1
  Hg  Hg3  1  0.273554  0.002409  0.500000  1
  Hg  Hg4  1  0.997591  0.271145  0.500000  1
  Hg  Hg5  1  0.728855  0.726446  0.500000  1
  Pt  Pt6  1  0.333333  0.666667  0.500000  1
  Au  Au7  1  0.666667  0.333333  0.500000  1
  Au  Au8  1  0.000000  0.000000  0.000000  1
