# generated using pymatgen
data_RbZnAg2(NO3)8
_symmetry_space_group_name_H-M   'P 1'
_cell_length_a   8.67719349
_cell_length_b   8.17408786
_cell_length_c   7.66044135
_cell_angle_alpha   89.67508387
_cell_angle_beta   89.52020589
_cell_angle_gamma   89.72875072
_symmetry_Int_Tables_number   1
_chemical_formula_structural   RbZnAg2(NO3)8
_chemical_formula_sum   'Rb1 Zn1 Ag2 N8 O24'
_cell_volume   543.30711714
_cell_formula_units_Z   1
loop_
 _symmetry_equiv_pos_site_id
 _symmetry_equiv_pos_as_xyz
  1  'x, y, z'
loop_
 _atom_site_type_symbol
 _atom_site_label
 _atom_site_symmetry_multiplicity
 _atom_site_fract_x
 _atom_site_fract_y
 _atom_site_fract_z
 _atom_site_occupancy
  Rb  Rb0  1  0.500000  0.500000  0.500000  1
  Zn  Zn1  1  0.000000  0.000000  0.500000  1
  Ag  Ag2  1  0.500000  0.000000  0.000000  1
  Ag  Ag3  1  0.000000  0.500000  0.000000  1
  N  N4  1  0.679060  0.112952  0.307830  1
  N  N5  1  0.682441  0.301914  0.874025  1
  N  N6  1  0.848406  0.805535  0.815434  1
  N  N7  1  0.866492  0.697874  0.340186  1
  N  N8  1  0.151594  0.194465  0.184566  1
  N  N9  1  0.133508  0.302126  0.659814  1
  N  N10  1  0.317559  0.698086  0.125975  1
  N  N11  1  0.320940  0.887048  0.692170  1
  O  O12  1  0.561443  0.209986  0.843676  1
  O  O13  1  0.570122  0.211179  0.303036  1
  O  O14  1  0.698167  0.421842  0.774799  1
  O  O15  1  0.686160  0.994274  0.196261  1
  O  O16  1  0.763648  0.714158  0.452248  1
  O  O17  1  0.738868  0.780688  0.916444  1
  O  O18  1  0.771710  0.268482  0.993876  1
  O  O19  1  0.785408  0.124493  0.418283  1
  O  O20  1  0.852468  0.932408  0.718039  1
  O  O21  1  0.853588  0.582865  0.228707  1
  O  O22  1  0.962432  0.704722  0.804906  1
  O  O23  1  0.983554  0.792057  0.333064  1
  O  O24  1  0.016446  0.207943  0.666936  1
  O  O25  1  0.037568  0.295278  0.195094  1
  O  O26  1  0.146412  0.417135  0.771293  1
  O  O27  1  0.147532  0.067592  0.281961  1
  O  O28  1  0.228290  0.731518  0.006124  1
  O  O29  1  0.214592  0.875507  0.581717  1
  O  O30  1  0.261132  0.219312  0.083556  1
  O  O31  1  0.236352  0.285842  0.547752  1
  O  O32  1  0.301833  0.578158  0.225201  1
  O  O33  1  0.313840  0.005726  0.803739  1
  O  O34  1  0.429878  0.788821  0.696964  1
  O  O35  1  0.438557  0.790014  0.156324  1
