# generated using pymatgen
data_Dy5Y15(FeHg3)2
_symmetry_space_group_name_H-M   'P 1'
_cell_length_a   9.60660039
_cell_length_b   9.60618491
_cell_length_c   9.64110185
_cell_angle_alpha   90.00000049
_cell_angle_beta   89.93842227
_cell_angle_gamma   119.99855977
_symmetry_Int_Tables_number   1
_chemical_formula_structural   Dy5Y15(FeHg3)2
_chemical_formula_sum   'Dy5 Y15 Fe2 Hg6'
_cell_volume   770.52003988
_cell_formula_units_Z   1
loop_
 _symmetry_equiv_pos_site_id
 _symmetry_equiv_pos_as_xyz
  1  'x, y, z'
loop_
 _atom_site_type_symbol
 _atom_site_label
 _atom_site_symmetry_multiplicity
 _atom_site_fract_x
 _atom_site_fract_y
 _atom_site_fract_z
 _atom_site_occupancy
  Dy  Dy0  1  0.212178  0.787539  0.435535  1
  Dy  Dy1  1  0.212178  0.424640  0.435535  1
  Dy  Dy2  1  0.575374  0.787688  0.435614  1
  Dy  Dy3  1  0.787815  0.212332  0.564432  1
  Dy  Dy4  1  0.787815  0.575482  0.564432  1
  Y  Y5  1  0.999685  0.999842  0.499894  1
  Y  Y6  1  0.999991  0.999996  0.000030  1
  Y  Y7  1  0.541746  0.458325  0.250373  1
  Y  Y8  1  0.541746  0.083421  0.250373  1
  Y  Y9  1  0.916470  0.458235  0.250519  1
  Y  Y10  1  0.458204  0.541945  0.749592  1
  Y  Y11  1  0.458204  0.916259  0.749592  1
  Y  Y12  1  0.083533  0.541767  0.749477  1
  Y  Y13  1  0.423486  0.211743  0.563684  1
  Y  Y14  1  0.788262  0.211711  0.935930  1
  Y  Y15  1  0.788262  0.576551  0.935930  1
  Y  Y16  1  0.423717  0.211858  0.936020  1
  Y  Y17  1  0.211768  0.788176  0.064151  1
  Y  Y18  1  0.211768  0.423593  0.064151  1
  Y  Y19  1  0.576409  0.788205  0.064130  1
  Fe  Fe20  1  0.333383  0.666692  0.252166  1
  Fe  Fe21  1  0.667844  0.333922  0.748436  1
  Hg  Hg22  1  0.881848  0.118202  0.249882  1
  Hg  Hg23  1  0.881848  0.763647  0.249882  1
  Hg  Hg24  1  0.236451  0.118226  0.249903  1
  Hg  Hg25  1  0.118191  0.881819  0.750079  1
  Hg  Hg26  1  0.118191  0.236371  0.750079  1
  Hg  Hg27  1  0.763632  0.881815  0.750181  1
