# generated using pymatgen
data_Gd8Si12PtRh3
_symmetry_space_group_name_H-M   'P 1'
_cell_length_a   8.15997000
_cell_length_b   8.15997023
_cell_length_c   7.86797600
_cell_angle_alpha   90.00000000
_cell_angle_beta   90.00000000
_cell_angle_gamma   120.00000718
_symmetry_Int_Tables_number   1
_chemical_formula_structural   Gd8Si12PtRh3
_chemical_formula_sum   'Gd8 Si12 Pt1 Rh3'
_cell_volume   453.70207244
_cell_formula_units_Z   1
loop_
 _symmetry_equiv_pos_site_id
 _symmetry_equiv_pos_as_xyz
  1  'x, y, z'
loop_
 _atom_site_type_symbol
 _atom_site_label
 _atom_site_symmetry_multiplicity
 _atom_site_fract_x
 _atom_site_fract_y
 _atom_site_fract_z
 _atom_site_occupancy
  Gd  Gd0  1  0.000000  0.000000  0.249522  1
  Gd  Gd1  1  0.000000  0.000000  0.751008  1
  Gd  Gd2  1  0.510163  0.489837  0.247662  1
  Gd  Gd3  1  0.510163  0.020325  0.247662  1
  Gd  Gd4  1  0.979675  0.489837  0.247662  1
  Gd  Gd5  1  0.491377  0.508623  0.751881  1
  Gd  Gd6  1  0.491377  0.982753  0.751881  1
  Gd  Gd7  1  0.017247  0.508623  0.751881  1
  Si  Si8  1  0.164107  0.835893  0.500019  1
  Si  Si9  1  0.164107  0.328213  0.500019  1
  Si  Si10  1  0.671787  0.835893  0.500019  1
  Si  Si11  1  0.832609  0.167391  0.499669  1
  Si  Si12  1  0.832609  0.665220  0.499669  1
  Si  Si13  1  0.334780  0.167391  0.499669  1
  Si  Si14  1  0.833744  0.166256  0.999369  1
  Si  Si15  1  0.833744  0.667489  0.999369  1
  Si  Si16  1  0.332511  0.166256  0.999369  1
  Si  Si17  1  0.166451  0.833549  0.000676  1
  Si  Si18  1  0.166451  0.332901  0.000676  1
  Si  Si19  1  0.667099  0.833549  0.000676  1
  Pt  Pt20  1  0.333333  0.666667  0.466991  1
  Rh  Rh21  1  0.666667  0.333333  0.536299  1
  Rh  Rh22  1  0.666667  0.333333  0.964050  1
  Rh  Rh23  1  0.333333  0.666667  0.034302  1
