# generated using pymatgen
data_Tb4FeCo3Br2
_symmetry_space_group_name_H-M   'P 1'
_cell_length_a   3.90461200
_cell_length_b   3.90461134
_cell_length_c   16.53185700
_cell_angle_alpha   90.00000000
_cell_angle_beta   90.00000000
_cell_angle_gamma   119.99998864
_symmetry_Int_Tables_number   1
_chemical_formula_structural   Tb4FeCo3Br2
_chemical_formula_sum   'Tb4 Fe1 Co3 Br2'
_cell_volume   218.27702070
_cell_formula_units_Z   1
loop_
 _symmetry_equiv_pos_site_id
 _symmetry_equiv_pos_as_xyz
  1  'x, y, z'
loop_
 _atom_site_type_symbol
 _atom_site_label
 _atom_site_symmetry_multiplicity
 _atom_site_fract_x
 _atom_site_fract_y
 _atom_site_fract_z
 _atom_site_occupancy
  Tb  Tb0  1  0.000000  0.000000  0.110757  1
  Tb  Tb1  1  0.000000  0.000000  0.392602  1
  Tb  Tb2  1  0.000000  0.000000  0.889707  1
  Tb  Tb3  1  0.000000  0.000000  0.607271  1
  Fe  Fe4  1  0.333333  0.666667  0.002090  1
  Co  Co5  1  0.666667  0.333333  0.997931  1
  Co  Co6  1  0.333333  0.666667  0.498218  1
  Co  Co7  1  0.666667  0.333333  0.501648  1
  Br  Br8  1  0.333333  0.666667  0.749448  1
  Br  Br9  1  0.666667  0.333333  0.250326  1
