# generated using pymatgen
data_Ho8Tm3Lu5(Ga3Co)2
_symmetry_space_group_name_H-M   'P 1'
_cell_length_a   9.87010500
_cell_length_b   9.87010467
_cell_length_c   6.88317900
_cell_angle_alpha   90.00000000
_cell_angle_beta   90.00000000
_cell_angle_gamma   120.00000445
_symmetry_Int_Tables_number   1
_chemical_formula_structural   Ho8Tm3Lu5(Ga3Co)2
_chemical_formula_sum   'Ho8 Tm3 Lu5 Ga6 Co2'
_cell_volume   580.71521791
_cell_formula_units_Z   1
loop_
 _symmetry_equiv_pos_site_id
 _symmetry_equiv_pos_as_xyz
  1  'x, y, z'
loop_
 _atom_site_type_symbol
 _atom_site_label
 _atom_site_symmetry_multiplicity
 _atom_site_fract_x
 _atom_site_fract_y
 _atom_site_fract_z
 _atom_site_occupancy
  Ho  Ho0  1  0.464409  0.535591  0.207476  1
  Ho  Ho1  1  0.071183  0.535591  0.207476  1
  Ho  Ho2  1  0.464409  0.928817  0.207476  1
  Ho  Ho3  1  0.535824  0.464176  0.708443  1
  Ho  Ho4  1  0.928351  0.464176  0.708443  1
  Ho  Ho5  1  0.535824  0.071649  0.708443  1
  Ho  Ho6  1  0.000000  0.000000  0.229800  1
  Ho  Ho7  1  0.000000  0.000000  0.731648  1
  Tm  Tm8  1  0.173641  0.826359  0.511437  1
  Tm  Tm9  1  0.652718  0.826359  0.511437  1
  Tm  Tm10  1  0.173641  0.347282  0.511437  1
  Lu  Lu11  1  0.826191  0.173809  0.011461  1
  Lu  Lu12  1  0.347618  0.173809  0.011461  1
  Lu  Lu13  1  0.826191  0.652382  0.011461  1
  Lu  Lu14  1  0.333333  0.666667  0.826832  1
  Lu  Lu15  1  0.666667  0.333333  0.325779  1
  Ga  Ga16  1  0.163483  0.836517  0.959065  1
  Ga  Ga17  1  0.673031  0.836517  0.959065  1
  Ga  Ga18  1  0.163483  0.326969  0.959065  1
  Ga  Ga19  1  0.836144  0.163856  0.458295  1
  Ga  Ga20  1  0.327714  0.163856  0.458295  1
  Ga  Ga21  1  0.836144  0.672286  0.458295  1
  Co  Co22  1  0.333333  0.666667  0.445588  1
  Co  Co23  1  0.666667  0.333333  0.945856  1
