# generated using pymatgen
data_Li4Pr4Pd3Pt
_symmetry_space_group_name_H-M   'P 1'
_cell_length_a   4.09343300
_cell_length_b   7.36023654
_cell_length_c   8.72952500
_cell_angle_alpha   89.47367460
_cell_angle_beta   90.00000000
_cell_angle_gamma   90.00000000
_symmetry_Int_Tables_number   1
_chemical_formula_structural   Li4Pr4Pd3Pt
_chemical_formula_sum   'Li4 Pr4 Pd3 Pt1'
_cell_volume   262.99757692
_cell_formula_units_Z   1
loop_
 _symmetry_equiv_pos_site_id
 _symmetry_equiv_pos_as_xyz
  1  'x, y, z'
loop_
 _atom_site_type_symbol
 _atom_site_label
 _atom_site_symmetry_multiplicity
 _atom_site_fract_x
 _atom_site_fract_y
 _atom_site_fract_z
 _atom_site_occupancy
  Li  Li0  1  0.250000  0.373140  0.553941  1
  Li  Li1  1  0.250000  0.873608  0.944549  1
  Li  Li2  1  0.750000  0.622599  0.444830  1
  Li  Li3  1  0.750000  0.126943  0.056913  1
  Pr  Pr4  1  0.250000  0.957045  0.315088  1
  Pr  Pr5  1  0.250000  0.450442  0.187722  1
  Pr  Pr6  1  0.750000  0.049715  0.682782  1
  Pr  Pr7  1  0.750000  0.546616  0.815656  1
  Pd  Pd8  1  0.250000  0.251556  0.879432  1
  Pd  Pd9  1  0.250000  0.752841  0.621683  1
  Pd  Pd10  1  0.750000  0.747943  0.119398  1
  Pt  Pt11  1  0.750000  0.247549  0.378005  1
