# generated using pymatgen
data_Pr4AuBr6
_symmetry_space_group_name_H-M   'P 1'
_cell_length_a   4.28393300
_cell_length_b   14.00859800
_cell_length_c   14.86360100
_cell_angle_alpha   90.00000000
_cell_angle_beta   90.00000000
_cell_angle_gamma   90.00000000
_symmetry_Int_Tables_number   1
_chemical_formula_structural   Pr4AuBr6
_chemical_formula_sum   'Pr8 Au2 Br12'
_cell_volume   891.99286634
_cell_formula_units_Z   2
loop_
 _symmetry_equiv_pos_site_id
 _symmetry_equiv_pos_as_xyz
  1  'x, y, z'
loop_
 _atom_site_type_symbol
 _atom_site_label
 _atom_site_symmetry_multiplicity
 _atom_site_fract_x
 _atom_site_fract_y
 _atom_site_fract_z
 _atom_site_occupancy
  Pr  Pr0  1  0.500000  0.121194  0.337570  1
  Pr  Pr1  1  0.500000  0.878806  0.662430  1
  Pr  Pr2  1  0.500000  0.621194  0.162430  1
  Pr  Pr3  1  0.500000  0.378806  0.837570  1
  Pr  Pr4  1  0.000000  0.121231  0.580457  1
  Pr  Pr5  1  0.000000  0.878769  0.419543  1
  Pr  Pr6  1  0.000000  0.621231  0.919543  1
  Pr  Pr7  1  0.000000  0.378769  0.080457  1
  Au  Au8  1  0.500000  0.000000  0.500000  1
  Au  Au9  1  0.500000  0.500000  0.000000  1
  Br  Br10  1  0.500000  0.243451  0.162561  1
  Br  Br11  1  0.500000  0.756549  0.837439  1
  Br  Br12  1  0.500000  0.743451  0.337439  1
  Br  Br13  1  0.500000  0.256549  0.662561  1
  Br  Br14  1  0.000000  0.252757  0.410446  1
  Br  Br15  1  0.000000  0.747243  0.589554  1
  Br  Br16  1  0.000000  0.752757  0.089554  1
  Br  Br17  1  0.000000  0.247243  0.910446  1
  Br  Br18  1  0.000000  0.002882  0.245733  1
  Br  Br19  1  0.000000  0.997118  0.754267  1
  Br  Br20  1  0.000000  0.502882  0.254267  1
  Br  Br21  1  0.000000  0.497118  0.745733  1
