# generated using pymatgen
data_PaFe2(PRh)3
_symmetry_space_group_name_H-M   'P 1'
_cell_length_a   3.82530100
_cell_length_b   10.69103800
_cell_length_c   12.25512700
_cell_angle_alpha   90.00000000
_cell_angle_beta   90.00000000
_cell_angle_gamma   90.00000000
_symmetry_Int_Tables_number   1
_chemical_formula_structural   PaFe2(PRh)3
_chemical_formula_sum   'Pa4 Fe8 P12 Rh12'
_cell_volume   501.19104586
_cell_formula_units_Z   4
loop_
 _symmetry_equiv_pos_site_id
 _symmetry_equiv_pos_as_xyz
  1  'x, y, z'
loop_
 _atom_site_type_symbol
 _atom_site_label
 _atom_site_symmetry_multiplicity
 _atom_site_fract_x
 _atom_site_fract_y
 _atom_site_fract_z
 _atom_site_occupancy
  Pa  Pa0  1  0.250000  0.576855  0.711684  1
  Pa  Pa1  1  0.250000  0.923145  0.211684  1
  Pa  Pa2  1  0.750000  0.423145  0.288316  1
  Pa  Pa3  1  0.750000  0.076855  0.788316  1
  Fe  Fe4  1  0.250000  0.875796  0.697765  1
  Fe  Fe5  1  0.250000  0.624204  0.197765  1
  Fe  Fe6  1  0.750000  0.124204  0.302235  1
  Fe  Fe7  1  0.750000  0.375796  0.802235  1
  Fe  Fe8  1  0.250000  0.461913  0.930999  1
  Fe  Fe9  1  0.250000  0.038087  0.430999  1
  Fe  Fe10  1  0.750000  0.538087  0.069001  1
  Fe  Fe11  1  0.750000  0.961913  0.569001  1
  P  P12  1  0.250000  0.439243  0.110265  1
  P  P13  1  0.250000  0.060757  0.610265  1
  P  P14  1  0.750000  0.560757  0.889735  1
  P  P15  1  0.750000  0.939243  0.389735  1
  P  P16  1  0.250000  0.275755  0.866226  1
  P  P17  1  0.250000  0.224245  0.366226  1
  P  P18  1  0.750000  0.724245  0.133774  1
  P  P19  1  0.750000  0.775755  0.633774  1
  P  P20  1  0.250000  0.606568  0.380374  1
  P  P21  1  0.250000  0.893432  0.880374  1
  P  P22  1  0.750000  0.393432  0.619626  1
  P  P23  1  0.750000  0.106568  0.119626  1
  Rh  Rh24  1  0.250000  0.715700  0.992952  1
  Rh  Rh25  1  0.250000  0.784300  0.492952  1
  Rh  Rh26  1  0.750000  0.284300  0.007048  1
  Rh  Rh27  1  0.750000  0.215700  0.507048  1
  Rh  Rh28  1  0.250000  0.410362  0.470810  1
  Rh  Rh29  1  0.250000  0.089638  0.970810  1
  Rh  Rh30  1  0.750000  0.589638  0.529190  1
  Rh  Rh31  1  0.750000  0.910362  0.029190  1
  Rh  Rh32  1  0.250000  0.230840  0.174887  1
  Rh  Rh33  1  0.250000  0.269160  0.674887  1
  Rh  Rh34  1  0.750000  0.769160  0.825113  1
  Rh  Rh35  1  0.750000  0.730840  0.325113  1
