# generated using pymatgen
data_LiGd9(Si2Sn)2
_symmetry_space_group_name_H-M   'P 1'
_cell_length_a   7.77523300
_cell_length_b   8.95558496
_cell_length_c   7.77523300
_cell_angle_alpha   115.72802203
_cell_angle_beta   90.00000000
_cell_angle_gamma   115.72802203
_symmetry_Int_Tables_number   1
_chemical_formula_structural   LiGd9(Si2Sn)2
_chemical_formula_sum   'Li1 Gd9 Si4 Sn2'
_cell_volume   427.37078864
_cell_formula_units_Z   1
loop_
 _symmetry_equiv_pos_site_id
 _symmetry_equiv_pos_as_xyz
  1  'x, y, z'
loop_
 _atom_site_type_symbol
 _atom_site_label
 _atom_site_symmetry_multiplicity
 _atom_site_fract_x
 _atom_site_fract_y
 _atom_site_fract_z
 _atom_site_occupancy
  Li  Li0  1  0.000000  0.000000  0.000000  1
  Gd  Gd1  1  0.500000  0.000000  0.500000  1
  Gd  Gd2  1  0.542405  0.724630  0.699556  1
  Gd  Gd3  1  0.182227  0.724630  0.025076  1
  Gd  Gd4  1  0.699556  0.724630  0.182227  1
  Gd  Gd5  1  0.025076  0.724630  0.542405  1
  Gd  Gd6  1  0.457595  0.275370  0.300444  1
  Gd  Gd7  1  0.817773  0.275370  0.974924  1
  Gd  Gd8  1  0.300444  0.275370  0.817773  1
  Gd  Gd9  1  0.974924  0.275370  0.457595  1
  Si  Si10  1  0.874896  0.000000  0.612445  1
  Si  Si11  1  0.125104  0.000000  0.387555  1
  Si  Si12  1  0.612445  0.000000  0.125104  1
  Si  Si13  1  0.387555  0.000000  0.874896  1
  Sn  Sn14  1  0.741034  0.482069  0.741034  1
  Sn  Sn15  1  0.258966  0.517931  0.258966  1
