# generated using pymatgen
data_Yb3Cd5Au
_symmetry_space_group_name_H-M   'P 1'
_cell_length_a   3.86406700
_cell_length_b   8.23298425
_cell_length_c   8.23298500
_cell_angle_alpha   120.00000705
_cell_angle_beta   90.00000000
_cell_angle_gamma   90.00000000
_symmetry_Int_Tables_number   1
_chemical_formula_structural   Yb3Cd5Au
_chemical_formula_sum   'Yb3 Cd5 Au1'
_cell_volume   226.82444534
_cell_formula_units_Z   1
loop_
 _symmetry_equiv_pos_site_id
 _symmetry_equiv_pos_as_xyz
  1  'x, y, z'
loop_
 _atom_site_type_symbol
 _atom_site_label
 _atom_site_symmetry_multiplicity
 _atom_site_fract_x
 _atom_site_fract_y
 _atom_site_fract_z
 _atom_site_occupancy
  Yb  Yb0  1  0.000000  0.384796  0.411123  1
  Yb  Yb1  1  0.000000  0.026327  0.615204  1
  Yb  Yb2  1  0.000000  0.588877  0.973673  1
  Cd  Cd3  1  0.500000  0.723710  0.717821  1
  Cd  Cd4  1  0.500000  0.994111  0.276290  1
  Cd  Cd5  1  0.500000  0.282179  0.005889  1
  Cd  Cd6  1  0.500000  0.666667  0.333333  1
  Cd  Cd7  1  0.000000  0.000000  0.000000  1
  Au  Au8  1  0.500000  0.333333  0.666667  1
