# generated using pymatgen
data_Eu6H(WN3)2
_symmetry_space_group_name_H-M   'P 1'
_cell_length_a   6.36265543
_cell_length_b   6.36265495
_cell_length_c   6.36265434
_cell_angle_alpha   95.18344291
_cell_angle_beta   95.18344067
_cell_angle_gamma   95.18343115
_symmetry_Int_Tables_number   1
_chemical_formula_structural   Eu6H(WN3)2
_chemical_formula_sum   'Eu6 H1 W2 N6'
_cell_volume   254.21619218
_cell_formula_units_Z   1
loop_
 _symmetry_equiv_pos_site_id
 _symmetry_equiv_pos_as_xyz
  1  'x, y, z'
loop_
 _atom_site_type_symbol
 _atom_site_label
 _atom_site_symmetry_multiplicity
 _atom_site_fract_x
 _atom_site_fract_y
 _atom_site_fract_z
 _atom_site_occupancy
  Eu  Eu0  1  0.630885  0.121675  0.789322  1
  Eu  Eu1  1  0.121675  0.789322  0.630885  1
  Eu  Eu2  1  0.789322  0.630885  0.121675  1
  Eu  Eu3  1  0.369115  0.878325  0.210678  1
  Eu  Eu4  1  0.878325  0.210678  0.369115  1
  Eu  Eu5  1  0.210678  0.369115  0.878325  1
  H  H6  1  0.000000  0.000000  0.000000  1
  W  W7  1  0.627903  0.627903  0.627903  1
  W  W8  1  0.372097  0.372097  0.372097  1
  N  N9  1  0.737444  0.859910  0.475740  1
  N  N10  1  0.859910  0.475740  0.737444  1
  N  N11  1  0.475740  0.737444  0.859910  1
  N  N12  1  0.262556  0.140090  0.524260  1
  N  N13  1  0.140090  0.524260  0.262556  1
  N  N14  1  0.524260  0.262556  0.140090  1
