# generated using pymatgen
data_Lu4InIr
_symmetry_space_group_name_H-M   'P 1'
_cell_length_a   9.47638700
_cell_length_b   9.47638785
_cell_length_c   9.47638700
_cell_angle_alpha   120.00000053
_cell_angle_beta   90.00000000
_cell_angle_gamma   120.00000053
_symmetry_Int_Tables_number   1
_chemical_formula_structural   Lu4InIr
_chemical_formula_sum   'Lu16 In4 Ir4'
_cell_volume   601.74625881
_cell_formula_units_Z   4
loop_
 _symmetry_equiv_pos_site_id
 _symmetry_equiv_pos_as_xyz
  1  'x, y, z'
loop_
 _atom_site_type_symbol
 _atom_site_label
 _atom_site_symmetry_multiplicity
 _atom_site_fract_x
 _atom_site_fract_y
 _atom_site_fract_z
 _atom_site_occupancy
  Lu  Lu0  1  0.349644  0.699289  0.048935  1
  Lu  Lu1  1  0.939847  0.500000  0.060154  1
  Lu  Lu2  1  0.560155  0.120309  0.060154  1
  Lu  Lu3  1  0.560155  0.500000  0.060154  1
  Lu  Lu4  1  0.808121  0.000000  0.191879  1
  Lu  Lu5  1  0.191880  0.000000  0.191880  1
  Lu  Lu6  1  0.191880  0.383760  0.191880  1
  Lu  Lu7  1  0.560155  0.500000  0.439846  1
  Lu  Lu8  1  0.939847  0.500000  0.439846  1
  Lu  Lu9  1  0.939847  0.879692  0.439846  1
  Lu  Lu10  1  0.349644  0.300709  0.650354  1
  Lu  Lu11  1  0.349644  0.699289  0.650354  1
  Lu  Lu12  1  0.951064  0.300709  0.650355  1
  Lu  Lu13  1  0.191879  0.000000  0.808121  1
  Lu  Lu14  1  0.808121  0.000000  0.808121  1
  Lu  Lu15  1  0.808121  0.616241  0.808121  1
  In  In16  1  0.583468  0.166935  0.416534  1
  In  In17  1  0.249599  0.833067  0.416534  1
  In  In18  1  0.583468  0.833067  0.416534  1
  In  In19  1  0.583466  0.166935  0.750401  1
  Ir  Ir20  1  0.141040  0.282081  0.423121  1
  Ir  Ir21  1  0.141040  0.282081  0.858961  1
  Ir  Ir22  1  0.141040  0.717920  0.858961  1
  Ir  Ir23  1  0.576880  0.717920  0.858961  1
