# generated using pymatgen
data_Sr6Y2CrCoO12
_symmetry_space_group_name_H-M   'P 1'
_cell_length_a   6.82146722
_cell_length_b   6.82041347
_cell_length_c   6.82045982
_cell_angle_alpha   92.28076691
_cell_angle_beta   92.32021081
_cell_angle_gamma   92.29700935
_symmetry_Int_Tables_number   1
_chemical_formula_structural   Sr6Y2CrCoO12
_chemical_formula_sum   'Sr6 Y2 Cr1 Co1 O12'
_cell_volume   316.53577836
_cell_formula_units_Z   1
loop_
 _symmetry_equiv_pos_site_id
 _symmetry_equiv_pos_as_xyz
  1  'x, y, z'
loop_
 _atom_site_type_symbol
 _atom_site_label
 _atom_site_symmetry_multiplicity
 _atom_site_fract_x
 _atom_site_fract_y
 _atom_site_fract_z
 _atom_site_occupancy
  Sr  Sr0  1  0.881604  0.250924  0.615579  1
  Sr  Sr1  1  0.250921  0.616179  0.880911  1
  Sr  Sr2  1  0.615655  0.881299  0.251210  1
  Sr  Sr3  1  0.749100  0.383959  0.118854  1
  Sr  Sr4  1  0.384254  0.118674  0.748634  1
  Sr  Sr5  1  0.118489  0.749229  0.384194  1
  Y  Y6  1  0.746844  0.746557  0.747590  1
  Y  Y7  1  0.253239  0.253539  0.252328  1
  Cr  Cr8  1  0.999834  0.000179  0.000062  1
  Co  Co9  1  0.500170  0.499801  0.500049  1
  O  O10  1  0.220187  0.415191  0.545025  1
  O  O11  1  0.415668  0.546052  0.219781  1
  O  O12  1  0.545544  0.219777  0.414905  1
  O  O13  1  0.910203  0.713622  0.044853  1
  O  O14  1  0.713086  0.043599  0.910755  1
  O  O15  1  0.043583  0.909958  0.713577  1
  O  O16  1  0.780360  0.584421  0.455152  1
  O  O17  1  0.584711  0.453778  0.780156  1
  O  O18  1  0.454408  0.779683  0.585248  1
  O  O19  1  0.089425  0.286806  0.955245  1
  O  O20  1  0.286424  0.956355  0.089483  1
  O  O21  1  0.956292  0.090420  0.286408  1
