# generated using pymatgen
data_Cs2Np3OF12
_symmetry_space_group_name_H-M   'P 1'
_cell_length_a   12.27224111
_cell_length_b   12.27224075
_cell_length_c   12.27224000
_cell_angle_alpha   40.08601320
_cell_angle_beta   40.08601523
_cell_angle_gamma   40.08602019
_symmetry_Int_Tables_number   1
_chemical_formula_structural   Cs2Np3OF12
_chemical_formula_sum   'Cs4 Np6 O2 F24'
_cell_volume   690.66578729
_cell_formula_units_Z   2
loop_
 _symmetry_equiv_pos_site_id
 _symmetry_equiv_pos_as_xyz
  1  'x, y, z'
loop_
 _atom_site_type_symbol
 _atom_site_label
 _atom_site_symmetry_multiplicity
 _atom_site_fract_x
 _atom_site_fract_y
 _atom_site_fract_z
 _atom_site_occupancy
  Cs  Cs0  1  0.000000  0.000000  0.000000  1
  Cs  Cs1  1  0.500000  0.500000  0.500000  1
  Cs  Cs2  1  0.137859  0.137859  0.137859  1
  Cs  Cs3  1  0.862141  0.862141  0.862141  1
  Np  Np4  1  0.574075  0.574075  0.027222  1
  Np  Np5  1  0.027222  0.574075  0.574075  1
  Np  Np6  1  0.574075  0.027222  0.574075  1
  Np  Np7  1  0.425925  0.972778  0.425925  1
  Np  Np8  1  0.972778  0.425925  0.425925  1
  Np  Np9  1  0.425925  0.425925  0.972778  1
  O  O10  1  0.286318  0.286318  0.286318  1
  O  O11  1  0.713682  0.713682  0.713682  1
  F  F12  1  0.374483  0.708035  0.708035  1
  F  F13  1  0.708035  0.374483  0.708035  1
  F  F14  1  0.708035  0.708035  0.374483  1
  F  F15  1  0.625517  0.291965  0.291965  1
  F  F16  1  0.291965  0.625517  0.291965  1
  F  F17  1  0.291965  0.291965  0.625517  1
  F  F18  1  0.093717  0.596690  0.093717  1
  F  F19  1  0.093717  0.093717  0.596690  1
  F  F20  1  0.000000  0.355309  0.644691  1
  F  F21  1  0.355309  0.644691  0.000000  1
  F  F22  1  0.644691  0.000000  0.355309  1
  F  F23  1  0.000000  0.644691  0.355309  1
  F  F24  1  0.644691  0.355309  0.000000  1
  F  F25  1  0.355309  0.000000  0.644691  1
  F  F26  1  0.080480  0.643433  0.643433  1
  F  F27  1  0.643433  0.643433  0.080480  1
  F  F28  1  0.643433  0.080480  0.643433  1
  F  F29  1  0.356567  0.919520  0.356567  1
  F  F30  1  0.919520  0.356567  0.356567  1
  F  F31  1  0.356567  0.356567  0.919520  1
  F  F32  1  0.906283  0.403310  0.906283  1
  F  F33  1  0.403310  0.906283  0.906283  1
  F  F34  1  0.906283  0.906283  0.403310  1
  F  F35  1  0.596690  0.093717  0.093717  1
