# generated using pymatgen
data_Sc2Co2SiNi
_symmetry_space_group_name_H-M   'P 1'
_cell_length_a   5.00649600
_cell_length_b   5.01832733
_cell_length_c   7.55677400
_cell_angle_alpha   90.00000000
_cell_angle_beta   90.00000000
_cell_angle_gamma   119.92204101
_symmetry_Int_Tables_number   1
_chemical_formula_structural   Sc2Co2SiNi
_chemical_formula_sum   'Sc4 Co4 Si2 Ni2'
_cell_volume   164.55101152
_cell_formula_units_Z   2
loop_
 _symmetry_equiv_pos_site_id
 _symmetry_equiv_pos_as_xyz
  1  'x, y, z'
loop_
 _atom_site_type_symbol
 _atom_site_label
 _atom_site_symmetry_multiplicity
 _atom_site_fract_x
 _atom_site_fract_y
 _atom_site_fract_z
 _atom_site_occupancy
  Sc  Sc0  1  0.330812  0.665898  0.559896  1
  Sc  Sc1  1  0.664915  0.334102  0.440104  1
  Sc  Sc2  1  0.664915  0.334102  0.059896  1
  Sc  Sc3  1  0.330812  0.665898  0.940104  1
  Co  Co4  1  0.167176  0.825775  0.250000  1
  Co  Co5  1  0.828729  0.663040  0.750000  1
  Co  Co6  1  0.165691  0.336960  0.250000  1
  Co  Co7  1  0.341400  0.174225  0.750000  1
  Si  Si8  1  0.006770  0.000000  0.500000  1
  Si  Si9  1  0.006770  0.000000  0.000000  1
  Ni  Ni10  1  0.830812  0.169615  0.750000  1
  Ni  Ni11  1  0.661199  0.830385  0.250000  1
