# generated using pymatgen
data_CaNd2Si4(AsPd10)2
_symmetry_space_group_name_H-M   'P 1'
_cell_length_a   8.75718416
_cell_length_b   8.85321375
_cell_length_c   8.85321325
_cell_angle_alpha   59.28366886
_cell_angle_beta   60.35816647
_cell_angle_gamma   60.35816319
_symmetry_Int_Tables_number   1
_chemical_formula_structural   CaNd2Si4(AsPd10)2
_chemical_formula_sum   'Ca1 Nd2 Si4 As2 Pd20'
_cell_volume   485.23290628
_cell_formula_units_Z   1
loop_
 _symmetry_equiv_pos_site_id
 _symmetry_equiv_pos_as_xyz
  1  'x, y, z'
loop_
 _atom_site_type_symbol
 _atom_site_label
 _atom_site_symmetry_multiplicity
 _atom_site_fract_x
 _atom_site_fract_y
 _atom_site_fract_z
 _atom_site_occupancy
  Ca  Ca0  1  0.000000  0.000000  0.000000  1
  Nd  Nd1  1  0.250000  0.250000  0.250000  1
  Nd  Nd2  1  0.750000  0.750000  0.750000  1
  Si  Si3  1  0.265118  0.734882  0.265118  1
  Si  Si4  1  0.734882  0.265118  0.734882  1
  Si  Si5  1  0.265118  0.265118  0.734882  1
  Si  Si6  1  0.734882  0.734882  0.265118  1
  As  As7  1  0.736901  0.263099  0.263099  1
  As  As8  1  0.263099  0.736901  0.736901  1
  Pd  Pd9  1  0.347056  0.000000  0.000000  1
  Pd  Pd10  1  0.652944  0.000000  0.000000  1
  Pd  Pd11  1  0.000000  0.347056  0.652944  1
  Pd  Pd12  1  0.000000  0.652944  0.347056  1
  Pd  Pd13  1  0.008049  0.348019  0.991951  1
  Pd  Pd14  1  0.651981  0.991951  0.348019  1
  Pd  Pd15  1  0.991951  0.651981  0.008049  1
  Pd  Pd16  1  0.348019  0.008049  0.651981  1
  Pd  Pd17  1  0.008049  0.991951  0.348019  1
  Pd  Pd18  1  0.991951  0.008049  0.651981  1
  Pd  Pd19  1  0.651981  0.348019  0.991951  1
  Pd  Pd20  1  0.348019  0.651981  0.008049  1
  Pd  Pd21  1  0.380743  0.387583  0.387583  1
  Pd  Pd22  1  0.619257  0.612417  0.612417  1
  Pd  Pd23  1  0.387583  0.380743  0.844091  1
  Pd  Pd24  1  0.387583  0.844091  0.380743  1
  Pd  Pd25  1  0.612417  0.619257  0.155909  1
  Pd  Pd26  1  0.612417  0.155909  0.619257  1
  Pd  Pd27  1  0.844091  0.387583  0.387583  1
  Pd  Pd28  1  0.155909  0.612417  0.612417  1
