# generated using pymatgen
data_BeNb3P
_symmetry_space_group_name_H-M   'P 1'
_cell_length_a   6.55968800
_cell_length_b   6.54105200
_cell_length_c   3.43955400
_cell_angle_alpha   90.00000000
_cell_angle_beta   90.00000000
_cell_angle_gamma   90.00000000
_symmetry_Int_Tables_number   1
_chemical_formula_structural   BeNb3P
_chemical_formula_sum   'Be2 Nb6 P2'
_cell_volume   147.58183883
_cell_formula_units_Z   2
loop_
 _symmetry_equiv_pos_site_id
 _symmetry_equiv_pos_as_xyz
  1  'x, y, z'
loop_
 _atom_site_type_symbol
 _atom_site_label
 _atom_site_symmetry_multiplicity
 _atom_site_fract_x
 _atom_site_fract_y
 _atom_site_fract_z
 _atom_site_occupancy
  Be  Be0  1  0.881006  0.621913  0.000000  1
  Be  Be1  1  0.381004  0.878088  0.000000  1
  Nb  Nb2  1  0.002860  0.997111  0.000000  1
  Nb  Nb3  1  0.502860  0.502889  0.000000  1
  Nb  Nb4  1  0.321443  0.173616  0.499999  1
  Nb  Nb5  1  0.821443  0.326383  0.499999  1
  Nb  Nb6  1  0.177264  0.679098  0.499999  1
  Nb  Nb7  1  0.677264  0.820901  0.499999  1
  P  P8  1  0.617427  0.112710  0.000000  1
  P  P9  1  0.117427  0.387289  0.000000  1
