# generated using pymatgen
data_Rb7TlS24
_symmetry_space_group_name_H-M   'P 1'
_cell_length_a   12.55835933
_cell_length_b   6.82330522
_cell_length_c   12.83276145
_cell_angle_alpha   72.74780230
_cell_angle_beta   89.88018771
_cell_angle_gamma   90.21493599
_symmetry_Int_Tables_number   1
_chemical_formula_structural   Rb7TlS24
_chemical_formula_sum   'Rb7 Tl1 S24'
_cell_volume   1050.14578598
_cell_formula_units_Z   1
loop_
 _symmetry_equiv_pos_site_id
 _symmetry_equiv_pos_as_xyz
  1  'x, y, z'
loop_
 _atom_site_type_symbol
 _atom_site_label
 _atom_site_symmetry_multiplicity
 _atom_site_fract_x
 _atom_site_fract_y
 _atom_site_fract_z
 _atom_site_occupancy
  Rb  Rb0  1  0.638762  0.216740  0.982671  1
  Rb  Rb1  1  0.861741  0.214544  0.485997  1
  Rb  Rb2  1  0.359530  0.784602  0.016310  1
  Rb  Rb3  1  0.138677  0.782599  0.520965  1
  Rb  Rb4  1  0.608318  0.691689  0.592818  1
  Rb  Rb5  1  0.893264  0.691468  0.088059  1
  Rb  Rb6  1  0.391895  0.309774  0.407885  1
  Tl  Tl7  1  0.113919  0.309136  0.920735  1
  S  S8  1  0.360985  0.294919  0.997965  1
  S  S9  1  0.129980  0.300159  0.494475  1
  S  S10  1  0.628935  0.700865  0.004140  1
  S  S11  1  0.868648  0.703229  0.503400  1
  S  S12  1  0.409397  0.457144  0.843105  1
  S  S13  1  0.085484  0.461950  0.339303  1
  S  S14  1  0.583743  0.539913  0.159871  1
  S  S15  1  0.915138  0.542563  0.658463  1
  S  S16  1  0.330619  0.371388  0.724698  1
  S  S17  1  0.168383  0.378900  0.222429  1
  S  S18  1  0.666961  0.623946  0.275971  1
  S  S19  1  0.833290  0.624335  0.776078  1
  S  S20  1  0.390158  0.070175  0.726955  1
  S  S21  1  0.110510  0.074194  0.223566  1
  S  S22  1  0.609028  0.929555  0.273736  1
  S  S23  1  0.892020  0.928008  0.777066  1
  S  S24  1  0.552408  0.079113  0.722492  1
  S  S25  1  0.948807  0.082490  0.215924  1
  S  S26  1  0.447226  0.920734  0.277864  1
  S  S27  1  0.053672  0.921464  0.777621  1
  S  S28  1  0.608565  0.210125  0.567327  1
  S  S29  1  0.898333  0.213076  0.058411  1
  S  S30  1  0.390781  0.791715  0.433081  1
  S  S31  1  0.110822  0.779489  0.930623  1
