# generated using pymatgen
data_Yb5TcAsN7
_symmetry_space_group_name_H-M   'P 1'
_cell_length_a   5.88736956
_cell_length_b   8.69231668
_cell_length_c   8.61114800
_cell_angle_alpha   115.76616892
_cell_angle_beta   97.77972875
_cell_angle_gamma   88.86619639
_symmetry_Int_Tables_number   1
_chemical_formula_structural   Yb5TcAsN7
_chemical_formula_sum   'Yb10 Tc2 As2 N14'
_cell_volume   392.83104494
_cell_formula_units_Z   2
loop_
 _symmetry_equiv_pos_site_id
 _symmetry_equiv_pos_as_xyz
  1  'x, y, z'
loop_
 _atom_site_type_symbol
 _atom_site_label
 _atom_site_symmetry_multiplicity
 _atom_site_fract_x
 _atom_site_fract_y
 _atom_site_fract_z
 _atom_site_occupancy
  Yb  Yb0  1  0.845865  0.592231  0.314415  1
  Yb  Yb1  1  0.262941  0.001709  0.576414  1
  Yb  Yb2  1  0.712046  0.420411  0.867654  1
  Yb  Yb3  1  0.287954  0.579589  0.132346  1
  Yb  Yb4  1  0.407866  0.797560  0.939173  1
  Yb  Yb5  1  0.592134  0.202440  0.060827  1
  Yb  Yb6  1  0.154135  0.407769  0.685585  1
  Yb  Yb7  1  0.899110  0.855949  0.778469  1
  Yb  Yb8  1  0.100890  0.144051  0.221531  1
  Yb  Yb9  1  0.737059  0.998291  0.423586  1
  Tc  Tc10  1  0.583390  0.353777  0.474596  1
  Tc  Tc11  1  0.416610  0.646223  0.525404  1
  As  As12  1  0.113381  0.215215  0.911901  1
  As  As13  1  0.886619  0.784785  0.088099  1
  N  N14  1  0.540293  0.558005  0.691086  1
  N  N15  1  0.459707  0.441995  0.308914  1
  N  N16  1  0.133443  0.706424  0.559212  1
  N  N17  1  0.866557  0.293576  0.440788  1
  N  N18  1  0.406269  0.184465  0.464053  1
  N  N19  1  0.593731  0.815535  0.535947  1
  N  N20  1  0.925028  0.138239  0.705465  1
  N  N21  1  0.074972  0.861761  0.294535  1
  N  N22  1  0.234976  0.037036  0.948148  1
  N  N23  1  0.765024  0.962964  0.051852  1
  N  N24  1  0.362615  0.319650  0.884021  1
  N  N25  1  0.958702  0.354544  0.088073  1
  N  N26  1  0.041298  0.645456  0.911927  1
  N  N27  1  0.637385  0.680350  0.115979  1
