# generated using pymatgen
data_Zr2Mn4Ni6Mo2P7
_symmetry_space_group_name_H-M   'P 1'
_cell_length_a   9.06574343
_cell_length_b   9.08279119
_cell_length_c   3.69066900
_cell_angle_alpha   90.00000000
_cell_angle_beta   90.00000000
_cell_angle_gamma   119.92983397
_symmetry_Int_Tables_number   1
_chemical_formula_structural   Zr2Mn4Ni6Mo2P7
_chemical_formula_sum   'Zr2 Mn4 Ni6 Mo2 P7'
_cell_volume   263.36927722
_cell_formula_units_Z   1
loop_
 _symmetry_equiv_pos_site_id
 _symmetry_equiv_pos_as_xyz
  1  'x, y, z'
loop_
 _atom_site_type_symbol
 _atom_site_label
 _atom_site_symmetry_multiplicity
 _atom_site_fract_x
 _atom_site_fract_y
 _atom_site_fract_z
 _atom_site_occupancy
  Zr  Zr0  1  0.997196  0.002483  0.000000  1
  Zr  Zr1  1  0.332472  0.665519  0.500000  1
  Mn  Mn2  1  0.233355  0.943903  0.500000  1
  Mn  Mn3  1  0.055610  0.286165  0.500000  1
  Mn  Mn4  1  0.712564  0.768772  0.500000  1
  Mn  Mn5  1  0.572342  0.113286  0.500000  1
  Ni  Ni6  1  0.301344  0.399892  0.000000  1
  Ni  Ni7  1  0.098653  0.698957  0.000000  1
  Ni  Ni8  1  0.382528  0.169591  0.000000  1
  Ni  Ni9  1  0.790746  0.619816  0.000000  1
  Ni  Ni10  1  0.826706  0.210714  0.000000  1
  Ni  Ni11  1  0.600329  0.901118  0.000000  1
  Mo  Mo12  1  0.885921  0.459608  0.500000  1
  Mo  Mo13  1  0.545372  0.427681  0.500000  1
  P  P14  1  0.665418  0.332034  0.000000  1
  P  P15  1  0.083724  0.444185  0.000000  1
  P  P16  1  0.249602  0.204101  0.500000  1
  P  P17  1  0.791372  0.044159  0.500000  1
  P  P18  1  0.956805  0.752355  0.500000  1
  P  P19  1  0.554502  0.640072  0.000000  1
  P  P20  1  0.363434  0.915590  0.000000  1
