# generated using pymatgen
data_NaHfCrS4
_symmetry_space_group_name_H-M   'P 1'
_cell_length_a   7.14077397
_cell_length_b   14.03914287
_cell_length_c   6.13040835
_cell_angle_alpha   90.06579747
_cell_angle_beta   89.97563266
_cell_angle_gamma   89.75651565
_symmetry_Int_Tables_number   1
_chemical_formula_structural   NaHfCrS4
_chemical_formula_sum   'Na4 Hf4 Cr4 S16'
_cell_volume   614.56954630
_cell_formula_units_Z   4
loop_
 _symmetry_equiv_pos_site_id
 _symmetry_equiv_pos_as_xyz
  1  'x, y, z'
loop_
 _atom_site_type_symbol
 _atom_site_label
 _atom_site_symmetry_multiplicity
 _atom_site_fract_x
 _atom_site_fract_y
 _atom_site_fract_z
 _atom_site_occupancy
  Na  Na0  1  0.001366  0.001568  0.343962  1
  Na  Na1  1  0.500110  0.497747  0.665275  1
  Na  Na2  1  0.995774  0.500045  0.014713  1
  Na  Na3  1  0.504574  0.999325  0.986062  1
  Hf  Hf4  1  0.515735  0.745961  0.000449  1
  Hf  Hf5  1  0.250272  0.249687  0.499774  1
  Hf  Hf6  1  0.749996  0.249597  0.499641  1
  Hf  Hf7  1  0.234493  0.751858  0.501090  1
  Cr  Cr8  1  0.000109  0.248054  0.999747  1
  Cr  Cr9  1  0.999911  0.752845  0.999300  1
  Cr  Cr10  1  0.499836  0.251583  0.000702  1
  Cr  Cr11  1  0.750201  0.750613  0.497772  1
  S  S12  1  0.249309  0.348407  0.848335  1
  S  S13  1  0.766287  0.650270  0.819907  1
  S  S14  1  0.750888  0.151011  0.151820  1
  S  S15  1  0.244071  0.852659  0.156220  1
  S  S16  1  0.250737  0.151044  0.151887  1
  S  S17  1  0.760349  0.850210  0.174332  1
  S  S18  1  0.748995  0.348314  0.848317  1
  S  S19  1  0.242865  0.647875  0.841157  1
  S  S20  1  0.000884  0.147010  0.676717  1
  S  S21  1  0.983885  0.850497  0.674504  1
  S  S22  1  0.499274  0.352793  0.324136  1
  S  S23  1  0.506735  0.648005  0.341990  1
  S  S24  1  0.999255  0.351382  0.323841  1
  S  S25  1  0.987293  0.653624  0.321489  1
  S  S26  1  0.500778  0.148029  0.676673  1
  S  S27  1  0.506016  0.849990  0.660193  1
