# generated using pymatgen
data_Tm16In4IrRu2Rh
_symmetry_space_group_name_H-M   'P 1'
_cell_length_a   9.53740234
_cell_length_b   9.51795686
_cell_length_c   9.55081200
_cell_angle_alpha   59.88573892
_cell_angle_beta   59.95347180
_cell_angle_gamma   59.82335220
_symmetry_Int_Tables_number   1
_chemical_formula_structural   Tm16In4IrRu2Rh
_chemical_formula_sum   'Tm16 In4 Ir1 Ru2 Rh1'
_cell_volume   611.48848500
_cell_formula_units_Z   1
loop_
 _symmetry_equiv_pos_site_id
 _symmetry_equiv_pos_as_xyz
  1  'x, y, z'
loop_
 _atom_site_type_symbol
 _atom_site_label
 _atom_site_symmetry_multiplicity
 _atom_site_fract_x
 _atom_site_fract_y
 _atom_site_fract_z
 _atom_site_occupancy
  Tm  Tm0  1  0.057850  0.058150  0.442000  1
  Tm  Tm1  1  0.442489  0.059866  0.439678  1
  Tm  Tm2  1  0.060487  0.442804  0.059006  1
  Tm  Tm3  1  0.044459  0.651894  0.651824  1
  Tm  Tm4  1  0.438570  0.440711  0.060359  1
  Tm  Tm5  1  0.652081  0.043668  0.652126  1
  Tm  Tm6  1  0.191005  0.808863  0.193320  1
  Tm  Tm7  1  0.192589  0.192576  0.807417  1
  Tm  Tm8  1  0.808675  0.808982  0.191172  1
  Tm  Tm9  1  0.442489  0.059866  0.057968  1
  Tm  Tm10  1  0.808990  0.190754  0.192878  1
  Tm  Tm11  1  0.060487  0.442804  0.437704  1
  Tm  Tm12  1  0.808990  0.190754  0.807378  1
  Tm  Tm13  1  0.191005  0.808863  0.806813  1
  Tm  Tm14  1  0.651000  0.651475  0.047282  1
  Tm  Tm15  1  0.651000  0.651475  0.650244  1
  In  In16  1  0.416839  0.416835  0.417750  1
  In  In17  1  0.750686  0.416066  0.416624  1
  In  In18  1  0.416285  0.750666  0.416524  1
  In  In19  1  0.416839  0.416835  0.748575  1
  Ir  Ir20  1  0.421299  0.857213  0.860744  1
  Ru  Ru21  1  0.859138  0.858753  0.419590  1
  Ru  Ru22  1  0.859138  0.858753  0.862517  1
  Rh  Rh23  1  0.857614  0.421375  0.860505  1
