# generated using pymatgen
data_SmReTc3Ge2
_symmetry_space_group_name_H-M   'P 1'
_cell_length_a   7.56020589
_cell_length_b   7.56020445
_cell_length_c   4.08862800
_cell_angle_alpha   90.00000000
_cell_angle_beta   90.00000000
_cell_angle_gamma   148.23348171
_symmetry_Int_Tables_number   1
_chemical_formula_structural   SmReTc3Ge2
_chemical_formula_sum   'Sm1 Re1 Tc3 Ge2'
_cell_volume   123.02952958
_cell_formula_units_Z   1
loop_
 _symmetry_equiv_pos_site_id
 _symmetry_equiv_pos_as_xyz
  1  'x, y, z'
loop_
 _atom_site_type_symbol
 _atom_site_label
 _atom_site_symmetry_multiplicity
 _atom_site_fract_x
 _atom_site_fract_y
 _atom_site_fract_z
 _atom_site_occupancy
  Sm  Sm0  1  0.999894  0.000106  0.000000  1
  Re  Re1  1  0.699016  0.300986  0.000000  1
  Tc  Tc2  1  0.302735  0.697267  0.000000  1
  Tc  Tc3  1  0.809769  0.190232  0.499999  1
  Tc  Tc4  1  0.189648  0.810353  0.499999  1
  Ge  Ge5  1  0.587261  0.412741  0.499999  1
  Ge  Ge6  1  0.411682  0.588320  0.499999  1
