# generated using pymatgen
data_Pr6Dy2Sc12Si15Hg
_symmetry_space_group_name_H-M   'P 1'
_cell_length_a   7.25832431
_cell_length_b   7.50920527
_cell_length_c   14.31963777
_cell_angle_alpha   89.96193252
_cell_angle_beta   89.72718844
_cell_angle_gamma   90.18713156
_symmetry_Int_Tables_number   1
_chemical_formula_structural   Pr6Dy2Sc12Si15Hg
_chemical_formula_sum   'Pr6 Dy2 Sc12 Si15 Hg1'
_cell_volume   780.46788583
_cell_formula_units_Z   1
loop_
 _symmetry_equiv_pos_site_id
 _symmetry_equiv_pos_as_xyz
  1  'x, y, z'
loop_
 _atom_site_type_symbol
 _atom_site_label
 _atom_site_symmetry_multiplicity
 _atom_site_fract_x
 _atom_site_fract_y
 _atom_site_fract_z
 _atom_site_occupancy
  Pr  Pr0  1  0.488606  0.672067  0.903572  1
  Pr  Pr1  1  0.494250  0.678782  0.598502  1
  Pr  Pr2  1  0.987831  0.834794  0.595955  1
  Pr  Pr3  1  0.987672  0.828754  0.903936  1
  Pr  Pr4  1  0.511581  0.327912  0.098081  1
  Pr  Pr5  1  0.012338  0.172390  0.098804  1
  Dy  Dy6  1  0.008029  0.172459  0.395189  1
  Dy  Dy7  1  0.512653  0.322805  0.396317  1
  Sc  Sc8  1  0.342841  0.169096  0.628138  1
  Sc  Sc9  1  0.665747  0.824581  0.373232  1
  Sc  Sc10  1  0.663971  0.001334  0.752238  1
  Sc  Sc11  1  0.168167  0.677318  0.371508  1
  Sc  Sc12  1  0.830064  0.323193  0.876764  1
  Sc  Sc13  1  0.823315  0.324212  0.624683  1
  Sc  Sc14  1  0.838307  0.500621  0.251284  1
  Sc  Sc15  1  0.339198  0.998522  0.250094  1
  Sc  Sc16  1  0.328410  0.174404  0.876525  1
  Sc  Sc17  1  0.169738  0.675821  0.126588  1
  Sc  Sc18  1  0.670746  0.824357  0.126146  1
  Sc  Sc19  1  0.161470  0.498018  0.754573  1
  Si  Si20  1  0.285881  0.881917  0.751427  1
  Si  Si21  1  0.465768  0.621277  0.250166  1
  Si  Si22  1  0.036305  0.128758  0.751009  1
  Si  Si23  1  0.535786  0.376382  0.751910  1
  Si  Si24  1  0.964867  0.878356  0.250398  1
  Si  Si25  1  0.711590  0.122670  0.251862  1
  Si  Si26  1  0.849048  0.537320  0.040155  1
  Si  Si27  1  0.348532  0.962126  0.040599  1
  Si  Si28  1  0.150857  0.462739  0.962091  1
  Si  Si29  1  0.653295  0.044701  0.533665  1
  Si  Si30  1  0.342585  0.968257  0.456941  1
  Si  Si31  1  0.834008  0.533513  0.455187  1
  Si  Si32  1  0.790583  0.617546  0.751673  1
  Si  Si33  1  0.212308  0.377014  0.252272  1
  Si  Si34  1  0.650557  0.037200  0.961221  1
  Hg  Hg35  1  0.163093  0.448785  0.537296  1
