# generated using pymatgen
data_Lu3In2GaPt2Rh
_symmetry_space_group_name_H-M   'P 1'
_cell_length_a   7.51205520
_cell_length_b   7.50908976
_cell_length_c   3.75289500
_cell_angle_alpha   90.00000000
_cell_angle_beta   90.00000000
_cell_angle_gamma   119.98693452
_symmetry_Int_Tables_number   1
_chemical_formula_structural   Lu3In2GaPt2Rh
_chemical_formula_sum   'Lu3 In2 Ga1 Pt2 Rh1'
_cell_volume   183.35817345
_cell_formula_units_Z   1
loop_
 _symmetry_equiv_pos_site_id
 _symmetry_equiv_pos_as_xyz
  1  'x, y, z'
loop_
 _atom_site_type_symbol
 _atom_site_label
 _atom_site_symmetry_multiplicity
 _atom_site_fract_x
 _atom_site_fract_y
 _atom_site_fract_z
 _atom_site_occupancy
  Lu  Lu0  1  0.000000  0.579058  0.500000  1
  Lu  Lu1  1  0.607989  0.006840  0.500000  1
  Lu  Lu2  1  0.392011  0.398852  0.500000  1
  In  In3  1  0.252547  0.994109  0.000000  1
  In  In4  1  0.747453  0.741562  0.000000  1
  Ga  Ga5  1  0.000000  0.261553  0.000000  1
  Pt  Pt6  1  0.668207  0.328476  0.000000  1
  Pt  Pt7  1  0.331793  0.660271  0.000000  1
  Rh  Rh8  1  0.000000  0.029278  0.500000  1
