# generated using pymatgen
data_Lu20TlBi10Au
_symmetry_space_group_name_H-M   'P 1'
_cell_length_a   8.07000496
_cell_length_b   9.35358000
_cell_length_c   11.76337100
_cell_angle_alpha   90.00000000
_cell_angle_beta   90.09865239
_cell_angle_gamma   90.00000000
_symmetry_Int_Tables_number   1
_chemical_formula_structural   Lu20TlBi10Au
_chemical_formula_sum   'Lu20 Tl1 Bi10 Au1'
_cell_volume   887.93835776
_cell_formula_units_Z   1
loop_
 _symmetry_equiv_pos_site_id
 _symmetry_equiv_pos_as_xyz
  1  'x, y, z'
loop_
 _atom_site_type_symbol
 _atom_site_label
 _atom_site_symmetry_multiplicity
 _atom_site_fract_x
 _atom_site_fract_y
 _atom_site_fract_z
 _atom_site_occupancy
  Lu  Lu0  1  0.030535  0.250000  0.508592  1
  Lu  Lu1  1  0.979528  0.750000  0.489736  1
  Lu  Lu2  1  0.482895  0.750000  0.008364  1
  Lu  Lu3  1  0.539275  0.250000  0.991663  1
  Lu  Lu4  1  0.347794  0.250000  0.288410  1
  Lu  Lu5  1  0.652944  0.750000  0.719510  1
  Lu  Lu6  1  0.156762  0.750000  0.782316  1
  Lu  Lu7  1  0.853280  0.250000  0.202900  1
  Lu  Lu8  1  0.173976  0.250000  0.790657  1
  Lu  Lu9  1  0.808058  0.750000  0.215889  1
  Lu  Lu10  1  0.307608  0.750000  0.284231  1
  Lu  Lu11  1  0.693023  0.250000  0.717874  1
  Lu  Lu12  1  0.184989  0.072794  0.055041  1
  Lu  Lu13  1  0.810571  0.952719  0.942124  1
  Lu  Lu14  1  0.306147  0.940775  0.557947  1
  Lu  Lu15  1  0.810571  0.547281  0.942124  1
  Lu  Lu16  1  0.690096  0.069556  0.441042  1
  Lu  Lu17  1  0.184989  0.427206  0.055041  1
  Lu  Lu18  1  0.690096  0.430444  0.441042  1
  Lu  Lu19  1  0.306147  0.559225  0.557947  1
  Tl  Tl20  1  0.406809  0.250000  0.545716  1
  Bi  Bi21  1  0.597280  0.750000  0.458174  1
  Bi  Bi22  1  0.097112  0.750000  0.042210  1
  Bi  Bi23  1  0.057171  0.002470  0.322177  1
  Bi  Bi24  1  0.940212  0.996968  0.676456  1
  Bi  Bi25  1  0.439153  0.999551  0.822428  1
  Bi  Bi26  1  0.940212  0.503032  0.676456  1
  Bi  Bi27  1  0.554709  0.001634  0.178207  1
  Bi  Bi28  1  0.057171  0.497530  0.322177  1
  Bi  Bi29  1  0.554709  0.498366  0.178207  1
  Bi  Bi30  1  0.439153  0.500449  0.822428  1
  Au  Au31  1  0.907021  0.250000  0.962914  1
