# generated using pymatgen
data_Tb12Nd4Cd4OsPt3
_symmetry_space_group_name_H-M   'P 1'
_cell_length_a   9.80031788
_cell_length_b   9.80340633
_cell_length_c   9.80340694
_cell_angle_alpha   59.80330339
_cell_angle_beta   59.62243112
_cell_angle_gamma   59.62242718
_symmetry_Int_Tables_number   1
_chemical_formula_structural   Tb12Nd4Cd4OsPt3
_chemical_formula_sum   'Tb12 Nd4 Cd4 Os1 Pt3'
_cell_volume   661.20277294
_cell_formula_units_Z   1
loop_
 _symmetry_equiv_pos_site_id
 _symmetry_equiv_pos_as_xyz
  1  'x, y, z'
loop_
 _atom_site_type_symbol
 _atom_site_label
 _atom_site_symmetry_multiplicity
 _atom_site_fract_x
 _atom_site_fract_y
 _atom_site_fract_z
 _atom_site_occupancy
  Tb  Tb0  1  0.351890  0.351234  0.351234  1
  Tb  Tb1  1  0.347630  0.348930  0.952668  1
  Tb  Tb2  1  0.347630  0.952668  0.348930  1
  Tb  Tb3  1  0.951695  0.348131  0.348131  1
  Tb  Tb4  1  0.816434  0.187475  0.187475  1
  Tb  Tb5  1  0.187151  0.810234  0.810234  1
  Tb  Tb6  1  0.188408  0.815649  0.188244  1
  Tb  Tb7  1  0.810095  0.185531  0.810048  1
  Tb  Tb8  1  0.188408  0.188244  0.815649  1
  Tb  Tb9  1  0.810095  0.810048  0.185531  1
  Tb  Tb10  1  0.940086  0.559893  0.559893  1
  Tb  Tb11  1  0.553431  0.942268  0.942268  1
  Nd  Nd12  1  0.564382  0.936424  0.565158  1
  Nd  Nd13  1  0.938325  0.558350  0.936956  1
  Nd  Nd14  1  0.564382  0.565158  0.936424  1
  Nd  Nd15  1  0.938325  0.936956  0.558350  1
  Cd  Cd16  1  0.582030  0.578373  0.578373  1
  Cd  Cd17  1  0.578801  0.582921  0.257548  1
  Cd  Cd18  1  0.578801  0.257548  0.582921  1
  Cd  Cd19  1  0.257826  0.579214  0.579214  1
  Os  Os20  1  0.144991  0.141798  0.141798  1
  Pt  Pt21  1  0.143083  0.146048  0.573441  1
  Pt  Pt22  1  0.143083  0.573441  0.146048  1
  Pt  Pt23  1  0.573019  0.143468  0.143468  1
