# generated using pymatgen
data_ErTh2In3PdPt2
_symmetry_space_group_name_H-M   'P 1'
_cell_length_a   7.72895605
_cell_length_b   7.72177784
_cell_length_c   4.00509100
_cell_angle_alpha   90.00000000
_cell_angle_beta   90.00000000
_cell_angle_gamma   119.96927997
_symmetry_Int_Tables_number   1
_chemical_formula_structural   ErTh2In3PdPt2
_chemical_formula_sum   'Er1 Th2 In3 Pd1 Pt2'
_cell_volume   207.06920470
_cell_formula_units_Z   1
loop_
 _symmetry_equiv_pos_site_id
 _symmetry_equiv_pos_as_xyz
  1  'x, y, z'
loop_
 _atom_site_type_symbol
 _atom_site_label
 _atom_site_symmetry_multiplicity
 _atom_site_fract_x
 _atom_site_fract_y
 _atom_site_fract_z
 _atom_site_occupancy
  Er  Er0  1  0.000000  0.588418  0.500000  1
  Th  Th1  1  0.585609  0.000581  0.500000  1
  Th  Th2  1  0.414391  0.414972  0.500000  1
  In  In3  1  0.757592  0.747232  0.000000  1
  In  In4  1  0.000000  0.260234  0.000000  1
  In  In5  1  0.242408  0.989640  0.000000  1
  Pd  Pd6  1  0.000000  0.003847  0.500000  1
  Pt  Pt7  1  0.339807  0.667442  0.000000  1
  Pt  Pt8  1  0.660193  0.327634  0.000000  1
