# generated using pymatgen
data_N2Cl7F
_symmetry_space_group_name_H-M   'P 1'
_cell_length_a   5.78211407
_cell_length_b   7.67520018
_cell_length_c   8.94404554
_cell_angle_alpha   89.23421224
_cell_angle_beta   71.99360281
_cell_angle_gamma   80.15676884
_symmetry_Int_Tables_number   1
_chemical_formula_structural   N2Cl7F
_chemical_formula_sum   'N2 Cl7 F1'
_cell_volume   371.59889069
_cell_formula_units_Z   1
loop_
 _symmetry_equiv_pos_site_id
 _symmetry_equiv_pos_as_xyz
  1  'x, y, z'
loop_
 _atom_site_type_symbol
 _atom_site_label
 _atom_site_symmetry_multiplicity
 _atom_site_fract_x
 _atom_site_fract_y
 _atom_site_fract_z
 _atom_site_occupancy
  N  N0  1  0.952958  0.321444  0.706715  1
  N  N1  1  0.767613  0.291671  0.772898  1
  Cl  Cl2  1  0.581603  0.296128  0.398040  1
  Cl  Cl3  1  0.392591  0.116905  0.358623  1
  Cl  Cl4  1  0.836966  0.715029  0.989111  1
  Cl  Cl5  1  0.943192  0.659901  0.180141  1
  Cl  Cl6  1  0.773377  0.834293  0.644593  1
  Cl  Cl7  1  0.368632  0.197411  0.935522  1
  Cl  Cl8  1  0.103133  0.712982  0.507120  1
  F  F9  1  0.110587  0.132535  0.044762  1
