# generated using pymatgen
data_Sr4YHo(MoO6)2
_symmetry_space_group_name_H-M   'P 1'
_cell_length_a   5.83412081
_cell_length_b   8.34925053
_cell_length_c   5.90615931
_cell_angle_alpha   89.93349011
_cell_angle_beta   90.03824560
_cell_angle_gamma   90.68586260
_symmetry_Int_Tables_number   1
_chemical_formula_structural   Sr4YHo(MoO6)2
_chemical_formula_sum   'Sr4 Y1 Ho1 Mo2 O12'
_cell_volume   287.67131992
_cell_formula_units_Z   1
loop_
 _symmetry_equiv_pos_site_id
 _symmetry_equiv_pos_as_xyz
  1  'x, y, z'
loop_
 _atom_site_type_symbol
 _atom_site_label
 _atom_site_symmetry_multiplicity
 _atom_site_fract_x
 _atom_site_fract_y
 _atom_site_fract_z
 _atom_site_occupancy
  Sr  Sr0  1  0.493455  0.250976  0.537203  1
  Sr  Sr1  1  0.006279  0.247138  0.036866  1
  Sr  Sr2  1  0.993672  0.752873  0.963115  1
  Sr  Sr3  1  0.506598  0.749013  0.462849  1
  Y  Y4  1  0.000016  0.499996  0.499993  1
  Ho  Ho5  1  0.500008  0.000002  0.999996  1
  Mo  Mo6  1  0.999961  0.000075  0.500009  1
  Mo  Mo7  1  0.500008  0.499930  0.999999  1
  O  O8  1  0.768652  0.537565  0.192378  1
  O  O9  1  0.231395  0.462428  0.807595  1
  O  O10  1  0.269388  0.036448  0.305730  1
  O  O11  1  0.730576  0.963592  0.694290  1
  O  O12  1  0.578709  0.262326  0.978533  1
  O  O13  1  0.920542  0.236200  0.478641  1
  O  O14  1  0.079441  0.763795  0.521387  1
  O  O15  1  0.421299  0.737639  0.021439  1
  O  O16  1  0.302376  0.455131  0.278179  1
  O  O17  1  0.800915  0.955687  0.221963  1
  O  O18  1  0.199051  0.044347  0.778030  1
  O  O19  1  0.697657  0.544839  0.721803  1
