# generated using pymatgen
data_Tb4Al18Ir5Pd
_symmetry_space_group_name_H-M   'P 1'
_cell_length_a   7.56999529
_cell_length_b   7.56999482
_cell_length_c   9.47827023
_cell_angle_alpha   89.97065130
_cell_angle_beta   89.97065446
_cell_angle_gamma   119.60826716
_symmetry_Int_Tables_number   1
_chemical_formula_structural   Tb4Al18Ir5Pd
_chemical_formula_sum   'Tb4 Al18 Ir5 Pd1'
_cell_volume   472.22774784
_cell_formula_units_Z   1
loop_
 _symmetry_equiv_pos_site_id
 _symmetry_equiv_pos_as_xyz
  1  'x, y, z'
loop_
 _atom_site_type_symbol
 _atom_site_label
 _atom_site_symmetry_multiplicity
 _atom_site_fract_x
 _atom_site_fract_y
 _atom_site_fract_z
 _atom_site_occupancy
  Tb  Tb0  1  0.995162  0.670526  0.250847  1
  Tb  Tb1  1  0.004894  0.329708  0.749198  1
  Tb  Tb2  1  0.670292  0.995106  0.250802  1
  Tb  Tb3  1  0.329474  0.004838  0.749153  1
  Al  Al4  1  0.128506  0.127755  0.250501  1
  Al  Al5  1  0.872245  0.871494  0.749499  1
  Al  Al6  1  0.004590  0.335218  0.076014  1
  Al  Al7  1  0.001968  0.668611  0.924321  1
  Al  Al8  1  0.999444  0.664961  0.573669  1
  Al  Al9  1  0.335039  0.000556  0.426331  1
  Al  Al10  1  0.000675  0.334608  0.425541  1
  Al  Al11  1  0.665392  0.999325  0.574459  1
  Al  Al12  1  0.664782  0.995410  0.923986  1
  Al  Al13  1  0.331389  0.998032  0.075679  1
  Al  Al14  1  0.333322  0.333252  0.551250  1
  Al  Al15  1  0.666748  0.666678  0.448750  1
  Al  Al16  1  0.666196  0.669253  0.054575  1
  Al  Al17  1  0.330747  0.333804  0.945425  1
  Al  Al18  1  0.339926  0.548220  0.250359  1
  Al  Al19  1  0.660175  0.453264  0.747622  1
  Al  Al20  1  0.546736  0.339825  0.252378  1
  Al  Al21  1  0.451780  0.660074  0.749641  1
  Ir  Ir22  1  0.328311  0.671689  0.000000  1
  Ir  Ir23  1  0.328401  0.671599  0.500000  1
  Ir  Ir24  1  0.671797  0.328203  0.500000  1
  Ir  Ir25  1  0.999733  0.000267  0.000000  1
  Ir  Ir26  1  0.000130  0.999870  0.500000  1
  Pd  Pd27  1  0.672146  0.327854  0.000000  1
