# generated using pymatgen
data_Yb(ZrTe2)8
_symmetry_space_group_name_H-M   'P 1'
_cell_length_a   7.97284700
_cell_length_b   7.97284845
_cell_length_c   14.87169500
_cell_angle_alpha   90.00000000
_cell_angle_beta   90.00000000
_cell_angle_gamma   119.99998985
_symmetry_Int_Tables_number   1
_chemical_formula_structural   Yb(ZrTe2)8
_chemical_formula_sum   'Yb1 Zr8 Te16'
_cell_volume   818.68735930
_cell_formula_units_Z   1
loop_
 _symmetry_equiv_pos_site_id
 _symmetry_equiv_pos_as_xyz
  1  'x, y, z'
loop_
 _atom_site_type_symbol
 _atom_site_label
 _atom_site_symmetry_multiplicity
 _atom_site_fract_x
 _atom_site_fract_y
 _atom_site_fract_z
 _atom_site_occupancy
  Yb  Yb0  1  0.000000  0.000000  0.000000  1
  Zr  Zr1  1  0.503365  0.496635  0.741151  1
  Zr  Zr2  1  0.496635  0.503365  0.258849  1
  Zr  Zr3  1  0.503365  0.006728  0.741151  1
  Zr  Zr4  1  0.496635  0.993272  0.258849  1
  Zr  Zr5  1  0.993272  0.496635  0.741151  1
  Zr  Zr6  1  0.006728  0.503365  0.258849  1
  Zr  Zr7  1  0.000000  0.000000  0.741402  1
  Zr  Zr8  1  0.000000  0.000000  0.258598  1
  Te  Te9  1  0.830360  0.660719  0.136235  1
  Te  Te10  1  0.834053  0.668108  0.620485  1
  Te  Te11  1  0.830360  0.169640  0.136235  1
  Te  Te12  1  0.834053  0.165947  0.620485  1
  Te  Te13  1  0.333333  0.666667  0.134072  1
  Te  Te14  1  0.333333  0.666667  0.624042  1
  Te  Te15  1  0.339281  0.169640  0.136235  1
  Te  Te16  1  0.331892  0.165947  0.620485  1
  Te  Te17  1  0.660719  0.830360  0.863765  1
  Te  Te18  1  0.668108  0.834053  0.379515  1
  Te  Te19  1  0.666667  0.333333  0.865928  1
  Te  Te20  1  0.666667  0.333333  0.375958  1
  Te  Te21  1  0.169640  0.830360  0.863765  1
  Te  Te22  1  0.165947  0.834053  0.379515  1
  Te  Te23  1  0.169640  0.339281  0.863765  1
  Te  Te24  1  0.165947  0.331892  0.379515  1
