# generated using pymatgen
data_Lu6Th2CdHgIr2
_symmetry_space_group_name_H-M   'P 1'
_cell_length_a   9.59625782
_cell_length_b   9.59625812
_cell_length_c   9.62077100
_cell_angle_alpha   59.91546787
_cell_angle_beta   59.91546682
_cell_angle_gamma   59.87977375
_symmetry_Int_Tables_number   1
_chemical_formula_structural   Lu6Th2CdHgIr2
_chemical_formula_sum   'Lu12 Th4 Cd2 Hg2 Ir4'
_cell_volume   625.09708451
_cell_formula_units_Z   2
loop_
 _symmetry_equiv_pos_site_id
 _symmetry_equiv_pos_as_xyz
  1  'x, y, z'
loop_
 _atom_site_type_symbol
 _atom_site_label
 _atom_site_symmetry_multiplicity
 _atom_site_fract_x
 _atom_site_fract_y
 _atom_site_fract_z
 _atom_site_occupancy
  Lu  Lu0  1  0.812811  0.186539  0.187383  1
  Lu  Lu1  1  0.186539  0.812811  0.813266  1
  Lu  Lu2  1  0.186539  0.812811  0.187383  1
  Lu  Lu3  1  0.812811  0.186539  0.813266  1
  Lu  Lu4  1  0.187372  0.187372  0.812628  1
  Lu  Lu5  1  0.813264  0.813264  0.186736  1
  Lu  Lu6  1  0.933985  0.566289  0.565453  1
  Lu  Lu7  1  0.566289  0.933985  0.934272  1
  Lu  Lu8  1  0.566289  0.933985  0.565453  1
  Lu  Lu9  1  0.933985  0.566289  0.934272  1
  Lu  Lu10  1  0.565820  0.565820  0.934180  1
  Lu  Lu11  1  0.934038  0.934038  0.565962  1
  Th  Th12  1  0.351863  0.351863  0.350521  1
  Th  Th13  1  0.351863  0.351863  0.945753  1
  Th  Th14  1  0.353428  0.942925  0.351823  1
  Th  Th15  1  0.942925  0.353428  0.351823  1
  Cd  Cd16  1  0.582669  0.246727  0.585301  1
  Cd  Cd17  1  0.246727  0.582669  0.585301  1
  Hg  Hg18  1  0.586300  0.586300  0.589236  1
  Hg  Hg19  1  0.586300  0.586300  0.238163  1
  Ir  Ir20  1  0.141648  0.141648  0.143096  1
  Ir  Ir21  1  0.141648  0.141648  0.573605  1
  Ir  Ir22  1  0.141148  0.573733  0.142558  1
  Ir  Ir23  1  0.573733  0.141148  0.142558  1
