# generated using pymatgen
data_Pr3Np(AlAu2)6
_symmetry_space_group_name_H-M   'P 1'
_cell_length_a   8.80614478
_cell_length_b   8.80614310
_cell_length_c   8.80614500
_cell_angle_alpha   57.04634361
_cell_angle_beta   57.04635070
_cell_angle_gamma   57.04634653
_symmetry_Int_Tables_number   1
_chemical_formula_structural   Pr3Np(AlAu2)6
_chemical_formula_sum   'Pr3 Np1 Al6 Au12'
_cell_volume   450.00456676
_cell_formula_units_Z   1
loop_
 _symmetry_equiv_pos_site_id
 _symmetry_equiv_pos_as_xyz
  1  'x, y, z'
loop_
 _atom_site_type_symbol
 _atom_site_label
 _atom_site_symmetry_multiplicity
 _atom_site_fract_x
 _atom_site_fract_y
 _atom_site_fract_z
 _atom_site_occupancy
  Pr  Pr0  1  0.408687  0.408687  0.408687  1
  Pr  Pr1  1  0.909044  0.909044  0.909044  1
  Pr  Pr2  1  0.591417  0.591417  0.591417  1
  Np  Np3  1  0.091011  0.091011  0.091011  1
  Al  Al4  1  0.054600  0.250276  0.445474  1
  Al  Al5  1  0.445474  0.054600  0.250276  1
  Al  Al6  1  0.250276  0.445474  0.054600  1
  Al  Al7  1  0.945271  0.749992  0.554545  1
  Al  Al8  1  0.554545  0.945271  0.749992  1
  Al  Al9  1  0.749992  0.554545  0.945271  1
  Au  Au10  1  0.982748  0.363897  0.703662  1
  Au  Au11  1  0.703662  0.982748  0.363897  1
  Au  Au12  1  0.363897  0.703662  0.982748  1
  Au  Au13  1  0.201643  0.866056  0.480611  1
  Au  Au14  1  0.480611  0.201643  0.866056  1
  Au  Au15  1  0.866056  0.480611  0.201643  1
  Au  Au16  1  0.018316  0.634817  0.297795  1
  Au  Au17  1  0.297795  0.018316  0.634817  1
  Au  Au18  1  0.634817  0.297795  0.018316  1
  Au  Au19  1  0.797957  0.135115  0.517068  1
  Au  Au20  1  0.517068  0.797957  0.135115  1
  Au  Au21  1  0.135115  0.517068  0.797957  1
