# generated using pymatgen
data_TaPt7Rh
_symmetry_space_group_name_H-M   'P 1'
_cell_length_a   6.26858575
_cell_length_b   6.26858567
_cell_length_c   6.32181180
_cell_angle_alpha   95.65405777
_cell_angle_beta   95.65406286
_cell_angle_gamma   143.25281491
_symmetry_Int_Tables_number   1
_chemical_formula_structural   TaPt7Rh
_chemical_formula_sum   'Ta1 Pt7 Rh1'
_cell_volume   141.17776049
_cell_formula_units_Z   1
loop_
 _symmetry_equiv_pos_site_id
 _symmetry_equiv_pos_as_xyz
  1  'x, y, z'
loop_
 _atom_site_type_symbol
 _atom_site_label
 _atom_site_symmetry_multiplicity
 _atom_site_fract_x
 _atom_site_fract_y
 _atom_site_fract_z
 _atom_site_occupancy
  Ta  Ta0  1  0.003066  0.996934  0.000000  1
  Pt  Pt1  1  0.336565  0.663434  0.000000  1
  Pt  Pt2  1  0.662657  0.661106  0.323764  1
  Pt  Pt3  1  0.328245  0.998174  0.326419  1
  Pt  Pt4  1  0.998354  0.329905  0.328258  1
  Pt  Pt5  1  0.670095  0.001646  0.671742  1
  Pt  Pt6  1  0.001826  0.671755  0.673581  1
  Pt  Pt7  1  0.338893  0.337342  0.676235  1
  Rh  Rh8  1  0.660298  0.339701  0.000000  1
