# generated using pymatgen
data_Tb4Y4Re(TcB8)3
_symmetry_space_group_name_H-M   'P 1'
_cell_length_a   3.69588600
_cell_length_b   9.18912113
_cell_length_c   11.58217002
_cell_angle_alpha   89.97497514
_cell_angle_beta   90.00000000
_cell_angle_gamma   90.00000000
_symmetry_Int_Tables_number   1
_chemical_formula_structural   Tb4Y4Re(TcB8)3
_chemical_formula_sum   'Tb4 Y4 Re1 Tc3 B24'
_cell_volume   393.35297359
_cell_formula_units_Z   1
loop_
 _symmetry_equiv_pos_site_id
 _symmetry_equiv_pos_as_xyz
  1  'x, y, z'
loop_
 _atom_site_type_symbol
 _atom_site_label
 _atom_site_symmetry_multiplicity
 _atom_site_fract_x
 _atom_site_fract_y
 _atom_site_fract_z
 _atom_site_occupancy
  Tb  Tb0  1  0.000000  0.823975  0.085845  1
  Tb  Tb1  1  0.000000  0.176242  0.914171  1
  Tb  Tb2  1  0.000000  0.323773  0.414018  1
  Tb  Tb3  1  0.000000  0.676504  0.585699  1
  Y  Y4  1  0.000000  0.442343  0.130850  1
  Y  Y5  1  0.000000  0.558165  0.870070  1
  Y  Y6  1  0.000000  0.942365  0.369148  1
  Y  Y7  1  0.000000  0.056630  0.630326  1
  Re  Re8  1  0.000000  0.361747  0.679257  1
  Tc  Tc9  1  0.000000  0.138387  0.179328  1
  Tc  Tc10  1  0.000000  0.861675  0.820732  1
  Tc  Tc11  1  0.000000  0.638413  0.320563  1
  B  B12  1  0.500000  0.053401  0.067291  1
  B  B13  1  0.500000  0.946756  0.932676  1
  B  B14  1  0.500000  0.553369  0.432600  1
  B  B15  1  0.500000  0.446830  0.567098  1
  B  B16  1  0.500000  0.248418  0.081808  1
  B  B17  1  0.500000  0.751827  0.918265  1
  B  B18  1  0.500000  0.748336  0.418155  1
  B  B19  1  0.500000  0.251268  0.581653  1
  B  B20  1  0.500000  0.291279  0.234670  1
  B  B21  1  0.500000  0.708688  0.765486  1
  B  B22  1  0.500000  0.791293  0.265265  1
  B  B23  1  0.500000  0.208338  0.734599  1
  B  B24  1  0.500000  0.130606  0.314100  1
  B  B25  1  0.500000  0.869213  0.685892  1
  B  B26  1  0.500000  0.630643  0.185816  1
  B  B27  1  0.500000  0.369542  0.814336  1
  B  B28  1  0.500000  0.482285  0.288415  1
  B  B29  1  0.500000  0.518057  0.711809  1
  B  B30  1  0.500000  0.982293  0.211582  1
  B  B31  1  0.500000  0.017642  0.788297  1
  B  B32  1  0.500000  0.100174  0.471792  1
  B  B33  1  0.500000  0.899323  0.527966  1
  B  B34  1  0.500000  0.600369  0.028373  1
  B  B35  1  0.500000  0.399835  0.972051  1
