# generated using pymatgen
data_Tb16Ho3TmSn16
_symmetry_space_group_name_H-M   'P 1'
_cell_length_a   8.04718302
_cell_length_b   8.20486902
_cell_length_c   15.51971400
_cell_angle_alpha   90.00000000
_cell_angle_beta   90.00000000
_cell_angle_gamma   90.00729761
_symmetry_Int_Tables_number   1
_chemical_formula_structural   Tb16Ho3TmSn16
_chemical_formula_sum   'Tb16 Ho3 Tm1 Sn16'
_cell_volume   1024.70591021
_cell_formula_units_Z   1
loop_
 _symmetry_equiv_pos_site_id
 _symmetry_equiv_pos_as_xyz
  1  'x, y, z'
loop_
 _atom_site_type_symbol
 _atom_site_label
 _atom_site_symmetry_multiplicity
 _atom_site_fract_x
 _atom_site_fract_y
 _atom_site_fract_z
 _atom_site_occupancy
  Tb  Tb0  1  0.366854  0.837184  0.877968  1
  Tb  Tb1  1  0.866852  0.662802  0.622042  1
  Tb  Tb2  1  0.633053  0.162760  0.377952  1
  Tb  Tb3  1  0.133188  0.337135  0.122047  1
  Tb  Tb4  1  0.633053  0.162760  0.122048  1
  Tb  Tb5  1  0.133188  0.337135  0.377953  1
  Tb  Tb6  1  0.366854  0.837184  0.622032  1
  Tb  Tb7  1  0.866852  0.662802  0.877958  1
  Tb  Tb8  1  0.519863  0.320462  0.902632  1
  Tb  Tb9  1  0.019845  0.179548  0.597359  1
  Tb  Tb10  1  0.480114  0.679570  0.402634  1
  Tb  Tb11  1  0.980184  0.820480  0.097374  1
  Tb  Tb12  1  0.480114  0.679570  0.097366  1
  Tb  Tb13  1  0.980184  0.820480  0.402626  1
  Tb  Tb14  1  0.519863  0.320462  0.597368  1
  Tb  Tb15  1  0.019845  0.179548  0.902641  1
  Ho  Ho16  1  0.198262  0.502657  0.750000  1
  Ho  Ho17  1  0.698263  0.997361  0.750000  1
  Ho  Ho18  1  0.801754  0.497372  0.250000  1
  Tm  Tm19  1  0.301670  0.002667  0.250000  1
  Sn  Sn20  1  0.293114  0.035883  0.042573  1
  Sn  Sn21  1  0.793112  0.464118  0.457512  1
  Sn  Sn22  1  0.706883  0.964098  0.542476  1
  Sn  Sn23  1  0.206890  0.535891  0.957527  1
  Sn  Sn24  1  0.706883  0.964098  0.957524  1
  Sn  Sn25  1  0.206890  0.535891  0.542473  1
  Sn  Sn26  1  0.293114  0.035883  0.457427  1
  Sn  Sn27  1  0.793112  0.464118  0.042488  1
  Sn  Sn28  1  0.564005  0.618196  0.750000  1
  Sn  Sn29  1  0.064034  0.881815  0.750000  1
  Sn  Sn30  1  0.435953  0.381711  0.250000  1
  Sn  Sn31  1  0.936224  0.118133  0.250000  1
  Sn  Sn32  1  0.328776  0.148214  0.750000  1
  Sn  Sn33  1  0.828811  0.351739  0.750000  1
  Sn  Sn34  1  0.671127  0.851806  0.250000  1
  Sn  Sn35  1  0.171217  0.648466  0.250000  1
