# generated using pymatgen
data_Yb5Lu3(Si4Mo3)4
_symmetry_space_group_name_H-M   'P 1'
_cell_length_a   6.69989434
_cell_length_b   6.92482922
_cell_length_c   12.95839852
_cell_angle_alpha   89.89521632
_cell_angle_beta   89.98439552
_cell_angle_gamma   89.92931841
_symmetry_Int_Tables_number   1
_chemical_formula_structural   Yb5Lu3(Si4Mo3)4
_chemical_formula_sum   'Yb5 Lu3 Si16 Mo12'
_cell_volume   601.21150154
_cell_formula_units_Z   1
loop_
 _symmetry_equiv_pos_site_id
 _symmetry_equiv_pos_as_xyz
  1  'x, y, z'
loop_
 _atom_site_type_symbol
 _atom_site_label
 _atom_site_symmetry_multiplicity
 _atom_site_fract_x
 _atom_site_fract_y
 _atom_site_fract_z
 _atom_site_occupancy
  Yb  Yb0  1  0.497947  0.334067  0.090599  1
  Yb  Yb1  1  0.998003  0.167748  0.408399  1
  Yb  Yb2  1  0.501560  0.668071  0.591776  1
  Yb  Yb3  1  0.001641  0.831615  0.908119  1
  Yb  Yb4  1  0.501591  0.667295  0.909122  1
  Lu  Lu5  1  0.001384  0.829479  0.593911  1
  Lu  Lu6  1  0.498601  0.329785  0.406158  1
  Lu  Lu7  1  0.998208  0.169927  0.093689  1
  Si  Si8  1  0.661416  0.041528  0.544650  1
  Si  Si9  1  0.159117  0.457097  0.955245  1
  Si  Si10  1  0.338664  0.958646  0.045933  1
  Si  Si11  1  0.838484  0.541543  0.454828  1
  Si  Si12  1  0.339274  0.958840  0.454791  1
  Si  Si13  1  0.841203  0.541598  0.045773  1
  Si  Si14  1  0.660479  0.041707  0.954995  1
  Si  Si15  1  0.160761  0.459136  0.544639  1
  Si  Si16  1  0.534165  0.372034  0.750193  1
  Si  Si17  1  0.034272  0.126857  0.749039  1
  Si  Si18  1  0.465804  0.630086  0.250021  1
  Si  Si19  1  0.966123  0.871290  0.249848  1
  Si  Si20  1  0.800908  0.630624  0.750168  1
  Si  Si21  1  0.302331  0.868975  0.750334  1
  Si  Si22  1  0.198242  0.368699  0.249958  1
  Si  Si23  1  0.697772  0.131818  0.250045  1
  Mo  Mo24  1  0.832094  0.332719  0.625496  1
  Mo  Mo25  1  0.331723  0.167941  0.873214  1
  Mo  Mo26  1  0.167472  0.666722  0.126462  1
  Mo  Mo27  1  0.669039  0.833246  0.374534  1
  Mo  Mo28  1  0.167880  0.667390  0.374360  1
  Mo  Mo29  1  0.669150  0.834345  0.126813  1
  Mo  Mo30  1  0.834855  0.330392  0.873313  1
  Mo  Mo31  1  0.332446  0.167806  0.625052  1
  Mo  Mo32  1  0.663145  0.006362  0.749047  1
  Mo  Mo33  1  0.161901  0.493673  0.748755  1
  Mo  Mo34  1  0.336099  0.997047  0.250507  1
  Mo  Mo35  1  0.836247  0.503895  0.250215  1
