# generated using pymatgen
data_Er8Ti7Nb5(Si3Ge)4
_symmetry_space_group_name_H-M   'P 1'
_cell_length_a   7.07620320
_cell_length_b   7.06759232
_cell_length_c   12.96971475
_cell_angle_alpha   90.03560789
_cell_angle_beta   90.01225701
_cell_angle_gamma   90.03556842
_symmetry_Int_Tables_number   1
_chemical_formula_structural   Er8Ti7Nb5(Si3Ge)4
_chemical_formula_sum   'Er8 Ti7 Nb5 Si12 Ge4'
_cell_volume   648.63747003
_cell_formula_units_Z   1
loop_
 _symmetry_equiv_pos_site_id
 _symmetry_equiv_pos_as_xyz
  1  'x, y, z'
loop_
 _atom_site_type_symbol
 _atom_site_label
 _atom_site_symmetry_multiplicity
 _atom_site_fract_x
 _atom_site_fract_y
 _atom_site_fract_z
 _atom_site_occupancy
  Er  Er0  1  0.341332  0.998179  0.465966  1
  Er  Er1  1  0.501048  0.839785  0.716908  1
  Er  Er2  1  0.497776  0.157569  0.217482  1
  Er  Er3  1  0.842557  0.502618  0.283334  1
  Er  Er4  1  0.159470  0.499599  0.781802  1
  Er  Er5  1  0.659266  0.999584  0.967297  1
  Er  Er6  1  0.998340  0.342424  0.531874  1
  Er  Er7  1  0.000786  0.661675  0.033251  1
  Ti  Ti8  1  0.488159  0.655879  0.126748  1
  Ti  Ti9  1  0.511593  0.348497  0.626203  1
  Ti  Ti10  1  0.656962  0.488530  0.873036  1
  Ti  Ti11  1  0.343683  0.511441  0.374404  1
  Ti  Ti12  1  0.847898  0.988877  0.375423  1
  Ti  Ti13  1  0.009200  0.151448  0.125536  1
  Ti  Ti14  1  0.989486  0.843706  0.624658  1
  Nb  Nb15  1  0.322890  0.322775  0.000175  1
  Nb  Nb16  1  0.172072  0.827311  0.250417  1
  Nb  Nb17  1  0.825607  0.173255  0.750651  1
  Nb  Nb18  1  0.673610  0.675907  0.500319  1
  Nb  Nb19  1  0.151873  0.010672  0.876107  1
  Si  Si20  1  0.296115  0.629016  0.567030  1
  Si  Si21  1  0.795318  0.871015  0.183574  1
  Si  Si22  1  0.128919  0.204455  0.317474  1
  Si  Si23  1  0.868428  0.794550  0.817188  1
  Si  Si24  1  0.293317  0.955743  0.066038  1
  Si  Si25  1  0.547139  0.791946  0.313778  1
  Si  Si26  1  0.457192  0.208077  0.814568  1
  Si  Si27  1  0.794517  0.546115  0.685890  1
  Si  Si28  1  0.206704  0.452924  0.186381  1
  Si  Si29  1  0.708148  0.044221  0.565143  1
  Si  Si30  1  0.954878  0.295996  0.935581  1
  Si  Si31  1  0.046907  0.708208  0.437085  1
  Ge  Ge32  1  0.205008  0.128945  0.677839  1
  Ge  Ge33  1  0.372976  0.701886  0.930376  1
  Ge  Ge34  1  0.627402  0.295617  0.429872  1
  Ge  Ge35  1  0.703421  0.371556  0.070590  1
