# generated using pymatgen
data_K3Tl5Sb8S4(O2F3)8
_symmetry_space_group_name_H-M   'P 1'
_cell_length_a   5.72118700
_cell_length_b   9.41348980
_cell_length_c   19.79859900
_cell_angle_alpha   76.25538708
_cell_angle_beta   90.00000000
_cell_angle_gamma   90.00000000
_symmetry_Int_Tables_number   1
_chemical_formula_structural   K3Tl5Sb8S4(O2F3)8
_chemical_formula_sum   'K3 Tl5 Sb8 S4 O16 F24'
_cell_volume   1035.74643684
_cell_formula_units_Z   1
loop_
 _symmetry_equiv_pos_site_id
 _symmetry_equiv_pos_as_xyz
  1  'x, y, z'
loop_
 _atom_site_type_symbol
 _atom_site_label
 _atom_site_symmetry_multiplicity
 _atom_site_fract_x
 _atom_site_fract_y
 _atom_site_fract_z
 _atom_site_occupancy
  K  K0  1  0.750093  0.516559  0.074677  1
  K  K1  1  0.252086  0.482884  0.425735  1
  K  K2  1  0.249768  0.483680  0.925405  1
  Tl  Tl3  1  0.739609  0.859589  0.827309  1
  Tl  Tl4  1  0.240966  0.139246  0.673057  1
  Tl  Tl5  1  0.760214  0.860991  0.325443  1
  Tl  Tl6  1  0.747189  0.519218  0.574446  1
  Tl  Tl7  1  0.260492  0.139629  0.172712  1
  Sb  Sb8  1  0.775677  0.184619  0.495521  1
  Sb  Sb9  1  0.725720  0.190340  0.996977  1
  Sb  Sb10  1  0.222447  0.815546  0.500596  1
  Sb  Sb11  1  0.258793  0.668013  0.721344  1
  Sb  Sb12  1  0.274235  0.808943  0.003656  1
  Sb  Sb13  1  0.740923  0.333374  0.279331  1
  Sb  Sb14  1  0.240447  0.667242  0.220138  1
  Sb  Sb15  1  0.760351  0.330042  0.782422  1
  S  S16  1  0.737785  0.868560  0.619259  1
  S  S17  1  0.762528  0.866133  0.117640  1
  S  S18  1  0.237484  0.132745  0.882902  1
  S  S19  1  0.263548  0.134405  0.380805  1
  O  O20  1  0.129482  0.993341  0.392974  1
  O  O21  1  0.871708  0.009460  0.605490  1
  O  O22  1  0.403104  0.258788  0.863606  1
  O  O23  1  0.935069  0.861658  0.174787  1
  O  O24  1  0.882858  0.857485  0.051807  1
  O  O25  1  0.371866  0.992060  0.896032  1
  O  O26  1  0.383374  0.139747  0.447100  1
  O  O27  1  0.116625  0.141537  0.948654  1
  O  O28  1  0.595629  0.740817  0.136817  1
  O  O29  1  0.436123  0.139490  0.323680  1
  O  O30  1  0.563924  0.865888  0.675788  1
  O  O31  1  0.065223  0.136228  0.825807  1
  O  O32  1  0.619321  0.857596  0.553430  1
  O  O33  1  0.629644  0.007472  0.104675  1
  O  O34  1  0.904986  0.743485  0.639871  1
  O  O35  1  0.097991  0.260218  0.362253  1
  F  F36  1  0.056453  0.752305  0.937570  1
  F  F37  1  0.021798  0.561441  0.791009  1
  F  F38  1  0.477963  0.560895  0.290033  1
  F  F39  1  0.943823  0.247516  0.062779  1
  F  F40  1  0.158554  0.843418  0.752589  1
  F  F41  1  0.978280  0.439907  0.209392  1
  F  F42  1  0.520620  0.437305  0.713537  1
  F  F43  1  0.553164  0.238687  0.560963  1
  F  F44  1  0.207064  0.604795  0.060623  1
  F  F45  1  0.972606  0.373536  0.699533  1
  F  F46  1  0.792552  0.394474  0.939829  1
  F  F47  1  0.519614  0.701731  0.962671  1
  F  F48  1  0.984033  0.711771  0.455647  1
  F  F49  1  0.449530  0.755851  0.438217  1
  F  F50  1  0.024653  0.291059  0.535572  1
  F  F51  1  0.271531  0.609800  0.559028  1
  F  F52  1  0.708454  0.387786  0.437494  1
  F  F53  1  0.469244  0.626090  0.804468  1
  F  F54  1  0.030064  0.624434  0.303248  1
  F  F55  1  0.658236  0.156239  0.750057  1
  F  F56  1  0.480134  0.297701  0.037778  1
  F  F57  1  0.843218  0.157961  0.248112  1
  F  F58  1  0.340978  0.842793  0.251451  1
  F  F59  1  0.530153  0.375476  0.196251  1
