# generated using pymatgen
data_Tb5InBi2P
_symmetry_space_group_name_H-M   'P 1'
_cell_length_a   9.23117677
_cell_length_b   9.21329790
_cell_length_c   6.79706500
_cell_angle_alpha   90.00000000
_cell_angle_beta   90.00000000
_cell_angle_gamma   119.93594651
_symmetry_Int_Tables_number   1
_chemical_formula_structural   Tb5InBi2P
_chemical_formula_sum   'Tb10 In2 Bi4 P2'
_cell_volume   500.96131167
_cell_formula_units_Z   2
loop_
 _symmetry_equiv_pos_site_id
 _symmetry_equiv_pos_as_xyz
  1  'x, y, z'
loop_
 _atom_site_type_symbol
 _atom_site_label
 _atom_site_symmetry_multiplicity
 _atom_site_fract_x
 _atom_site_fract_y
 _atom_site_fract_z
 _atom_site_occupancy
  Tb  Tb0  1  0.662262  0.330057  0.495824  1
  Tb  Tb1  1  0.337738  0.667796  0.495824  1
  Tb  Tb2  1  0.337738  0.667796  0.004176  1
  Tb  Tb3  1  0.662262  0.330057  0.004176  1
  Tb  Tb4  1  0.759614  0.764084  0.250000  1
  Tb  Tb5  1  0.240386  0.004469  0.250000  1
  Tb  Tb6  1  0.000000  0.237340  0.250000  1
  Tb  Tb7  1  0.236790  0.237123  0.750000  1
  Tb  Tb8  1  0.763210  0.000332  0.750000  1
  Tb  Tb9  1  0.000000  0.763099  0.750000  1
  In  In10  1  0.399492  0.399256  0.250000  1
  In  In11  1  0.600508  0.999764  0.250000  1
  Bi  Bi12  1  0.000000  0.602882  0.250000  1
  Bi  Bi13  1  0.600093  0.599507  0.750000  1
  Bi  Bi14  1  0.399907  0.999414  0.750000  1
  Bi  Bi15  1  0.000000  0.398607  0.750000  1
  P  P16  1  0.000000  0.999210  0.501059  1
  P  P17  1  0.000000  0.999210  0.998941  1
