# generated using pymatgen
data_Zr4CoTc2Os5
_symmetry_space_group_name_H-M   'P 1'
_cell_length_a   5.18186287
_cell_length_b   5.13424605
_cell_length_c   8.64560800
_cell_angle_alpha   90.00000000
_cell_angle_beta   90.00000000
_cell_angle_gamma   119.23612047
_symmetry_Int_Tables_number   1
_chemical_formula_structural   Zr4CoTc2Os5
_chemical_formula_sum   'Zr4 Co1 Tc2 Os5'
_cell_volume   200.71530153
_cell_formula_units_Z   1
loop_
 _symmetry_equiv_pos_site_id
 _symmetry_equiv_pos_as_xyz
  1  'x, y, z'
loop_
 _atom_site_type_symbol
 _atom_site_label
 _atom_site_symmetry_multiplicity
 _atom_site_fract_x
 _atom_site_fract_y
 _atom_site_fract_z
 _atom_site_occupancy
  Zr  Zr0  1  0.332691  0.665912  0.430913  1
  Zr  Zr1  1  0.670551  0.331988  0.559806  1
  Zr  Zr2  1  0.670551  0.331988  0.940194  1
  Zr  Zr3  1  0.332691  0.665912  0.069087  1
  Co  Co4  1  0.829862  0.171136  0.250000  1
  Tc  Tc5  1  0.170898  0.829780  0.750000  1
  Tc  Tc6  1  0.173318  0.344026  0.750000  1
  Os  Os7  1  0.997982  0.002807  0.494446  1
  Os  Os8  1  0.997982  0.002807  0.005554  1
  Os  Os9  1  0.824338  0.653865  0.250000  1
  Os  Os10  1  0.344402  0.173866  0.250000  1
  Os  Os11  1  0.654734  0.825914  0.750000  1
