# generated using pymatgen
data_Pr2NdSm3RuBr10
_symmetry_space_group_name_H-M   'P 1'
_cell_length_a   7.65803209
_cell_length_b   9.37659199
_cell_length_c   9.63296624
_cell_angle_alpha   108.43281741
_cell_angle_beta   97.30797756
_cell_angle_gamma   104.99552216
_symmetry_Int_Tables_number   1
_chemical_formula_structural   Pr2NdSm3RuBr10
_chemical_formula_sum   'Pr2 Nd1 Sm3 Ru1 Br10'
_cell_volume   617.16399540
_cell_formula_units_Z   1
loop_
 _symmetry_equiv_pos_site_id
 _symmetry_equiv_pos_as_xyz
  1  'x, y, z'
loop_
 _atom_site_type_symbol
 _atom_site_label
 _atom_site_symmetry_multiplicity
 _atom_site_fract_x
 _atom_site_fract_y
 _atom_site_fract_z
 _atom_site_occupancy
  Pr  Pr0  1  0.371641  0.143660  0.191920  1
  Pr  Pr1  1  0.965235  0.286413  0.087505  1
  Nd  Nd2  1  0.033569  0.715348  0.911723  1
  Sm  Sm3  1  0.126901  0.050877  0.751565  1
  Sm  Sm4  1  0.633730  0.860464  0.813202  1
  Sm  Sm5  1  0.868380  0.946487  0.246957  1
  Ru  Ru6  1  0.999437  0.000640  0.000591  1
  Br  Br7  1  0.211914  0.750256  0.655625  1
  Br  Br8  1  0.651475  0.548583  0.726199  1
  Br  Br9  1  0.239483  0.076619  0.454754  1
  Br  Br10  1  0.798558  0.250885  0.352019  1
  Br  Br11  1  0.545035  0.173707  0.915701  1
  Br  Br12  1  0.752932  0.915917  0.547071  1
  Br  Br13  1  0.908311  0.631700  0.168015  1
  Br  Br14  1  0.350070  0.459865  0.273235  1
  Br  Br15  1  0.089252  0.366902  0.826350  1
  Br  Br16  1  0.454077  0.821678  0.077569  1
