# generated using pymatgen
data_Tb2SmBi(Mo2O7)2
_symmetry_space_group_name_H-M   'P 1'
_cell_length_a   7.42014904
_cell_length_b   7.36347228
_cell_length_c   7.36347165
_cell_angle_alpha   60.96753821
_cell_angle_beta   61.24103222
_cell_angle_gamma   61.24102545
_symmetry_Int_Tables_number   1
_chemical_formula_structural   Tb2SmBi(Mo2O7)2
_chemical_formula_sum   'Tb2 Sm1 Bi1 Mo4 O14'
_cell_volume   291.84391344
_cell_formula_units_Z   1
loop_
 _symmetry_equiv_pos_site_id
 _symmetry_equiv_pos_as_xyz
  1  'x, y, z'
loop_
 _atom_site_type_symbol
 _atom_site_label
 _atom_site_symmetry_multiplicity
 _atom_site_fract_x
 _atom_site_fract_y
 _atom_site_fract_z
 _atom_site_occupancy
  Tb  Tb0  1  0.125000  0.125000  0.625000  1
  Tb  Tb1  1  0.125000  0.625000  0.125000  1
  Sm  Sm2  1  0.625000  0.125000  0.125000  1
  Bi  Bi3  1  0.125000  0.125000  0.125000  1
  Mo  Mo4  1  0.625000  0.625000  0.625000  1
  Mo  Mo5  1  0.125000  0.625000  0.625000  1
  Mo  Mo6  1  0.625000  0.625000  0.125000  1
  Mo  Mo7  1  0.625000  0.125000  0.625000  1
  O  O8  1  0.002129  0.994200  0.994200  1
  O  O9  1  0.247871  0.255800  0.255800  1
  O  O10  1  0.290555  0.301383  0.706935  1
  O  O11  1  0.523347  0.537928  0.975297  1
  O  O12  1  0.726653  0.274703  0.712072  1
  O  O13  1  0.720009  0.291236  0.291236  1
  O  O14  1  0.278704  0.713226  0.713226  1
  O  O15  1  0.290555  0.706935  0.301383  1
  O  O16  1  0.726653  0.712072  0.274703  1
  O  O17  1  0.971296  0.536774  0.536774  1
  O  O18  1  0.529991  0.958764  0.958764  1
  O  O19  1  0.959445  0.948617  0.543065  1
  O  O20  1  0.959445  0.543065  0.948617  1
  O  O21  1  0.523347  0.975297  0.537928  1
