# generated using pymatgen
data_PrGd3Se3O4
_symmetry_space_group_name_H-M   'P 1'
_cell_length_a   6.70056833
_cell_length_b   6.70056926
_cell_length_c   8.41706802
_cell_angle_alpha   90.16602634
_cell_angle_beta   89.83397372
_cell_angle_gamma   145.58305948
_symmetry_Int_Tables_number   1
_chemical_formula_structural   PrGd3Se3O4
_chemical_formula_sum   'Pr1 Gd3 Se3 O4'
_cell_volume   213.59581404
_cell_formula_units_Z   1
loop_
 _symmetry_equiv_pos_site_id
 _symmetry_equiv_pos_as_xyz
  1  'x, y, z'
loop_
 _atom_site_type_symbol
 _atom_site_label
 _atom_site_symmetry_multiplicity
 _atom_site_fract_x
 _atom_site_fract_y
 _atom_site_fract_z
 _atom_site_occupancy
  Pr  Pr0  1  0.314852  0.685148  0.762685  1
  Gd  Gd1  1  0.320626  0.679374  0.240755  1
  Gd  Gd2  1  0.983835  0.016165  0.498638  1
  Gd  Gd3  1  0.996752  0.003248  0.001340  1
  Se  Se4  1  0.681913  0.318087  0.000975  1
  Se  Se5  1  0.642063  0.357937  0.648348  1
  Se  Se6  1  0.647121  0.352879  0.346393  1
  O  O7  1  0.388166  0.611834  0.495445  1
  O  O8  1  0.917089  0.082911  0.754770  1
  O  O9  1  0.411787  0.588213  0.005059  1
  O  O10  1  0.913228  0.086772  0.245592  1
