# generated using pymatgen
data_HoTmZn(PRh2)6
_symmetry_space_group_name_H-M   'P 1'
_cell_length_a   9.65531000
_cell_length_b   9.65530936
_cell_length_c   3.88647300
_cell_angle_alpha   90.00000000
_cell_angle_beta   90.00000000
_cell_angle_gamma   120.00000220
_symmetry_Int_Tables_number   1
_chemical_formula_structural   HoTmZn(PRh2)6
_chemical_formula_sum   'Ho1 Tm1 Zn1 P6 Rh12'
_cell_volume   313.77525581
_cell_formula_units_Z   1
loop_
 _symmetry_equiv_pos_site_id
 _symmetry_equiv_pos_as_xyz
  1  'x, y, z'
loop_
 _atom_site_type_symbol
 _atom_site_label
 _atom_site_symmetry_multiplicity
 _atom_site_fract_x
 _atom_site_fract_y
 _atom_site_fract_z
 _atom_site_occupancy
  Ho  Ho0  1  0.666667  0.333333  0.246794  1
  Tm  Tm1  1  0.333333  0.666667  0.753203  1
  Zn  Zn2  1  0.000000  0.000000  0.500190  1
  P  P3  1  0.402098  0.284573  0.748321  1
  P  P4  1  0.715427  0.117524  0.748321  1
  P  P5  1  0.882476  0.597902  0.748321  1
  P  P6  1  0.597538  0.715304  0.251672  1
  P  P7  1  0.284696  0.882235  0.251672  1
  P  P8  1  0.117765  0.402462  0.251672  1
  Rh  Rh9  1  0.452499  0.065960  0.749073  1
  Rh  Rh10  1  0.934040  0.386540  0.749073  1
  Rh  Rh11  1  0.613460  0.547501  0.749073  1
  Rh  Rh12  1  0.546646  0.932744  0.250928  1
  Rh  Rh13  1  0.067256  0.613902  0.250928  1
  Rh  Rh14  1  0.386098  0.453354  0.250928  1
  Rh  Rh15  1  0.158976  0.284356  0.753525  1
  Rh  Rh16  1  0.715644  0.874620  0.753525  1
  Rh  Rh17  1  0.125380  0.841024  0.753525  1
  Rh  Rh18  1  0.841116  0.715930  0.246419  1
  Rh  Rh19  1  0.284070  0.125186  0.246419  1
  Rh  Rh20  1  0.874814  0.158884  0.246419  1
