# generated using pymatgen
data_SrAs12Os3Pt
_symmetry_space_group_name_H-M   'P 1'
_cell_length_a   7.51243023
_cell_length_b   7.51243185
_cell_length_c   7.51243112
_cell_angle_alpha   109.43704435
_cell_angle_beta   109.43705192
_cell_angle_gamma   109.43705493
_symmetry_Int_Tables_number   1
_chemical_formula_structural   SrAs12Os3Pt
_chemical_formula_sum   'Sr1 As12 Os3 Pt1'
_cell_volume   326.78930143
_cell_formula_units_Z   1
loop_
 _symmetry_equiv_pos_site_id
 _symmetry_equiv_pos_as_xyz
  1  'x, y, z'
loop_
 _atom_site_type_symbol
 _atom_site_label
 _atom_site_symmetry_multiplicity
 _atom_site_fract_x
 _atom_site_fract_y
 _atom_site_fract_z
 _atom_site_occupancy
  Sr  Sr0  1  0.000000  0.000000  0.000000  1
  As  As1  1  0.346849  0.196967  0.849382  1
  As  As2  1  0.653151  0.803033  0.150618  1
  As  As3  1  0.653525  0.502105  0.858101  1
  As  As4  1  0.346475  0.497895  0.141899  1
  As  As5  1  0.196967  0.849382  0.346849  1
  As  As6  1  0.803033  0.150618  0.653151  1
  As  As7  1  0.502105  0.858101  0.653525  1
  As  As8  1  0.497895  0.141899  0.346475  1
  As  As9  1  0.849382  0.346849  0.196967  1
  As  As10  1  0.150618  0.653151  0.803033  1
  As  As11  1  0.858101  0.653525  0.502105  1
  As  As12  1  0.141899  0.346475  0.497895  1
  Os  Os13  1  0.000000  0.000000  0.500000  1
  Os  Os14  1  0.500000  0.000000  0.000000  1
  Os  Os15  1  0.000000  0.500000  0.000000  1
  Pt  Pt16  1  0.500000  0.500000  0.500000  1
