# generated using pymatgen
data_Sm2Fe3B8Os5
_symmetry_space_group_name_H-M   'P 1'
_cell_length_a   7.38289446
_cell_length_b   7.33150522
_cell_length_c   3.97092668
_cell_angle_alpha   90.18086972
_cell_angle_beta   89.68851892
_cell_angle_gamma   89.04165181
_symmetry_Int_Tables_number   1
_chemical_formula_structural   Sm2Fe3B8Os5
_chemical_formula_sum   'Sm2 Fe3 B8 Os5'
_cell_volume   214.90286906
_cell_formula_units_Z   1
loop_
 _symmetry_equiv_pos_site_id
 _symmetry_equiv_pos_as_xyz
  1  'x, y, z'
loop_
 _atom_site_type_symbol
 _atom_site_label
 _atom_site_symmetry_multiplicity
 _atom_site_fract_x
 _atom_site_fract_y
 _atom_site_fract_z
 _atom_site_occupancy
  Sm  Sm0  1  0.997060  0.998041  0.073118  1
  Sm  Sm1  1  0.508227  0.501729  0.595947  1
  Fe  Fe2  1  0.115893  0.378349  0.874201  1
  Fe  Fe3  1  0.872255  0.609691  0.876482  1
  Fe  Fe4  1  0.880480  0.373715  0.373664  1
  B  B5  1  0.674841  0.769365  0.097200  1
  B  B6  1  0.322248  0.226654  0.101293  1
  B  B7  1  0.276120  0.832664  0.603213  1
  B  B8  1  0.730003  0.174490  0.598541  1
  B  B9  1  0.835709  0.682500  0.378381  1
  B  B10  1  0.155298  0.313301  0.375372  1
  B  B11  1  0.196942  0.664313  0.879418  1
  B  B12  1  0.815052  0.338008  0.877604  1
  Os  Os13  1  0.116540  0.620079  0.377300  1
  Os  Os14  1  0.343344  0.113432  0.605929  1
  Os  Os15  1  0.656267  0.894902  0.603306  1
  Os  Os16  1  0.607010  0.158949  0.104656  1
  Os  Os17  1  0.396711  0.849819  0.104377  1
