# generated using pymatgen
data_LiWI18
_symmetry_space_group_name_H-M   'P 1'
_cell_length_a   10.31629727
_cell_length_b   10.36325351
_cell_length_c   10.29272206
_cell_angle_alpha   92.88088805
_cell_angle_beta   92.90489739
_cell_angle_gamma   92.88193352
_symmetry_Int_Tables_number   1
_chemical_formula_structural   LiWI18
_chemical_formula_sum   'Li1 W1 I18'
_cell_volume   1096.05584087
_cell_formula_units_Z   1
loop_
 _symmetry_equiv_pos_site_id
 _symmetry_equiv_pos_as_xyz
  1  'x, y, z'
loop_
 _atom_site_type_symbol
 _atom_site_label
 _atom_site_symmetry_multiplicity
 _atom_site_fract_x
 _atom_site_fract_y
 _atom_site_fract_z
 _atom_site_occupancy
  Li  Li0  1  0.500000  0.500000  0.500000  1
  W  W1  1  0.000000  0.000000  0.000000  1
  I  I2  1  0.775065  0.439327  0.503630  1
  I  I3  1  0.502459  0.773610  0.438129  1
  I  I4  1  0.439325  0.504213  0.775541  1
  I  I5  1  0.224935  0.560673  0.496370  1
  I  I6  1  0.497541  0.226390  0.561871  1
  I  I7  1  0.560675  0.495787  0.224459  1
  I  I8  1  0.893066  0.358968  0.737736  1
  I  I9  1  0.736551  0.891561  0.359329  1
  I  I10  1  0.359318  0.737486  0.892598  1
  I  I11  1  0.106934  0.641032  0.262264  1
  I  I12  1  0.263449  0.108439  0.640671  1
  I  I13  1  0.640682  0.262514  0.107402  1
  I  I14  1  0.008573  0.972764  0.735519  1
  I  I15  1  0.736108  0.008668  0.971635  1
  I  I16  1  0.971561  0.737249  0.007550  1
  I  I17  1  0.991427  0.027236  0.264481  1
  I  I18  1  0.263892  0.991332  0.028365  1
  I  I19  1  0.028439  0.262751  0.992450  1
