# generated using pymatgen
data_SrNd(NbSe2)6
_symmetry_space_group_name_H-M   'P 1'
_cell_length_a   6.09638100
_cell_length_b   6.09638141
_cell_length_c   15.36716600
_cell_angle_alpha   90.00000000
_cell_angle_beta   90.00000000
_cell_angle_gamma   120.00000321
_symmetry_Int_Tables_number   1
_chemical_formula_structural   SrNd(NbSe2)6
_chemical_formula_sum   'Sr1 Nd1 Nb6 Se12'
_cell_volume   494.61653553
_cell_formula_units_Z   1
loop_
 _symmetry_equiv_pos_site_id
 _symmetry_equiv_pos_as_xyz
  1  'x, y, z'
loop_
 _atom_site_type_symbol
 _atom_site_label
 _atom_site_symmetry_multiplicity
 _atom_site_fract_x
 _atom_site_fract_y
 _atom_site_fract_z
 _atom_site_occupancy
  Sr  Sr0  1  0.333333  0.666667  0.250000  1
  Nd  Nd1  1  0.666667  0.333333  0.750000  1
  Nb  Nb2  1  0.333333  0.666667  0.994526  1
  Nb  Nb3  1  0.000000  0.000000  0.993339  1
  Nb  Nb4  1  0.666667  0.333333  0.990976  1
  Nb  Nb5  1  0.333333  0.666667  0.505474  1
  Nb  Nb6  1  0.000000  0.000000  0.506661  1
  Nb  Nb7  1  0.666667  0.333333  0.509024  1
  Se  Se8  1  0.672100  0.664940  0.398573  1
  Se  Se9  1  0.665688  0.674708  0.615684  1
  Se  Se10  1  0.009020  0.674708  0.884316  1
  Se  Se11  1  0.665688  0.990980  0.884316  1
  Se  Se12  1  0.672100  0.007160  0.101427  1
  Se  Se13  1  0.335060  0.007160  0.398573  1
  Se  Se14  1  0.009020  0.334312  0.615684  1
  Se  Se15  1  0.325292  0.990980  0.615684  1
  Se  Se16  1  0.992840  0.664940  0.101427  1
  Se  Se17  1  0.325292  0.334312  0.884316  1
  Se  Se18  1  0.992840  0.327900  0.398573  1
  Se  Se19  1  0.335060  0.327900  0.101427  1
