# generated using pymatgen
data_Li28Mg2Si7Pb
_symmetry_space_group_name_H-M   'P 1'
_cell_length_a   9.29937140
_cell_length_b   9.28154589
_cell_length_c   9.29172074
_cell_angle_alpha   109.30069876
_cell_angle_beta   109.49346573
_cell_angle_gamma   109.46354940
_symmetry_Int_Tables_number   1
_chemical_formula_structural   Li28Mg2Si7Pb
_chemical_formula_sum   'Li28 Mg2 Si7 Pb1'
_cell_volume   618.55758891
_cell_formula_units_Z   1
loop_
 _symmetry_equiv_pos_site_id
 _symmetry_equiv_pos_as_xyz
  1  'x, y, z'
loop_
 _atom_site_type_symbol
 _atom_site_label
 _atom_site_symmetry_multiplicity
 _atom_site_fract_x
 _atom_site_fract_y
 _atom_site_fract_z
 _atom_site_occupancy
  Li  Li0  1  0.056374  0.539342  0.283442  1
  Li  Li1  1  0.262384  0.789442  0.720764  1
  Li  Li2  1  0.184040  0.960938  0.972985  1
  Li  Li3  1  0.977491  0.201669  0.021403  1
  Li  Li4  1  0.038966  0.013498  0.224326  1
  Li  Li5  1  0.789819  0.815114  0.775428  1
  Li  Li6  1  0.468281  0.746307  0.539020  1
  Li  Li7  1  0.210908  0.934100  0.472882  1
  Li  Li8  1  0.718314  0.343539  0.061286  1
  Li  Li9  1  0.955107  0.399539  0.863654  1
  Li  Li10  1  0.286349  0.661423  0.932089  1
  Li  Li11  1  0.532265  0.089430  0.127492  1
  Li  Li12  1  0.691988  0.857372  0.089794  1
  Li  Li13  1  0.489256  0.903895  0.341511  1
  Li  Li14  1  0.558375  0.148527  0.666967  1
  Li  Li15  1  0.771932  0.604665  0.910517  1
  Li  Li16  1  0.847663  0.518639  0.410373  1
  Li  Li17  1  0.405259  0.301400  0.166266  1
  Li  Li18  1  0.138461  0.224494  0.825290  1
  Li  Li19  1  0.107342  0.441455  0.589757  1
  Li  Li20  1  0.905701  0.035127  0.437972  1
  Li  Li21  1  0.342399  0.280317  0.626493  1
  Li  Li22  1  0.594696  0.467882  0.561367  1
  Li  Li23  1  0.664421  0.721487  0.377498  1
  Li  Li24  1  0.002032  0.874290  0.625597  1
  Li  Li25  1  0.248407  0.370812  0.379262  1
  Li  Li26  1  0.122122  0.755203  0.125092  1
  Li  Li27  1  0.623765  0.999550  0.875938  1
  Mg  Mg28  1  0.507080  0.498175  0.994215  1
  Mg  Mg29  1  0.749799  0.251389  0.498801  1
  Si  Si30  1  0.374680  0.126140  0.835194  1
  Si  Si31  1  0.958038  0.623299  0.744081  1
  Si  Si32  1  0.874964  0.211949  0.255239  1
  Si  Si33  1  0.377348  0.124702  0.337379  1
  Si  Si34  1  0.788239  0.042743  0.664744  1
  Si  Si35  1  0.463586  0.625659  0.754597  1
  Si  Si36  1  0.873575  0.709343  0.245135  1
  Pb  Pb37  1  0.288573  0.537147  0.166148  1
