# generated using pymatgen
data_Mn3V4(PO4)6
_symmetry_space_group_name_H-M   'P 1'
_cell_length_a   6.47413775
_cell_length_b   8.19741735
_cell_length_c   9.52983637
_cell_angle_alpha   105.94425957
_cell_angle_beta   108.51253244
_cell_angle_gamma   101.75384842
_symmetry_Int_Tables_number   1
_chemical_formula_structural   Mn3V4(PO4)6
_chemical_formula_sum   'Mn3 V4 P6 O24'
_cell_volume   437.03420539
_cell_formula_units_Z   1
loop_
 _symmetry_equiv_pos_site_id
 _symmetry_equiv_pos_as_xyz
  1  'x, y, z'
loop_
 _atom_site_type_symbol
 _atom_site_label
 _atom_site_symmetry_multiplicity
 _atom_site_fract_x
 _atom_site_fract_y
 _atom_site_fract_z
 _atom_site_occupancy
  Mn  Mn0  1  0.714490  0.184224  0.708238  1
  Mn  Mn1  1  0.285510  0.815776  0.291762  1
  Mn  Mn2  1  0.000000  0.000000  0.000000  1
  V  V3  1  0.384377  0.460748  0.112972  1
  V  V4  1  0.954732  0.284939  0.472872  1
  V  V5  1  0.615623  0.539252  0.887028  1
  V  V6  1  0.045268  0.715061  0.527128  1
  P  P7  1  0.776387  0.851423  0.235299  1
  P  P8  1  0.223613  0.148577  0.764701  1
  P  P9  1  0.604302  0.763869  0.635161  1
  P  P10  1  0.395698  0.236131  0.364839  1
  P  P11  1  0.906751  0.409202  0.166425  1
  P  P12  1  0.093249  0.590798  0.833575  1
  O  O13  1  0.728125  0.955977  0.762857  1
  O  O14  1  0.271875  0.044023  0.237143  1
  O  O15  1  0.119027  0.783554  0.913826  1
  O  O16  1  0.880973  0.216446  0.086174  1
  O  O17  1  0.210021  0.953166  0.705472  1
  O  O18  1  0.789979  0.046834  0.294528  1
  O  O19  1  0.368921  0.757579  0.513166  1
  O  O20  1  0.631079  0.242421  0.486834  1
  O  O21  1  0.066403  0.541614  0.654734  1
  O  O22  1  0.933597  0.458386  0.345266  1
  O  O23  1  0.749178  0.714864  0.540047  1
  O  O24  1  0.250822  0.285136  0.459953  1
  O  O25  1  0.984529  0.817687  0.347259  1
  O  O26  1  0.690961  0.460383  0.081487  1
  O  O27  1  0.309039  0.539617  0.918513  1
  O  O28  1  0.547600  0.732241  0.229556  1
  O  O29  1  0.452400  0.267759  0.770444  1
  O  O30  1  0.119633  0.535268  0.162949  1
  O  O31  1  0.015471  0.182313  0.652741  1
  O  O32  1  0.444792  0.364158  0.279730  1
  O  O33  1  0.555208  0.635842  0.720270  1
  O  O34  1  0.221738  0.205534  0.935446  1
  O  O35  1  0.778262  0.794466  0.064554  1
  O  O36  1  0.880367  0.464732  0.837051  1
