# generated using pymatgen
data_Ba6LaTl(BO3)6
_symmetry_space_group_name_H-M   'P 1'
_cell_length_a   8.30617356
_cell_length_b   8.30617389
_cell_length_c   8.30617420
_cell_angle_alpha   105.75807425
_cell_angle_beta   105.75807965
_cell_angle_gamma   105.75809121
_symmetry_Int_Tables_number   1
_chemical_formula_structural   Ba6LaTl(BO3)6
_chemical_formula_sum   'Ba6 La1 Tl1 B6 O18'
_cell_volume   492.52821842
_cell_formula_units_Z   1
loop_
 _symmetry_equiv_pos_site_id
 _symmetry_equiv_pos_as_xyz
  1  'x, y, z'
loop_
 _atom_site_type_symbol
 _atom_site_label
 _atom_site_symmetry_multiplicity
 _atom_site_fract_x
 _atom_site_fract_y
 _atom_site_fract_z
 _atom_site_occupancy
  Ba  Ba0  1  0.350567  0.728640  0.840366  1
  Ba  Ba1  1  0.840366  0.350567  0.728640  1
  Ba  Ba2  1  0.728640  0.840366  0.350567  1
  Ba  Ba3  1  0.649433  0.271360  0.159634  1
  Ba  Ba4  1  0.159634  0.649433  0.271360  1
  Ba  Ba5  1  0.271360  0.159634  0.649433  1
  La  La6  1  0.000000  0.000000  0.000000  1
  Tl  Tl7  1  0.500000  0.500000  0.500000  1
  B  B8  1  0.706151  0.614969  0.953028  1
  B  B9  1  0.953028  0.706151  0.614969  1
  B  B10  1  0.614969  0.953028  0.706151  1
  B  B11  1  0.046972  0.293849  0.385031  1
  B  B12  1  0.385031  0.046972  0.293849  1
  B  B13  1  0.293849  0.385031  0.046972  1
  O  O14  1  0.058228  0.808200  0.548839  1
  O  O15  1  0.548839  0.058228  0.808200  1
  O  O16  1  0.430761  0.508193  0.213240  1
  O  O17  1  0.508193  0.213240  0.430761  1
  O  O18  1  0.213240  0.430761  0.508193  1
  O  O19  1  0.786760  0.569239  0.491807  1
  O  O20  1  0.569239  0.491807  0.786760  1
  O  O21  1  0.491807  0.786760  0.569239  1
  O  O22  1  0.271415  0.203392  0.990188  1
  O  O23  1  0.203392  0.990188  0.271415  1
  O  O24  1  0.990188  0.271415  0.203392  1
  O  O25  1  0.728585  0.796608  0.009812  1
  O  O26  1  0.796608  0.009812  0.728585  1
  O  O27  1  0.009812  0.728585  0.796608  1
  O  O28  1  0.191800  0.451161  0.941772  1
  O  O29  1  0.451161  0.941772  0.191800  1
  O  O30  1  0.941772  0.191800  0.451161  1
  O  O31  1  0.808200  0.548839  0.058228  1
