# generated using pymatgen
data_Pr3Sc7Si20(Ir3Pt)2
_symmetry_space_group_name_H-M   'P 1'
_cell_length_a   12.52065057
_cell_length_b   12.55199834
_cell_length_c   4.20020000
_cell_angle_alpha   90.00000000
_cell_angle_beta   90.00000000
_cell_angle_gamma   90.23101615
_symmetry_Int_Tables_number   1
_chemical_formula_structural   Pr3Sc7Si20(Ir3Pt)2
_chemical_formula_sum   'Pr3 Sc7 Si20 Ir6 Pt2'
_cell_volume   660.09464373
_cell_formula_units_Z   1
loop_
 _symmetry_equiv_pos_site_id
 _symmetry_equiv_pos_as_xyz
  1  'x, y, z'
loop_
 _atom_site_type_symbol
 _atom_site_label
 _atom_site_symmetry_multiplicity
 _atom_site_fract_x
 _atom_site_fract_y
 _atom_site_fract_z
 _atom_site_occupancy
  Pr  Pr0  1  0.115659  0.615791  0.500000  1
  Pr  Pr1  1  0.884411  0.384169  0.500000  1
  Pr  Pr2  1  0.614002  0.885767  0.500000  1
  Sc  Sc3  1  0.384375  0.115556  0.500000  1
  Sc  Sc4  1  0.672572  0.175070  0.500000  1
  Sc  Sc5  1  0.325578  0.826566  0.500000  1
  Sc  Sc6  1  0.177977  0.324292  0.500000  1
  Sc  Sc7  1  0.823302  0.674090  0.500000  1
  Sc  Sc8  1  0.001042  0.000141  0.000000  1
  Sc  Sc9  1  0.499858  0.499065  0.000000  1
  Si  Si10  1  0.566047  0.068755  0.000000  1
  Si  Si11  1  0.430967  0.934034  0.000000  1
  Si  Si12  1  0.070387  0.433058  0.000000  1
  Si  Si13  1  0.930049  0.566299  0.000000  1
  Si  Si14  1  0.206445  0.164188  0.000000  1
  Si  Si15  1  0.796620  0.835487  0.000000  1
  Si  Si16  1  0.168134  0.801079  0.000000  1
  Si  Si17  1  0.697344  0.335737  0.000000  1
  Si  Si18  1  0.832263  0.201079  0.000000  1
  Si  Si19  1  0.300379  0.663685  0.000000  1
  Si  Si20  1  0.663209  0.699421  0.000000  1
  Si  Si21  1  0.337059  0.298339  0.000000  1
  Si  Si22  1  0.008619  0.147658  0.500000  1
  Si  Si23  1  0.993651  0.852722  0.500000  1
  Si  Si24  1  0.153484  0.994662  0.500000  1
  Si  Si25  1  0.505924  0.346071  0.500000  1
  Si  Si26  1  0.849947  0.009617  0.500000  1
  Si  Si27  1  0.489977  0.650640  0.500000  1
  Si  Si28  1  0.649692  0.506918  0.500000  1
  Si  Si29  1  0.350168  0.491122  0.500000  1
  Ir  Ir30  1  0.244469  0.979738  0.000000  1
  Ir  Ir31  1  0.520502  0.254399  0.000000  1
  Ir  Ir32  1  0.758559  0.023535  0.000000  1
  Ir  Ir33  1  0.475953  0.742770  0.000000  1
  Ir  Ir34  1  0.739886  0.523599  0.000000  1
  Ir  Ir35  1  0.260092  0.474961  0.000000  1
  Pt  Pt36  1  0.024666  0.240145  0.000000  1
  Pt  Pt37  1  0.976735  0.759777  0.000000  1
