# generated using pymatgen
data_Tb4B4SbIr9
_symmetry_space_group_name_H-M   'P 1'
_cell_length_a   10.90628443
_cell_length_b   10.90628414
_cell_length_c   10.90628478
_cell_angle_alpha   29.54753145
_cell_angle_beta   29.54753335
_cell_angle_gamma   29.54753595
_symmetry_Int_Tables_number   1
_chemical_formula_structural   Tb4B4SbIr9
_chemical_formula_sum   'Tb4 B4 Sb1 Ir9'
_cell_volume   279.26603560
_cell_formula_units_Z   1
loop_
 _symmetry_equiv_pos_site_id
 _symmetry_equiv_pos_as_xyz
  1  'x, y, z'
loop_
 _atom_site_type_symbol
 _atom_site_label
 _atom_site_symmetry_multiplicity
 _atom_site_fract_x
 _atom_site_fract_y
 _atom_site_fract_z
 _atom_site_occupancy
  Tb  Tb0  1  0.148560  0.148560  0.148560  1
  Tb  Tb1  1  0.950785  0.950785  0.950785  1
  Tb  Tb2  1  0.851440  0.851440  0.851440  1
  Tb  Tb3  1  0.049215  0.049215  0.049215  1
  B  B4  1  0.616459  0.616459  0.616459  1
  B  B5  1  0.716963  0.716963  0.716963  1
  B  B6  1  0.383541  0.383541  0.383541  1
  B  B7  1  0.283037  0.283037  0.283037  1
  Sb  Sb8  1  0.500000  0.500000  0.500000  1
  Ir  Ir9  1  0.403202  0.906115  0.403202  1
  Ir  Ir10  1  0.906115  0.403202  0.403202  1
  Ir  Ir11  1  0.500000  0.500000  0.000000  1
  Ir  Ir12  1  0.500000  0.000000  0.500000  1
  Ir  Ir13  1  0.000000  0.500000  0.500000  1
  Ir  Ir14  1  0.596798  0.093885  0.596798  1
  Ir  Ir15  1  0.596798  0.596798  0.093885  1
  Ir  Ir16  1  0.093885  0.596798  0.596798  1
  Ir  Ir17  1  0.403202  0.403202  0.906115  1
