# generated using pymatgen
data_Sc8Co11Si16Rh
_symmetry_space_group_name_H-M   'P 1'
_cell_length_a   5.22136373
_cell_length_b   6.79070532
_cell_length_c   13.72375564
_cell_angle_alpha   90.07662095
_cell_angle_beta   90.06432890
_cell_angle_gamma   89.82007334
_symmetry_Int_Tables_number   1
_chemical_formula_structural   Sc8Co11Si16Rh
_chemical_formula_sum   'Sc8 Co11 Si16 Rh1'
_cell_volume   486.59653003
_cell_formula_units_Z   1
loop_
 _symmetry_equiv_pos_site_id
 _symmetry_equiv_pos_as_xyz
  1  'x, y, z'
loop_
 _atom_site_type_symbol
 _atom_site_label
 _atom_site_symmetry_multiplicity
 _atom_site_fract_x
 _atom_site_fract_y
 _atom_site_fract_z
 _atom_site_occupancy
  Sc  Sc0  1  0.230987  0.400394  0.146928  1
  Sc  Sc1  1  0.728133  0.100110  0.145364  1
  Sc  Sc2  1  0.272073  0.099610  0.641874  1
  Sc  Sc3  1  0.768485  0.401013  0.641720  1
  Sc  Sc4  1  0.229711  0.600406  0.357247  1
  Sc  Sc5  1  0.729504  0.900011  0.357229  1
  Sc  Sc6  1  0.266569  0.901707  0.856261  1
  Sc  Sc7  1  0.774259  0.600937  0.854225  1
  Co  Co8  1  0.506360  0.227427  0.482479  1
  Co  Co9  1  0.772746  0.999799  0.749244  1
  Co  Co10  1  0.491796  0.224629  0.982908  1
  Co  Co11  1  0.724893  0.498854  0.250983  1
  Co  Co12  1  0.494422  0.772369  0.517419  1
  Co  Co13  1  0.005692  0.271951  0.482815  1
  Co  Co14  1  0.005692  0.727552  0.018202  1
  Co  Co15  1  0.225136  0.999252  0.250955  1
  Co  Co16  1  0.277848  0.501944  0.749147  1
  Co  Co17  1  0.506244  0.771521  0.018363  1
  Co  Co18  1  0.994720  0.728061  0.517241  1
  Si  Si19  1  0.225591  0.013380  0.071645  1
  Si  Si20  1  0.718805  0.518917  0.432556  1
  Si  Si21  1  0.782492  0.018837  0.567114  1
  Si  Si22  1  0.480460  0.752272  0.187249  1
  Si  Si23  1  0.023394  0.251708  0.805996  1
  Si  Si24  1  0.520133  0.248102  0.814371  1
  Si  Si25  1  0.217961  0.980813  0.432617  1
  Si  Si26  1  0.292901  0.524944  0.931941  1
  Si  Si27  1  0.976661  0.748459  0.186699  1
  Si  Si28  1  0.710077  0.485476  0.070143  1
  Si  Si29  1  0.281263  0.481541  0.567102  1
  Si  Si30  1  0.477795  0.248504  0.315131  1
  Si  Si31  1  0.020878  0.748421  0.684916  1
  Si  Si32  1  0.771861  0.973662  0.930608  1
  Si  Si33  1  0.521272  0.752271  0.685431  1
  Si  Si34  1  0.980271  0.252153  0.315108  1
  Rh  Rh35  1  0.992915  0.272995  0.980769  1
