# generated using pymatgen
data_Tm5AgIO12
_symmetry_space_group_name_H-M   'P 1'
_cell_length_a   6.40136159
_cell_length_b   6.26778505
_cell_length_c   6.42546800
_cell_angle_alpha   98.84167139
_cell_angle_beta   99.72087242
_cell_angle_gamma   96.83543193
_symmetry_Int_Tables_number   1
_chemical_formula_structural   Tm5AgIO12
_chemical_formula_sum   'Tm5 Ag1 I1 O12'
_cell_volume   248.28664543
_cell_formula_units_Z   1
loop_
 _symmetry_equiv_pos_site_id
 _symmetry_equiv_pos_as_xyz
  1  'x, y, z'
loop_
 _atom_site_type_symbol
 _atom_site_label
 _atom_site_symmetry_multiplicity
 _atom_site_fract_x
 _atom_site_fract_y
 _atom_site_fract_z
 _atom_site_occupancy
  Tm  Tm0  1  0.392122  0.691187  0.854559  1
  Tm  Tm1  1  0.857108  0.381811  0.674955  1
  Tm  Tm2  1  0.676224  0.850387  0.389449  1
  Tm  Tm3  1  0.606931  0.316296  0.136053  1
  Tm  Tm4  1  0.146785  0.610626  0.320012  1
  Ag  Ag5  1  0.318938  0.151129  0.586767  1
  I  I6  1  0.994950  0.994396  0.004194  1
  O  O7  1  0.185222  0.440875  0.598227  1
  O  O8  1  0.626624  0.180358  0.420265  1
  O  O9  1  0.427224  0.594404  0.174963  1
  O  O10  1  0.827797  0.564310  0.400539  1
  O  O11  1  0.406489  0.830578  0.565138  1
  O  O12  1  0.592420  0.436534  0.829794  1
  O  O13  1  0.911177  0.021062  0.713648  1
  O  O14  1  0.966930  0.295228  0.074709  1
  O  O15  1  0.290625  0.059338  0.001633  1
  O  O16  1  0.044421  0.953339  0.297365  1
  O  O17  1  0.031462  0.695420  0.929733  1
  O  O18  1  0.696551  0.932723  0.027992  1
