# generated using pymatgen
data_Er2LuSc3Bi2W
_symmetry_space_group_name_H-M   'P 1'
_cell_length_a   7.93887400
_cell_length_b   7.93219689
_cell_length_c   4.29503900
_cell_angle_alpha   90.00000000
_cell_angle_beta   90.00000000
_cell_angle_gamma   120.02784118
_symmetry_Int_Tables_number   1
_chemical_formula_structural   Er2LuSc3Bi2W
_chemical_formula_sum   'Er2 Lu1 Sc3 Bi2 W1'
_cell_volume   234.16836862
_cell_formula_units_Z   1
loop_
 _symmetry_equiv_pos_site_id
 _symmetry_equiv_pos_as_xyz
  1  'x, y, z'
loop_
 _atom_site_type_symbol
 _atom_site_label
 _atom_site_symmetry_multiplicity
 _atom_site_fract_x
 _atom_site_fract_y
 _atom_site_fract_z
 _atom_site_occupancy
  Er  Er0  1  0.000267  0.611587  0.000000  1
  Er  Er1  1  0.388682  0.388413  0.000000  1
  Lu  Lu2  1  0.614852  0.000000  0.000000  1
  Sc  Sc3  1  0.227940  0.000000  0.500000  1
  Sc  Sc4  1  0.999169  0.229042  0.500000  1
  Sc  Sc5  1  0.770127  0.770958  0.500000  1
  Bi  Bi6  1  0.334479  0.668525  0.500000  1
  Bi  Bi7  1  0.665956  0.331475  0.500000  1
  W  W8  1  0.998528  0.000000  0.000000  1
