# generated using pymatgen
data_U6TiPt16Rh5
_symmetry_space_group_name_H-M   'P 1'
_cell_length_a   5.82146230
_cell_length_b   5.82146174
_cell_length_c   16.53476900
_cell_angle_alpha   90.40619934
_cell_angle_beta   89.59380070
_cell_angle_gamma   119.85973163
_symmetry_Int_Tables_number   1
_chemical_formula_structural   U6TiPt16Rh5
_chemical_formula_sum   'U6 Ti1 Pt16 Rh5'
_cell_volume   485.94871919
_cell_formula_units_Z   1
loop_
 _symmetry_equiv_pos_site_id
 _symmetry_equiv_pos_as_xyz
  1  'x, y, z'
loop_
 _atom_site_type_symbol
 _atom_site_label
 _atom_site_symmetry_multiplicity
 _atom_site_fract_x
 _atom_site_fract_y
 _atom_site_fract_z
 _atom_site_occupancy
  U  U0  1  0.003449  0.996551  0.715359  1
  U  U1  1  0.667305  0.332695  0.869887  1
  U  U2  1  0.332631  0.667369  0.130396  1
  U  U3  1  0.999845  0.000155  0.279183  1
  U  U4  1  0.663096  0.336904  0.433154  1
  U  U5  1  0.333273  0.666727  0.573520  1
  Ti  Ti6  1  0.999738  0.000262  0.999563  1
  Pt  Pt7  1  0.169398  0.336102  0.861514  1
  Pt  Pt8  1  0.164060  0.332828  0.427883  1
  Pt  Pt9  1  0.166164  0.833836  0.428733  1
  Pt  Pt10  1  0.503995  0.003816  0.717612  1
  Pt  Pt11  1  0.667172  0.835940  0.427883  1
  Pt  Pt12  1  0.169700  0.830300  0.862007  1
  Pt  Pt13  1  0.663898  0.830602  0.861514  1
  Pt  Pt14  1  0.829856  0.170144  0.136856  1
  Pt  Pt15  1  0.834341  0.165659  0.572907  1
  Pt  Pt16  1  0.502236  0.497764  0.716444  1
  Pt  Pt17  1  0.339441  0.170782  0.136957  1
  Pt  Pt18  1  0.829218  0.660559  0.136957  1
  Pt  Pt19  1  0.497844  0.502156  0.283756  1
  Pt  Pt20  1  0.498974  0.999763  0.283830  1
  Pt  Pt21  1  0.000237  0.501026  0.283830  1
  Pt  Pt22  1  0.996184  0.496005  0.717612  1
  Rh  Rh23  1  0.833543  0.666467  0.572488  1
  Rh  Rh24  1  0.333533  0.166457  0.572488  1
  Rh  Rh25  1  0.500291  0.999261  0.999286  1
  Rh  Rh26  1  0.499837  0.500163  0.999092  1
  Rh  Rh27  1  0.000739  0.499709  0.999286  1
