# generated using pymatgen
data_Mn3NbInPt11
_symmetry_space_group_name_H-M   'P 1'
_cell_length_a   3.99965600
_cell_length_b   5.62890018
_cell_length_c   11.22525047
_cell_angle_alpha   88.62243581
_cell_angle_beta   90.00000000
_cell_angle_gamma   90.00000000
_symmetry_Int_Tables_number   1
_chemical_formula_structural   Mn3NbInPt11
_chemical_formula_sum   'Mn3 Nb1 In1 Pt11'
_cell_volume   252.64848008
_cell_formula_units_Z   1
loop_
 _symmetry_equiv_pos_site_id
 _symmetry_equiv_pos_as_xyz
  1  'x, y, z'
loop_
 _atom_site_type_symbol
 _atom_site_label
 _atom_site_symmetry_multiplicity
 _atom_site_fract_x
 _atom_site_fract_y
 _atom_site_fract_z
 _atom_site_occupancy
  Mn  Mn0  1  0.500000  0.724959  0.864226  1
  Mn  Mn1  1  0.500000  0.275779  0.130899  1
  Mn  Mn2  1  0.500000  0.245156  0.629348  1
  Nb  Nb3  1  0.500000  0.754694  0.376392  1
  In  In4  1  0.000000  0.998374  0.998944  1
  Pt  Pt5  1  0.000000  0.011636  0.250102  1
  Pt  Pt6  1  0.000000  0.988713  0.750235  1
  Pt  Pt7  1  0.000000  0.500773  0.000068  1
  Pt  Pt8  1  0.000000  0.501068  0.498957  1
  Pt  Pt9  1  0.000000  0.511841  0.251639  1
  Pt  Pt10  1  0.000000  0.490067  0.749682  1
  Pt  Pt11  1  0.500000  0.252889  0.376534  1
  Pt  Pt12  1  0.500000  0.240904  0.877760  1
  Pt  Pt13  1  0.500000  0.759524  0.123931  1
  Pt  Pt14  1  0.500000  0.746944  0.622941  1
  Pt  Pt15  1  0.000000  0.996678  0.498340  1
