# generated using pymatgen
data_Rb2NdAl(SiO3)4
_symmetry_space_group_name_H-M   'P 1'
_cell_length_a   7.45135707
_cell_length_b   14.23219129
_cell_length_c   14.24116400
_cell_angle_alpha   64.33002418
_cell_angle_beta   74.94480330
_cell_angle_gamma   74.89170825
_symmetry_Int_Tables_number   1
_chemical_formula_structural   Rb2NdAl(SiO3)4
_chemical_formula_sum   'Rb8 Nd4 Al4 Si16 O48'
_cell_volume   1295.30877855
_cell_formula_units_Z   4
loop_
 _symmetry_equiv_pos_site_id
 _symmetry_equiv_pos_as_xyz
  1  'x, y, z'
loop_
 _atom_site_type_symbol
 _atom_site_label
 _atom_site_symmetry_multiplicity
 _atom_site_fract_x
 _atom_site_fract_y
 _atom_site_fract_z
 _atom_site_occupancy
  Rb  Rb0  1  0.192464  0.532411  0.581449  1
  Rb  Rb1  1  0.194249  0.032681  0.080812  1
  Rb  Rb2  1  0.273381  0.546127  0.885467  1
  Rb  Rb3  1  0.805751  0.967319  0.919188  1
  Rb  Rb4  1  0.807536  0.467589  0.418551  1
  Rb  Rb5  1  0.799201  0.044433  0.384619  1
  Rb  Rb6  1  0.726619  0.453873  0.114533  1
  Rb  Rb7  1  0.200799  0.955567  0.615381  1
  Nd  Nd8  1  0.447213  0.250392  0.787393  1
  Nd  Nd9  1  0.014790  0.750618  0.287795  1
  Nd  Nd10  1  0.552787  0.749608  0.212607  1
  Nd  Nd11  1  0.985210  0.249382  0.712205  1
  Al  Al12  1  0.122123  0.227199  0.413761  1
  Al  Al13  1  0.264082  0.272372  0.085804  1
  Al  Al14  1  0.735918  0.727628  0.914196  1
  Al  Al15  1  0.877877  0.772801  0.586239  1
  Si  Si16  1  0.326423  0.079956  0.296939  1
  Si  Si17  1  0.797726  0.580142  0.797197  1
  Si  Si18  1  0.361071  0.505160  0.324401  1
  Si  Si19  1  0.308446  0.004730  0.824759  1
  Si  Si20  1  0.636521  0.708748  0.474677  1
  Si  Si21  1  0.680657  0.208846  0.974014  1
  Si  Si22  1  0.319343  0.791154  0.025986  1
  Si  Si23  1  0.638929  0.494840  0.675599  1
  Si  Si24  1  0.673577  0.920044  0.703061  1
  Si  Si25  1  0.202274  0.419858  0.202803  1
  Si  Si26  1  0.741200  0.159048  0.577526  1
  Si  Si27  1  0.363479  0.291252  0.525323  1
  Si  Si28  1  0.978577  0.341161  0.921663  1
  Si  Si29  1  0.258800  0.840952  0.422474  1
  Si  Si30  1  0.021423  0.658839  0.078337  1
  Si  Si31  1  0.691554  0.995270  0.175241  1
  O  O32  1  0.466368  0.428883  0.728340  1
  O  O33  1  0.070425  0.326426  0.019950  1
  O  O34  1  0.267655  0.778050  0.349249  1
  O  O35  1  0.763337  0.029876  0.646968  1
  O  O36  1  0.361961  0.446049  0.244652  1
  O  O37  1  0.701335  0.702678  0.358882  1
  O  O38  1  0.312669  0.370771  0.114838  1
  O  O39  1  0.058041  0.529430  0.146815  1
  O  O40  1  0.929575  0.673574  0.980050  1
  O  O41  1  0.580422  0.594717  0.563489  1
  O  O42  1  0.547573  0.197398  0.524146  1
  O  O43  1  0.927813  0.658666  0.699210  1
  O  O44  1  0.550093  0.763734  0.005632  1
  O  O45  1  0.423141  0.070255  0.850859  1
  O  O46  1  0.737418  0.202150  0.858499  1
  O  O47  1  0.687331  0.629229  0.885162  1
  O  O48  1  0.762381  0.095275  0.063304  1
  O  O49  1  0.105298  0.278596  0.848204  1
  O  O50  1  0.638039  0.553951  0.755348  1
  O  O51  1  0.298946  0.129333  0.384797  1
  O  O52  1  0.230519  0.696587  0.025755  1
  O  O53  1  0.215614  0.158199  0.198749  1
  O  O54  1  0.236663  0.970124  0.353032  1
  O  O55  1  0.941959  0.470570  0.853185  1
  O  O56  1  0.917564  0.172379  0.480051  1
  O  O57  1  0.784386  0.841801  0.801251  1
  O  O58  1  0.419578  0.405283  0.436511  1
  O  O59  1  0.122910  0.070689  0.771679  1
  O  O60  1  0.180332  0.263522  0.505241  1
  O  O61  1  0.701054  0.870667  0.615203  1
  O  O62  1  0.072187  0.341334  0.300790  1
  O  O63  1  0.769481  0.303413  0.974245  1
  O  O64  1  0.894702  0.721404  0.151796  1
  O  O65  1  0.298665  0.297322  0.641118  1
  O  O66  1  0.237619  0.904725  0.936696  1
  O  O67  1  0.819668  0.736478  0.494759  1
  O  O68  1  0.533632  0.571117  0.271660  1
  O  O69  1  0.449907  0.236266  0.994368  1
  O  O70  1  0.576859  0.929745  0.149141  1
  O  O71  1  0.082436  0.827621  0.519949  1
  O  O72  1  0.845042  0.429419  0.649748  1
  O  O73  1  0.452427  0.802602  0.475854  1
  O  O74  1  0.553804  0.054275  0.254941  1
  O  O75  1  0.877090  0.929311  0.228321  1
  O  O76  1  0.154958  0.570581  0.350252  1
  O  O77  1  0.446196  0.945725  0.745059  1
  O  O78  1  0.732345  0.221950  0.650751  1
  O  O79  1  0.262582  0.797850  0.141501  1
