# generated using pymatgen
data_Er8Ti7Nb4Si16Ir
_symmetry_space_group_name_H-M   'P 1'
_cell_length_a   7.00684499
_cell_length_b   7.01201382
_cell_length_c   12.84771940
_cell_angle_alpha   90.17752826
_cell_angle_beta   89.79395249
_cell_angle_gamma   89.67097980
_symmetry_Int_Tables_number   1
_chemical_formula_structural   Er8Ti7Nb4Si16Ir
_chemical_formula_sum   'Er8 Ti7 Nb4 Si16 Ir1'
_cell_volume   631.21779589
_cell_formula_units_Z   1
loop_
 _symmetry_equiv_pos_site_id
 _symmetry_equiv_pos_as_xyz
  1  'x, y, z'
loop_
 _atom_site_type_symbol
 _atom_site_label
 _atom_site_symmetry_multiplicity
 _atom_site_fract_x
 _atom_site_fract_y
 _atom_site_fract_z
 _atom_site_occupancy
  Er  Er0  1  0.341721  0.001673  0.467216  1
  Er  Er1  1  0.497191  0.841961  0.718413  1
  Er  Er2  1  0.501237  0.157779  0.215858  1
  Er  Er3  1  0.842186  0.497783  0.281656  1
  Er  Er4  1  0.157660  0.501151  0.784708  1
  Er  Er5  1  0.655598  0.998507  0.968567  1
  Er  Er6  1  0.001683  0.341926  0.532301  1
  Er  Er7  1  0.997549  0.657989  0.031524  1
  Ti  Ti8  1  0.493232  0.657628  0.125042  1
  Ti  Ti9  1  0.507786  0.349694  0.628524  1
  Ti  Ti10  1  0.658052  0.491147  0.874876  1
  Ti  Ti11  1  0.349843  0.508190  0.371971  1
  Ti  Ti12  1  0.848820  0.991980  0.374129  1
  Ti  Ti13  1  0.003165  0.146657  0.125144  1
  Ti  Ti14  1  0.991740  0.848770  0.626081  1
  Nb  Nb15  1  0.174057  0.827373  0.247408  1
  Nb  Nb16  1  0.826380  0.174608  0.752330  1
  Nb  Nb17  1  0.674420  0.673414  0.499745  1
  Nb  Nb18  1  0.147387  0.001021  0.874799  1
  Si  Si19  1  0.205500  0.134484  0.682669  1
  Si  Si20  1  0.373251  0.699732  0.933247  1
  Si  Si21  1  0.631422  0.296170  0.434002  1
  Si  Si22  1  0.700041  0.370956  0.067006  1
  Si  Si23  1  0.296403  0.631829  0.565711  1
  Si  Si24  1  0.795863  0.866600  0.183299  1
  Si  Si25  1  0.133128  0.204037  0.315773  1
  Si  Si26  1  0.863129  0.793925  0.817221  1
  Si  Si27  1  0.290239  0.951673  0.062051  1
  Si  Si28  1  0.548035  0.794135  0.314314  1
  Si  Si29  1  0.447857  0.210670  0.817926  1
  Si  Si30  1  0.794041  0.548057  0.685081  1
  Si  Si31  1  0.209688  0.448088  0.181585  1
  Si  Si32  1  0.707867  0.048815  0.563876  1
  Si  Si33  1  0.952390  0.290383  0.939021  1
  Si  Si34  1  0.048528  0.707456  0.435666  1
  Ir  Ir35  1  0.332915  0.333742  0.001260  1
