# generated using pymatgen
data_LaYb10Er9Sn16
_symmetry_space_group_name_H-M   'P 1'
_cell_length_a   7.84396933
_cell_length_b   8.43043842
_cell_length_c   15.91641300
_cell_angle_alpha   90.02240060
_cell_angle_beta   90.12718496
_cell_angle_gamma   89.71704029
_symmetry_Int_Tables_number   1
_chemical_formula_structural   LaYb10Er9Sn16
_chemical_formula_sum   'La1 Yb10 Er9 Sn16'
_cell_volume   1052.50665147
_cell_formula_units_Z   1
loop_
 _symmetry_equiv_pos_site_id
 _symmetry_equiv_pos_as_xyz
  1  'x, y, z'
loop_
 _atom_site_type_symbol
 _atom_site_label
 _atom_site_symmetry_multiplicity
 _atom_site_fract_x
 _atom_site_fract_y
 _atom_site_fract_z
 _atom_site_occupancy
  La  La0  1  0.505650  0.685182  0.594697  1
  Yb  Yb1  1  0.003673  0.815660  0.908422  1
  Yb  Yb2  1  0.494351  0.311816  0.092254  1
  Yb  Yb3  1  0.996308  0.187227  0.407884  1
  Yb  Yb4  1  0.494088  0.312588  0.407305  1
  Yb  Yb5  1  0.995493  0.187220  0.091888  1
  Yb  Yb6  1  0.504039  0.687573  0.905472  1
  Yb  Yb7  1  0.004105  0.816181  0.591675  1
  Yb  Yb8  1  0.335525  0.990781  0.750774  1
  Yb  Yb9  1  0.163528  0.488196  0.249890  1
  Yb  Yb10  1  0.663225  0.009727  0.249819  1
  Er  Er11  1  0.674359  0.164330  0.622877  1
  Er  Er12  1  0.174898  0.334308  0.876696  1
  Er  Er13  1  0.325575  0.833127  0.122124  1
  Er  Er14  1  0.826571  0.664226  0.377793  1
  Er  Er15  1  0.325255  0.832942  0.377046  1
  Er  Er16  1  0.826110  0.663857  0.121609  1
  Er  Er17  1  0.675612  0.163218  0.877477  1
  Er  Er18  1  0.174453  0.333379  0.623603  1
  Er  Er19  1  0.838104  0.509514  0.751172  1
  Sn  Sn20  1  0.672017  0.963026  0.459521  1
  Sn  Sn21  1  0.171683  0.536830  0.040059  1
  Sn  Sn22  1  0.329124  0.036810  0.959183  1
  Sn  Sn23  1  0.829720  0.464140  0.543417  1
  Sn  Sn24  1  0.328741  0.037191  0.540675  1
  Sn  Sn25  1  0.828510  0.465761  0.956149  1
  Sn  Sn26  1  0.671782  0.962864  0.040720  1
  Sn  Sn27  1  0.172562  0.537467  0.460027  1
  Sn  Sn28  1  0.475722  0.380465  0.749864  1
  Sn  Sn29  1  0.971708  0.135034  0.749760  1
  Sn  Sn30  1  0.527725  0.624961  0.249897  1
  Sn  Sn31  1  0.026897  0.872615  0.249852  1
  Sn  Sn32  1  0.720772  0.863374  0.750358  1
  Sn  Sn33  1  0.209480  0.631011  0.749979  1
  Sn  Sn34  1  0.280953  0.126584  0.250030  1
  Sn  Sn35  1  0.781685  0.370811  0.250031  1
