# generated using pymatgen
data_TbHo4In4IrPd
_symmetry_space_group_name_H-M   'P 1'
_cell_length_a   3.62188700
_cell_length_b   8.12036614
_cell_length_c   18.26080302
_cell_angle_alpha   90.13690331
_cell_angle_beta   90.00000000
_cell_angle_gamma   90.00000000
_symmetry_Int_Tables_number   1
_chemical_formula_structural   TbHo4In4IrPd
_chemical_formula_sum   'Tb2 Ho8 In8 Ir2 Pd2'
_cell_volume   537.06783119
_cell_formula_units_Z   2
loop_
 _symmetry_equiv_pos_site_id
 _symmetry_equiv_pos_as_xyz
  1  'x, y, z'
loop_
 _atom_site_type_symbol
 _atom_site_label
 _atom_site_symmetry_multiplicity
 _atom_site_fract_x
 _atom_site_fract_y
 _atom_site_fract_z
 _atom_site_occupancy
  Tb  Tb0  1  0.000000  0.500000  0.500000  1
  Tb  Tb1  1  0.000000  0.000000  0.000000  1
  Ho  Ho2  1  0.000000  0.728698  0.277509  1
  Ho  Ho3  1  0.000000  0.271302  0.722491  1
  Ho  Ho4  1  0.000000  0.747029  0.779993  1
  Ho  Ho5  1  0.000000  0.252971  0.220007  1
  Ho  Ho6  1  0.000000  0.612994  0.086979  1
  Ho  Ho7  1  0.000000  0.387006  0.913021  1
  Ho  Ho8  1  0.000000  0.884946  0.584442  1
  Ho  Ho9  1  0.000000  0.115054  0.415558  1
  In  In10  1  0.500000  0.709621  0.931464  1
  In  In11  1  0.500000  0.290379  0.068536  1
  In  In12  1  0.500000  0.790822  0.431546  1
  In  In13  1  0.500000  0.209178  0.568454  1
  In  In14  1  0.500000  0.579244  0.648799  1
  In  In15  1  0.500000  0.420756  0.351201  1
  In  In16  1  0.500000  0.920847  0.149949  1
  In  In17  1  0.500000  0.079153  0.850051  1
  Ir  Ir18  1  0.500000  0.519711  0.195609  1
  Ir  Ir19  1  0.500000  0.480289  0.804391  1
  Pd  Pd20  1  0.500000  0.979723  0.696188  1
  Pd  Pd21  1  0.500000  0.020277  0.303812  1
