# generated using pymatgen
data_Tm5Ta3(P3Ir4)4
_symmetry_space_group_name_H-M   'P 1'
_cell_length_a   12.74141600
_cell_length_b   12.74141556
_cell_length_c   3.98033700
_cell_angle_alpha   90.00000000
_cell_angle_beta   90.00000000
_cell_angle_gamma   119.99999596
_symmetry_Int_Tables_number   1
_chemical_formula_structural   Tm5Ta3(P3Ir4)4
_chemical_formula_sum   'Tm5 Ta3 P12 Ir16'
_cell_volume   559.61051821
_cell_formula_units_Z   1
loop_
 _symmetry_equiv_pos_site_id
 _symmetry_equiv_pos_as_xyz
  1  'x, y, z'
loop_
 _atom_site_type_symbol
 _atom_site_label
 _atom_site_symmetry_multiplicity
 _atom_site_fract_x
 _atom_site_fract_y
 _atom_site_fract_z
 _atom_site_occupancy
  Tm  Tm0  1  0.333333  0.666667  0.500000  1
  Tm  Tm1  1  0.666667  0.333333  0.500000  1
  Tm  Tm2  1  0.000000  0.813778  0.000000  1
  Tm  Tm3  1  0.186222  0.186222  0.000000  1
  Tm  Tm4  1  0.813778  0.000000  0.000000  1
  Ta  Ta5  1  0.000000  0.453190  0.500000  1
  Ta  Ta6  1  0.546810  0.546810  0.500000  1
  Ta  Ta7  1  0.453190  0.000000  0.500000  1
  P  P8  1  0.000000  0.643822  0.500000  1
  P  P9  1  0.356178  0.356178  0.500000  1
  P  P10  1  0.643822  0.000000  0.500000  1
  P  P11  1  0.516808  0.684803  0.000000  1
  P  P12  1  0.315197  0.832004  0.000000  1
  P  P13  1  0.167996  0.483192  0.000000  1
  P  P14  1  0.483192  0.167996  0.000000  1
  P  P15  1  0.684803  0.516808  0.000000  1
  P  P16  1  0.832004  0.315197  0.000000  1
  P  P17  1  0.000000  0.175829  0.500000  1
  P  P18  1  0.824171  0.824171  0.500000  1
  P  P19  1  0.175829  0.000000  0.500000  1
  Ir  Ir20  1  0.506277  0.863116  0.000000  1
  Ir  Ir21  1  0.136884  0.643164  0.000000  1
  Ir  Ir22  1  0.356836  0.493723  0.000000  1
  Ir  Ir23  1  0.493723  0.356836  0.000000  1
  Ir  Ir24  1  0.863116  0.506277  0.000000  1
  Ir  Ir25  1  0.643164  0.136884  0.000000  1
  Ir  Ir26  1  0.000000  0.283284  0.000000  1
  Ir  Ir27  1  0.716716  0.716716  0.000000  1
  Ir  Ir28  1  0.283284  0.000000  0.000000  1
  Ir  Ir29  1  0.627372  0.805203  0.500000  1
  Ir  Ir30  1  0.194797  0.822169  0.500000  1
  Ir  Ir31  1  0.177831  0.372628  0.500000  1
  Ir  Ir32  1  0.372628  0.177831  0.500000  1
  Ir  Ir33  1  0.805203  0.627372  0.500000  1
  Ir  Ir34  1  0.822169  0.194797  0.500000  1
  Ir  Ir35  1  0.000000  0.000000  0.500000  1
