# generated using pymatgen
data_Dy4Fe3Co17As12
_symmetry_space_group_name_H-M   'P 1'
_cell_length_a   3.79600400
_cell_length_b   10.65964342
_cell_length_c   12.19948900
_cell_angle_alpha   90.05217531
_cell_angle_beta   90.00000000
_cell_angle_gamma   90.00000000
_symmetry_Int_Tables_number   1
_chemical_formula_structural   Dy4Fe3Co17As12
_chemical_formula_sum   'Dy4 Fe3 Co17 As12'
_cell_volume   493.64051673
_cell_formula_units_Z   1
loop_
 _symmetry_equiv_pos_site_id
 _symmetry_equiv_pos_as_xyz
  1  'x, y, z'
loop_
 _atom_site_type_symbol
 _atom_site_label
 _atom_site_symmetry_multiplicity
 _atom_site_fract_x
 _atom_site_fract_y
 _atom_site_fract_z
 _atom_site_occupancy
  Dy  Dy0  1  0.250000  0.580212  0.702225  1
  Dy  Dy1  1  0.250000  0.919943  0.201272  1
  Dy  Dy2  1  0.750000  0.420046  0.298120  1
  Dy  Dy3  1  0.750000  0.079327  0.798356  1
  Fe  Fe4  1  0.250000  0.706377  0.988995  1
  Fe  Fe5  1  0.250000  0.793168  0.488382  1
  Fe  Fe6  1  0.750000  0.293420  0.011058  1
  Co  Co7  1  0.750000  0.207731  0.510261  1
  Co  Co8  1  0.250000  0.406063  0.487962  1
  Co  Co9  1  0.250000  0.093736  0.987440  1
  Co  Co10  1  0.750000  0.593428  0.512834  1
  Co  Co11  1  0.750000  0.906499  0.013309  1
  Co  Co12  1  0.250000  0.216349  0.177355  1
  Co  Co13  1  0.250000  0.283780  0.676040  1
  Co  Co14  1  0.750000  0.783603  0.823158  1
  Co  Co15  1  0.750000  0.716610  0.323309  1
  Co  Co16  1  0.250000  0.883052  0.696767  1
  Co  Co17  1  0.250000  0.616764  0.197063  1
  Co  Co18  1  0.750000  0.116924  0.303366  1
  Co  Co19  1  0.750000  0.382414  0.802540  1
  Co  Co20  1  0.250000  0.468196  0.932566  1
  Co  Co21  1  0.250000  0.031780  0.433108  1
  Co  Co22  1  0.750000  0.531272  0.067055  1
  Co  Co23  1  0.750000  0.969331  0.567135  1
  As  As24  1  0.250000  0.416282  0.115042  1
  As  As25  1  0.250000  0.083419  0.615213  1
  As  As26  1  0.750000  0.583353  0.884763  1
  As  As27  1  0.750000  0.916655  0.384745  1
  As  As28  1  0.250000  0.267853  0.868144  1
  As  As29  1  0.250000  0.231932  0.368579  1
  As  As30  1  0.750000  0.731517  0.131662  1
  As  As31  1  0.750000  0.768693  0.631746  1
  As  As32  1  0.250000  0.600869  0.391526  1
  As  As33  1  0.250000  0.898488  0.891994  1
  As  As34  1  0.750000  0.399152  0.608379  1
  As  As35  1  0.750000  0.101764  0.108533  1
