# generated using pymatgen
data_Yb2CrH9
_symmetry_space_group_name_H-M   'P 1'
_cell_length_a   8.24782900
_cell_length_b   8.24782887
_cell_length_c   4.71296200
_cell_angle_alpha   90.00000000
_cell_angle_beta   90.00000000
_cell_angle_gamma   120.00000454
_symmetry_Int_Tables_number   1
_chemical_formula_structural   Yb2CrH9
_chemical_formula_sum   'Yb6 Cr3 H27'
_cell_volume   277.65393932
_cell_formula_units_Z   3
loop_
 _symmetry_equiv_pos_site_id
 _symmetry_equiv_pos_as_xyz
  1  'x, y, z'
loop_
 _atom_site_type_symbol
 _atom_site_label
 _atom_site_symmetry_multiplicity
 _atom_site_fract_x
 _atom_site_fract_y
 _atom_site_fract_z
 _atom_site_occupancy
  Yb  Yb0  1  0.000000  0.266865  0.500000  1
  Yb  Yb1  1  0.733135  0.733135  0.500000  1
  Yb  Yb2  1  0.266865  0.000000  0.500000  1
  Yb  Yb3  1  0.000000  0.610867  0.000000  1
  Yb  Yb4  1  0.389133  0.389133  0.000000  1
  Yb  Yb5  1  0.610867  0.000000  0.000000  1
  Cr  Cr6  1  0.666667  0.333333  0.500000  1
  Cr  Cr7  1  0.333333  0.666667  0.500000  1
  Cr  Cr8  1  0.000000  0.000000  0.000000  1
  H  H9  1  0.801376  0.327308  0.754451  1
  H  H10  1  0.672692  0.474065  0.754451  1
  H  H11  1  0.525935  0.198624  0.754451  1
  H  H12  1  0.198624  0.525935  0.245549  1
  H  H13  1  0.525935  0.198624  0.245549  1
  H  H14  1  0.801376  0.327308  0.245549  1
  H  H15  1  0.672692  0.474065  0.245549  1
  H  H16  1  0.327308  0.801376  0.754451  1
  H  H17  1  0.474065  0.672692  0.754451  1
  H  H18  1  0.211803  0.000000  0.000000  1
  H  H19  1  0.788197  0.788197  0.000000  1
  H  H20  1  0.000000  0.211803  0.000000  1
  H  H21  1  0.850814  0.000000  0.251693  1
  H  H22  1  0.149186  0.149186  0.748307  1
  H  H23  1  0.000000  0.850814  0.748307  1
  H  H24  1  0.000000  0.850814  0.251693  1
  H  H25  1  0.149186  0.149186  0.251693  1
  H  H26  1  0.850814  0.000000  0.748307  1
  H  H27  1  0.134987  0.663808  0.500000  1
  H  H28  1  0.528821  0.865013  0.500000  1
  H  H29  1  0.336192  0.471179  0.500000  1
  H  H30  1  0.471179  0.336192  0.500000  1
  H  H31  1  0.865013  0.528821  0.500000  1
  H  H32  1  0.663808  0.134987  0.500000  1
  H  H33  1  0.198624  0.525935  0.754451  1
  H  H34  1  0.327308  0.801376  0.245549  1
  H  H35  1  0.474065  0.672692  0.245549  1
