# generated using pymatgen
data_Ca3Zn8CuNi6
_symmetry_space_group_name_H-M   'P 1'
_cell_length_a   9.05374103
_cell_length_b   9.05576342
_cell_length_c   4.01596500
_cell_angle_alpha   90.00000000
_cell_angle_beta   90.00000000
_cell_angle_gamma   120.00572908
_symmetry_Int_Tables_number   1
_chemical_formula_structural   Ca3Zn8CuNi6
_chemical_formula_sum   'Ca3 Zn8 Cu1 Ni6'
_cell_volume   285.13374103
_cell_formula_units_Z   1
loop_
 _symmetry_equiv_pos_site_id
 _symmetry_equiv_pos_as_xyz
  1  'x, y, z'
loop_
 _atom_site_type_symbol
 _atom_site_label
 _atom_site_symmetry_multiplicity
 _atom_site_fract_x
 _atom_site_fract_y
 _atom_site_fract_z
 _atom_site_occupancy
  Ca  Ca0  1  0.662864  0.329950  0.000000  1
  Ca  Ca1  1  0.333031  0.669988  0.000000  1
  Ca  Ca2  1  0.003394  0.000132  0.500001  1
  Zn  Zn3  1  0.706441  0.000102  0.000000  1
  Zn  Zn4  1  0.000065  0.292933  0.000000  1
  Zn  Zn5  1  0.292220  0.288506  0.000000  1
  Zn  Zn6  1  0.707088  0.706975  0.000000  1
  Zn  Zn7  1  0.003590  0.711441  0.000000  1
  Zn  Zn8  1  0.496354  0.999851  0.500001  1
  Zn  Zn9  1  0.499434  0.499701  0.500001  1
  Zn  Zn10  1  0.999718  0.500284  0.500001  1
  Cu  Cu11  1  0.295978  0.999918  0.000000  1
  Ni  Ni12  1  0.817796  0.182348  0.500001  1
  Ni  Ni13  1  0.363886  0.181616  0.500001  1
  Ni  Ni14  1  0.182744  0.365082  0.500001  1
  Ni  Ni15  1  0.817640  0.634964  0.500001  1
  Ni  Ni16  1  0.636115  0.818130  0.500001  1
  Ni  Ni17  1  0.181746  0.818183  0.500001  1
