# generated using pymatgen
data_Tm4ReSiOs6
_symmetry_space_group_name_H-M   'P 1'
_cell_length_a   5.44018082
_cell_length_b   5.19980256
_cell_length_c   8.81193600
_cell_angle_alpha   90.00000000
_cell_angle_beta   90.00000000
_cell_angle_gamma   121.54544164
_symmetry_Int_Tables_number   1
_chemical_formula_structural   Tm4ReSiOs6
_chemical_formula_sum   'Tm4 Re1 Si1 Os6'
_cell_volume   212.43498835
_cell_formula_units_Z   1
loop_
 _symmetry_equiv_pos_site_id
 _symmetry_equiv_pos_as_xyz
  1  'x, y, z'
loop_
 _atom_site_type_symbol
 _atom_site_label
 _atom_site_symmetry_multiplicity
 _atom_site_fract_x
 _atom_site_fract_y
 _atom_site_fract_z
 _atom_site_occupancy
  Tm  Tm0  1  0.669914  0.340147  0.563817  1
  Tm  Tm1  1  0.333641  0.667276  0.435632  1
  Tm  Tm2  1  0.333641  0.667276  0.064368  1
  Tm  Tm3  1  0.669914  0.340147  0.936183  1
  Re  Re4  1  0.158016  0.316686  0.750000  1
  Si  Si5  1  0.831691  0.662445  0.250000  1
  Os  Os6  1  0.005686  0.010709  0.496353  1
  Os  Os7  1  0.005686  0.010709  0.003647  1
  Os  Os8  1  0.170918  0.817167  0.750000  1
  Os  Os9  1  0.644807  0.817225  0.750000  1
  Os  Os10  1  0.826701  0.174954  0.250000  1
  Os  Os11  1  0.349384  0.175259  0.250000  1
