# generated using pymatgen
data_Ho3ErLu6(In2Pt)4
_symmetry_space_group_name_H-M   'P 1'
_cell_length_a   3.57335200
_cell_length_b   8.09789870
_cell_length_c   18.06497949
_cell_angle_alpha   89.81698093
_cell_angle_beta   90.00000000
_cell_angle_gamma   90.00000000
_symmetry_Int_Tables_number   1
_chemical_formula_structural   Ho3ErLu6(In2Pt)4
_chemical_formula_sum   'Ho3 Er1 Lu6 In8 Pt4'
_cell_volume   522.73718658
_cell_formula_units_Z   1
loop_
 _symmetry_equiv_pos_site_id
 _symmetry_equiv_pos_as_xyz
  1  'x, y, z'
loop_
 _atom_site_type_symbol
 _atom_site_label
 _atom_site_symmetry_multiplicity
 _atom_site_fract_x
 _atom_site_fract_y
 _atom_site_fract_z
 _atom_site_occupancy
  Ho  Ho0  1  0.000000  0.258202  0.720057  1
  Ho  Ho1  1  0.000000  0.000104  0.000097  1
  Ho  Ho2  1  0.000000  0.499858  0.499988  1
  Er  Er3  1  0.000000  0.742003  0.279760  1
  Lu  Lu4  1  0.000000  0.116580  0.414434  1
  Lu  Lu5  1  0.000000  0.883083  0.585258  1
  Lu  Lu6  1  0.000000  0.384080  0.914656  1
  Lu  Lu7  1  0.000000  0.616040  0.085578  1
  Lu  Lu8  1  0.000000  0.242505  0.220841  1
  Lu  Lu9  1  0.000000  0.757661  0.779248  1
  In  In10  1  0.500000  0.420851  0.351247  1
  In  In11  1  0.500000  0.579571  0.648757  1
  In  In12  1  0.500000  0.077729  0.851353  1
  In  In13  1  0.500000  0.922123  0.148776  1
  In  In14  1  0.500000  0.293867  0.066567  1
  In  In15  1  0.500000  0.706467  0.933651  1
  In  In16  1  0.500000  0.205256  0.565648  1
  In  In17  1  0.500000  0.794208  0.433895  1
  Pt  Pt18  1  0.500000  0.027284  0.304197  1
  Pt  Pt19  1  0.500000  0.971600  0.695648  1
  Pt  Pt20  1  0.500000  0.478391  0.805141  1
  Pt  Pt21  1  0.500000  0.522539  0.195202  1
