# generated using pymatgen
data_TbY3AgRh
_symmetry_space_group_name_H-M   'P 1'
_cell_length_a   9.57425731
_cell_length_b   9.56184799
_cell_length_c   9.56804233
_cell_angle_alpha   60.06299368
_cell_angle_beta   59.93539384
_cell_angle_gamma   60.00149934
_symmetry_Int_Tables_number   1
_chemical_formula_structural   TbY3AgRh
_chemical_formula_sum   'Tb4 Y12 Ag4 Rh4'
_cell_volume   619.37485800
_cell_formula_units_Z   4
loop_
 _symmetry_equiv_pos_site_id
 _symmetry_equiv_pos_as_xyz
  1  'x, y, z'
loop_
 _atom_site_type_symbol
 _atom_site_label
 _atom_site_symmetry_multiplicity
 _atom_site_fract_x
 _atom_site_fract_y
 _atom_site_fract_z
 _atom_site_occupancy
  Tb  Tb0  1  0.603516  0.603429  0.603486  1
  Tb  Tb1  1  0.603439  0.603487  0.189592  1
  Tb  Tb2  1  0.603504  0.189570  0.603491  1
  Tb  Tb3  1  0.189563  0.603482  0.603437  1
  Y  Y4  1  0.062188  0.437816  0.437814  1
  Y  Y5  1  0.437819  0.062187  0.062176  1
  Y  Y6  1  0.437251  0.062754  0.437242  1
  Y  Y7  1  0.062756  0.437249  0.062761  1
  Y  Y8  1  0.437516  0.437524  0.062478  1
  Y  Y9  1  0.062479  0.062493  0.437515  1
  Y  Y10  1  0.186258  0.813750  0.813741  1
  Y  Y11  1  0.813737  0.186272  0.186253  1
  Y  Y12  1  0.814160  0.185853  0.814144  1
  Y  Y13  1  0.185844  0.814152  0.185865  1
  Y  Y14  1  0.813929  0.813928  0.186075  1
  Y  Y15  1  0.186079  0.186071  0.813927  1
  Ag  Ag16  1  0.831975  0.832010  0.832001  1
  Ag  Ag17  1  0.832010  0.831972  0.504006  1
  Ag  Ag18  1  0.831977  0.504033  0.831969  1
  Ag  Ag19  1  0.504008  0.831994  0.832025  1
  Rh  Rh20  1  0.394354  0.393954  0.394199  1
  Rh  Rh21  1  0.393974  0.394344  0.817463  1
  Rh  Rh22  1  0.394206  0.817468  0.394346  1
  Rh  Rh23  1  0.817461  0.394208  0.393997  1
