# generated using pymatgen
data_Tm3Mn3Fe5CoP6
_symmetry_space_group_name_H-M   'P 1'
_cell_length_a   3.68449200
_cell_length_b   10.67452700
_cell_length_c   12.11689300
_cell_angle_alpha   90.00000000
_cell_angle_beta   90.00000000
_cell_angle_gamma   90.00000000
_symmetry_Int_Tables_number   1
_chemical_formula_structural   Tm3Mn3Fe5CoP6
_chemical_formula_sum   'Tm6 Mn6 Fe10 Co2 P12'
_cell_volume   476.55993818
_cell_formula_units_Z   2
loop_
 _symmetry_equiv_pos_site_id
 _symmetry_equiv_pos_as_xyz
  1  'x, y, z'
loop_
 _atom_site_type_symbol
 _atom_site_label
 _atom_site_symmetry_multiplicity
 _atom_site_fract_x
 _atom_site_fract_y
 _atom_site_fract_z
 _atom_site_occupancy
  Tm  Tm0  1  0.000000  0.500000  0.532747  1
  Tm  Tm1  1  0.500000  0.000000  0.467253  1
  Tm  Tm2  1  0.500000  0.824245  0.202455  1
  Tm  Tm3  1  0.500000  0.175755  0.202455  1
  Tm  Tm4  1  0.000000  0.675755  0.797545  1
  Tm  Tm5  1  0.000000  0.324245  0.797545  1
  Mn  Mn6  1  0.500000  0.500000  0.157939  1
  Mn  Mn7  1  0.000000  0.000000  0.842061  1
  Mn  Mn8  1  0.500000  0.884475  0.706555  1
  Mn  Mn9  1  0.500000  0.115525  0.706555  1
  Mn  Mn10  1  0.000000  0.615525  0.293445  1
  Mn  Mn11  1  0.000000  0.384475  0.293445  1
  Fe  Fe12  1  0.000000  0.500000  0.991603  1
  Fe  Fe13  1  0.500000  0.000000  0.008397  1
  Fe  Fe14  1  0.500000  0.332119  0.997920  1
  Fe  Fe15  1  0.500000  0.667881  0.997920  1
  Fe  Fe16  1  0.000000  0.167881  0.002080  1
  Fe  Fe17  1  0.000000  0.832119  0.002080  1
  Fe  Fe18  1  0.500000  0.297683  0.428829  1
  Fe  Fe19  1  0.500000  0.702317  0.428829  1
  Fe  Fe20  1  0.000000  0.202317  0.571171  1
  Fe  Fe21  1  0.000000  0.797683  0.571171  1
  Co  Co22  1  0.500000  0.500000  0.704391  1
  Co  Co23  1  0.000000  0.000000  0.295609  1
  P  P24  1  0.500000  0.500000  0.888350  1
  P  P25  1  0.000000  0.000000  0.111650  1
  P  P26  1  0.500000  0.500000  0.356894  1
  P  P27  1  0.000000  0.000000  0.643106  1
  P  P28  1  0.500000  0.311943  0.616021  1
  P  P29  1  0.500000  0.688057  0.616021  1
  P  P30  1  0.000000  0.188057  0.383979  1
  P  P31  1  0.000000  0.811943  0.383979  1
  P  P32  1  0.500000  0.842877  0.894242  1
  P  P33  1  0.500000  0.157123  0.894242  1
  P  P34  1  0.000000  0.657123  0.105758  1
  P  P35  1  0.000000  0.342877  0.105758  1
