# generated using pymatgen
data_Zr6Nb4Ga12FeCo6
_symmetry_space_group_name_H-M   'P 1'
_cell_length_a   8.61521111
_cell_length_b   8.61521072
_cell_length_c   8.61521200
_cell_angle_alpha   60.00000275
_cell_angle_beta   60.00000426
_cell_angle_gamma   59.99999690
_symmetry_Int_Tables_number   1
_chemical_formula_structural   Zr6Nb4Ga12FeCo6
_chemical_formula_sum   'Zr6 Nb4 Ga12 Fe1 Co6'
_cell_volume   452.15028825
_cell_formula_units_Z   1
loop_
 _symmetry_equiv_pos_site_id
 _symmetry_equiv_pos_as_xyz
  1  'x, y, z'
loop_
 _atom_site_type_symbol
 _atom_site_label
 _atom_site_symmetry_multiplicity
 _atom_site_fract_x
 _atom_site_fract_y
 _atom_site_fract_z
 _atom_site_occupancy
  Zr  Zr0  1  0.695080  0.304920  0.304920  1
  Zr  Zr1  1  0.695080  0.304920  0.695080  1
  Zr  Zr2  1  0.695080  0.695080  0.304920  1
  Zr  Zr3  1  0.304920  0.695080  0.695080  1
  Zr  Zr4  1  0.304920  0.695080  0.304920  1
  Zr  Zr5  1  0.304920  0.304920  0.695080  1
  Nb  Nb6  1  0.640017  0.119995  0.119995  1
  Nb  Nb7  1  0.119995  0.640017  0.119995  1
  Nb  Nb8  1  0.119995  0.119995  0.640017  1
  Nb  Nb9  1  0.119995  0.119995  0.119995  1
  Ga  Ga10  1  0.360689  0.879771  0.879771  1
  Ga  Ga11  1  0.879771  0.360689  0.879771  1
  Ga  Ga12  1  0.879771  0.879771  0.360689  1
  Ga  Ga13  1  0.879771  0.879771  0.879771  1
  Ga  Ga14  1  0.980482  0.339839  0.339839  1
  Ga  Ga15  1  0.339839  0.980482  0.339839  1
  Ga  Ga16  1  0.339839  0.339839  0.980482  1
  Ga  Ga17  1  0.339839  0.339839  0.339839  1
  Ga  Ga18  1  0.015564  0.661478  0.661478  1
  Ga  Ga19  1  0.661478  0.015564  0.661478  1
  Ga  Ga20  1  0.661478  0.661478  0.015564  1
  Ga  Ga21  1  0.661478  0.661478  0.661478  1
  Fe  Fe22  1  0.000000  0.000000  0.000000  1
  Co  Co23  1  0.495271  0.004729  0.004729  1
  Co  Co24  1  0.495271  0.004729  0.495271  1
  Co  Co25  1  0.495271  0.495271  0.004729  1
  Co  Co26  1  0.004729  0.495271  0.495271  1
  Co  Co27  1  0.004729  0.495271  0.004729  1
  Co  Co28  1  0.004729  0.004729  0.495271  1
