# generated using pymatgen
data_Ti12Tc6Ir5Rh
_symmetry_space_group_name_H-M   'P 1'
_cell_length_a   4.39023600
_cell_length_b   6.20551100
_cell_length_c   13.18310200
_cell_angle_alpha   90.00000000
_cell_angle_beta   90.00003044
_cell_angle_gamma   90.00000000
_symmetry_Int_Tables_number   1
_chemical_formula_structural   Ti12Tc6Ir5Rh
_chemical_formula_sum   'Ti12 Tc6 Ir5 Rh1'
_cell_volume   359.15591951
_cell_formula_units_Z   1
loop_
 _symmetry_equiv_pos_site_id
 _symmetry_equiv_pos_as_xyz
  1  'x, y, z'
loop_
 _atom_site_type_symbol
 _atom_site_label
 _atom_site_symmetry_multiplicity
 _atom_site_fract_x
 _atom_site_fract_y
 _atom_site_fract_z
 _atom_site_occupancy
  Ti  Ti0  1  0.500000  0.250120  0.000043  1
  Ti  Ti1  1  0.500000  0.749879  0.000043  1
  Ti  Ti2  1  0.000153  0.249910  0.166636  1
  Ti  Ti3  1  0.000153  0.750091  0.166636  1
  Ti  Ti4  1  0.500153  0.250097  0.333333  1
  Ti  Ti5  1  0.500153  0.749902  0.333333  1
  Ti  Ti6  1  0.000001  0.249908  0.500033  1
  Ti  Ti7  1  0.000001  0.750093  0.500033  1
  Ti  Ti8  1  0.499845  0.250122  0.666624  1
  Ti  Ti9  1  0.499845  0.749877  0.666624  1
  Ti  Ti10  1  0.999844  0.250025  0.833331  1
  Ti  Ti11  1  0.999844  0.749976  0.833331  1
  Tc  Tc12  1  0.000003  0.000000  0.999950  1
  Tc  Tc13  1  0.500121  0.500000  0.166625  1
  Tc  Tc14  1  0.000120  0.000000  0.333345  1
  Tc  Tc15  1  0.500002  0.500000  0.500054  1
  Tc  Tc16  1  0.999880  0.000000  0.666703  1
  Tc  Tc17  1  0.499881  0.500000  0.833321  1
  Ir  Ir18  1  0.000002  0.500000  0.999974  1
  Ir  Ir19  1  0.500113  0.000000  0.166721  1
  Ir  Ir20  1  0.000113  0.500000  0.333338  1
  Ir  Ir21  1  0.500001  0.000000  0.499954  1
  Ir  Ir22  1  0.999885  0.500000  0.666688  1
  Rh  Rh23  1  0.499890  0.000000  0.833327  1
