# generated using pymatgen
data_Ho4FeI4
_symmetry_space_group_name_H-M   'P 1'
_cell_length_a   11.12974279
_cell_length_b   11.12974398
_cell_length_c   5.97532200
_cell_angle_alpha   89.38469045
_cell_angle_beta   89.38469038
_cell_angle_gamma   88.71905210
_symmetry_Int_Tables_number   1
_chemical_formula_structural   Ho4FeI4
_chemical_formula_sum   'Ho8 Fe2 I8'
_cell_volume   739.90178621
_cell_formula_units_Z   2
loop_
 _symmetry_equiv_pos_site_id
 _symmetry_equiv_pos_as_xyz
  1  'x, y, z'
loop_
 _atom_site_type_symbol
 _atom_site_label
 _atom_site_symmetry_multiplicity
 _atom_site_fract_x
 _atom_site_fract_y
 _atom_site_fract_z
 _atom_site_occupancy
  Ho  Ho0  1  0.196185  0.917625  0.997133  1
  Ho  Ho1  1  0.803815  0.082375  0.002867  1
  Ho  Ho2  1  0.082375  0.803815  0.502867  1
  Ho  Ho3  1  0.917625  0.196185  0.497133  1
  Ho  Ho4  1  0.805508  0.922040  0.505481  1
  Ho  Ho5  1  0.194492  0.077960  0.494519  1
  Ho  Ho6  1  0.077960  0.194492  0.994519  1
  Ho  Ho7  1  0.922040  0.805508  0.005481  1
  Fe  Fe8  1  0.000134  0.999866  0.250000  1
  Fe  Fe9  1  0.999866  0.000134  0.750000  1
  I  I10  1  0.359460  0.846407  0.507661  1
  I  I11  1  0.640540  0.153593  0.492339  1
  I  I12  1  0.153593  0.640540  0.992339  1
  I  I13  1  0.846407  0.359460  0.007661  1
  I  I14  1  0.355446  0.146388  0.995350  1
  I  I15  1  0.644554  0.853612  0.004650  1
  I  I16  1  0.853612  0.644554  0.504650  1
  I  I17  1  0.146388  0.355446  0.495350  1
