# generated using pymatgen
data_Er5Tm3Ti12Si15Pt
_symmetry_space_group_name_H-M   'P 1'
_cell_length_a   7.05608960
_cell_length_b   7.00558620
_cell_length_c   12.91514943
_cell_angle_alpha   89.86869257
_cell_angle_beta   89.93141315
_cell_angle_gamma   90.00247002
_symmetry_Int_Tables_number   1
_chemical_formula_structural   Er5Tm3Ti12Si15Pt
_chemical_formula_sum   'Er5 Tm3 Ti12 Si15 Pt1'
_cell_volume   638.42009981
_cell_formula_units_Z   1
loop_
 _symmetry_equiv_pos_site_id
 _symmetry_equiv_pos_as_xyz
  1  'x, y, z'
loop_
 _atom_site_type_symbol
 _atom_site_label
 _atom_site_symmetry_multiplicity
 _atom_site_fract_x
 _atom_site_fract_y
 _atom_site_fract_z
 _atom_site_occupancy
  Er  Er0  1  0.841781  0.496734  0.282922  1
  Er  Er1  1  0.156974  0.502355  0.782980  1
  Er  Er2  1  0.659614  0.997470  0.967684  1
  Er  Er3  1  0.001871  0.338974  0.534398  1
  Er  Er4  1  0.998723  0.660033  0.033386  1
  Tm  Tm5  1  0.340528  0.001566  0.465908  1
  Tm  Tm6  1  0.501599  0.838876  0.717646  1
  Tm  Tm7  1  0.500362  0.159632  0.216970  1
  Ti  Ti8  1  0.326324  0.326555  0.001360  1
  Ti  Ti9  1  0.173999  0.826646  0.249943  1
  Ti  Ti10  1  0.822777  0.172791  0.749919  1
  Ti  Ti11  1  0.673504  0.672153  0.499362  1
  Ti  Ti12  1  0.154724  0.011008  0.876468  1
  Ti  Ti13  1  0.491957  0.651747  0.126136  1
  Ti  Ti14  1  0.501956  0.345498  0.626237  1
  Ti  Ti15  1  0.654278  0.496531  0.875496  1
  Ti  Ti16  1  0.348695  0.506899  0.373262  1
  Ti  Ti17  1  0.847192  0.992492  0.375079  1
  Ti  Ti18  1  0.007679  0.151693  0.125324  1
  Ti  Ti19  1  0.987960  0.848833  0.618891  1
  Si  Si20  1  0.368631  0.703159  0.934129  1
  Si  Si21  1  0.631721  0.296669  0.433124  1
  Si  Si22  1  0.703056  0.368813  0.067570  1
  Si  Si23  1  0.301377  0.632894  0.564353  1
  Si  Si24  1  0.795399  0.869097  0.182621  1
  Si  Si25  1  0.131710  0.202632  0.316300  1
  Si  Si26  1  0.867920  0.798469  0.816649  1
  Si  Si27  1  0.292521  0.954103  0.065942  1
  Si  Si28  1  0.547070  0.792011  0.314895  1
  Si  Si29  1  0.457246  0.212765  0.818250  1
  Si  Si30  1  0.789839  0.547554  0.685850  1
  Si  Si31  1  0.207689  0.453027  0.184992  1
  Si  Si32  1  0.705701  0.046591  0.563078  1
  Si  Si33  1  0.951944  0.291835  0.936916  1
  Si  Si34  1  0.048361  0.708224  0.433187  1
  Pt  Pt35  1  0.207318  0.123667  0.682773  1
