# generated using pymatgen
data_ErThSc3Ga4
_symmetry_space_group_name_H-M   'P 1'
_cell_length_a   7.32006472
_cell_length_b   7.62438417
_cell_length_c   14.47906559
_cell_angle_alpha   89.97989740
_cell_angle_beta   90.07782292
_cell_angle_gamma   90.01334091
_symmetry_Int_Tables_number   1
_chemical_formula_structural   ErThSc3Ga4
_chemical_formula_sum   'Er4 Th4 Sc12 Ga16'
_cell_volume   808.09010405
_cell_formula_units_Z   4
loop_
 _symmetry_equiv_pos_site_id
 _symmetry_equiv_pos_as_xyz
  1  'x, y, z'
loop_
 _atom_site_type_symbol
 _atom_site_label
 _atom_site_symmetry_multiplicity
 _atom_site_fract_x
 _atom_site_fract_y
 _atom_site_fract_z
 _atom_site_occupancy
  Er  Er0  1  0.509599  0.319599  0.095606  1
  Er  Er1  1  0.010958  0.181418  0.404666  1
  Er  Er2  1  0.509546  0.319198  0.405624  1
  Er  Er3  1  0.488451  0.678786  0.593664  1
  Th  Th4  1  0.009621  0.179044  0.095793  1
  Th  Th5  1  0.988779  0.822078  0.905893  1
  Th  Th6  1  0.489580  0.678058  0.906388  1
  Th  Th7  1  0.988797  0.822446  0.593237  1
  Sc  Sc8  1  0.164647  0.499671  0.748446  1
  Sc  Sc9  1  0.835606  0.496210  0.251253  1
  Sc  Sc10  1  0.338077  0.004037  0.251358  1
  Sc  Sc11  1  0.662825  0.000257  0.748844  1
  Sc  Sc12  1  0.330645  0.172416  0.623079  1
  Sc  Sc13  1  0.670716  0.828524  0.375640  1
  Sc  Sc14  1  0.171799  0.671677  0.375358  1
  Sc  Sc15  1  0.670287  0.827951  0.125865  1
  Sc  Sc16  1  0.828596  0.327621  0.622931  1
  Sc  Sc17  1  0.330265  0.172461  0.875656  1
  Sc  Sc18  1  0.829970  0.327481  0.875483  1
  Sc  Sc19  1  0.171541  0.671219  0.126050  1
  Ga  Ga20  1  0.031362  0.119370  0.750128  1
  Ga  Ga21  1  0.969145  0.883576  0.250790  1
  Ga  Ga22  1  0.469234  0.616114  0.249698  1
  Ga  Ga23  1  0.530663  0.381388  0.749508  1
  Ga  Ga24  1  0.287654  0.873106  0.748935  1
  Ga  Ga25  1  0.713691  0.128715  0.250742  1
  Ga  Ga26  1  0.218247  0.371808  0.250929  1
  Ga  Ga27  1  0.783904  0.625809  0.748877  1
  Ga  Ga28  1  0.164445  0.462756  0.539959  1
  Ga  Ga29  1  0.836136  0.531627  0.458115  1
  Ga  Ga30  1  0.338447  0.964936  0.458855  1
  Ga  Ga31  1  0.835237  0.535599  0.041309  1
  Ga  Ga32  1  0.658707  0.036576  0.539854  1
  Ga  Ga33  1  0.162114  0.462101  0.960047  1
  Ga  Ga34  1  0.659516  0.040562  0.960135  1
  Ga  Ga35  1  0.341194  0.965803  0.041283  1
