# generated using pymatgen
data_RbNd2Dy(SbAu)4
_symmetry_space_group_name_H-M   'P 1'
_cell_length_a   4.66456800
_cell_length_b   4.66456903
_cell_length_c   17.85111800
_cell_angle_alpha   90.00000000
_cell_angle_beta   90.00000000
_cell_angle_gamma   120.00000686
_symmetry_Int_Tables_number   1
_chemical_formula_structural   RbNd2Dy(SbAu)4
_chemical_formula_sum   'Rb1 Nd2 Dy1 Sb4 Au4'
_cell_volume   336.37133257
_cell_formula_units_Z   1
loop_
 _symmetry_equiv_pos_site_id
 _symmetry_equiv_pos_as_xyz
  1  'x, y, z'
loop_
 _atom_site_type_symbol
 _atom_site_label
 _atom_site_symmetry_multiplicity
 _atom_site_fract_x
 _atom_site_fract_y
 _atom_site_fract_z
 _atom_site_occupancy
  Rb  Rb0  1  0.000000  0.000000  0.250000  1
  Nd  Nd1  1  0.000000  0.000000  0.520073  1
  Nd  Nd2  1  0.000000  0.000000  0.979927  1
  Dy  Dy3  1  0.000000  0.000000  0.750000  1
  Sb  Sb4  1  0.333333  0.666667  0.399579  1
  Sb  Sb5  1  0.666667  0.333333  0.623975  1
  Sb  Sb6  1  0.666667  0.333333  0.876025  1
  Sb  Sb7  1  0.333333  0.666667  0.100421  1
  Au  Au8  1  0.666667  0.333333  0.428161  1
  Au  Au9  1  0.333333  0.666667  0.669482  1
  Au  Au10  1  0.333333  0.666667  0.830518  1
  Au  Au11  1  0.666667  0.333333  0.071839  1
