# generated using pymatgen
data_Cs2TiMoH10
_symmetry_space_group_name_H-M   'P 1'
_cell_length_a   11.58749467
_cell_length_b   7.65682600
_cell_length_c   5.01167271
_cell_angle_alpha   90.00000000
_cell_angle_beta   90.17447159
_cell_angle_gamma   90.00000000
_symmetry_Int_Tables_number   1
_chemical_formula_structural   Cs2TiMoH10
_chemical_formula_sum   'Cs4 Ti2 Mo2 H20'
_cell_volume   444.65073332
_cell_formula_units_Z   2
loop_
 _symmetry_equiv_pos_site_id
 _symmetry_equiv_pos_as_xyz
  1  'x, y, z'
loop_
 _atom_site_type_symbol
 _atom_site_label
 _atom_site_symmetry_multiplicity
 _atom_site_fract_x
 _atom_site_fract_y
 _atom_site_fract_z
 _atom_site_occupancy
  Cs  Cs0  1  0.671309  0.075737  0.338431  1
  Cs  Cs1  1  0.171309  0.424262  0.338431  1
  Cs  Cs2  1  0.831170  0.573221  0.836228  1
  Cs  Cs3  1  0.331170  0.926779  0.836228  1
  Ti  Ti4  1  0.982187  0.067084  0.812748  1
  Ti  Ti5  1  0.482187  0.432916  0.812748  1
  Mo  Mo6  1  0.515108  0.558195  0.296926  1
  Mo  Mo7  1  0.015108  0.941805  0.296926  1
  H  H8  1  0.344876  0.327010  0.807865  1
  H  H9  1  0.844876  0.172990  0.807865  1
  H  H10  1  0.976455  0.721122  0.318166  1
  H  H11  1  0.476455  0.778877  0.318166  1
  H  H12  1  0.601116  0.416450  0.084973  1
  H  H13  1  0.101115  0.083550  0.084973  1
  H  H14  1  0.389148  0.543812  0.081344  1
  H  H15  1  0.889148  0.956189  0.081344  1
  H  H16  1  0.962741  0.149102  0.424540  1
  H  H17  1  0.462741  0.350899  0.424540  1
  H  H18  1  0.143863  0.825283  0.307983  1
  H  H19  1  0.643863  0.674716  0.307983  1
  H  H20  1  0.524771  0.207560  0.820075  1
  H  H21  1  0.024771  0.292439  0.820075  1
  H  H22  1  0.912067  0.907704  0.563220  1
  H  H23  1  0.412067  0.592296  0.563220  1
  H  H24  1  0.105713  0.017093  0.569030  1
  H  H25  1  0.605713  0.482907  0.569030  1
  H  H26  1  0.539479  0.652974  0.972468  1
  H  H27  1  0.039479  0.847027  0.972468  1
