# generated using pymatgen
data_Mg3Zn(SiPd5)2
_symmetry_space_group_name_H-M   'P 1'
_cell_length_a   4.09871700
_cell_length_b   5.51200729
_cell_length_c   10.61675259
_cell_angle_alpha   90.41685605
_cell_angle_beta   90.00000000
_cell_angle_gamma   90.00000000
_symmetry_Int_Tables_number   1
_chemical_formula_structural   Mg3Zn(SiPd5)2
_chemical_formula_sum   'Mg3 Zn1 Si2 Pd10'
_cell_volume   239.84900382
_cell_formula_units_Z   1
loop_
 _symmetry_equiv_pos_site_id
 _symmetry_equiv_pos_as_xyz
  1  'x, y, z'
loop_
 _atom_site_type_symbol
 _atom_site_label
 _atom_site_symmetry_multiplicity
 _atom_site_fract_x
 _atom_site_fract_y
 _atom_site_fract_z
 _atom_site_occupancy
  Mg  Mg0  1  0.500000  0.841780  0.857460  1
  Mg  Mg1  1  0.500000  0.339912  0.643967  1
  Mg  Mg2  1  0.500000  0.655433  0.355537  1
  Zn  Zn3  1  0.500000  0.153344  0.146204  1
  Si  Si4  1  0.000000  0.000206  0.499956  1
  Si  Si5  1  0.000000  0.509901  0.998385  1
  Pd  Pd6  1  0.500000  0.173835  0.397380  1
  Pd  Pd7  1  0.500000  0.823849  0.599784  1
  Pd  Pd8  1  0.500000  0.324628  0.903120  1
  Pd  Pd9  1  0.500000  0.681862  0.101235  1
  Pd  Pd10  1  0.000000  0.410600  0.225078  1
  Pd  Pd11  1  0.000000  0.581901  0.768350  1
  Pd  Pd12  1  0.000000  0.081726  0.732815  1
  Pd  Pd13  1  0.000000  0.913363  0.268721  1
  Pd  Pd14  1  0.000000  0.009187  0.003601  1
  Pd  Pd15  1  0.000000  0.498473  0.498407  1
