# generated using pymatgen
data_TbPa4Ga15
_symmetry_space_group_name_H-M   'P 1'
_cell_length_a   12.63314698
_cell_length_b   12.63314768
_cell_length_c   12.63314712
_cell_angle_alpha   28.04415554
_cell_angle_beta   28.04415745
_cell_angle_gamma   28.04415889
_symmetry_Int_Tables_number   1
_chemical_formula_structural   TbPa4Ga15
_chemical_formula_sum   'Tb1 Pa4 Ga15'
_cell_volume   393.65643708
_cell_formula_units_Z   1
loop_
 _symmetry_equiv_pos_site_id
 _symmetry_equiv_pos_as_xyz
  1  'x, y, z'
loop_
 _atom_site_type_symbol
 _atom_site_label
 _atom_site_symmetry_multiplicity
 _atom_site_fract_x
 _atom_site_fract_y
 _atom_site_fract_z
 _atom_site_occupancy
  Tb  Tb0  1  0.000000  0.000000  0.000000  1
  Pa  Pa1  1  0.869719  0.869719  0.869719  1
  Pa  Pa2  1  0.130281  0.130281  0.130281  1
  Pa  Pa3  1  0.599101  0.599101  0.599101  1
  Pa  Pa4  1  0.400899  0.400899  0.400899  1
  Ga  Ga5  1  0.500000  0.500000  0.000000  1
  Ga  Ga6  1  0.000000  0.500000  0.500000  1
  Ga  Ga7  1  0.500000  0.000000  0.500000  1
  Ga  Ga8  1  0.363630  0.870618  0.363630  1
  Ga  Ga9  1  0.363630  0.363630  0.870618  1
  Ga  Ga10  1  0.870618  0.363630  0.363630  1
  Ga  Ga11  1  0.636370  0.129382  0.636370  1
  Ga  Ga12  1  0.636370  0.636370  0.129382  1
  Ga  Ga13  1  0.129382  0.636370  0.636370  1
  Ga  Ga14  1  0.117008  0.567571  0.117008  1
  Ga  Ga15  1  0.117008  0.117008  0.567571  1
  Ga  Ga16  1  0.567571  0.117008  0.117008  1
  Ga  Ga17  1  0.882992  0.432429  0.882992  1
  Ga  Ga18  1  0.882992  0.882992  0.432429  1
  Ga  Ga19  1  0.432429  0.882992  0.882992  1
