# generated using pymatgen
data_KYb(AsRu)4
_symmetry_space_group_name_H-M   'P 1'
_cell_length_a   4.19612900
_cell_length_b   4.19612900
_cell_length_c   11.72434800
_cell_angle_alpha   90.00000000
_cell_angle_beta   90.00000000
_cell_angle_gamma   90.00000000
_symmetry_Int_Tables_number   1
_chemical_formula_structural   KYb(AsRu)4
_chemical_formula_sum   'K1 Yb1 As4 Ru4'
_cell_volume   206.43644082
_cell_formula_units_Z   1
loop_
 _symmetry_equiv_pos_site_id
 _symmetry_equiv_pos_as_xyz
  1  'x, y, z'
loop_
 _atom_site_type_symbol
 _atom_site_label
 _atom_site_symmetry_multiplicity
 _atom_site_fract_x
 _atom_site_fract_y
 _atom_site_fract_z
 _atom_site_occupancy
  K  K0  1  0.500000  0.500000  0.500000  1
  Yb  Yb1  1  0.000000  0.000000  0.000000  1
  As  As2  1  0.000000  0.000000  0.676229  1
  As  As3  1  0.000000  0.000000  0.323771  1
  As  As4  1  0.500000  0.500000  0.886329  1
  As  As5  1  0.500000  0.500000  0.113671  1
  Ru  Ru6  1  0.500000  0.000000  0.785376  1
  Ru  Ru7  1  0.000000  0.500000  0.785376  1
  Ru  Ru8  1  0.500000  0.000000  0.214624  1
  Ru  Ru9  1  0.000000  0.500000  0.214624  1
