# generated using pymatgen
data_Eu4Ga18(PdRh)3
_symmetry_space_group_name_H-M   'P 1'
_cell_length_a   7.67685271
_cell_length_b   7.67685230
_cell_length_c   9.73280447
_cell_angle_alpha   90.01773514
_cell_angle_beta   90.01773840
_cell_angle_gamma   119.61530503
_symmetry_Int_Tables_number   1
_chemical_formula_structural   Eu4Ga18(PdRh)3
_chemical_formula_sum   'Eu4 Ga18 Pd3 Rh3'
_cell_volume   498.66104125
_cell_formula_units_Z   1
loop_
 _symmetry_equiv_pos_site_id
 _symmetry_equiv_pos_as_xyz
  1  'x, y, z'
loop_
 _atom_site_type_symbol
 _atom_site_label
 _atom_site_symmetry_multiplicity
 _atom_site_fract_x
 _atom_site_fract_y
 _atom_site_fract_z
 _atom_site_occupancy
  Eu  Eu0  1  0.670514  0.997548  0.249996  1
  Eu  Eu1  1  0.002452  0.329486  0.750004  1
  Eu  Eu2  1  0.999101  0.671873  0.250214  1
  Eu  Eu3  1  0.328127  0.000899  0.749786  1
  Ga  Ga4  1  0.661267  0.998897  0.924367  1
  Ga  Ga5  1  0.132333  0.133294  0.249837  1
  Ga  Ga6  1  0.998347  0.334778  0.422366  1
  Ga  Ga7  1  0.338715  0.335196  0.561817  1
  Ga  Ga8  1  0.338345  0.544484  0.246834  1
  Ga  Ga9  1  0.455516  0.661655  0.753166  1
  Ga  Ga10  1  0.866706  0.867667  0.750163  1
  Ga  Ga11  1  0.661929  0.661623  0.059587  1
  Ga  Ga12  1  0.664804  0.661285  0.438183  1
  Ga  Ga13  1  0.993241  0.661207  0.578137  1
  Ga  Ga14  1  0.998604  0.661361  0.923812  1
  Ga  Ga15  1  0.338793  0.006759  0.421863  1
  Ga  Ga16  1  0.661458  0.452755  0.750329  1
  Ga  Ga17  1  0.547245  0.338542  0.249671  1
  Ga  Ga18  1  0.338377  0.338071  0.940413  1
  Ga  Ga19  1  0.338639  0.001396  0.076188  1
  Ga  Ga20  1  0.665222  0.001653  0.577634  1
  Ga  Ga21  1  0.001103  0.338733  0.075633  1
  Pd  Pd22  1  0.329509  0.670491  0.500000  1
  Pd  Pd23  1  0.000158  0.999842  0.000000  1
  Pd  Pd24  1  0.999948  0.000052  0.500000  1
  Rh  Rh25  1  0.329895  0.670105  0.000000  1
  Rh  Rh26  1  0.669713  0.330287  0.500000  1
  Rh  Rh27  1  0.669939  0.330061  0.000000  1
