# generated using pymatgen
data_Zr2Mn9Cr3P7
_symmetry_space_group_name_H-M   'P 1'
_cell_length_a   9.16442729
_cell_length_b   9.13102229
_cell_length_c   3.58251000
_cell_angle_alpha   90.00000000
_cell_angle_beta   90.00000000
_cell_angle_gamma   119.73826449
_symmetry_Int_Tables_number   1
_chemical_formula_structural   Zr2Mn9Cr3P7
_chemical_formula_sum   'Zr2 Mn9 Cr3 P7'
_cell_volume   260.30479097
_cell_formula_units_Z   1
loop_
 _symmetry_equiv_pos_site_id
 _symmetry_equiv_pos_as_xyz
  1  'x, y, z'
loop_
 _atom_site_type_symbol
 _atom_site_label
 _atom_site_symmetry_multiplicity
 _atom_site_fract_x
 _atom_site_fract_y
 _atom_site_fract_z
 _atom_site_occupancy
  Zr  Zr0  1  0.997519  0.996975  0.000000  1
  Zr  Zr1  1  0.336147  0.668001  0.500000  1
  Mn  Mn2  1  0.093989  0.383420  0.000000  1
  Mn  Mn3  1  0.288724  0.904250  0.000000  1
  Mn  Mn4  1  0.617492  0.712942  0.000000  1
  Mn  Mn5  1  0.829386  0.614689  0.000000  1
  Mn  Mn6  1  0.790240  0.175417  0.000000  1
  Mn  Mn7  1  0.056418  0.764876  0.500000  1
  Mn  Mn8  1  0.711853  0.942190  0.500000  1
  Mn  Mn9  1  0.229248  0.288755  0.500000  1
  Mn  Mn10  1  0.884533  0.432503  0.500000  1
  Cr  Cr11  1  0.384071  0.212946  0.000000  1
  Cr  Cr12  1  0.546507  0.115938  0.500000  1
  Cr  Cr13  1  0.568298  0.454711  0.500000  1
  P  P14  1  0.082549  0.622944  0.000000  1
  P  P15  1  0.543612  0.922944  0.000000  1
  P  P16  1  0.377815  0.461580  0.000000  1
  P  P17  1  0.794089  0.743257  0.500000  1
  P  P18  1  0.949698  0.203808  0.500000  1
  P  P19  1  0.249218  0.042694  0.500000  1
  P  P20  1  0.668596  0.335155  0.000000  1
