# generated using pymatgen
data_Tb4Mg4Tc3H22
_symmetry_space_group_name_H-M   'P 1'
_cell_length_a   6.80761800
_cell_length_b   6.80761800
_cell_length_c   6.80761800
_cell_angle_alpha   90.00000000
_cell_angle_beta   90.00000000
_cell_angle_gamma   90.00000000
_symmetry_Int_Tables_number   1
_chemical_formula_structural   Tb4Mg4Tc3H22
_chemical_formula_sum   'Tb4 Mg4 Tc3 H22'
_cell_volume   315.48995329
_cell_formula_units_Z   1
loop_
 _symmetry_equiv_pos_site_id
 _symmetry_equiv_pos_as_xyz
  1  'x, y, z'
loop_
 _atom_site_type_symbol
 _atom_site_label
 _atom_site_symmetry_multiplicity
 _atom_site_fract_x
 _atom_site_fract_y
 _atom_site_fract_z
 _atom_site_occupancy
  Tb  Tb0  1  0.287345  0.287345  0.712655  1
  Tb  Tb1  1  0.287345  0.712655  0.287345  1
  Tb  Tb2  1  0.712655  0.287345  0.287345  1
  Tb  Tb3  1  0.712655  0.712655  0.712655  1
  Mg  Mg4  1  0.787003  0.787003  0.212997  1
  Mg  Mg5  1  0.787003  0.212997  0.787003  1
  Mg  Mg6  1  0.212997  0.787003  0.787003  1
  Mg  Mg7  1  0.212997  0.212997  0.212997  1
  Tc  Tc8  1  0.000000  0.000000  0.500000  1
  Tc  Tc9  1  0.000000  0.500000  0.000000  1
  Tc  Tc10  1  0.500000  0.000000  0.000000  1
  H  H11  1  0.000000  0.500000  0.258505  1
  H  H12  1  0.500000  0.741495  0.000000  1
  H  H13  1  0.741495  0.000000  0.500000  1
  H  H14  1  0.000000  0.741495  0.500000  1
  H  H15  1  0.500000  0.000000  0.258505  1
  H  H16  1  0.741495  0.500000  0.000000  1
  H  H17  1  0.000000  0.500000  0.741495  1
  H  H18  1  0.500000  0.258505  0.000000  1
  H  H19  1  0.000000  0.258505  0.500000  1
  H  H20  1  0.500000  0.000000  0.741495  1
  H  H21  1  0.258505  0.000000  0.500000  1
  H  H22  1  0.258505  0.500000  0.000000  1
  H  H23  1  0.000000  0.000000  0.244239  1
  H  H24  1  0.000000  0.755761  0.000000  1
  H  H25  1  0.755761  0.000000  0.000000  1
  H  H26  1  0.000000  0.000000  0.755761  1
  H  H27  1  0.000000  0.244239  0.000000  1
  H  H28  1  0.244239  0.000000  0.000000  1
  H  H29  1  0.622320  0.622320  0.377680  1
  H  H30  1  0.622320  0.377680  0.622320  1
  H  H31  1  0.377680  0.622320  0.622320  1
  H  H32  1  0.377680  0.377680  0.377680  1
