# generated using pymatgen
data_CsMn2Cr4Se7
_symmetry_space_group_name_H-M   'P 1'
_cell_length_a   9.32805795
_cell_length_b   9.36435592
_cell_length_c   9.32108600
_cell_angle_alpha   61.27517664
_cell_angle_beta   61.58063654
_cell_angle_gamma   61.57049207
_symmetry_Int_Tables_number   1
_chemical_formula_structural   CsMn2Cr4Se7
_chemical_formula_sum   'Cs2 Mn4 Cr8 Se14'
_cell_volume   594.79335601
_cell_formula_units_Z   2
loop_
 _symmetry_equiv_pos_site_id
 _symmetry_equiv_pos_as_xyz
  1  'x, y, z'
loop_
 _atom_site_type_symbol
 _atom_site_label
 _atom_site_symmetry_multiplicity
 _atom_site_fract_x
 _atom_site_fract_y
 _atom_site_fract_z
 _atom_site_occupancy
  Cs  Cs0  1  0.386169  0.384118  0.379126  1
  Cs  Cs1  1  0.616413  0.615388  0.616780  1
  Mn  Mn2  1  0.123751  0.995087  0.292671  1
  Mn  Mn3  1  0.003207  0.708618  0.877511  1
  Mn  Mn4  1  0.707939  0.875896  0.006056  1
  Mn  Mn5  1  0.056846  0.193020  0.888200  1
  Cr  Cr6  1  0.287604  0.124730  0.998365  1
  Cr  Cr7  1  0.188691  0.895866  0.057396  1
  Cr  Cr8  1  0.894779  0.057680  0.187971  1
  Cr  Cr9  1  0.942123  0.810436  0.106844  1
  Cr  Cr10  1  0.809708  0.108479  0.941947  1
  Cr  Cr11  1  0.107497  0.943692  0.809062  1
  Cr  Cr12  1  0.998284  0.288374  0.122880  1
  Cr  Cr13  1  0.876378  0.002614  0.711413  1
  Se  Se14  1  0.980826  0.239573  0.644801  1
  Se  Se15  1  0.236017  0.645970  0.978637  1
  Se  Se16  1  0.645148  0.978700  0.236783  1
  Se  Se17  1  0.020845  0.763840  0.355622  1
  Se  Se18  1  0.767620  0.353795  0.013543  1
  Se  Se19  1  0.349258  0.027021  0.761387  1
  Se  Se20  1  0.162236  0.419318  0.817958  1
  Se  Se21  1  0.416084  0.819802  0.166573  1
  Se  Se22  1  0.825311  0.159259  0.417993  1
  Se  Se23  1  0.838326  0.584144  0.175067  1
  Se  Se24  1  0.581745  0.173740  0.840991  1
  Se  Se25  1  0.179454  0.834239  0.584963  1
  Se  Se26  1  0.776611  0.778171  0.783074  1
  Se  Se27  1  0.221131  0.218432  0.226385  1
