# generated using pymatgen
data_Ho3TmAl10(Ga4Ir3)2
_symmetry_space_group_name_H-M   'P 1'
_cell_length_a   7.53171089
_cell_length_b   7.52920147
_cell_length_c   9.54804318
_cell_angle_alpha   90.10182349
_cell_angle_beta   89.84463641
_cell_angle_gamma   119.67951660
_symmetry_Int_Tables_number   1
_chemical_formula_structural   Ho3TmAl10(Ga4Ir3)2
_chemical_formula_sum   'Ho3 Tm1 Al10 Ga8 Ir6'
_cell_volume   470.41307849
_cell_formula_units_Z   1
loop_
 _symmetry_equiv_pos_site_id
 _symmetry_equiv_pos_as_xyz
  1  'x, y, z'
loop_
 _atom_site_type_symbol
 _atom_site_label
 _atom_site_symmetry_multiplicity
 _atom_site_fract_x
 _atom_site_fract_y
 _atom_site_fract_z
 _atom_site_occupancy
  Ho  Ho0  1  0.996306  0.667220  0.245889  1
  Ho  Ho1  1  0.003738  0.332780  0.754119  1
  Ho  Ho2  1  0.672562  0.998553  0.249108  1
  Tm  Tm3  1  0.327293  0.001381  0.750923  1
  Al  Al4  1  0.998127  0.665596  0.571550  1
  Al  Al5  1  0.334536  0.000737  0.427515  1
  Al  Al6  1  0.002207  0.334755  0.428703  1
  Al  Al7  1  0.665109  0.999243  0.573043  1
  Al  Al8  1  0.663792  0.997141  0.926027  1
  Al  Al9  1  0.335835  0.002820  0.073417  1
  Al  Al10  1  0.333488  0.333135  0.556501  1
  Al  Al11  1  0.666527  0.666553  0.443749  1
  Al  Al12  1  0.666784  0.666201  0.055083  1
  Al  Al13  1  0.333231  0.333478  0.944668  1
  Ga  Ga14  1  0.130203  0.126704  0.250582  1
  Ga  Ga15  1  0.870254  0.873506  0.749423  1
  Ga  Ga16  1  0.999731  0.333738  0.080296  1
  Ga  Ga17  1  0.000745  0.666764  0.919416  1
  Ga  Ga18  1  0.341176  0.549108  0.250863  1
  Ga  Ga19  1  0.658465  0.450395  0.749139  1
  Ga  Ga20  1  0.546486  0.339635  0.250027  1
  Ga  Ga21  1  0.453348  0.660548  0.749979  1
  Ir  Ir22  1  0.667008  0.325552  0.999073  1
  Ir  Ir23  1  0.332769  0.674357  0.000604  1
  Ir  Ir24  1  0.327980  0.672035  0.500959  1
  Ir  Ir25  1  0.671834  0.327961  0.499354  1
  Ir  Ir26  1  0.000239  0.000054  0.999823  1
  Ir  Ir27  1  0.000227  0.000049  0.500168  1
