# generated using pymatgen
data_La3Eu(SeO3)6
_symmetry_space_group_name_H-M   'P 1'
_cell_length_a   7.39370226
_cell_length_b   8.43695075
_cell_length_c   9.42115900
_cell_angle_alpha   70.78972873
_cell_angle_beta   70.21051995
_cell_angle_gamma   66.28686093
_symmetry_Int_Tables_number   1
_chemical_formula_structural   La3Eu(SeO3)6
_chemical_formula_sum   'La3 Eu1 Se6 O18'
_cell_volume   493.44628492
_cell_formula_units_Z   1
loop_
 _symmetry_equiv_pos_site_id
 _symmetry_equiv_pos_as_xyz
  1  'x, y, z'
loop_
 _atom_site_type_symbol
 _atom_site_label
 _atom_site_symmetry_multiplicity
 _atom_site_fract_x
 _atom_site_fract_y
 _atom_site_fract_z
 _atom_site_occupancy
  La  La0  1  0.260030  0.266245  0.195197  1
  La  La1  1  0.334229  0.729391  0.590304  1
  La  La2  1  0.667726  0.265362  0.412598  1
  Eu  Eu3  1  0.736669  0.739149  0.804978  1
  Se  Se4  1  0.111485  0.242205  0.581526  1
  Se  Se5  1  0.426327  0.771758  0.199825  1
  Se  Se6  1  0.150448  0.755974  0.962386  1
  Se  Se7  1  0.847217  0.256180  0.031187  1
  Se  Se8  1  0.576916  0.218776  0.801777  1
  Se  Se9  1  0.887228  0.756220  0.423402  1
  O  O10  1  0.152697  0.022649  0.653500  1
  O  O11  1  0.167649  0.578278  0.115893  1
  O  O12  1  0.027681  0.709029  0.557188  1
  O  O13  1  0.337914  0.249659  0.442301  1
  O  O14  1  0.061405  0.702646  0.841165  1
  O  O15  1  0.599742  0.286843  0.142869  1
  O  O16  1  0.360719  0.204999  0.939008  1
  O  O17  1  0.363852  0.935791  0.299267  1
  O  O18  1  0.513717  0.593281  0.346897  1
  O  O19  1  0.492837  0.397744  0.654632  1
  O  O20  1  0.641217  0.055113  0.700547  1
  O  O21  1  0.639386  0.787490  0.059051  1
  O  O22  1  0.400411  0.716480  0.852532  1
  O  O23  1  0.933441  0.303966  0.157150  1
  O  O24  1  0.660905  0.752514  0.562607  1
  O  O25  1  0.970349  0.291119  0.446858  1
  O  O26  1  0.829059  0.435253  0.878918  1
  O  O27  1  0.848747  0.975886  0.346439  1
