# generated using pymatgen
data_Gd4Hf3ReF28
_symmetry_space_group_name_H-M   'P 1'
_cell_length_a   5.70781802
_cell_length_b   9.05740441
_cell_length_c   12.18100200
_cell_angle_alpha   62.42616926
_cell_angle_beta   89.99510140
_cell_angle_gamma   90.04140615
_symmetry_Int_Tables_number   1
_chemical_formula_structural   Gd4Hf3ReF28
_chemical_formula_sum   'Gd4 Hf3 Re1 F28'
_cell_volume   558.20519230
_cell_formula_units_Z   1
loop_
 _symmetry_equiv_pos_site_id
 _symmetry_equiv_pos_as_xyz
  1  'x, y, z'
loop_
 _atom_site_type_symbol
 _atom_site_label
 _atom_site_symmetry_multiplicity
 _atom_site_fract_x
 _atom_site_fract_y
 _atom_site_fract_z
 _atom_site_occupancy
  Gd  Gd0  1  0.256415  0.813042  0.266646  1
  Gd  Gd1  1  0.743526  0.188020  0.733727  1
  Gd  Gd2  1  0.756743  0.186330  0.234409  1
  Gd  Gd3  1  0.242456  0.813324  0.764067  1
  Hf  Hf4  1  0.754932  0.726395  0.043293  1
  Hf  Hf5  1  0.245122  0.274204  0.956256  1
  Hf  Hf6  1  0.254988  0.274049  0.456416  1
  Re  Re7  1  0.743633  0.726454  0.543833  1
  F  F8  1  0.951321  0.706524  0.421545  1
  F  F9  1  0.041952  0.291436  0.579778  1
  F  F10  1  0.458032  0.292079  0.079655  1
  F  F11  1  0.541622  0.708798  0.919807  1
  F  F12  1  0.481256  0.731623  0.144060  1
  F  F13  1  0.519285  0.269054  0.855954  1
  F  F14  1  0.980741  0.268088  0.356373  1
  F  F15  1  0.018333  0.730273  0.640973  1
  F  F16  1  0.958902  0.745591  0.171041  1
  F  F17  1  0.042292  0.254281  0.828768  1
  F  F18  1  0.459137  0.254163  0.329168  1
  F  F19  1  0.542565  0.743561  0.670081  1
  F  F20  1  0.769182  0.478585  0.141556  1
  F  F21  1  0.230238  0.521933  0.857833  1
  F  F22  1  0.267639  0.521876  0.358792  1
  F  F23  1  0.734250  0.481568  0.642236  1
  F  F24  1  0.954064  0.282799  0.046653  1
  F  F25  1  0.045702  0.717749  0.952692  1
  F  F26  1  0.458603  0.716296  0.454246  1
  F  F27  1  0.545849  0.283992  0.546260  1
  F  F28  1  0.741254  0.971701  0.447947  1
  F  F29  1  0.260321  0.025996  0.555009  1
  F  F30  1  0.239625  0.026201  0.055966  1
  F  F31  1  0.760149  0.974565  0.944457  1
  F  F32  1  0.579159  0.970016  0.232736  1
  F  F33  1  0.420787  0.029564  0.766873  1
  F  F34  1  0.079618  0.029651  0.268333  1
  F  F35  1  0.920303  0.970219  0.732559  1
