# generated using pymatgen
data_HoEr5InSi2
_symmetry_space_group_name_H-M   'P 1'
_cell_length_a   8.44991700
_cell_length_b   8.44991634
_cell_length_c   8.44463250
_cell_angle_alpha   112.57300859
_cell_angle_beta   110.88184967
_cell_angle_gamma   105.07958179
_symmetry_Int_Tables_number   1
_chemical_formula_structural   HoEr5InSi2
_chemical_formula_sum   'Ho2 Er10 In2 Si4'
_cell_volume   461.85187232
_cell_formula_units_Z   2
loop_
 _symmetry_equiv_pos_site_id
 _symmetry_equiv_pos_as_xyz
  1  'x, y, z'
loop_
 _atom_site_type_symbol
 _atom_site_label
 _atom_site_symmetry_multiplicity
 _atom_site_fract_x
 _atom_site_fract_y
 _atom_site_fract_z
 _atom_site_occupancy
  Ho  Ho0  1  0.187404  0.279639  0.467044  1
  Ho  Ho1  1  0.812596  0.720361  0.532956  1
  Er  Er2  1  0.187280  0.720325  0.907604  1
  Er  Er3  1  0.812720  0.279675  0.092396  1
  Er  Er4  1  0.319418  0.615545  0.295843  1
  Er  Er5  1  0.680582  0.384455  0.704157  1
  Er  Er6  1  0.319702  0.023575  0.704157  1
  Er  Er7  1  0.680298  0.976425  0.295843  1
  Er  Er8  1  0.442199  0.236824  0.204984  1
  Er  Er9  1  0.557801  0.763176  0.795016  1
  Er  Er10  1  0.031840  0.237216  0.795016  1
  Er  Er11  1  0.968160  0.762784  0.204984  1
  In  In12  1  0.500000  0.500000  0.000000  1
  In  In13  1  0.000000  0.000000  0.000000  1
  Si  Si14  1  0.116284  0.616284  0.500000  1
  Si  Si15  1  0.883716  0.383716  0.500000  1
  Si  Si16  1  0.369411  0.999954  0.369365  1
  Si  Si17  1  0.630589  0.000046  0.630635  1
