# generated using pymatgen
data_LuScPa2(Al3Ir)6
_symmetry_space_group_name_H-M   'P 1'
_cell_length_a   7.57535715
_cell_length_b   7.59122015
_cell_length_c   9.31555300
_cell_angle_alpha   90.00000000
_cell_angle_beta   90.00000000
_cell_angle_gamma   119.76028088
_symmetry_Int_Tables_number   1
_chemical_formula_structural   LuScPa2(Al3Ir)6
_chemical_formula_sum   'Lu1 Sc1 Pa2 Al18 Ir6'
_cell_volume   465.04821337
_cell_formula_units_Z   1
loop_
 _symmetry_equiv_pos_site_id
 _symmetry_equiv_pos_as_xyz
  1  'x, y, z'
loop_
 _atom_site_type_symbol
 _atom_site_label
 _atom_site_symmetry_multiplicity
 _atom_site_fract_x
 _atom_site_fract_y
 _atom_site_fract_z
 _atom_site_occupancy
  Lu  Lu0  1  0.330525  0.006989  0.750000  1
  Sc  Sc1  1  0.669704  0.993042  0.250000  1
  Pa  Pa2  1  0.998134  0.671190  0.250000  1
  Pa  Pa3  1  0.001739  0.328798  0.750000  1
  Al  Al4  1  0.128395  0.125960  0.250000  1
  Al  Al5  1  0.868717  0.872880  0.750000  1
  Al  Al6  1  0.996870  0.327667  0.080384  1
  Al  Al7  1  0.000198  0.669391  0.921017  1
  Al  Al8  1  0.000198  0.669391  0.578983  1
  Al  Al9  1  0.341632  0.003217  0.424016  1
  Al  Al10  1  0.996870  0.327667  0.419616  1
  Al  Al11  1  0.661212  0.996841  0.571916  1
  Al  Al12  1  0.661212  0.996841  0.928084  1
  Al  Al13  1  0.341632  0.003217  0.075984  1
  Al  Al14  1  0.335236  0.332883  0.554035  1
  Al  Al15  1  0.664800  0.669433  0.444280  1
  Al  Al16  1  0.664800  0.669433  0.055720  1
  Al  Al17  1  0.335236  0.332883  0.945965  1
  Al  Al18  1  0.344150  0.551827  0.250000  1
  Al  Al19  1  0.657700  0.451624  0.750000  1
  Al  Al20  1  0.549454  0.338711  0.250000  1
  Al  Al21  1  0.451749  0.660425  0.750000  1
  Ir  Ir22  1  0.676213  0.329575  0.999354  1
  Ir  Ir23  1  0.323333  0.670366  0.000406  1
  Ir  Ir24  1  0.323333  0.670366  0.499594  1
  Ir  Ir25  1  0.676213  0.329575  0.500646  1
  Ir  Ir26  1  0.000371  0.999904  0.999919  1
  Ir  Ir27  1  0.000371  0.999904  0.500081  1
