# generated using pymatgen
data_Yb3Tm(Al3Pt)6
_symmetry_space_group_name_H-M   'P 1'
_cell_length_a   7.61510440
_cell_length_b   7.61538033
_cell_length_c   9.45529300
_cell_angle_alpha   90.00000000
_cell_angle_beta   90.00000000
_cell_angle_gamma   119.65719919
_symmetry_Int_Tables_number   1
_chemical_formula_structural   Yb3Tm(Al3Pt)6
_chemical_formula_sum   'Yb3 Tm1 Al18 Pt6'
_cell_volume   476.50001681
_cell_formula_units_Z   1
loop_
 _symmetry_equiv_pos_site_id
 _symmetry_equiv_pos_as_xyz
  1  'x, y, z'
loop_
 _atom_site_type_symbol
 _atom_site_label
 _atom_site_symmetry_multiplicity
 _atom_site_fract_x
 _atom_site_fract_y
 _atom_site_fract_z
 _atom_site_occupancy
  Yb  Yb0  1  0.003612  0.328482  0.750000  1
  Yb  Yb1  1  0.670750  0.996219  0.250000  1
  Yb  Yb2  1  0.329773  0.004446  0.750000  1
  Tm  Tm3  1  0.996581  0.670575  0.250000  1
  Al  Al4  1  0.130682  0.129001  0.250000  1
  Al  Al5  1  0.868638  0.868639  0.750000  1
  Al  Al6  1  0.999595  0.334894  0.077363  1
  Al  Al7  1  0.000485  0.665080  0.922719  1
  Al  Al8  1  0.000485  0.665080  0.577281  1
  Al  Al9  1  0.334918  0.999834  0.422567  1
  Al  Al10  1  0.999595  0.334894  0.422637  1
  Al  Al11  1  0.665099  0.000137  0.576546  1
  Al  Al12  1  0.665099  0.000137  0.923454  1
  Al  Al13  1  0.334918  0.999834  0.077433  1
  Al  Al14  1  0.332608  0.332630  0.557469  1
  Al  Al15  1  0.667885  0.667717  0.441300  1
  Al  Al16  1  0.667885  0.667717  0.058700  1
  Al  Al17  1  0.332608  0.332630  0.942531  1
  Al  Al18  1  0.338296  0.545564  0.250000  1
  Al  Al19  1  0.659082  0.454472  0.750000  1
  Al  Al20  1  0.547748  0.342897  0.250000  1
  Al  Al21  1  0.453608  0.659135  0.750000  1
  Pt  Pt22  1  0.671982  0.328720  0.000386  1
  Pt  Pt23  1  0.328148  0.671761  0.000634  1
  Pt  Pt24  1  0.328148  0.671761  0.499366  1
  Pt  Pt25  1  0.671982  0.328720  0.499614  1
  Pt  Pt26  1  0.999896  0.999511  0.000562  1
  Pt  Pt27  1  0.999896  0.999511  0.499438  1
