# generated using pymatgen
data_Zr2SnPtRh4
_symmetry_space_group_name_H-M   'P 1'
_cell_length_a   5.66192864
_cell_length_b   5.66192893
_cell_length_c   8.40473000
_cell_angle_alpha   90.00000000
_cell_angle_beta   90.00000000
_cell_angle_gamma   98.20526647
_symmetry_Int_Tables_number   1
_chemical_formula_structural   Zr2SnPtRh4
_chemical_formula_sum   'Zr4 Sn2 Pt2 Rh8'
_cell_volume   266.67594183
_cell_formula_units_Z   2
loop_
 _symmetry_equiv_pos_site_id
 _symmetry_equiv_pos_as_xyz
  1  'x, y, z'
loop_
 _atom_site_type_symbol
 _atom_site_label
 _atom_site_symmetry_multiplicity
 _atom_site_fract_x
 _atom_site_fract_y
 _atom_site_fract_z
 _atom_site_occupancy
  Zr  Zr0  1  0.779649  0.220351  0.500000  1
  Zr  Zr1  1  0.220351  0.779649  0.000000  1
  Zr  Zr2  1  0.220351  0.779649  0.500000  1
  Zr  Zr3  1  0.779649  0.220351  0.000000  1
  Sn  Sn4  1  0.501738  0.501738  0.750000  1
  Sn  Sn5  1  0.498262  0.498262  0.250000  1
  Pt  Pt6  1  0.000252  0.000252  0.250000  1
  Pt  Pt7  1  0.999748  0.999748  0.750000  1
  Rh  Rh8  1  0.729058  0.729058  0.001028  1
  Rh  Rh9  1  0.729058  0.729058  0.498972  1
  Rh  Rh10  1  0.270942  0.270942  0.998972  1
  Rh  Rh11  1  0.270942  0.270942  0.501028  1
  Rh  Rh12  1  0.499988  0.000512  0.750000  1
  Rh  Rh13  1  0.500012  0.999488  0.250000  1
  Rh  Rh14  1  0.000512  0.499988  0.750000  1
  Rh  Rh15  1  0.999488  0.500012  0.250000  1
