# generated using pymatgen
data_Cs2Yb(NbCl3)6
_symmetry_space_group_name_H-M   'P 1'
_cell_length_a   10.41983726
_cell_length_b   10.41983754
_cell_length_c   10.41983727
_cell_angle_alpha   54.91609861
_cell_angle_beta   54.91609622
_cell_angle_gamma   54.91609837
_symmetry_Int_Tables_number   1
_chemical_formula_structural   Cs2Yb(NbCl3)6
_chemical_formula_sum   'Cs2 Yb1 Nb6 Cl18'
_cell_volume   705.30195648
_cell_formula_units_Z   1
loop_
 _symmetry_equiv_pos_site_id
 _symmetry_equiv_pos_as_xyz
  1  'x, y, z'
loop_
 _atom_site_type_symbol
 _atom_site_label
 _atom_site_symmetry_multiplicity
 _atom_site_fract_x
 _atom_site_fract_y
 _atom_site_fract_z
 _atom_site_occupancy
  Cs  Cs0  1  0.723103  0.723103  0.723103  1
  Cs  Cs1  1  0.276897  0.276897  0.276897  1
  Yb  Yb2  1  0.000000  0.000000  0.000000  1
  Nb  Nb3  1  0.583306  0.352023  0.700845  1
  Nb  Nb4  1  0.352023  0.700845  0.583306  1
  Nb  Nb5  1  0.700845  0.583306  0.352023  1
  Nb  Nb6  1  0.647977  0.299155  0.416694  1
  Nb  Nb7  1  0.416694  0.647977  0.299155  1
  Nb  Nb8  1  0.299155  0.416694  0.647977  1
  Cl  Cl9  1  0.909187  0.361064  0.229924  1
  Cl  Cl10  1  0.834328  0.423451  0.562641  1
  Cl  Cl11  1  0.770076  0.090813  0.638936  1
  Cl  Cl12  1  0.090813  0.638936  0.770076  1
  Cl  Cl13  1  0.692354  0.168109  0.955733  1
  Cl  Cl14  1  0.229924  0.909187  0.361064  1
  Cl  Cl15  1  0.437359  0.165672  0.576549  1
  Cl  Cl16  1  0.638936  0.770076  0.090813  1
  Cl  Cl17  1  0.576549  0.437359  0.165672  1
  Cl  Cl18  1  0.044267  0.307646  0.831891  1
  Cl  Cl19  1  0.562641  0.834328  0.423451  1
  Cl  Cl20  1  0.361064  0.229924  0.909187  1
  Cl  Cl21  1  0.955733  0.692354  0.168109  1
  Cl  Cl22  1  0.165672  0.576549  0.437359  1
  Cl  Cl23  1  0.831891  0.044267  0.307646  1
  Cl  Cl24  1  0.423451  0.562641  0.834328  1
  Cl  Cl25  1  0.168109  0.955733  0.692354  1
  Cl  Cl26  1  0.307646  0.831891  0.044267  1
