# generated using pymatgen
data_Yb3(CeOs)2
_symmetry_space_group_name_H-M   'P 1'
_cell_length_a   8.85694149
_cell_length_b   8.85694243
_cell_length_c   7.24871400
_cell_angle_alpha   84.48869376
_cell_angle_beta   84.48868017
_cell_angle_gamma   43.23704249
_symmetry_Int_Tables_number   1
_chemical_formula_structural   Yb3(CeOs)2
_chemical_formula_sum   'Yb6 Ce4 Os4'
_cell_volume   387.43662734
_cell_formula_units_Z   2
loop_
 _symmetry_equiv_pos_site_id
 _symmetry_equiv_pos_as_xyz
  1  'x, y, z'
loop_
 _atom_site_type_symbol
 _atom_site_label
 _atom_site_symmetry_multiplicity
 _atom_site_fract_x
 _atom_site_fract_y
 _atom_site_fract_z
 _atom_site_occupancy
  Yb  Yb0  1  0.362201  0.213163  0.818639  1
  Yb  Yb1  1  0.786837  0.637799  0.681361  1
  Yb  Yb2  1  0.637799  0.786837  0.181361  1
  Yb  Yb3  1  0.213163  0.362201  0.318639  1
  Yb  Yb4  1  0.573601  0.426399  0.750000  1
  Yb  Yb5  1  0.426399  0.573601  0.250000  1
  Ce  Ce6  1  0.006501  0.812699  0.909059  1
  Ce  Ce7  1  0.187301  0.993499  0.590941  1
  Ce  Ce8  1  0.993499  0.187301  0.090941  1
  Ce  Ce9  1  0.812699  0.006501  0.409059  1
  Os  Os10  1  0.135528  0.652708  0.596029  1
  Os  Os11  1  0.347292  0.864472  0.903971  1
  Os  Os12  1  0.864472  0.347292  0.403971  1
  Os  Os13  1  0.652708  0.135528  0.096029  1
