# generated using pymatgen
data_Ho2MnCo2Si5
_symmetry_space_group_name_H-M   'P 1'
_cell_length_a   7.98777674
_cell_length_b   7.98777777
_cell_length_c   7.98777771
_cell_angle_alpha   140.36375218
_cell_angle_beta   107.23391293
_cell_angle_gamma   86.19372172
_symmetry_Int_Tables_number   1
_chemical_formula_structural   Ho2MnCo2Si5
_chemical_formula_sum   'Ho4 Mn2 Co4 Si10'
_cell_volume   299.37235684
_cell_formula_units_Z   2
loop_
 _symmetry_equiv_pos_site_id
 _symmetry_equiv_pos_as_xyz
  1  'x, y, z'
loop_
 _atom_site_type_symbol
 _atom_site_label
 _atom_site_symmetry_multiplicity
 _atom_site_fract_x
 _atom_site_fract_y
 _atom_site_fract_z
 _atom_site_occupancy
  Ho  Ho0  1  0.596268  0.863892  0.732377  1
  Ho  Ho1  1  0.131516  0.363892  0.767623  1
  Ho  Ho2  1  0.868484  0.636108  0.232377  1
  Ho  Ho3  1  0.403732  0.136108  0.267623  1
  Mn  Mn4  1  0.000000  0.250000  0.250000  1
  Mn  Mn5  1  0.000000  0.750000  0.750000  1
  Co  Co6  1  0.262768  0.859285  0.403484  1
  Co  Co7  1  0.544199  0.640715  0.903484  1
  Co  Co8  1  0.455801  0.359285  0.096516  1
  Co  Co9  1  0.737232  0.140715  0.596516  1
  Si  Si10  1  0.782357  0.032357  0.250000  1
  Si  Si11  1  0.217643  0.967643  0.750000  1
  Si  Si12  1  0.782357  0.532357  0.750000  1
  Si  Si13  1  0.929634  0.099024  0.830610  1
  Si  Si14  1  0.070366  0.900976  0.169390  1
  Si  Si15  1  0.500000  0.250000  0.750000  1
  Si  Si16  1  0.500000  0.750000  0.250000  1
  Si  Si17  1  0.731586  0.400976  0.330610  1
  Si  Si18  1  0.268414  0.599024  0.669390  1
  Si  Si19  1  0.217643  0.467643  0.250000  1
