# generated using pymatgen
data_Er4Re5Os3
_symmetry_space_group_name_H-M   'P 1'
_cell_length_a   5.35264362
_cell_length_b   5.27672670
_cell_length_c   8.92934800
_cell_angle_alpha   90.00000000
_cell_angle_beta   90.00000000
_cell_angle_gamma   119.53192957
_symmetry_Int_Tables_number   1
_chemical_formula_structural   Er4Re5Os3
_chemical_formula_sum   'Er4 Re5 Os3'
_cell_volume   219.43830328
_cell_formula_units_Z   1
loop_
 _symmetry_equiv_pos_site_id
 _symmetry_equiv_pos_as_xyz
  1  'x, y, z'
loop_
 _atom_site_type_symbol
 _atom_site_label
 _atom_site_symmetry_multiplicity
 _atom_site_fract_x
 _atom_site_fract_y
 _atom_site_fract_z
 _atom_site_occupancy
  Er  Er0  1  0.333782  0.666891  0.435653  1
  Er  Er1  1  0.668970  0.334485  0.565081  1
  Er  Er2  1  0.668970  0.334485  0.934919  1
  Er  Er3  1  0.333782  0.666891  0.064347  1
  Re  Re4  1  0.828681  0.169261  0.250000  1
  Re  Re5  1  0.828681  0.659420  0.250000  1
  Re  Re6  1  0.343973  0.171987  0.250000  1
  Re  Re7  1  0.162309  0.827849  0.750000  1
  Re  Re8  1  0.162309  0.334460  0.750000  1
  Os  Os9  1  0.012702  0.006351  0.499986  1
  Os  Os10  1  0.012702  0.006351  0.000014  1
  Os  Os11  1  0.643138  0.821569  0.750000  1
