# generated using pymatgen
data_Ce4Co5Si10Os
_symmetry_space_group_name_H-M   'P 1'
_cell_length_a   7.98057268
_cell_length_b   7.98057308
_cell_length_c   7.98057352
_cell_angle_alpha   138.51448625
_cell_angle_beta   105.24830474
_cell_angle_gamma   89.30521630
_symmetry_Int_Tables_number   1
_chemical_formula_structural   Ce4Co5Si10Os
_chemical_formula_sum   'Ce4 Co5 Si10 Os1'
_cell_volume   310.95511422
_cell_formula_units_Z   1
loop_
 _symmetry_equiv_pos_site_id
 _symmetry_equiv_pos_as_xyz
  1  'x, y, z'
loop_
 _atom_site_type_symbol
 _atom_site_label
 _atom_site_symmetry_multiplicity
 _atom_site_fract_x
 _atom_site_fract_y
 _atom_site_fract_z
 _atom_site_occupancy
  Ce  Ce0  1  0.866394  0.635417  0.239799  1
  Ce  Ce1  1  0.133606  0.373405  0.769023  1
  Ce  Ce2  1  0.395618  0.126595  0.260201  1
  Ce  Ce3  1  0.604382  0.864583  0.730977  1
  Co  Co4  1  0.000000  0.250000  0.250000  1
  Co  Co5  1  0.249797  0.866300  0.389348  1
  Co  Co6  1  0.750203  0.139551  0.616504  1
  Co  Co7  1  0.476952  0.360449  0.110652  1
  Co  Co8  1  0.523048  0.633700  0.883496  1
  Si  Si9  1  0.500000  0.750000  0.250000  1
  Si  Si10  1  0.500000  0.250000  0.750000  1
  Si  Si11  1  0.232995  0.982995  0.750000  1
  Si  Si12  1  0.767005  0.517005  0.750000  1
  Si  Si13  1  0.764800  0.014800  0.250000  1
  Si  Si14  1  0.235200  0.485200  0.250000  1
  Si  Si15  1  0.047906  0.903610  0.164322  1
  Si  Si16  1  0.952094  0.116418  0.855706  1
  Si  Si17  1  0.739288  0.383582  0.335678  1
  Si  Si18  1  0.260712  0.596390  0.644294  1
  Os  Os19  1  0.000000  0.750000  0.750000  1
