# generated using pymatgen
data_MgSc2Al3Si2Ir
_symmetry_space_group_name_H-M   'P 1'
_cell_length_a   6.64064300
_cell_length_b   6.61762420
_cell_length_c   4.07314000
_cell_angle_alpha   90.00000000
_cell_angle_beta   90.00000000
_cell_angle_gamma   120.11513668
_symmetry_Int_Tables_number   1
_chemical_formula_structural   MgSc2Al3Si2Ir
_chemical_formula_sum   'Mg1 Sc2 Al3 Si2 Ir1'
_cell_volume   154.83429749
_cell_formula_units_Z   1
loop_
 _symmetry_equiv_pos_site_id
 _symmetry_equiv_pos_as_xyz
  1  'x, y, z'
loop_
 _atom_site_type_symbol
 _atom_site_label
 _atom_site_symmetry_multiplicity
 _atom_site_fract_x
 _atom_site_fract_y
 _atom_site_fract_z
 _atom_site_occupancy
  Mg  Mg0  1  0.415005  0.000000  0.000000  1
  Sc  Sc1  1  0.000015  0.421513  0.000000  1
  Sc  Sc2  1  0.578502  0.578487  0.000000  1
  Al  Al3  1  0.760535  0.000000  0.500000  1
  Al  Al4  1  0.238889  0.240173  0.500000  1
  Al  Al5  1  0.998716  0.759826  0.500000  1
  Si  Si6  1  0.670597  0.334950  0.500000  1
  Si  Si7  1  0.335645  0.665049  0.500000  1
  Ir  Ir8  1  0.002095  0.000000  0.000000  1
