# generated using pymatgen
data_Zr16Fe4PdPt3
_symmetry_space_group_name_H-M   'P 1'
_cell_length_a   8.70571902
_cell_length_b   8.70571871
_cell_length_c   8.70571900
_cell_angle_alpha   60.04001382
_cell_angle_beta   60.04001500
_cell_angle_gamma   60.04001788
_symmetry_Int_Tables_number   1
_chemical_formula_structural   Zr16Fe4PdPt3
_chemical_formula_sum   'Zr16 Fe4 Pd1 Pt3'
_cell_volume   466.97395693
_cell_formula_units_Z   1
loop_
 _symmetry_equiv_pos_site_id
 _symmetry_equiv_pos_as_xyz
  1  'x, y, z'
loop_
 _atom_site_type_symbol
 _atom_site_label
 _atom_site_symmetry_multiplicity
 _atom_site_fract_x
 _atom_site_fract_y
 _atom_site_fract_z
 _atom_site_occupancy
  Zr  Zr0  1  0.061419  0.646377  0.646377  1
  Zr  Zr1  1  0.646377  0.061419  0.646377  1
  Zr  Zr2  1  0.646377  0.646377  0.061419  1
  Zr  Zr3  1  0.645338  0.645338  0.645338  1
  Zr  Zr4  1  0.808889  0.808889  0.191105  1
  Zr  Zr5  1  0.190231  0.190231  0.809690  1
  Zr  Zr6  1  0.808889  0.191105  0.808889  1
  Zr  Zr7  1  0.190231  0.809690  0.190231  1
  Zr  Zr8  1  0.191105  0.808889  0.808889  1
  Zr  Zr9  1  0.809690  0.190231  0.190231  1
  Zr  Zr10  1  0.439294  0.439294  0.060679  1
  Zr  Zr11  1  0.060552  0.060552  0.439584  1
  Zr  Zr12  1  0.439294  0.060679  0.439294  1
  Zr  Zr13  1  0.060552  0.439584  0.060552  1
  Zr  Zr14  1  0.060679  0.439294  0.439294  1
  Zr  Zr15  1  0.439584  0.060552  0.060552  1
  Fe  Fe16  1  0.426283  0.857566  0.857566  1
  Fe  Fe17  1  0.857566  0.426283  0.857566  1
  Fe  Fe18  1  0.857566  0.857566  0.426283  1
  Fe  Fe19  1  0.857820  0.857820  0.857820  1
  Pd  Pd20  1  0.416018  0.416018  0.416018  1
  Pt  Pt21  1  0.761902  0.412173  0.412173  1
  Pt  Pt22  1  0.412173  0.761902  0.412173  1
  Pt  Pt23  1  0.412173  0.412173  0.761902  1
