# generated using pymatgen
data_Dy2Pa2(Al8Pt3)3
_symmetry_space_group_name_H-M   'P 1'
_cell_length_a   7.57135761
_cell_length_b   7.57974896
_cell_length_c   13.12361679
_cell_angle_alpha   84.48941746
_cell_angle_beta   78.91588614
_cell_angle_gamma   59.92101382
_symmetry_Int_Tables_number   1
_chemical_formula_structural   Dy2Pa2(Al8Pt3)3
_chemical_formula_sum   'Dy2 Pa2 Al24 Pt9'
_cell_volume   639.57086040
_cell_formula_units_Z   1
loop_
 _symmetry_equiv_pos_site_id
 _symmetry_equiv_pos_as_xyz
  1  'x, y, z'
loop_
 _atom_site_type_symbol
 _atom_site_label
 _atom_site_symmetry_multiplicity
 _atom_site_fract_x
 _atom_site_fract_y
 _atom_site_fract_z
 _atom_site_occupancy
  Dy  Dy0  1  0.733899  0.498454  0.807963  1
  Dy  Dy1  1  0.266101  0.501546  0.192037  1
  Pa  Pa2  1  0.395031  0.168201  0.805067  1
  Pa  Pa3  1  0.604969  0.831799  0.194933  1
  Al  Al4  1  0.684359  0.833546  0.944553  1
  Al  Al5  1  0.315641  0.166454  0.055447  1
  Al  Al6  1  0.145843  0.832679  0.561310  1
  Al  Al7  1  0.854157  0.167321  0.438690  1
  Al  Al8  1  0.480398  0.167429  0.558220  1
  Al  Al9  1  0.519602  0.832571  0.441780  1
  Al  Al10  1  0.215023  0.167544  0.330807  1
  Al  Al11  1  0.784977  0.832456  0.669193  1
  Al  Al12  1  0.437778  0.508573  0.669792  1
  Al  Al13  1  0.562222  0.491427  0.330208  1
  Al  Al14  1  0.107932  0.159876  0.668309  1
  Al  Al15  1  0.892068  0.840124  0.331691  1
  Al  Al16  1  0.353360  0.499382  0.943630  1
  Al  Al17  1  0.646640  0.500618  0.056370  1
  Al  Al18  1  0.015376  0.167880  0.952456  1
  Al  Al19  1  0.984624  0.832120  0.047544  1
  Al  Al20  1  0.185845  0.499964  0.441230  1
  Al  Al21  1  0.814155  0.500036  0.558770  1
  Al  Al22  1  0.736102  0.162686  0.182924  1
  Al  Al23  1  0.263898  0.837314  0.817076  1
  Al  Al24  1  0.062678  0.631146  0.815875  1
  Al  Al25  1  0.937322  0.368854  0.184125  1
  Al  Al26  1  0.855046  0.040481  0.816665  1
  Al  Al27  1  0.144954  0.959519  0.183335  1
  Pt  Pt28  1  0.120144  0.491292  0.639760  1
  Pt  Pt29  1  0.879856  0.508708  0.360240  1
  Pt  Pt30  1  0.656896  0.172444  0.999995  1
  Pt  Pt31  1  0.343104  0.827556  0.000005  1
  Pt  Pt32  1  0.537587  0.166318  0.360592  1
  Pt  Pt33  1  0.462413  0.833682  0.639408  1
  Pt  Pt34  1  0.778237  0.175231  0.638413  1
  Pt  Pt35  1  0.221763  0.824769  0.361587  1
  Pt  Pt36  1  0.000000  0.500000  0.000000  1
