# generated using pymatgen
data_Er3Mg2ZnSi2Ag
_symmetry_space_group_name_H-M   'P 1'
_cell_length_a   7.07897360
_cell_length_b   7.07897351
_cell_length_c   4.32871200
_cell_angle_alpha   90.00000000
_cell_angle_beta   90.00000000
_cell_angle_gamma   120.49706132
_symmetry_Int_Tables_number   1
_chemical_formula_structural   Er3Mg2ZnSi2Ag
_chemical_formula_sum   'Er3 Mg2 Zn1 Si2 Ag1'
_cell_volume   186.91010442
_cell_formula_units_Z   1
loop_
 _symmetry_equiv_pos_site_id
 _symmetry_equiv_pos_as_xyz
  1  'x, y, z'
loop_
 _atom_site_type_symbol
 _atom_site_label
 _atom_site_symmetry_multiplicity
 _atom_site_fract_x
 _atom_site_fract_y
 _atom_site_fract_z
 _atom_site_occupancy
  Er  Er0  1  0.432382  0.432382  0.500000  1
  Er  Er1  1  0.576932  0.999399  0.500000  1
  Er  Er2  1  0.999399  0.576932  0.500000  1
  Mg  Mg3  1  0.242058  0.996986  0.000000  1
  Mg  Mg4  1  0.996986  0.242058  0.000000  1
  Zn  Zn5  1  0.745941  0.745941  0.000000  1
  Si  Si6  1  0.669159  0.341652  0.000000  1
  Si  Si7  1  0.341652  0.669159  0.000000  1
  Ag  Ag8  1  0.995492  0.995492  0.500000  1
