# generated using pymatgen
data_Pr4Ho4Co3Si12Rh
_symmetry_space_group_name_H-M   'P 1'
_cell_length_a   8.10355975
_cell_length_b   8.09004396
_cell_length_c   8.17654400
_cell_angle_alpha   90.00000188
_cell_angle_beta   89.99973863
_cell_angle_gamma   119.94485178
_symmetry_Int_Tables_number   1
_chemical_formula_structural   Pr4Ho4Co3Si12Rh
_chemical_formula_sum   'Pr4 Ho4 Co3 Si12 Rh1'
_cell_volume   464.48126792
_cell_formula_units_Z   1
loop_
 _symmetry_equiv_pos_site_id
 _symmetry_equiv_pos_as_xyz
  1  'x, y, z'
loop_
 _atom_site_type_symbol
 _atom_site_label
 _atom_site_symmetry_multiplicity
 _atom_site_fract_x
 _atom_site_fract_y
 _atom_site_fract_z
 _atom_site_occupancy
  Pr  Pr0  1  0.999540  0.999770  0.251058  1
  Pr  Pr1  1  0.999463  0.999731  0.748512  1
  Pr  Pr2  1  0.504805  0.494859  0.251311  1
  Pr  Pr3  1  0.504805  0.009946  0.251311  1
  Ho  Ho4  1  0.996718  0.498359  0.251470  1
  Ho  Ho5  1  0.496366  0.503946  0.749945  1
  Ho  Ho6  1  0.496366  0.992420  0.749945  1
  Ho  Ho7  1  0.007175  0.503587  0.750349  1
  Co  Co8  1  0.331924  0.665963  0.484472  1
  Co  Co9  1  0.666913  0.333456  0.543569  1
  Co  Co10  1  0.666712  0.333356  0.956684  1
  Si  Si11  1  0.171387  0.825618  0.506541  1
  Si  Si12  1  0.171387  0.345768  0.506541  1
  Si  Si13  1  0.655266  0.827633  0.507785  1
  Si  Si14  1  0.828553  0.175478  0.502745  1
  Si  Si15  1  0.828553  0.653077  0.502745  1
  Si  Si16  1  0.344412  0.172207  0.507247  1
  Si  Si17  1  0.827785  0.175467  0.997568  1
  Si  Si18  1  0.827785  0.652318  0.997568  1
  Si  Si19  1  0.345191  0.172595  0.992971  1
  Si  Si20  1  0.165568  0.831949  0.992775  1
  Si  Si21  1  0.165568  0.333617  0.992775  1
  Si  Si22  1  0.666436  0.833217  0.991431  1
  Rh  Rh23  1  0.331321  0.665661  0.012679  1
