# generated using pymatgen
data_Y8OsRu3C8
_symmetry_space_group_name_H-M   'P 1'
_cell_length_a   5.13356700
_cell_length_b   6.45971421
_cell_length_c   9.81218296
_cell_angle_alpha   89.88528655
_cell_angle_beta   90.00000000
_cell_angle_gamma   90.00000000
_symmetry_Int_Tables_number   1
_chemical_formula_structural   Y8OsRu3C8
_chemical_formula_sum   'Y8 Os1 Ru3 C8'
_cell_volume   325.38483331
_cell_formula_units_Z   1
loop_
 _symmetry_equiv_pos_site_id
 _symmetry_equiv_pos_as_xyz
  1  'x, y, z'
loop_
 _atom_site_type_symbol
 _atom_site_label
 _atom_site_symmetry_multiplicity
 _atom_site_fract_x
 _atom_site_fract_y
 _atom_site_fract_z
 _atom_site_occupancy
  Y  Y0  1  0.250000  0.683064  0.553786  1
  Y  Y1  1  0.750000  0.319091  0.447043  1
  Y  Y2  1  0.750000  0.820394  0.054087  1
  Y  Y3  1  0.250000  0.179427  0.946586  1
  Y  Y4  1  0.250000  0.526193  0.216596  1
  Y  Y5  1  0.750000  0.473375  0.782673  1
  Y  Y6  1  0.750000  0.973935  0.718685  1
  Y  Y7  1  0.250000  0.025508  0.281181  1
  Os  Os8  1  0.250000  0.222752  0.634982  1
  Ru  Ru9  1  0.250000  0.722476  0.865362  1
  Ru  Ru10  1  0.750000  0.278463  0.135423  1
  Ru  Ru11  1  0.750000  0.777412  0.365001  1
  C  C12  1  0.250000  0.457746  0.756010  1
  C  C13  1  0.750000  0.541494  0.243325  1
  C  C14  1  0.750000  0.042036  0.257850  1
  C  C15  1  0.250000  0.959291  0.740799  1
  C  C16  1  0.250000  0.824690  0.052548  1
  C  C17  1  0.750000  0.174855  0.947319  1
  C  C18  1  0.750000  0.675394  0.552946  1
  C  C19  1  0.250000  0.322404  0.447798  1
