# generated using pymatgen
data_Yb3Zn2Pd7
_symmetry_space_group_name_H-M   'P 1'
_cell_length_a   9.06111717
_cell_length_b   9.06111569
_cell_length_c   9.06111700
_cell_angle_alpha   35.68455348
_cell_angle_beta   35.68456648
_cell_angle_gamma   35.68456327
_symmetry_Int_Tables_number   1
_chemical_formula_structural   Yb3Zn2Pd7
_chemical_formula_sum   'Yb3 Zn2 Pd7'
_cell_volume   226.29152246
_cell_formula_units_Z   1
loop_
 _symmetry_equiv_pos_site_id
 _symmetry_equiv_pos_as_xyz
  1  'x, y, z'
loop_
 _atom_site_type_symbol
 _atom_site_label
 _atom_site_symmetry_multiplicity
 _atom_site_fract_x
 _atom_site_fract_y
 _atom_site_fract_z
 _atom_site_occupancy
  Yb  Yb0  1  0.359425  0.359425  0.359425  1
  Yb  Yb1  1  0.500000  0.500000  0.500000  1
  Yb  Yb2  1  0.640575  0.640575  0.640575  1
  Zn  Zn3  1  0.166445  0.166445  0.166445  1
  Zn  Zn4  1  0.833555  0.833555  0.833555  1
  Pd  Pd5  1  0.000000  0.000000  0.000000  1
  Pd  Pd6  1  0.577733  0.081008  0.081008  1
  Pd  Pd7  1  0.081008  0.577733  0.081008  1
  Pd  Pd8  1  0.918992  0.918992  0.422267  1
  Pd  Pd9  1  0.081008  0.081008  0.577733  1
  Pd  Pd10  1  0.918992  0.422267  0.918992  1
  Pd  Pd11  1  0.422267  0.918992  0.918992  1
