# generated using pymatgen
data_SmZnGaCu3
_symmetry_space_group_name_H-M   'P 1'
_cell_length_a   5.08797302
_cell_length_b   5.13454663
_cell_length_c   4.18730800
_cell_angle_alpha   90.00000000
_cell_angle_beta   90.00000000
_cell_angle_gamma   118.56046626
_symmetry_Int_Tables_number   1
_chemical_formula_structural   SmZnGaCu3
_chemical_formula_sum   'Sm1 Zn1 Ga1 Cu3'
_cell_volume   96.07959197
_cell_formula_units_Z   1
loop_
 _symmetry_equiv_pos_site_id
 _symmetry_equiv_pos_as_xyz
  1  'x, y, z'
loop_
 _atom_site_type_symbol
 _atom_site_label
 _atom_site_symmetry_multiplicity
 _atom_site_fract_x
 _atom_site_fract_y
 _atom_site_fract_z
 _atom_site_occupancy
  Sm  Sm0  1  0.500000  0.500000  0.000000  1
  Zn  Zn1  1  0.000000  0.500000  0.500000  1
  Ga  Ga2  1  0.500000  0.000000  0.500000  1
  Cu  Cu3  1  0.163872  0.837072  0.000000  1
  Cu  Cu4  1  0.836128  0.162928  0.000000  1
  Cu  Cu5  1  0.000000  0.000000  0.500000  1
