# generated using pymatgen
data_Mg3GeP7N12
_symmetry_space_group_name_H-M   'P 1'
_cell_length_a   7.26127532
_cell_length_b   7.26127553
_cell_length_c   7.26127556
_cell_angle_alpha   109.49367319
_cell_angle_beta   109.49367180
_cell_angle_gamma   109.49366544
_symmetry_Int_Tables_number   1
_chemical_formula_structural   Mg3GeP7N12
_chemical_formula_sum   'Mg3 Ge1 P7 N12'
_cell_volume   294.47969118
_cell_formula_units_Z   1
loop_
 _symmetry_equiv_pos_site_id
 _symmetry_equiv_pos_as_xyz
  1  'x, y, z'
loop_
 _atom_site_type_symbol
 _atom_site_label
 _atom_site_symmetry_multiplicity
 _atom_site_fract_x
 _atom_site_fract_y
 _atom_site_fract_z
 _atom_site_occupancy
  Mg  Mg0  1  0.001730  0.656372  0.001730  1
  Mg  Mg1  1  0.656372  0.001730  0.001730  1
  Mg  Mg2  1  0.001730  0.001730  0.656372  1
  Ge  Ge3  1  0.328984  0.328984  0.328984  1
  P  P4  1  0.500431  0.250737  0.752103  1
  P  P5  1  0.500431  0.752103  0.250737  1
  P  P6  1  0.752103  0.250737  0.500431  1
  P  P7  1  0.250737  0.500431  0.752103  1
  P  P8  1  0.752103  0.500431  0.250737  1
  P  P9  1  0.250737  0.752103  0.500431  1
  P  P10  1  0.995702  0.995702  0.995702  1
  N  N11  1  0.000864  0.724087  0.437359  1
  N  N12  1  0.276728  0.710957  0.276728  1
  N  N13  1  0.289156  0.565374  0.565374  1
  N  N14  1  0.565374  0.565374  0.289156  1
  N  N15  1  0.565374  0.289156  0.565374  1
  N  N16  1  0.724087  0.000864  0.437359  1
  N  N17  1  0.437359  0.000864  0.724087  1
  N  N18  1  0.724087  0.437359  0.000864  1
  N  N19  1  0.276728  0.276728  0.710957  1
  N  N20  1  0.710957  0.276728  0.276728  1
  N  N21  1  0.000864  0.437359  0.724087  1
  N  N22  1  0.437359  0.724087  0.000864  1
