# generated using pymatgen
data_La8Y3Lu9Sn16
_symmetry_space_group_name_H-M   'P 1'
_cell_length_a   8.11300434
_cell_length_b   8.34190399
_cell_length_c   15.69494800
_cell_angle_alpha   90.12945627
_cell_angle_beta   90.07706997
_cell_angle_gamma   90.09159491
_symmetry_Int_Tables_number   1
_chemical_formula_structural   La8Y3Lu9Sn16
_chemical_formula_sum   'La8 Y3 Lu9 Sn16'
_cell_volume   1062.19613827
_cell_formula_units_Z   1
loop_
 _symmetry_equiv_pos_site_id
 _symmetry_equiv_pos_as_xyz
  1  'x, y, z'
loop_
 _atom_site_type_symbol
 _atom_site_label
 _atom_site_symmetry_multiplicity
 _atom_site_fract_x
 _atom_site_fract_y
 _atom_site_fract_z
 _atom_site_occupancy
  La  La0  1  0.509399  0.326579  0.905753  1
  La  La1  1  0.008767  0.173655  0.596447  1
  La  La2  1  0.492288  0.673923  0.401623  1
  La  La3  1  0.991522  0.825613  0.095594  1
  La  La4  1  0.493327  0.674142  0.096411  1
  La  La5  1  0.992915  0.826413  0.402300  1
  La  La6  1  0.505700  0.324520  0.596096  1
  La  La7  1  0.007344  0.176656  0.905121  1
  Y  Y8  1  0.154478  0.335091  0.373448  1
  Y  Y9  1  0.345763  0.836779  0.624581  1
  Y  Y10  1  0.844338  0.663311  0.878355  1
  Lu  Lu11  1  0.343384  0.836225  0.873704  1
  Lu  Lu12  1  0.842098  0.665010  0.627096  1
  Lu  Lu13  1  0.657444  0.164032  0.372151  1
  Lu  Lu14  1  0.157178  0.338088  0.125468  1
  Lu  Lu15  1  0.654257  0.161692  0.126595  1
  Lu  Lu16  1  0.176549  0.502808  0.751808  1
  Lu  Lu17  1  0.677012  0.997640  0.749820  1
  Lu  Lu18  1  0.822625  0.497041  0.249899  1
  Lu  Lu19  1  0.323184  0.003075  0.248184  1
  Sn  Sn20  1  0.319524  0.042700  0.042342  1
  Sn  Sn21  1  0.815092  0.457616  0.458461  1
  Sn  Sn22  1  0.686229  0.957521  0.540798  1
  Sn  Sn23  1  0.187545  0.543556  0.958683  1
  Sn  Sn24  1  0.675284  0.961325  0.958093  1
  Sn  Sn25  1  0.174614  0.540677  0.544086  1
  Sn  Sn26  1  0.323927  0.040004  0.454329  1
  Sn  Sn27  1  0.818911  0.453844  0.046201  1
  Sn  Sn28  1  0.540197  0.626853  0.750417  1
  Sn  Sn29  1  0.039237  0.872906  0.751348  1
  Sn  Sn30  1  0.461180  0.370891  0.248381  1
  Sn  Sn31  1  0.959054  0.127306  0.246922  1
  Sn  Sn32  1  0.315244  0.145255  0.751760  1
  Sn  Sn33  1  0.814920  0.355605  0.749769  1
  Sn  Sn34  1  0.684868  0.856866  0.249701  1
  Sn  Sn35  1  0.184600  0.644780  0.248255  1
