# generated using pymatgen
data_La14Ag51
_symmetry_space_group_name_H-M   'P 1'
_cell_length_a   13.09070200
_cell_length_b   13.09070108
_cell_length_c   9.56131700
_cell_angle_alpha   90.00000000
_cell_angle_beta   90.00000000
_cell_angle_gamma   119.99999727
_symmetry_Int_Tables_number   1
_chemical_formula_structural   La14Ag51
_chemical_formula_sum   'La14 Ag51'
_cell_volume   1418.97323408
_cell_formula_units_Z   1
loop_
 _symmetry_equiv_pos_site_id
 _symmetry_equiv_pos_as_xyz
  1  'x, y, z'
loop_
 _atom_site_type_symbol
 _atom_site_label
 _atom_site_symmetry_multiplicity
 _atom_site_fract_x
 _atom_site_fract_y
 _atom_site_fract_z
 _atom_site_occupancy
  La  La0  1  0.466250  0.327480  0.500000  1
  La  La1  1  0.861231  0.533750  0.500000  1
  La  La2  1  0.672520  0.138769  0.500000  1
  La  La3  1  0.532077  0.672324  0.500000  1
  La  La4  1  0.140247  0.467923  0.500000  1
  La  La5  1  0.327676  0.859753  0.500000  1
  La  La6  1  0.113806  0.729908  0.000000  1
  La  La7  1  0.616102  0.886194  0.000000  1
  La  La8  1  0.270092  0.383898  0.000000  1
  La  La9  1  0.882465  0.282192  0.000000  1
  La  La10  1  0.399728  0.117535  0.000000  1
  La  La11  1  0.717808  0.600272  0.000000  1
  La  La12  1  0.000000  0.000000  0.698485  1
  La  La13  1  0.000000  0.000000  0.301515  1
  Ag  Ag14  1  0.494372  0.378915  0.845645  1
  Ag  Ag15  1  0.884543  0.505628  0.845645  1
  Ag  Ag16  1  0.621085  0.115457  0.845645  1
  Ag  Ag17  1  0.502046  0.618628  0.847249  1
  Ag  Ag18  1  0.116583  0.497954  0.847249  1
  Ag  Ag19  1  0.381372  0.883417  0.847249  1
  Ag  Ag20  1  0.502046  0.618628  0.152751  1
  Ag  Ag21  1  0.116583  0.497954  0.152751  1
  Ag  Ag22  1  0.381372  0.883417  0.152751  1
  Ag  Ag23  1  0.494372  0.378915  0.154355  1
  Ag  Ag24  1  0.884543  0.505628  0.154355  1
  Ag  Ag25  1  0.621085  0.115457  0.154355  1
  Ag  Ag26  1  0.666667  0.333333  0.000000  1
  Ag  Ag27  1  0.333333  0.666667  0.000000  1
  Ag  Ag28  1  0.105433  0.668046  0.670643  1
  Ag  Ag29  1  0.562613  0.894567  0.670643  1
  Ag  Ag30  1  0.331954  0.437387  0.670643  1
  Ag  Ag31  1  0.894620  0.333529  0.669098  1
  Ag  Ag32  1  0.438909  0.105380  0.669098  1
  Ag  Ag33  1  0.666471  0.561091  0.669098  1
  Ag  Ag34  1  0.894620  0.333529  0.330902  1
  Ag  Ag35  1  0.438909  0.105380  0.330902  1
  Ag  Ag36  1  0.666471  0.561091  0.330902  1
  Ag  Ag37  1  0.105433  0.668046  0.329357  1
  Ag  Ag38  1  0.562613  0.894567  0.329357  1
  Ag  Ag39  1  0.331954  0.437387  0.329357  1
  Ag  Ag40  1  0.196359  0.927277  0.758911  1
  Ag  Ag41  1  0.730918  0.803641  0.758911  1
  Ag  Ag42  1  0.072723  0.269082  0.758911  1
  Ag  Ag43  1  0.806985  0.073428  0.763529  1
  Ag  Ag44  1  0.266443  0.193015  0.763529  1
  Ag  Ag45  1  0.926572  0.733557  0.763529  1
  Ag  Ag46  1  0.806985  0.073428  0.236471  1
  Ag  Ag47  1  0.266443  0.193015  0.236471  1
  Ag  Ag48  1  0.926572  0.733557  0.236471  1
  Ag  Ag49  1  0.196359  0.927277  0.241089  1
  Ag  Ag50  1  0.730918  0.803641  0.241089  1
  Ag  Ag51  1  0.072723  0.269082  0.241089  1
  Ag  Ag52  1  0.666667  0.333333  0.706864  1
  Ag  Ag53  1  0.333333  0.666667  0.707277  1
  Ag  Ag54  1  0.333333  0.666667  0.292723  1
  Ag  Ag55  1  0.666667  0.333333  0.293136  1
  Ag  Ag56  1  0.061470  0.822342  0.500000  1
  Ag  Ag57  1  0.760872  0.938530  0.500000  1
  Ag  Ag58  1  0.177658  0.239128  0.500000  1
  Ag  Ag59  1  0.937967  0.177748  0.500000  1
  Ag  Ag60  1  0.239781  0.062033  0.500000  1
  Ag  Ag61  1  0.822252  0.760219  0.500000  1
  Ag  Ag62  1  0.134518  0.021343  0.000000  1
  Ag  Ag63  1  0.886824  0.865482  0.000000  1
  Ag  Ag64  1  0.978657  0.113176  0.000000  1
