# generated using pymatgen
data_Ce4HgIr3Pb2
_symmetry_space_group_name_H-M   'P 1'
_cell_length_a   8.04214131
_cell_length_b   8.04214142
_cell_length_c   3.71453800
_cell_angle_alpha   90.00000000
_cell_angle_beta   90.00000000
_cell_angle_gamma   88.62279467
_symmetry_Int_Tables_number   1
_chemical_formula_structural   Ce4HgIr3Pb2
_chemical_formula_sum   'Ce4 Hg1 Ir3 Pb2'
_cell_volume   240.17220143
_cell_formula_units_Z   1
loop_
 _symmetry_equiv_pos_site_id
 _symmetry_equiv_pos_as_xyz
  1  'x, y, z'
loop_
 _atom_site_type_symbol
 _atom_site_label
 _atom_site_symmetry_multiplicity
 _atom_site_fract_x
 _atom_site_fract_y
 _atom_site_fract_z
 _atom_site_occupancy
  Ce  Ce0  1  0.643850  0.143850  0.500000  1
  Ce  Ce1  1  0.198552  0.338184  0.500000  1
  Ce  Ce2  1  0.838184  0.698552  0.500000  1
  Ce  Ce3  1  0.324514  0.824514  0.500000  1
  Hg  Hg4  1  0.870766  0.370766  0.000000  1
  Ir  Ir5  1  0.364074  0.127905  0.000000  1
  Ir  Ir6  1  0.122802  0.622802  0.000000  1
  Ir  Ir7  1  0.627905  0.864074  0.000000  1
  Pb  Pb8  1  0.007833  0.001520  0.000000  1
  Pb  Pb9  1  0.501520  0.507833  0.000000  1
