# generated using pymatgen
data_Cs3CoO3
_symmetry_space_group_name_H-M   'P 1'
_cell_length_a   7.22196100
_cell_length_b   7.65302996
_cell_length_c   12.07213600
_cell_angle_alpha   90.00004492
_cell_angle_beta   90.00019834
_cell_angle_gamma   104.46119404
_symmetry_Int_Tables_number   1
_chemical_formula_structural   Cs3CoO3
_chemical_formula_sum   'Cs12 Co4 O12'
_cell_volume   646.08584689
_cell_formula_units_Z   4
loop_
 _symmetry_equiv_pos_site_id
 _symmetry_equiv_pos_as_xyz
  1  'x, y, z'
loop_
 _atom_site_type_symbol
 _atom_site_label
 _atom_site_symmetry_multiplicity
 _atom_site_fract_x
 _atom_site_fract_y
 _atom_site_fract_z
 _atom_site_occupancy
  Cs  Cs0  1  0.453162  0.498339  0.703174  1
  Cs  Cs1  1  0.546841  0.001660  0.203174  1
  Cs  Cs2  1  0.546839  0.501661  0.296826  1
  Cs  Cs3  1  0.453163  0.998340  0.796826  1
  Cs  Cs4  1  0.670450  0.365096  0.990214  1
  Cs  Cs5  1  0.329548  0.134905  0.490211  1
  Cs  Cs6  1  0.329555  0.634907  0.009789  1
  Cs  Cs7  1  0.670446  0.865096  0.509787  1
  Cs  Cs8  1  0.979021  0.085644  0.743932  1
  Cs  Cs9  1  0.020979  0.414357  0.243930  1
  Cs  Cs10  1  0.020978  0.914358  0.256070  1
  Cs  Cs11  1  0.979026  0.585643  0.756072  1
  Co  Co12  1  0.837119  0.343525  0.508768  1
  Co  Co13  1  0.162883  0.156472  0.008770  1
  Co  Co14  1  0.162874  0.656474  0.491231  1
  Co  Co15  1  0.837124  0.843527  0.991230  1
  O  O16  1  0.883656  0.100530  0.034255  1
  O  O17  1  0.116346  0.399469  0.534254  1
  O  O18  1  0.116347  0.899470  0.965743  1
  O  O19  1  0.883650  0.600533  0.465742  1
  O  O20  1  0.704895  0.269898  0.636113  1
  O  O21  1  0.295107  0.230097  0.136115  1
  O  O22  1  0.295098  0.730103  0.363886  1
  O  O23  1  0.704898  0.769894  0.863887  1
  O  O24  1  0.252463  0.297112  0.888248  1
  O  O25  1  0.747534  0.202891  0.388243  1
  O  O26  1  0.747536  0.702894  0.111755  1
  O  O27  1  0.252462  0.797107  0.611754  1
