# generated using pymatgen
data_Tb4SmTl3InPd2
_symmetry_space_group_name_H-M   'P 1'
_cell_length_a   3.65892100
_cell_length_b   8.25814666
_cell_length_c   18.51950514
_cell_angle_alpha   89.93427712
_cell_angle_beta   90.00000000
_cell_angle_gamma   90.00000000
_symmetry_Int_Tables_number   1
_chemical_formula_structural   Tb4SmTl3InPd2
_chemical_formula_sum   'Tb8 Sm2 Tl6 In2 Pd4'
_cell_volume   559.58326278
_cell_formula_units_Z   2
loop_
 _symmetry_equiv_pos_site_id
 _symmetry_equiv_pos_as_xyz
  1  'x, y, z'
loop_
 _atom_site_type_symbol
 _atom_site_label
 _atom_site_symmetry_multiplicity
 _atom_site_fract_x
 _atom_site_fract_y
 _atom_site_fract_z
 _atom_site_occupancy
  Tb  Tb0  1  0.000000  0.739397  0.281637  1
  Tb  Tb1  1  0.000000  0.260603  0.718363  1
  Tb  Tb2  1  0.000000  0.760349  0.782114  1
  Tb  Tb3  1  0.000000  0.239651  0.217886  1
  Tb  Tb4  1  0.000000  0.619883  0.084696  1
  Tb  Tb5  1  0.000000  0.380117  0.915304  1
  Tb  Tb6  1  0.000000  0.881541  0.585427  1
  Tb  Tb7  1  0.000000  0.118459  0.414573  1
  Sm  Sm8  1  0.000000  0.500000  0.500000  1
  Sm  Sm9  1  0.000000  0.000000  0.000000  1
  Tl  Tl10  1  0.500000  0.704919  0.932545  1
  Tl  Tl11  1  0.500000  0.295081  0.067455  1
  Tl  Tl12  1  0.500000  0.797045  0.433276  1
  Tl  Tl13  1  0.500000  0.202955  0.566724  1
  Tl  Tl14  1  0.500000  0.583932  0.651258  1
  Tl  Tl15  1  0.500000  0.416068  0.348742  1
  In  In16  1  0.500000  0.916496  0.152079  1
  In  In17  1  0.500000  0.083504  0.847921  1
  Pd  Pd18  1  0.500000  0.527988  0.196056  1
  Pd  Pd19  1  0.500000  0.472012  0.803944  1
  Pd  Pd20  1  0.500000  0.975816  0.697684  1
  Pd  Pd21  1  0.500000  0.024184  0.302316  1
