# generated using pymatgen
data_DyLu3(Ta3Si4)2
_symmetry_space_group_name_H-M   'P 1'
_cell_length_a   7.00416549
_cell_length_b   7.00397709
_cell_length_c   12.91221601
_cell_angle_alpha   89.96643598
_cell_angle_beta   89.95311751
_cell_angle_gamma   90.00771195
_symmetry_Int_Tables_number   1
_chemical_formula_structural   DyLu3(Ta3Si4)2
_chemical_formula_sum   'Dy2 Lu6 Ta12 Si16'
_cell_volume   633.43444282
_cell_formula_units_Z   2
loop_
 _symmetry_equiv_pos_site_id
 _symmetry_equiv_pos_as_xyz
  1  'x, y, z'
loop_
 _atom_site_type_symbol
 _atom_site_label
 _atom_site_symmetry_multiplicity
 _atom_site_fract_x
 _atom_site_fract_y
 _atom_site_fract_z
 _atom_site_occupancy
  Dy  Dy0  1  0.496891  0.841500  0.718677  1
  Dy  Dy1  1  0.341744  0.003445  0.467913  1
  Lu  Lu2  1  0.997720  0.657706  0.031739  1
  Lu  Lu3  1  0.001615  0.342258  0.531426  1
  Lu  Lu4  1  0.657986  0.998148  0.968796  1
  Lu  Lu5  1  0.157483  0.502021  0.782084  1
  Lu  Lu6  1  0.842064  0.498167  0.280918  1
  Lu  Lu7  1  0.502118  0.157656  0.218184  1
  Ta  Ta8  1  0.347602  0.505460  0.375084  1
  Ta  Ta9  1  0.847564  0.994177  0.373185  1
  Ta  Ta10  1  0.005342  0.152088  0.125810  1
  Ta  Ta11  1  0.994641  0.846847  0.626457  1
  Ta  Ta12  1  0.506949  0.347791  0.624562  1
  Ta  Ta13  1  0.151724  0.006511  0.874933  1
  Ta  Ta14  1  0.672151  0.670768  0.499582  1
  Ta  Ta15  1  0.828792  0.171715  0.750527  1
  Ta  Ta16  1  0.170994  0.828187  0.249381  1
  Ta  Ta17  1  0.328580  0.328401  0.000312  1
  Ta  Ta18  1  0.494302  0.651885  0.124050  1
  Ta  Ta19  1  0.652807  0.494482  0.876714  1
  Si  Si20  1  0.044332  0.702747  0.435288  1
  Si  Si21  1  0.954368  0.296582  0.935978  1
  Si  Si22  1  0.706873  0.046380  0.564039  1
  Si  Si23  1  0.203220  0.454729  0.185251  1
  Si  Si24  1  0.797128  0.544914  0.685928  1
  Si  Si25  1  0.454217  0.205673  0.815118  1
  Si  Si26  1  0.546405  0.795249  0.313542  1
  Si  Si27  1  0.296477  0.954545  0.064577  1
  Si  Si28  1  0.796055  0.863974  0.180331  1
  Si  Si29  1  0.294872  0.632572  0.568330  1
  Si  Si30  1  0.703781  0.363932  0.069443  1
  Si  Si31  1  0.637139  0.297707  0.430686  1
  Si  Si32  1  0.363832  0.703536  0.931531  1
  Si  Si33  1  0.134266  0.205232  0.317933  1
  Si  Si34  1  0.202350  0.137205  0.681762  1
  Si  Si35  1  0.865619  0.795805  0.819928  1
