# generated using pymatgen
data_Ac2B4OsRu3
_symmetry_space_group_name_H-M   'P 1'
_cell_length_a   7.02653804
_cell_length_b   6.13788581
_cell_length_c   5.74115313
_cell_angle_alpha   72.44085466
_cell_angle_beta   56.39035144
_cell_angle_gamma   50.86557844
_symmetry_Int_Tables_number   1
_chemical_formula_structural   Ac2B4OsRu3
_chemical_formula_sum   'Ac2 B4 Os1 Ru3'
_cell_volume   159.51615375
_cell_formula_units_Z   1
loop_
 _symmetry_equiv_pos_site_id
 _symmetry_equiv_pos_as_xyz
  1  'x, y, z'
loop_
 _atom_site_type_symbol
 _atom_site_label
 _atom_site_symmetry_multiplicity
 _atom_site_fract_x
 _atom_site_fract_y
 _atom_site_fract_z
 _atom_site_occupancy
  Ac  Ac0  1  0.002039  0.002039  0.997961  1
  Ac  Ac1  1  0.248879  0.248879  0.251121  1
  B  B2  1  0.678347  0.321238  0.673185  1
  B  B3  1  0.321238  0.678347  0.327230  1
  B  B4  1  0.920863  0.581129  0.924973  1
  B  B5  1  0.581129  0.920863  0.573035  1
  Os  Os6  1  0.884851  0.884851  0.615149  1
  Ru  Ru7  1  0.613324  0.613324  0.886676  1
  Ru  Ru8  1  0.634779  0.634779  0.365221  1
  Ru  Ru9  1  0.364553  0.364553  0.635447  1
