# generated using pymatgen
data_ZrSc(Co5P3)2
_symmetry_space_group_name_H-M   'P 1'
_cell_length_a   3.59765700
_cell_length_b   10.15252700
_cell_length_c   11.62873700
_cell_angle_alpha   90.00000000
_cell_angle_beta   90.00000000
_cell_angle_gamma   90.00000000
_symmetry_Int_Tables_number   1
_chemical_formula_structural   ZrSc(Co5P3)2
_chemical_formula_sum   'Zr2 Sc2 Co20 P12'
_cell_volume   424.74322185
_cell_formula_units_Z   2
loop_
 _symmetry_equiv_pos_site_id
 _symmetry_equiv_pos_as_xyz
  1  'x, y, z'
loop_
 _atom_site_type_symbol
 _atom_site_label
 _atom_site_symmetry_multiplicity
 _atom_site_fract_x
 _atom_site_fract_y
 _atom_site_fract_z
 _atom_site_occupancy
  Zr  Zr0  1  0.250000  0.581795  0.702772  1
  Zr  Zr1  1  0.250000  0.918205  0.202772  1
  Sc  Sc2  1  0.750000  0.417946  0.297268  1
  Sc  Sc3  1  0.750000  0.082054  0.797268  1
  Co  Co4  1  0.250000  0.719274  0.991961  1
  Co  Co5  1  0.250000  0.780726  0.491961  1
  Co  Co6  1  0.750000  0.281502  0.007547  1
  Co  Co7  1  0.750000  0.218498  0.507547  1
  Co  Co8  1  0.250000  0.408993  0.486209  1
  Co  Co9  1  0.250000  0.091007  0.986209  1
  Co  Co10  1  0.750000  0.592091  0.514112  1
  Co  Co11  1  0.750000  0.907909  0.014112  1
  Co  Co12  1  0.250000  0.221884  0.177668  1
  Co  Co13  1  0.250000  0.278117  0.677668  1
  Co  Co14  1  0.750000  0.777266  0.822420  1
  Co  Co15  1  0.750000  0.722734  0.322420  1
  Co  Co16  1  0.250000  0.883221  0.699963  1
  Co  Co17  1  0.250000  0.616779  0.199963  1
  Co  Co18  1  0.750000  0.116076  0.299929  1
  Co  Co19  1  0.750000  0.383924  0.799929  1
  Co  Co20  1  0.250000  0.466534  0.930738  1
  Co  Co21  1  0.250000  0.033466  0.430738  1
  Co  Co22  1  0.750000  0.532638  0.069548  1
  Co  Co23  1  0.750000  0.967362  0.569548  1
  P  P24  1  0.250000  0.418581  0.114894  1
  P  P25  1  0.250000  0.081419  0.614894  1
  P  P26  1  0.750000  0.581121  0.886437  1
  P  P27  1  0.750000  0.918879  0.386437  1
  P  P28  1  0.250000  0.265560  0.869166  1
  P  P29  1  0.250000  0.234440  0.369166  1
  P  P30  1  0.750000  0.732568  0.130354  1
  P  P31  1  0.750000  0.767432  0.630354  1
  P  P32  1  0.250000  0.598334  0.388984  1
  P  P33  1  0.250000  0.901666  0.888984  1
  P  P34  1  0.750000  0.400257  0.610031  1
  P  P35  1  0.750000  0.099743  0.110031  1
