# generated using pymatgen
data_Yb7TmSb6
_symmetry_space_group_name_H-M   'P 1'
_cell_length_a   8.08428606
_cell_length_b   8.15290777
_cell_length_c   8.15290806
_cell_angle_alpha   109.64109550
_cell_angle_beta   109.30080676
_cell_angle_gamma   109.30080639
_symmetry_Int_Tables_number   1
_chemical_formula_structural   Yb7TmSb6
_chemical_formula_sum   'Yb7 Tm1 Sb6'
_cell_volume   414.52804633
_cell_formula_units_Z   1
loop_
 _symmetry_equiv_pos_site_id
 _symmetry_equiv_pos_as_xyz
  1  'x, y, z'
loop_
 _atom_site_type_symbol
 _atom_site_label
 _atom_site_symmetry_multiplicity
 _atom_site_fract_x
 _atom_site_fract_y
 _atom_site_fract_z
 _atom_site_occupancy
  Yb  Yb0  1  0.649339  0.000000  0.000000  1
  Yb  Yb1  1  0.504058  0.505189  0.148506  1
  Yb  Yb2  1  0.355553  0.851495  0.356685  1
  Yb  Yb3  1  0.998868  0.643315  0.494810  1
  Yb  Yb4  1  0.998435  0.150265  0.498974  1
  Yb  Yb5  1  0.499461  0.501026  0.651291  1
  Yb  Yb6  1  0.848171  0.348710  0.849735  1
  Tm  Tm7  1  0.147913  0.000000  0.000000  1
  Sb  Sb8  1  0.883902  0.756890  0.125519  1
  Sb  Sb9  1  0.127012  0.368629  0.243110  1
  Sb  Sb10  1  0.613267  0.243371  0.367525  1
  Sb  Sb11  1  0.758383  0.874481  0.631370  1
  Sb  Sb12  1  0.369897  0.124154  0.756629  1
  Sb  Sb13  1  0.245742  0.632475  0.875846  1
