# generated using pymatgen
data_PrY3S4
_symmetry_space_group_name_H-M   'P 1'
_cell_length_a   13.01534738
_cell_length_b   13.01534739
_cell_length_c   13.01534766
_cell_angle_alpha   17.62986912
_cell_angle_beta   17.62987042
_cell_angle_gamma   17.62986963
_symmetry_Int_Tables_number   1
_chemical_formula_structural   PrY3S4
_chemical_formula_sum   'Pr1 Y3 S4'
_cell_volume   176.52804860
_cell_formula_units_Z   1
loop_
 _symmetry_equiv_pos_site_id
 _symmetry_equiv_pos_as_xyz
  1  'x, y, z'
loop_
 _atom_site_type_symbol
 _atom_site_label
 _atom_site_symmetry_multiplicity
 _atom_site_fract_x
 _atom_site_fract_y
 _atom_site_fract_z
 _atom_site_occupancy
  Pr  Pr0  1  0.000000  0.000000  0.000000  1
  Y  Y1  1  0.248961  0.248961  0.248961  1
  Y  Y2  1  0.500000  0.500000  0.500000  1
  Y  Y3  1  0.751039  0.751039  0.751039  1
  S  S4  1  0.379016  0.379016  0.379016  1
  S  S5  1  0.126029  0.126029  0.126029  1
  S  S6  1  0.620984  0.620984  0.620984  1
  S  S7  1  0.873971  0.873971  0.873971  1
