# generated using pymatgen
data_Tm4Ta2CoOs5
_symmetry_space_group_name_H-M   'P 1'
_cell_length_a   5.47617200
_cell_length_b   5.53195019
_cell_length_c   8.37797700
_cell_angle_alpha   90.00000000
_cell_angle_beta   90.00000000
_cell_angle_gamma   119.66797485
_symmetry_Int_Tables_number   1
_chemical_formula_structural   Tm4Ta2CoOs5
_chemical_formula_sum   'Tm4 Ta2 Co1 Os5'
_cell_volume   220.53039604
_cell_formula_units_Z   1
loop_
 _symmetry_equiv_pos_site_id
 _symmetry_equiv_pos_as_xyz
  1  'x, y, z'
loop_
 _atom_site_type_symbol
 _atom_site_label
 _atom_site_symmetry_multiplicity
 _atom_site_fract_x
 _atom_site_fract_y
 _atom_site_fract_z
 _atom_site_occupancy
  Tm  Tm0  1  0.667694  0.335391  0.565224  1
  Tm  Tm1  1  0.332896  0.665789  0.438558  1
  Tm  Tm2  1  0.332896  0.665789  0.061442  1
  Tm  Tm3  1  0.667694  0.335391  0.934776  1
  Ta  Ta4  1  0.001037  0.002072  0.504171  1
  Ta  Ta5  1  0.001037  0.002072  0.995829  1
  Co  Co6  1  0.165257  0.330517  0.750000  1
  Os  Os7  1  0.178097  0.823090  0.750000  1
  Os  Os8  1  0.644994  0.823091  0.750000  1
  Os  Os9  1  0.831598  0.663196  0.250000  1
  Os  Os10  1  0.824707  0.176803  0.250000  1
  Os  Os11  1  0.352091  0.176798  0.250000  1
