# generated using pymatgen
data_Zr16Co4MoOs3
_symmetry_space_group_name_H-M   'P 1'
_cell_length_a   8.71103304
_cell_length_b   8.71103215
_cell_length_c   8.71571194
_cell_angle_alpha   60.01776086
_cell_angle_beta   60.01776491
_cell_angle_gamma   60.00000841
_symmetry_Int_Tables_number   1
_chemical_formula_structural   Zr16Co4MoOs3
_chemical_formula_sum   'Zr16 Co4 Mo1 Os3'
_cell_volume   467.78223558
_cell_formula_units_Z   1
loop_
 _symmetry_equiv_pos_site_id
 _symmetry_equiv_pos_as_xyz
  1  'x, y, z'
loop_
 _atom_site_type_symbol
 _atom_site_label
 _atom_site_symmetry_multiplicity
 _atom_site_fract_x
 _atom_site_fract_y
 _atom_site_fract_z
 _atom_site_occupancy
  Zr  Zr0  1  0.198086  0.600549  0.600819  1
  Zr  Zr1  1  0.600549  0.198086  0.600819  1
  Zr  Zr2  1  0.600549  0.600549  0.600819  1
  Zr  Zr3  1  0.601545  0.601545  0.195367  1
  Zr  Zr4  1  0.453572  0.453572  0.046429  1
  Zr  Zr5  1  0.047986  0.047986  0.452783  1
  Zr  Zr6  1  0.453572  0.046428  0.046429  1
  Zr  Zr7  1  0.047986  0.451247  0.452783  1
  Zr  Zr8  1  0.046428  0.453572  0.046429  1
  Zr  Zr9  1  0.451247  0.047986  0.452783  1
  Zr  Zr10  1  0.814847  0.814847  0.185706  1
  Zr  Zr11  1  0.185576  0.185576  0.814807  1
  Zr  Zr12  1  0.814847  0.184601  0.185706  1
  Zr  Zr13  1  0.185576  0.814041  0.814807  1
  Zr  Zr14  1  0.184601  0.814847  0.185706  1
  Zr  Zr15  1  0.814041  0.185576  0.814807  1
  Co  Co16  1  0.829486  0.390603  0.389307  1
  Co  Co17  1  0.390603  0.829486  0.389307  1
  Co  Co18  1  0.390603  0.390603  0.389307  1
  Co  Co19  1  0.390022  0.390022  0.829935  1
  Mo  Mo20  1  0.830348  0.830348  0.508956  1
  Os  Os21  1  0.503330  0.832303  0.832065  1
  Os  Os22  1  0.832303  0.503330  0.832065  1
  Os  Os23  1  0.832303  0.832303  0.832065  1
