# generated using pymatgen
data_Pr3Y2(Sn5Rh2)2
_symmetry_space_group_name_H-M   'P 1'
_cell_length_a   14.20119200
_cell_length_b   14.20119200
_cell_length_c   4.59947500
_cell_angle_alpha   90.00000000
_cell_angle_beta   90.00000000
_cell_angle_gamma   90.00000000
_symmetry_Int_Tables_number   1
_chemical_formula_structural   Pr3Y2(Sn5Rh2)2
_chemical_formula_sum   'Pr6 Y4 Sn20 Rh8'
_cell_volume   927.59385064
_cell_formula_units_Z   2
loop_
 _symmetry_equiv_pos_site_id
 _symmetry_equiv_pos_as_xyz
  1  'x, y, z'
loop_
 _atom_site_type_symbol
 _atom_site_label
 _atom_site_symmetry_multiplicity
 _atom_site_fract_x
 _atom_site_fract_y
 _atom_site_fract_z
 _atom_site_occupancy
  Pr  Pr0  1  0.500000  0.500000  0.000000  1
  Pr  Pr1  1  0.000000  0.000000  0.000000  1
  Pr  Pr2  1  0.888092  0.388092  0.500000  1
  Pr  Pr3  1  0.111908  0.611908  0.500000  1
  Pr  Pr4  1  0.388092  0.111908  0.500000  1
  Pr  Pr5  1  0.611908  0.888092  0.500000  1
  Y  Y6  1  0.677190  0.177190  0.500000  1
  Y  Y7  1  0.322810  0.822810  0.500000  1
  Y  Y8  1  0.177190  0.322810  0.500000  1
  Y  Y9  1  0.822810  0.677190  0.500000  1
  Sn  Sn10  1  0.570269  0.070269  0.000000  1
  Sn  Sn11  1  0.429731  0.929731  0.000000  1
  Sn  Sn12  1  0.070269  0.429731  0.000000  1
  Sn  Sn13  1  0.929731  0.570269  0.000000  1
  Sn  Sn14  1  0.654709  0.697893  0.000000  1
  Sn  Sn15  1  0.345291  0.302107  0.000000  1
  Sn  Sn16  1  0.154709  0.802107  0.000000  1
  Sn  Sn17  1  0.845291  0.197893  0.000000  1
  Sn  Sn18  1  0.302107  0.654709  0.000000  1
  Sn  Sn19  1  0.697893  0.345291  0.000000  1
  Sn  Sn20  1  0.197893  0.154709  0.000000  1
  Sn  Sn21  1  0.802107  0.845291  0.000000  1
  Sn  Sn22  1  0.664214  0.505617  0.500000  1
  Sn  Sn23  1  0.335786  0.494383  0.500000  1
  Sn  Sn24  1  0.164214  0.994383  0.500000  1
  Sn  Sn25  1  0.835786  0.005617  0.500000  1
  Sn  Sn26  1  0.494383  0.664214  0.500000  1
  Sn  Sn27  1  0.505617  0.335786  0.500000  1
  Sn  Sn28  1  0.005617  0.164214  0.500000  1
  Sn  Sn29  1  0.994383  0.835786  0.500000  1
  Rh  Rh30  1  0.746948  0.528954  0.000000  1
  Rh  Rh31  1  0.253052  0.471046  0.000000  1
  Rh  Rh32  1  0.246948  0.971046  0.000000  1
  Rh  Rh33  1  0.753052  0.028954  0.000000  1
  Rh  Rh34  1  0.471046  0.746948  0.000000  1
  Rh  Rh35  1  0.528954  0.253052  0.000000  1
  Rh  Rh36  1  0.028954  0.246948  0.000000  1
  Rh  Rh37  1  0.971046  0.753052  0.000000  1
