# generated using pymatgen
data_HoZr2(SnRh)3
_symmetry_space_group_name_H-M   'P 1'
_cell_length_a   7.50021972
_cell_length_b   7.50725772
_cell_length_c   7.36034100
_cell_angle_alpha   90.00000000
_cell_angle_beta   90.00000000
_cell_angle_gamma   119.87087344
_symmetry_Int_Tables_number   1
_chemical_formula_structural   HoZr2(SnRh)3
_chemical_formula_sum   'Ho2 Zr4 Sn6 Rh6'
_cell_volume   359.37469873
_cell_formula_units_Z   2
loop_
 _symmetry_equiv_pos_site_id
 _symmetry_equiv_pos_as_xyz
  1  'x, y, z'
loop_
 _atom_site_type_symbol
 _atom_site_label
 _atom_site_symmetry_multiplicity
 _atom_site_fract_x
 _atom_site_fract_y
 _atom_site_fract_z
 _atom_site_occupancy
  Ho  Ho0  1  0.596691  0.000095  0.250000  1
  Ho  Ho1  1  0.404715  0.401731  0.250000  1
  Zr  Zr2  1  0.608589  0.002394  0.750000  1
  Zr  Zr3  1  0.389758  0.395484  0.750000  1
  Zr  Zr4  1  0.002237  0.604287  0.750000  1
  Zr  Zr5  1  0.003347  0.601923  0.250000  1
  Sn  Sn6  1  0.267697  0.000583  0.992518  1
  Sn  Sn7  1  0.732968  0.731348  0.506959  1
  Sn  Sn8  1  0.999091  0.267822  0.496649  1
  Sn  Sn9  1  0.999091  0.267822  0.003351  1
  Sn  Sn10  1  0.732968  0.731348  0.993041  1
  Sn  Sn11  1  0.267697  0.000583  0.507482  1
  Rh  Rh12  1  0.669995  0.335820  0.971827  1
  Rh  Rh13  1  0.669995  0.335820  0.528173  1
  Rh  Rh14  1  0.327721  0.665477  0.978671  1
  Rh  Rh15  1  0.327721  0.665477  0.521329  1
  Rh  Rh16  1  0.999538  0.003525  0.750000  1
  Rh  Rh17  1  0.000183  0.988464  0.250000  1
