# generated using pymatgen
data_Y3TmNbOs7
_symmetry_space_group_name_H-M   'P 1'
_cell_length_a   5.44888001
_cell_length_b   5.44912933
_cell_length_c   8.66901101
_cell_angle_alpha   90.00196354
_cell_angle_beta   89.99557802
_cell_angle_gamma   120.00630713
_symmetry_Int_Tables_number   1
_chemical_formula_structural   Y3TmNbOs7
_chemical_formula_sum   'Y3 Tm1 Nb1 Os7'
_cell_volume   222.89839406
_cell_formula_units_Z   1
loop_
 _symmetry_equiv_pos_site_id
 _symmetry_equiv_pos_as_xyz
  1  'x, y, z'
loop_
 _atom_site_type_symbol
 _atom_site_label
 _atom_site_symmetry_multiplicity
 _atom_site_fract_x
 _atom_site_fract_y
 _atom_site_fract_z
 _atom_site_occupancy
  Y  Y0  1  0.666654  0.333332  0.573678  1
  Y  Y1  1  0.333336  0.666674  0.427300  1
  Y  Y2  1  0.333338  0.666664  0.060866  1
  Tm  Tm3  1  0.666660  0.333332  0.939266  1
  Nb  Nb4  1  0.000000  0.000000  0.499799  1
  Os  Os5  1  0.000005  0.999996  0.999592  1
  Os  Os6  1  0.173674  0.347373  0.752649  1
  Os  Os7  1  0.173680  0.826307  0.752654  1
  Os  Os8  1  0.652646  0.826329  0.752648  1
  Os  Os9  1  0.826089  0.652177  0.247184  1
  Os  Os10  1  0.826105  0.173909  0.247185  1
  Os  Os11  1  0.347814  0.173908  0.247182  1
