# generated using pymatgen
data_Zn3PBrCl2
_symmetry_space_group_name_H-M   'P 1'
_cell_length_a   4.02558200
_cell_length_b   6.49033348
_cell_length_c   7.01413532
_cell_angle_alpha   89.35581450
_cell_angle_beta   90.00000000
_cell_angle_gamma   90.00000000
_symmetry_Int_Tables_number   1
_chemical_formula_structural   Zn3PBrCl2
_chemical_formula_sum   'Zn3 P1 Br1 Cl2'
_cell_volume   183.24932345
_cell_formula_units_Z   1
loop_
 _symmetry_equiv_pos_site_id
 _symmetry_equiv_pos_as_xyz
  1  'x, y, z'
loop_
 _atom_site_type_symbol
 _atom_site_label
 _atom_site_symmetry_multiplicity
 _atom_site_fract_x
 _atom_site_fract_y
 _atom_site_fract_z
 _atom_site_occupancy
  Zn  Zn0  1  0.000000  0.480432  0.699455  1
  Zn  Zn1  1  0.500000  0.503398  0.123229  1
  Zn  Zn2  1  0.500000  0.019724  0.851078  1
  P  P3  1  0.500000  0.371807  0.820694  1
  Br  Br4  1  0.000000  0.391043  0.329484  1
  Cl  Cl5  1  0.000000  0.867875  0.693486  1
  Cl  Cl6  1  0.500000  0.861719  0.149226  1
