# generated using pymatgen
data_TbYb2Er(AlPd)4
_symmetry_space_group_name_H-M   'P 1'
_cell_length_a   4.27805700
_cell_length_b   7.06774817
_cell_length_c   7.96282112
_cell_angle_alpha   91.24317130
_cell_angle_beta   90.00000000
_cell_angle_gamma   90.00000000
_symmetry_Int_Tables_number   1
_chemical_formula_structural   TbYb2Er(AlPd)4
_chemical_formula_sum   'Tb1 Yb2 Er1 Al4 Pd4'
_cell_volume   240.70901587
_cell_formula_units_Z   1
loop_
 _symmetry_equiv_pos_site_id
 _symmetry_equiv_pos_as_xyz
  1  'x, y, z'
loop_
 _atom_site_type_symbol
 _atom_site_label
 _atom_site_symmetry_multiplicity
 _atom_site_fract_x
 _atom_site_fract_y
 _atom_site_fract_z
 _atom_site_occupancy
  Tb  Tb0  1  0.750000  0.963906  0.677472  1
  Yb  Yb1  1  0.250000  0.533132  0.176198  1
  Yb  Yb2  1  0.750000  0.466442  0.823990  1
  Er  Er3  1  0.250000  0.036419  0.320891  1
  Al  Al4  1  0.250000  0.134929  0.940121  1
  Al  Al5  1  0.250000  0.637377  0.558762  1
  Al  Al6  1  0.750000  0.864854  0.061448  1
  Al  Al7  1  0.750000  0.363665  0.440129  1
  Pd  Pd8  1  0.250000  0.271747  0.623871  1
  Pd  Pd9  1  0.250000  0.773416  0.877121  1
  Pd  Pd10  1  0.750000  0.729666  0.373922  1
  Pd  Pd11  1  0.750000  0.224448  0.126077  1
