# generated using pymatgen
data_DyHoTm3In4PtAu
_symmetry_space_group_name_H-M   'P 1'
_cell_length_a   3.62395100
_cell_length_b   8.13102564
_cell_length_c   18.21737707
_cell_angle_alpha   89.95063275
_cell_angle_beta   90.00000000
_cell_angle_gamma   90.00000000
_symmetry_Int_Tables_number   1
_chemical_formula_structural   DyHoTm3In4PtAu
_chemical_formula_sum   'Dy2 Ho2 Tm6 In8 Pt2 Au2'
_cell_volume   536.80102173
_cell_formula_units_Z   2
loop_
 _symmetry_equiv_pos_site_id
 _symmetry_equiv_pos_as_xyz
  1  'x, y, z'
loop_
 _atom_site_type_symbol
 _atom_site_label
 _atom_site_symmetry_multiplicity
 _atom_site_fract_x
 _atom_site_fract_y
 _atom_site_fract_z
 _atom_site_occupancy
  Dy  Dy0  1  0.000000  0.000000  0.000000  1
  Dy  Dy1  1  0.000000  0.500000  0.500000  1
  Ho  Ho2  1  0.000000  0.267890  0.721103  1
  Ho  Ho3  1  0.000000  0.732110  0.278897  1
  Tm  Tm4  1  0.000000  0.119721  0.419003  1
  Tm  Tm5  1  0.000000  0.880279  0.580997  1
  Tm  Tm6  1  0.000000  0.384811  0.916191  1
  Tm  Tm7  1  0.000000  0.615189  0.083809  1
  Tm  Tm8  1  0.000000  0.253077  0.216815  1
  Tm  Tm9  1  0.000000  0.746923  0.783185  1
  In  In10  1  0.500000  0.420314  0.352033  1
  In  In11  1  0.500000  0.579686  0.647967  1
  In  In12  1  0.500000  0.078600  0.852501  1
  In  In13  1  0.500000  0.921400  0.147499  1
  In  In14  1  0.500000  0.292980  0.065054  1
  In  In15  1  0.500000  0.707020  0.934946  1
  In  In16  1  0.500000  0.207851  0.566996  1
  In  In17  1  0.500000  0.792149  0.433004  1
  Pt  Pt18  1  0.500000  0.473925  0.804731  1
  Pt  Pt19  1  0.500000  0.526075  0.195269  1
  Au  Au20  1  0.500000  0.031363  0.302259  1
  Au  Au21  1  0.500000  0.968637  0.697741  1
