# generated using pymatgen
data_Pr2Nd3HoTa2O14
_symmetry_space_group_name_H-M   'P 1'
_cell_length_a   6.67231300
_cell_length_b   6.64654699
_cell_length_c   7.71383200
_cell_angle_alpha   90.00000000
_cell_angle_beta   90.00000000
_cell_angle_gamma   108.93774374
_symmetry_Int_Tables_number   1
_chemical_formula_structural   Pr2Nd3HoTa2O14
_chemical_formula_sum   'Pr2 Nd3 Ho1 Ta2 O14'
_cell_volume   323.57497873
_cell_formula_units_Z   1
loop_
 _symmetry_equiv_pos_site_id
 _symmetry_equiv_pos_as_xyz
  1  'x, y, z'
loop_
 _atom_site_type_symbol
 _atom_site_label
 _atom_site_symmetry_multiplicity
 _atom_site_fract_x
 _atom_site_fract_y
 _atom_site_fract_z
 _atom_site_occupancy
  Pr  Pr0  1  0.529992  0.523902  0.498709  1
  Pr  Pr1  1  0.529992  0.523902  0.001291  1
  Nd  Nd2  1  0.005793  0.462931  0.750000  1
  Nd  Nd3  1  0.533213  0.003138  0.750000  1
  Nd  Nd4  1  0.463491  0.002928  0.250000  1
  Ho  Ho5  1  0.002948  0.530890  0.250000  1
  Ta  Ta6  1  0.001427  0.001405  0.497649  1
  Ta  Ta7  1  0.001427  0.001405  0.002351  1
  O  O8  1  0.945686  0.057317  0.750000  1
  O  O9  1  0.059569  0.935917  0.250000  1
  O  O10  1  0.351622  0.634311  0.250000  1
  O  O11  1  0.642298  0.368382  0.750000  1
  O  O12  1  0.370514  0.631908  0.750000  1
  O  O13  1  0.645241  0.376532  0.250000  1
  O  O14  1  0.310091  0.072221  0.969761  1
  O  O15  1  0.679315  0.918753  0.472891  1
  O  O16  1  0.310091  0.072221  0.530239  1
  O  O17  1  0.679315  0.918753  0.027109  1
  O  O18  1  0.036702  0.300893  0.457535  1
  O  O19  1  0.932286  0.680699  0.976881  1
  O  O20  1  0.932286  0.680699  0.523119  1
  O  O21  1  0.036702  0.300893  0.042465  1
