# generated using pymatgen
data_Ho4Er6BiPb5
_symmetry_space_group_name_H-M   'P 1'
_cell_length_a   9.03541700
_cell_length_b   9.03541726
_cell_length_c   6.51487200
_cell_angle_alpha   90.00000000
_cell_angle_beta   90.00000000
_cell_angle_gamma   120.02252123
_symmetry_Int_Tables_number   1
_chemical_formula_structural   Ho4Er6BiPb5
_chemical_formula_sum   'Ho4 Er6 Bi1 Pb5'
_cell_volume   460.50497913
_cell_formula_units_Z   1
loop_
 _symmetry_equiv_pos_site_id
 _symmetry_equiv_pos_as_xyz
  1  'x, y, z'
loop_
 _atom_site_type_symbol
 _atom_site_label
 _atom_site_symmetry_multiplicity
 _atom_site_fract_x
 _atom_site_fract_y
 _atom_site_fract_z
 _atom_site_occupancy
  Ho  Ho0  1  0.763143  0.763143  0.750000  1
  Ho  Ho1  1  0.237348  0.996961  0.750000  1
  Ho  Ho2  1  0.996961  0.237348  0.750000  1
  Ho  Ho3  1  0.238213  0.238213  0.250000  1
  Er  Er4  1  0.668169  0.332959  0.000519  1
  Er  Er5  1  0.332959  0.668169  0.000519  1
  Er  Er6  1  0.332959  0.668169  0.499481  1
  Er  Er7  1  0.668169  0.332959  0.499481  1
  Er  Er8  1  0.761709  0.000448  0.250000  1
  Er  Er9  1  0.000448  0.761709  0.250000  1
  Bi  Bi10  1  0.393037  0.393037  0.750000  1
  Pb  Pb11  1  0.605904  0.999743  0.750000  1
  Pb  Pb12  1  0.999743  0.605904  0.750000  1
  Pb  Pb13  1  0.607014  0.607014  0.250000  1
  Pb  Pb14  1  0.393521  0.000703  0.250000  1
  Pb  Pb15  1  0.000703  0.393521  0.250000  1
