# generated using pymatgen
data_MgNb2N3
_symmetry_space_group_name_H-M   'P 1'
_cell_length_a   5.27765400
_cell_length_b   5.27765356
_cell_length_c   10.50111400
_cell_angle_alpha   90.00010246
_cell_angle_beta   89.99989661
_cell_angle_gamma   120.00021833
_symmetry_Int_Tables_number   1
_chemical_formula_structural   MgNb2N3
_chemical_formula_sum   'Mg4 Nb8 N12'
_cell_volume   253.30679657
_cell_formula_units_Z   4
loop_
 _symmetry_equiv_pos_site_id
 _symmetry_equiv_pos_as_xyz
  1  'x, y, z'
loop_
 _atom_site_type_symbol
 _atom_site_label
 _atom_site_symmetry_multiplicity
 _atom_site_fract_x
 _atom_site_fract_y
 _atom_site_fract_z
 _atom_site_occupancy
  Mg  Mg0  1  0.666655  0.333323  0.000000  1
  Mg  Mg1  1  0.333326  0.666658  0.000000  1
  Mg  Mg2  1  0.666677  0.333345  0.500000  1
  Mg  Mg3  1  0.333342  0.666675  0.500000  1
  Nb  Nb4  1  0.999992  0.999992  0.000001  1
  Nb  Nb5  1  0.335070  0.999997  0.250000  1
  Nb  Nb6  1  0.999998  0.335070  0.250000  1
  Nb  Nb7  1  0.664928  0.664930  0.249999  1
  Nb  Nb8  1  0.000008  0.000008  0.500000  1
  Nb  Nb9  1  0.664930  0.000002  0.750000  1
  Nb  Nb10  1  0.335071  0.335071  0.749999  1
  Nb  Nb11  1  0.000003  0.664931  0.750000  1
  N  N12  1  0.668956  0.999999  0.120529  1
  N  N13  1  0.999999  0.668957  0.120529  1
  N  N14  1  0.331036  0.331035  0.120529  1
  N  N15  1  0.668966  0.000003  0.379470  1
  N  N16  1  0.331040  0.331042  0.379471  1
  N  N17  1  0.000002  0.668962  0.379470  1
  N  N18  1  0.331044  0.000001  0.620529  1
  N  N19  1  0.000001  0.331043  0.620529  1
  N  N20  1  0.668963  0.668963  0.620529  1
  N  N21  1  0.331038  0.999998  0.879470  1
  N  N22  1  0.999997  0.331033  0.879470  1
  N  N23  1  0.668958  0.668959  0.879471  1
