# generated using pymatgen
data_Dy5Ho5(InBi)3
_symmetry_space_group_name_H-M   'P 1'
_cell_length_a   9.04072735
_cell_length_b   9.04508218
_cell_length_c   6.55798900
_cell_angle_alpha   90.00000000
_cell_angle_beta   90.00000000
_cell_angle_gamma   120.01593820
_symmetry_Int_Tables_number   1
_chemical_formula_structural   Dy5Ho5(InBi)3
_chemical_formula_sum   'Dy5 Ho5 In3 Bi3'
_cell_volume   464.35212021
_cell_formula_units_Z   1
loop_
 _symmetry_equiv_pos_site_id
 _symmetry_equiv_pos_as_xyz
  1  'x, y, z'
loop_
 _atom_site_type_symbol
 _atom_site_label
 _atom_site_symmetry_multiplicity
 _atom_site_fract_x
 _atom_site_fract_y
 _atom_site_fract_z
 _atom_site_occupancy
  Dy  Dy0  1  0.763284  0.763187  0.750000  1
  Dy  Dy1  1  0.236716  0.999902  0.750000  1
  Dy  Dy2  1  0.000000  0.236971  0.750000  1
  Dy  Dy3  1  0.238197  0.238120  0.250000  1
  Dy  Dy4  1  0.761803  0.999923  0.250000  1
  Ho  Ho5  1  0.666736  0.333407  0.006821  1
  Ho  Ho6  1  0.333264  0.666672  0.006821  1
  Ho  Ho7  1  0.333264  0.666672  0.493179  1
  Ho  Ho8  1  0.666736  0.333407  0.493179  1
  Ho  Ho9  1  0.000000  0.761638  0.250000  1
  In  In10  1  0.606688  0.606579  0.250000  1
  In  In11  1  0.393312  0.999891  0.250000  1
  In  In12  1  0.000000  0.393680  0.250000  1
  Bi  Bi13  1  0.396172  0.396145  0.750000  1
  Bi  Bi14  1  0.603828  0.999974  0.750000  1
  Bi  Bi15  1  0.000000  0.603833  0.750000  1
