# generated using pymatgen
data_Lu5NiBiPd
_symmetry_space_group_name_H-M   'P 1'
_cell_length_a   8.73256566
_cell_length_b   8.73490400
_cell_length_c   8.37613831
_cell_angle_alpha   126.21590196
_cell_angle_beta   126.27258975
_cell_angle_gamma   82.28683807
_symmetry_Int_Tables_number   1
_chemical_formula_structural   Lu5NiBiPd
_chemical_formula_sum   'Lu10 Ni2 Bi2 Pd2'
_cell_volume   392.14723654
_cell_formula_units_Z   2
loop_
 _symmetry_equiv_pos_site_id
 _symmetry_equiv_pos_as_xyz
  1  'x, y, z'
loop_
 _atom_site_type_symbol
 _atom_site_label
 _atom_site_symmetry_multiplicity
 _atom_site_fract_x
 _atom_site_fract_y
 _atom_site_fract_z
 _atom_site_occupancy
  Lu  Lu0  1  0.999896  0.999996  0.999916  1
  Lu  Lu1  1  0.499872  0.500079  0.999960  1
  Lu  Lu2  1  0.803179  0.303048  0.835753  1
  Lu  Lu3  1  0.196770  0.697008  0.164062  1
  Lu  Lu4  1  0.466615  0.967154  0.163909  1
  Lu  Lu5  1  0.274129  0.491466  0.500059  1
  Lu  Lu6  1  0.008422  0.225925  0.499942  1
  Lu  Lu7  1  0.533408  0.032973  0.836457  1
  Lu  Lu8  1  0.726187  0.508453  0.499785  1
  Lu  Lu9  1  0.991572  0.773940  0.499911  1
  Ni  Ni10  1  0.135222  0.632887  0.768662  1
  Ni  Ni11  1  0.865298  0.366991  0.230511  1
  Bi  Bi12  1  0.250209  0.249864  0.000168  1
  Bi  Bi13  1  0.749776  0.749932  0.999608  1
  Pd  Pd14  1  0.631357  0.868574  0.498734  1
  Pd  Pd15  1  0.368088  0.131709  0.502564  1
