# generated using pymatgen
data_Tb3CeTi2(AlIr2)2
_symmetry_space_group_name_H-M   'P 1'
_cell_length_a   7.00489521
_cell_length_b   4.27344000
_cell_length_c   7.98373313
_cell_angle_alpha   90.00000000
_cell_angle_beta   90.40898355
_cell_angle_gamma   90.00000000
_symmetry_Int_Tables_number   1
_chemical_formula_structural   Tb3CeTi2(AlIr2)2
_chemical_formula_sum   'Tb3 Ce1 Ti2 Al2 Ir4'
_cell_volume   238.98695771
_cell_formula_units_Z   1
loop_
 _symmetry_equiv_pos_site_id
 _symmetry_equiv_pos_as_xyz
  1  'x, y, z'
loop_
 _atom_site_type_symbol
 _atom_site_label
 _atom_site_symmetry_multiplicity
 _atom_site_fract_x
 _atom_site_fract_y
 _atom_site_fract_z
 _atom_site_occupancy
  Tb  Tb0  1  0.960076  0.250000  0.178026  1
  Tb  Tb1  1  0.463194  0.250000  0.317652  1
  Tb  Tb2  1  0.027733  0.750000  0.822783  1
  Ce  Ce3  1  0.529735  0.750000  0.674602  1
  Ti  Ti4  1  0.881887  0.250000  0.559716  1
  Ti  Ti5  1  0.370161  0.250000  0.942941  1
  Al  Al6  1  0.138086  0.750000  0.434277  1
  Al  Al7  1  0.636802  0.750000  0.065557  1
  Ir  Ir8  1  0.724804  0.250000  0.870966  1
  Ir  Ir9  1  0.232408  0.250000  0.625280  1
  Ir  Ir10  1  0.266605  0.750000  0.112023  1
  Ir  Ir11  1  0.768510  0.750000  0.396176  1
