# generated using pymatgen
data_Y4In3HgRh8
_symmetry_space_group_name_H-M   'P 1'
_cell_length_a   6.33193703
_cell_length_b   6.33094203
_cell_length_c   7.33591502
_cell_angle_alpha   90.00790075
_cell_angle_beta   90.00523241
_cell_angle_gamma   90.00854236
_symmetry_Int_Tables_number   1
_chemical_formula_structural   Y4In3HgRh8
_chemical_formula_sum   'Y4 In3 Hg1 Rh8'
_cell_volume   294.07574467
_cell_formula_units_Z   1
loop_
 _symmetry_equiv_pos_site_id
 _symmetry_equiv_pos_as_xyz
  1  'x, y, z'
loop_
 _atom_site_type_symbol
 _atom_site_label
 _atom_site_symmetry_multiplicity
 _atom_site_fract_x
 _atom_site_fract_y
 _atom_site_fract_z
 _atom_site_occupancy
  Y  Y0  1  0.749961  0.250001  0.000074  1
  Y  Y1  1  0.250036  0.750001  0.000066  1
  Y  Y2  1  0.750031  0.250001  0.499919  1
  Y  Y3  1  0.249969  0.750001  0.499936  1
  In  In4  1  0.750025  0.749997  0.000112  1
  In  In5  1  0.250004  0.249993  0.499985  1
  In  In6  1  0.749988  0.750008  0.499930  1
  Hg  Hg7  1  0.250004  0.249998  0.999982  1
  Rh  Rh8  1  0.998348  0.998359  0.253037  1
  Rh  Rh9  1  0.998332  0.501664  0.253085  1
  Rh  Rh10  1  0.501651  0.998334  0.253127  1
  Rh  Rh11  1  0.501631  0.501632  0.253069  1
  Rh  Rh12  1  0.501692  0.998341  0.746884  1
  Rh  Rh13  1  0.501662  0.501659  0.746931  1
  Rh  Rh14  1  0.998339  0.998345  0.746954  1
  Rh  Rh15  1  0.998327  0.501667  0.746911  1
