# generated using pymatgen
data_Sc12Si12OsRuRh2
_symmetry_space_group_name_H-M   'P 1'
_cell_length_a   4.02684800
_cell_length_b   10.26090236
_cell_length_c   11.68728658
_cell_angle_alpha   90.04055953
_cell_angle_beta   90.00000000
_cell_angle_gamma   90.00000000
_symmetry_Int_Tables_number   1
_chemical_formula_structural   Sc12Si12OsRuRh2
_chemical_formula_sum   'Sc12 Si12 Os1 Ru1 Rh2'
_cell_volume   482.90797315
_cell_formula_units_Z   1
loop_
 _symmetry_equiv_pos_site_id
 _symmetry_equiv_pos_as_xyz
  1  'x, y, z'
loop_
 _atom_site_type_symbol
 _atom_site_label
 _atom_site_symmetry_multiplicity
 _atom_site_fract_x
 _atom_site_fract_y
 _atom_site_fract_z
 _atom_site_occupancy
  Sc  Sc0  1  0.250000  0.876924  0.020965  1
  Sc  Sc1  1  0.250000  0.622703  0.520924  1
  Sc  Sc2  1  0.750000  0.122728  0.981438  1
  Sc  Sc3  1  0.750000  0.377050  0.482293  1
  Sc  Sc4  1  0.250000  0.920645  0.601887  1
  Sc  Sc5  1  0.250000  0.579490  0.101933  1
  Sc  Sc6  1  0.750000  0.079029  0.396729  1
  Sc  Sc7  1  0.750000  0.420915  0.895488  1
  Sc  Sc8  1  0.250000  0.660473  0.798140  1
  Sc  Sc9  1  0.250000  0.840278  0.298245  1
  Sc  Sc10  1  0.750000  0.342350  0.201023  1
  Sc  Sc11  1  0.750000  0.157614  0.701163  1
  Si  Si12  1  0.250000  0.014887  0.823414  1
  Si  Si13  1  0.250000  0.484761  0.323048  1
  Si  Si14  1  0.750000  0.984932  0.178573  1
  Si  Si15  1  0.750000  0.515536  0.678476  1
  Si  Si16  1  0.250000  0.250837  0.841270  1
  Si  Si17  1  0.250000  0.248629  0.341169  1
  Si  Si18  1  0.750000  0.747869  0.157435  1
  Si  Si19  1  0.750000  0.752260  0.657047  1
  Si  Si20  1  0.250000  0.195993  0.545749  1
  Si  Si21  1  0.250000  0.304538  0.045129  1
  Si  Si22  1  0.750000  0.807468  0.454643  1
  Si  Si23  1  0.750000  0.692362  0.954711  1
  Os  Os24  1  0.250000  0.391453  0.676357  1
  Ru  Ru25  1  0.250000  0.108755  0.176687  1
  Rh  Rh26  1  0.750000  0.610304  0.323112  1
  Rh  Rh27  1  0.750000  0.889217  0.822952  1
