# generated using pymatgen
data_Tb2DyHo3(Si3Ru)8
_symmetry_space_group_name_H-M   'P 1'
_cell_length_a   10.11618032
_cell_length_b   10.11618141
_cell_length_c   8.14070200
_cell_angle_alpha   90.06616759
_cell_angle_beta   89.93382503
_cell_angle_gamma   132.59533840
_symmetry_Int_Tables_number   1
_chemical_formula_structural   Tb2DyHo3(Si3Ru)8
_chemical_formula_sum   'Tb2 Dy1 Ho3 Si24 Ru8'
_cell_volume   613.28489839
_cell_formula_units_Z   1
loop_
 _symmetry_equiv_pos_site_id
 _symmetry_equiv_pos_as_xyz
  1  'x, y, z'
loop_
 _atom_site_type_symbol
 _atom_site_label
 _atom_site_symmetry_multiplicity
 _atom_site_fract_x
 _atom_site_fract_y
 _atom_site_fract_z
 _atom_site_occupancy
  Tb  Tb0  1  0.997624  0.497624  0.250000  1
  Tb  Tb1  1  0.497145  0.997145  0.250000  1
  Dy  Dy2  1  0.502371  0.002371  0.750000  1
  Ho  Ho3  1  0.499989  0.500069  0.500037  1
  Ho  Ho4  1  0.000069  0.999989  0.999963  1
  Ho  Ho5  1  0.002650  0.502650  0.750000  1
  Si  Si6  1  0.794080  0.205084  0.500626  1
  Si  Si7  1  0.294901  0.705805  0.999709  1
  Si  Si8  1  0.205805  0.794901  0.500291  1
  Si  Si9  1  0.705084  0.294080  0.999374  1
  Si  Si10  1  0.332562  0.332340  0.833133  1
  Si  Si11  1  0.667446  0.667627  0.166966  1
  Si  Si12  1  0.167627  0.167446  0.333034  1
  Si  Si13  1  0.832340  0.832562  0.666867  1
  Si  Si14  1  0.122158  0.887940  0.727786  1
  Si  Si15  1  0.113729  0.879336  0.271296  1
  Si  Si16  1  0.611361  0.376982  0.228370  1
  Si  Si17  1  0.621248  0.387179  0.771655  1
  Si  Si18  1  0.876982  0.111361  0.271630  1
  Si  Si19  1  0.887179  0.121248  0.728345  1
  Si  Si20  1  0.387940  0.622158  0.772214  1
  Si  Si21  1  0.379336  0.613729  0.228704  1
  Si  Si22  1  0.346074  0.112111  0.504734  1
  Si  Si23  1  0.888793  0.656017  0.496164  1
  Si  Si24  1  0.387823  0.153800  0.005149  1
  Si  Si25  1  0.844176  0.611203  0.994943  1
  Si  Si26  1  0.653800  0.887823  0.494851  1
  Si  Si27  1  0.111203  0.344176  0.505057  1
  Si  Si28  1  0.612111  0.846074  0.995266  1
  Si  Si29  1  0.156017  0.388793  0.003836  1
  Ru  Ru30  1  0.670952  0.333222  0.500522  1
  Ru  Ru31  1  0.166852  0.829113  0.998583  1
  Ru  Ru32  1  0.329113  0.666852  0.501417  1
  Ru  Ru33  1  0.833222  0.170952  0.999478  1
  Ru  Ru34  1  0.126230  0.125822  0.626905  1
  Ru  Ru35  1  0.874174  0.874010  0.372921  1
  Ru  Ru36  1  0.374010  0.374174  0.127079  1
  Ru  Ru37  1  0.625822  0.626230  0.873095  1
