# generated using pymatgen
data_RbIn7(GaRh)2
_symmetry_space_group_name_H-M   'P 1'
_cell_length_a   8.77460507
_cell_length_b   8.77460444
_cell_length_c   4.36266700
_cell_angle_alpha   90.00000000
_cell_angle_beta   90.00000000
_cell_angle_gamma   120.89465837
_symmetry_Int_Tables_number   1
_chemical_formula_structural   RbIn7(GaRh)2
_chemical_formula_sum   'Rb1 In7 Ga2 Rh2'
_cell_volume   288.23821553
_cell_formula_units_Z   1
loop_
 _symmetry_equiv_pos_site_id
 _symmetry_equiv_pos_as_xyz
  1  'x, y, z'
loop_
 _atom_site_type_symbol
 _atom_site_label
 _atom_site_symmetry_multiplicity
 _atom_site_fract_x
 _atom_site_fract_y
 _atom_site_fract_z
 _atom_site_occupancy
  Rb  Rb0  1  0.000000  0.000000  0.000000  1
  In  In1  1  0.585429  0.799358  0.500000  1
  In  In2  1  0.204720  0.795280  0.500000  1
  In  In3  1  0.200642  0.414571  0.500000  1
  In  In4  1  0.799358  0.585429  0.500000  1
  In  In5  1  0.795280  0.204720  0.500000  1
  In  In6  1  0.414571  0.200642  0.500000  1
  In  In7  1  0.500000  0.500000  0.000000  1
  Ga  Ga8  1  0.000000  0.500000  0.000000  1
  Ga  Ga9  1  0.500000  0.000000  0.000000  1
  Rh  Rh10  1  0.326437  0.673563  0.000000  1
  Rh  Rh11  1  0.673563  0.326437  0.000000  1
