# generated using pymatgen
data_BaMgV2(PO4)3
_symmetry_space_group_name_H-M   'P 1'
_cell_length_a   9.28660998
_cell_length_b   9.28660960
_cell_length_c   9.28660871
_cell_angle_alpha   137.29762728
_cell_angle_beta   110.08047710
_cell_angle_gamma   85.51338482
_symmetry_Int_Tables_number   1
_chemical_formula_structural   BaMgV2(PO4)3
_chemical_formula_sum   'Ba2 Mg2 V4 P6 O24'
_cell_volume   490.71324220
_cell_formula_units_Z   2
loop_
 _symmetry_equiv_pos_site_id
 _symmetry_equiv_pos_as_xyz
  1  'x, y, z'
loop_
 _atom_site_type_symbol
 _atom_site_label
 _atom_site_symmetry_multiplicity
 _atom_site_fract_x
 _atom_site_fract_y
 _atom_site_fract_z
 _atom_site_occupancy
  Ba  Ba0  1  0.750000  0.142774  0.392774  1
  Ba  Ba1  1  0.250000  0.857226  0.607226  1
  Mg  Mg2  1  0.617787  0.617787  0.500000  1
  Mg  Mg3  1  0.882213  0.382213  0.000000  1
  V  V4  1  0.999463  0.000000  0.999463  1
  V  V5  1  0.500537  0.500000  0.000537  1
  V  V6  1  0.116838  0.616838  0.000000  1
  V  V7  1  0.383162  0.383162  0.500000  1
  P  P8  1  0.820062  0.820062  0.500000  1
  P  P9  1  0.679938  0.179938  0.000000  1
  P  P10  1  0.322010  0.822010  0.000000  1
  P  P11  1  0.177990  0.177990  0.500000  1
  P  P12  1  0.750000  0.650803  0.900803  1
  P  P13  1  0.250000  0.349197  0.099197  1
  O  O14  1  0.637411  0.517843  0.644732  1
  O  O15  1  0.126887  0.482157  0.119568  1
  O  O16  1  0.373113  0.492680  0.355268  1
  O  O17  1  0.862589  0.507320  0.880432  1
  O  O18  1  0.161094  0.127001  0.974225  1
  O  O19  1  0.847225  0.872999  0.034093  1
  O  O20  1  0.652775  0.686869  0.025775  1
  O  O21  1  0.338906  0.313131  0.965907  1
  O  O22  1  0.855683  0.790411  0.656532  1
  O  O23  1  0.866123  0.209589  0.065272  1
  O  O24  1  0.358640  0.701590  0.065597  1
  O  O25  1  0.364008  0.298410  0.657050  1
  O  O26  1  0.141360  0.206957  0.342950  1
  O  O27  1  0.135992  0.793043  0.934403  1
  O  O28  1  0.644317  0.300850  0.934728  1
  O  O29  1  0.633877  0.699150  0.343468  1
  O  O30  1  0.846567  0.063482  0.647858  1
  O  O31  1  0.584377  0.936518  0.783086  1
  O  O32  1  0.347673  0.703410  0.783673  1
  O  O33  1  0.080263  0.296590  0.644263  1
  O  O34  1  0.152327  0.935999  0.355737  1
  O  O35  1  0.419737  0.064001  0.216327  1
  O  O36  1  0.653433  0.301290  0.216914  1
  O  O37  1  0.915623  0.698710  0.352142  1
