# generated using pymatgen
data_SrGd4Sn3O
_symmetry_space_group_name_H-M   'P 1'
_cell_length_a   9.38173027
_cell_length_b   9.38173046
_cell_length_c   9.38173000
_cell_angle_alpha   127.96292499
_cell_angle_beta   127.96291816
_cell_angle_gamma   76.68510522
_symmetry_Int_Tables_number   1
_chemical_formula_structural   SrGd4Sn3O
_chemical_formula_sum   'Sr2 Gd8 Sn6 O2'
_cell_volume   498.49376799
_cell_formula_units_Z   2
loop_
 _symmetry_equiv_pos_site_id
 _symmetry_equiv_pos_as_xyz
  1  'x, y, z'
loop_
 _atom_site_type_symbol
 _atom_site_label
 _atom_site_symmetry_multiplicity
 _atom_site_fract_x
 _atom_site_fract_y
 _atom_site_fract_z
 _atom_site_occupancy
  Sr  Sr0  1  0.500000  0.500000  0.000000  1
  Sr  Sr1  1  0.000000  0.000000  0.000000  1
  Gd  Gd2  1  0.499887  0.999887  0.808024  1
  Gd  Gd3  1  0.191865  0.691865  0.191976  1
  Gd  Gd4  1  0.999887  0.191865  0.500000  1
  Gd  Gd5  1  0.691865  0.499887  0.500000  1
  Gd  Gd6  1  0.500113  0.000113  0.191976  1
  Gd  Gd7  1  0.808135  0.308135  0.808024  1
  Gd  Gd8  1  0.000113  0.808135  0.500000  1
  Gd  Gd9  1  0.308135  0.500113  0.500000  1
  Sn  Sn10  1  0.250000  0.250000  0.000000  1
  Sn  Sn11  1  0.750000  0.750000  0.000000  1
  Sn  Sn12  1  0.871504  0.371504  0.243010  1
  Sn  Sn13  1  0.128496  0.628496  0.756990  1
  Sn  Sn14  1  0.371504  0.128496  0.500000  1
  Sn  Sn15  1  0.628496  0.871504  0.500000  1
  O  O16  1  0.250000  0.750000  0.500000  1
  O  O17  1  0.750000  0.250000  0.500000  1
