# generated using pymatgen
data_Cs4As2PtS8
_symmetry_space_group_name_H-M   'P 1'
_cell_length_a   13.52738300
_cell_length_b   7.55252898
_cell_length_c   10.01402800
_cell_angle_alpha   86.09705313
_cell_angle_beta   90.00000000
_cell_angle_gamma   90.00000000
_symmetry_Int_Tables_number   1
_chemical_formula_structural   Cs4As2PtS8
_chemical_formula_sum   'Cs8 As4 Pt2 S16'
_cell_volume   1020.71992772
_cell_formula_units_Z   2
loop_
 _symmetry_equiv_pos_site_id
 _symmetry_equiv_pos_as_xyz
  1  'x, y, z'
loop_
 _atom_site_type_symbol
 _atom_site_label
 _atom_site_symmetry_multiplicity
 _atom_site_fract_x
 _atom_site_fract_y
 _atom_site_fract_z
 _atom_site_occupancy
  Cs  Cs0  1  0.131015  0.826090  0.674893  1
  Cs  Cs1  1  0.631015  0.173910  0.825107  1
  Cs  Cs2  1  0.868985  0.173910  0.325107  1
  Cs  Cs3  1  0.368985  0.826090  0.174893  1
  Cs  Cs4  1  0.346387  0.278862  0.534811  1
  Cs  Cs5  1  0.846387  0.721138  0.965189  1
  Cs  Cs6  1  0.653613  0.721138  0.465189  1
  Cs  Cs7  1  0.153613  0.278862  0.034811  1
  As  As8  1  0.418768  0.764508  0.755081  1
  As  As9  1  0.918768  0.235492  0.744919  1
  As  As10  1  0.581232  0.235492  0.244919  1
  As  As11  1  0.081232  0.764508  0.255081  1
  Pt  Pt12  1  0.000000  0.500000  0.500000  1
  Pt  Pt13  1  0.500000  0.500000  0.000000  1
  S  S14  1  0.072128  0.315708  0.672431  1
  S  S15  1  0.572128  0.684292  0.827569  1
  S  S16  1  0.927872  0.684292  0.327569  1
  S  S17  1  0.427872  0.315708  0.172431  1
  S  S18  1  0.393623  0.763573  0.543261  1
  S  S19  1  0.893623  0.236427  0.956739  1
  S  S20  1  0.606377  0.236427  0.456739  1
  S  S21  1  0.106377  0.763573  0.043261  1
  S  S22  1  0.143631  0.522162  0.368450  1
  S  S23  1  0.643631  0.477838  0.131550  1
  S  S24  1  0.856369  0.477838  0.631550  1
  S  S25  1  0.356369  0.522162  0.868450  1
  S  S26  1  0.372707  0.009697  0.833907  1
  S  S27  1  0.872707  0.990303  0.666093  1
  S  S28  1  0.627293  0.990303  0.166093  1
  S  S29  1  0.127293  0.009697  0.333907  1
