# generated using pymatgen
data_Ba8LuNpSe12
_symmetry_space_group_name_H-M   'P 1'
_cell_length_a   9.04573287
_cell_length_b   9.04573296
_cell_length_c   9.04573416
_cell_angle_alpha   89.39294430
_cell_angle_beta   89.39294643
_cell_angle_gamma   89.39295022
_symmetry_Int_Tables_number   1
_chemical_formula_structural   Ba8LuNpSe12
_chemical_formula_sum   'Ba8 Lu1 Np1 Se12'
_cell_volume   740.04600820
_cell_formula_units_Z   1
loop_
 _symmetry_equiv_pos_site_id
 _symmetry_equiv_pos_as_xyz
  1  'x, y, z'
loop_
 _atom_site_type_symbol
 _atom_site_label
 _atom_site_symmetry_multiplicity
 _atom_site_fract_x
 _atom_site_fract_y
 _atom_site_fract_z
 _atom_site_occupancy
  Ba  Ba0  1  0.870931  0.621759  0.258282  1
  Ba  Ba1  1  0.258282  0.870931  0.621759  1
  Ba  Ba2  1  0.621759  0.258282  0.870931  1
  Ba  Ba3  1  0.741718  0.129069  0.378241  1
  Ba  Ba4  1  0.378241  0.741718  0.129069  1
  Ba  Ba5  1  0.129069  0.378241  0.741718  1
  Ba  Ba6  1  0.254800  0.254800  0.254800  1
  Ba  Ba7  1  0.745200  0.745200  0.745200  1
  Lu  Lu8  1  0.500000  0.500000  0.500000  1
  Np  Np9  1  0.000000  0.000000  0.000000  1
  Se  Se10  1  0.202704  0.564502  0.421557  1
  Se  Se11  1  0.421557  0.202704  0.564502  1
  Se  Se12  1  0.564502  0.421557  0.202704  1
  Se  Se13  1  0.927463  0.058233  0.707687  1
  Se  Se14  1  0.707687  0.927463  0.058233  1
  Se  Se15  1  0.058233  0.707687  0.927463  1
  Se  Se16  1  0.797296  0.435498  0.578443  1
  Se  Se17  1  0.578443  0.797296  0.435498  1
  Se  Se18  1  0.435498  0.578443  0.797296  1
  Se  Se19  1  0.072537  0.941767  0.292313  1
  Se  Se20  1  0.292313  0.072537  0.941767  1
  Se  Se21  1  0.941767  0.292313  0.072537  1
