# generated using pymatgen
data_Sc2Cr2C3
_symmetry_space_group_name_H-M   'P 1'
_cell_length_a   5.42898326
_cell_length_b   5.42898202
_cell_length_c   5.29446613
_cell_angle_alpha   72.37706072
_cell_angle_beta   72.37706441
_cell_angle_gamma   34.00682246
_symmetry_Int_Tables_number   1
_chemical_formula_structural   Sc2Cr2C3
_chemical_formula_sum   'Sc2 Cr2 C3'
_cell_volume   82.78721236
_cell_formula_units_Z   1
loop_
 _symmetry_equiv_pos_site_id
 _symmetry_equiv_pos_as_xyz
  1  'x, y, z'
loop_
 _atom_site_type_symbol
 _atom_site_label
 _atom_site_symmetry_multiplicity
 _atom_site_fract_x
 _atom_site_fract_y
 _atom_site_fract_z
 _atom_site_occupancy
  Sc  Sc0  1  0.385911  0.385911  0.313262  1
  Sc  Sc1  1  0.614089  0.614089  0.686738  1
  Cr  Cr2  1  0.150706  0.150706  0.124325  1
  Cr  Cr3  1  0.849294  0.849294  0.875675  1
  C  C4  1  0.723907  0.723907  0.246528  1
  C  C5  1  0.276093  0.276093  0.753472  1
  C  C6  1  0.000000  0.000000  0.000000  1
