# generated using pymatgen
data_Dy6Ho13ErPb16
_symmetry_space_group_name_H-M   'P 1'
_cell_length_a   8.19379501
_cell_length_b   8.25938373
_cell_length_c   15.60126740
_cell_angle_alpha   90.02413707
_cell_angle_beta   89.99788686
_cell_angle_gamma   90.00377556
_symmetry_Int_Tables_number   1
_chemical_formula_structural   Dy6Ho13ErPb16
_chemical_formula_sum   'Dy6 Ho13 Er1 Pb16'
_cell_volume   1055.82655058
_cell_formula_units_Z   1
loop_
 _symmetry_equiv_pos_site_id
 _symmetry_equiv_pos_as_xyz
  1  'x, y, z'
loop_
 _atom_site_type_symbol
 _atom_site_label
 _atom_site_symmetry_multiplicity
 _atom_site_fract_x
 _atom_site_fract_y
 _atom_site_fract_z
 _atom_site_occupancy
  Dy  Dy0  1  0.463362  0.676224  0.400230  1
  Dy  Dy1  1  0.963405  0.823828  0.099769  1
  Dy  Dy2  1  0.463091  0.675817  0.099488  1
  Dy  Dy3  1  0.963129  0.824232  0.400503  1
  Dy  Dy4  1  0.536340  0.323826  0.599546  1
  Dy  Dy5  1  0.036336  0.176177  0.900463  1
  Ho  Ho6  1  0.376840  0.842133  0.878433  1
  Ho  Ho7  1  0.876840  0.657865  0.621572  1
  Ho  Ho8  1  0.622735  0.157889  0.378769  1
  Ho  Ho9  1  0.122828  0.342050  0.121222  1
  Ho  Ho10  1  0.622647  0.158059  0.121037  1
  Ho  Ho11  1  0.122738  0.341884  0.378965  1
  Ho  Ho12  1  0.377118  0.842279  0.621639  1
  Ho  Ho13  1  0.877121  0.657716  0.878352  1
  Ho  Ho14  1  0.537877  0.324302  0.899666  1
  Ho  Ho15  1  0.037868  0.175700  0.600326  1
  Ho  Ho16  1  0.209214  0.504663  0.750033  1
  Ho  Ho17  1  0.709214  0.995360  0.749971  1
  Ho  Ho18  1  0.790909  0.495337  0.249857  1
  Er  Er19  1  0.290745  0.004631  0.250174  1
  Pb  Pb20  1  0.281527  0.034000  0.042864  1
  Pb  Pb21  1  0.781520  0.466008  0.457200  1
  Pb  Pb22  1  0.718765  0.966504  0.542990  1
  Pb  Pb23  1  0.218758  0.533497  0.957017  1
  Pb  Pb24  1  0.717387  0.965474  0.957176  1
  Pb  Pb25  1  0.217393  0.534529  0.542819  1
  Pb  Pb26  1  0.281640  0.034837  0.457797  1
  Pb  Pb27  1  0.781640  0.465173  0.042124  1
  Pb  Pb28  1  0.572215  0.625773  0.749854  1
  Pb  Pb29  1  0.072214  0.874227  0.750160  1
  Pb  Pb30  1  0.427695  0.373517  0.249992  1
  Pb  Pb31  1  0.927971  0.126246  0.249999  1
  Pb  Pb32  1  0.348824  0.154731  0.750153  1
  Pb  Pb33  1  0.848825  0.345237  0.749853  1
  Pb  Pb34  1  0.651588  0.845833  0.249697  1
  Pb  Pb35  1  0.151681  0.654441  0.250290  1
