# generated using pymatgen
data_Er6Mn2Al24PdRuPt4
_symmetry_space_group_name_H-M   'P 1'
_cell_length_a   8.78780706
_cell_length_b   8.78780602
_cell_length_c   9.43918700
_cell_angle_alpha   90.17936977
_cell_angle_beta   89.82063025
_cell_angle_gamma   119.85497545
_symmetry_Int_Tables_number   1
_chemical_formula_structural   Er6Mn2Al24PdRuPt4
_chemical_formula_sum   'Er6 Mn2 Al24 Pd1 Ru1 Pt4'
_cell_volume   632.20243512
_cell_formula_units_Z   1
loop_
 _symmetry_equiv_pos_site_id
 _symmetry_equiv_pos_as_xyz
  1  'x, y, z'
loop_
 _atom_site_type_symbol
 _atom_site_label
 _atom_site_symmetry_multiplicity
 _atom_site_fract_x
 _atom_site_fract_y
 _atom_site_fract_z
 _atom_site_occupancy
  Er  Er0  1  0.191214  0.381104  0.251104  1
  Er  Er1  1  0.808786  0.618896  0.748896  1
  Er  Er2  1  0.617171  0.810081  0.250748  1
  Er  Er3  1  0.382829  0.189919  0.749252  1
  Er  Er4  1  0.193295  0.811167  0.250290  1
  Er  Er5  1  0.806705  0.188833  0.749710  1
  Mn  Mn6  1  0.000000  0.000000  0.000000  1
  Mn  Mn7  1  0.000000  0.000000  0.500000  1
  Al  Al8  1  0.332792  0.666216  0.032349  1
  Al  Al9  1  0.667208  0.333784  0.967651  1
  Al  Al10  1  0.664225  0.327839  0.530657  1
  Al  Al11  1  0.335775  0.672161  0.469343  1
  Al  Al12  1  0.158481  0.316091  0.576072  1
  Al  Al13  1  0.841519  0.683909  0.423928  1
  Al  Al14  1  0.681072  0.844961  0.574787  1
  Al  Al15  1  0.842607  0.684858  0.076734  1
  Al  Al16  1  0.318928  0.155039  0.425213  1
  Al  Al17  1  0.157393  0.315142  0.923266  1
  Al  Al18  1  0.164219  0.845788  0.575815  1
  Al  Al19  1  0.316418  0.158615  0.077059  1
  Al  Al20  1  0.835781  0.154212  0.424185  1
  Al  Al21  1  0.683582  0.841385  0.922941  1
  Al  Al22  1  0.842342  0.158803  0.077322  1
  Al  Al23  1  0.157658  0.841197  0.922678  1
  Al  Al24  1  0.562998  0.125886  0.253764  1
  Al  Al25  1  0.437002  0.874114  0.746236  1
  Al  Al26  1  0.872517  0.436596  0.250636  1
  Al  Al27  1  0.127483  0.563404  0.749364  1
  Al  Al28  1  0.564575  0.436178  0.249846  1
  Al  Al29  1  0.435425  0.563822  0.750154  1
  Al  Al30  1  0.999876  0.000782  0.250568  1
  Al  Al31  1  0.000124  0.999218  0.749432  1
  Pd  Pd32  1  0.000000  0.500000  0.500000  1
  Ru  Ru33  1  0.500000  0.000000  0.500000  1
  Pt  Pt34  1  0.500000  0.000000  0.000000  1
  Pt  Pt35  1  0.000000  0.500000  0.000000  1
  Pt  Pt36  1  0.500000  0.500000  0.000000  1
  Pt  Pt37  1  0.500000  0.500000  0.500000  1
