# generated using pymatgen
data_Tb8Zr11Si16Pd
_symmetry_space_group_name_H-M   'P 1'
_cell_length_a   7.34892886
_cell_length_b   7.34892909
_cell_length_c   13.40220717
_cell_angle_alpha   89.81537368
_cell_angle_beta   90.18462284
_cell_angle_gamma   89.85138977
_symmetry_Int_Tables_number   1
_chemical_formula_structural   Tb8Zr11Si16Pd
_chemical_formula_sum   'Tb8 Zr11 Si16 Pd1'
_cell_volume   723.79977724
_cell_formula_units_Z   1
loop_
 _symmetry_equiv_pos_site_id
 _symmetry_equiv_pos_as_xyz
  1  'x, y, z'
loop_
 _atom_site_type_symbol
 _atom_site_label
 _atom_site_symmetry_multiplicity
 _atom_site_fract_x
 _atom_site_fract_y
 _atom_site_fract_z
 _atom_site_occupancy
  Tb  Tb0  1  0.998372  0.347533  0.208799  1
  Tb  Tb1  1  0.005176  0.651815  0.715892  1
  Tb  Tb2  1  0.153718  0.495577  0.462901  1
  Tb  Tb3  1  0.498545  0.850945  0.034232  1
  Tb  Tb4  1  0.850945  0.498545  0.965768  1
  Tb  Tb5  1  0.495577  0.153718  0.537099  1
  Tb  Tb6  1  0.347533  0.998372  0.791201  1
  Tb  Tb7  1  0.651815  0.005176  0.284108  1
  Zr  Zr8  1  0.823987  0.823987  0.500000  1
  Zr  Zr9  1  0.321307  0.678090  0.248017  1
  Zr  Zr10  1  0.678090  0.321307  0.751983  1
  Zr  Zr11  1  0.143449  0.996837  0.373096  1
  Zr  Zr12  1  0.857323  0.003834  0.879233  1
  Zr  Zr13  1  0.503548  0.644052  0.626689  1
  Zr  Zr14  1  0.356791  0.493789  0.877172  1
  Zr  Zr15  1  0.493789  0.356791  0.122828  1
  Zr  Zr16  1  0.644052  0.503548  0.373311  1
  Zr  Zr17  1  0.996837  0.143449  0.626904  1
  Zr  Zr18  1  0.003834  0.857323  0.120767  1
  Si  Si19  1  0.357509  0.294736  0.314712  1
  Si  Si20  1  0.641696  0.706177  0.819137  1
  Si  Si21  1  0.208418  0.859772  0.567361  1
  Si  Si22  1  0.134577  0.780589  0.929748  1
  Si  Si23  1  0.780589  0.134577  0.070252  1
  Si  Si24  1  0.859772  0.208418  0.432639  1
  Si  Si25  1  0.294736  0.357509  0.685288  1
  Si  Si26  1  0.706177  0.641696  0.180863  1
  Si  Si27  1  0.291654  0.059133  0.185082  1
  Si  Si28  1  0.705451  0.946820  0.688749  1
  Si  Si29  1  0.447120  0.795672  0.436750  1
  Si  Si30  1  0.209581  0.561454  0.061624  1
  Si  Si31  1  0.561454  0.209581  0.938376  1
  Si  Si32  1  0.795672  0.447120  0.563250  1
  Si  Si33  1  0.059133  0.291654  0.814918  1
  Si  Si34  1  0.946820  0.705451  0.311251  1
  Pd  Pd35  1  0.174951  0.174951  0.000000  1
