# generated using pymatgen
data_Zr6Zn20SiPd2Pt
_symmetry_space_group_name_H-M   'P 1'
_cell_length_a   8.80852865
_cell_length_b   8.80852810
_cell_length_c   8.80921100
_cell_angle_alpha   59.99744664
_cell_angle_beta   59.99744871
_cell_angle_gamma   60.02687675
_symmetry_Int_Tables_number   1
_chemical_formula_structural   Zr6Zn20SiPd2Pt
_chemical_formula_sum   'Zr6 Zn20 Si1 Pd2 Pt1'
_cell_volume   483.39271833
_cell_formula_units_Z   1
loop_
 _symmetry_equiv_pos_site_id
 _symmetry_equiv_pos_as_xyz
  1  'x, y, z'
loop_
 _atom_site_type_symbol
 _atom_site_label
 _atom_site_symmetry_multiplicity
 _atom_site_fract_x
 _atom_site_fract_y
 _atom_site_fract_z
 _atom_site_occupancy
  Zr  Zr0  1  0.707184  0.292816  0.291267  1
  Zr  Zr1  1  0.292816  0.707184  0.708733  1
  Zr  Zr2  1  0.292816  0.707184  0.291267  1
  Zr  Zr3  1  0.707184  0.292816  0.708733  1
  Zr  Zr4  1  0.287406  0.287406  0.712594  1
  Zr  Zr5  1  0.712594  0.712594  0.287406  1
  Zn  Zn6  1  0.119853  0.119853  0.127243  1
  Zn  Zn7  1  0.880147  0.880147  0.872757  1
  Zn  Zn8  1  0.119853  0.119853  0.633051  1
  Zn  Zn9  1  0.126300  0.633105  0.120298  1
  Zn  Zn10  1  0.880147  0.880147  0.366949  1
  Zn  Zn11  1  0.873700  0.366895  0.879702  1
  Zn  Zn12  1  0.633105  0.126300  0.120298  1
  Zn  Zn13  1  0.366895  0.873700  0.879702  1
  Zn  Zn14  1  0.500000  0.000000  0.000000  1
  Zn  Zn15  1  0.000000  0.500000  0.500000  1
  Zn  Zn16  1  0.000000  0.500000  0.000000  1
  Zn  Zn17  1  0.500000  0.000000  0.500000  1
  Zn  Zn18  1  0.336046  0.336046  0.339076  1
  Zn  Zn19  1  0.663954  0.663954  0.660924  1
  Zn  Zn20  1  0.336046  0.336046  0.988834  1
  Zn  Zn21  1  0.337645  0.988884  0.336736  1
  Zn  Zn22  1  0.663954  0.663954  0.011166  1
  Zn  Zn23  1  0.662355  0.011116  0.663264  1
  Zn  Zn24  1  0.988884  0.337645  0.336736  1
  Zn  Zn25  1  0.011116  0.662355  0.663264  1
  Si  Si26  1  0.500000  0.500000  0.500000  1
  Pd  Pd27  1  0.000000  0.000000  0.500000  1
  Pd  Pd28  1  0.000000  0.000000  0.000000  1
  Pt  Pt29  1  0.500000  0.500000  0.000000  1
