# generated using pymatgen
data_Sc6Zn23P
_symmetry_space_group_name_H-M   'P 1'
_cell_length_a   8.79974256
_cell_length_b   8.79972312
_cell_length_c   8.79972400
_cell_angle_alpha   60.00010194
_cell_angle_beta   60.00012239
_cell_angle_gamma   60.00012599
_symmetry_Int_Tables_number   1
_chemical_formula_structural   Sc6Zn23P
_chemical_formula_sum   'Sc6 Zn23 P1'
_cell_volume   481.83037735
_cell_formula_units_Z   1
loop_
 _symmetry_equiv_pos_site_id
 _symmetry_equiv_pos_as_xyz
  1  'x, y, z'
loop_
 _atom_site_type_symbol
 _atom_site_label
 _atom_site_symmetry_multiplicity
 _atom_site_fract_x
 _atom_site_fract_y
 _atom_site_fract_z
 _atom_site_occupancy
  Sc  Sc0  1  0.706108  0.293892  0.293892  1
  Sc  Sc1  1  0.293892  0.706108  0.706108  1
  Sc  Sc2  1  0.293893  0.706108  0.293890  1
  Sc  Sc3  1  0.706107  0.293892  0.706110  1
  Sc  Sc4  1  0.293893  0.293890  0.706108  1
  Sc  Sc5  1  0.706107  0.706110  0.293892  1
  Zn  Zn6  1  0.122402  0.122402  0.122402  1
  Zn  Zn7  1  0.877598  0.877598  0.877598  1
  Zn  Zn8  1  0.122401  0.122401  0.632797  1
  Zn  Zn9  1  0.122401  0.632797  0.122401  1
  Zn  Zn10  1  0.877599  0.877599  0.367203  1
  Zn  Zn11  1  0.877599  0.367203  0.877599  1
  Zn  Zn12  1  0.632796  0.122401  0.122401  1
  Zn  Zn13  1  0.367204  0.877599  0.877599  1
  Zn  Zn14  1  0.500000  0.000000  0.000000  1
  Zn  Zn15  1  0.000000  0.500000  0.500000  1
  Zn  Zn16  1  0.000000  0.500000  0.000000  1
  Zn  Zn17  1  0.500000  0.000000  0.500000  1
  Zn  Zn18  1  0.000000  0.000000  0.500000  1
  Zn  Zn19  1  0.500000  0.500000  0.000000  1
  Zn  Zn20  1  0.331701  0.331701  0.331701  1
  Zn  Zn21  1  0.668299  0.668299  0.668299  1
  Zn  Zn22  1  0.331699  0.331699  0.004900  1
  Zn  Zn23  1  0.331699  0.004900  0.331699  1
  Zn  Zn24  1  0.668301  0.668301  0.995100  1
  Zn  Zn25  1  0.668301  0.995100  0.668301  1
  Zn  Zn26  1  0.004900  0.331699  0.331699  1
  Zn  Zn27  1  0.995100  0.668301  0.668301  1
  Zn  Zn28  1  0.000000  0.000000  0.000000  1
  P  P29  1  0.500000  0.500000  0.500000  1
