# generated using pymatgen
data_LiEr3In4Pd
_symmetry_space_group_name_H-M   'P 1'
_cell_length_a   8.13025100
_cell_length_b   8.13025083
_cell_length_c   3.61645200
_cell_angle_alpha   90.00000000
_cell_angle_beta   90.00000000
_cell_angle_gamma   119.99999661
_symmetry_Int_Tables_number   1
_chemical_formula_structural   LiEr3In4Pd
_chemical_formula_sum   'Li1 Er3 In4 Pd1'
_cell_volume   207.02426420
_cell_formula_units_Z   1
loop_
 _symmetry_equiv_pos_site_id
 _symmetry_equiv_pos_as_xyz
  1  'x, y, z'
loop_
 _atom_site_type_symbol
 _atom_site_label
 _atom_site_symmetry_multiplicity
 _atom_site_fract_x
 _atom_site_fract_y
 _atom_site_fract_z
 _atom_site_occupancy
  Li  Li0  1  0.666667  0.333333  0.500000  1
  Er  Er1  1  0.700610  0.953859  0.500000  1
  Er  Er2  1  0.253249  0.299390  0.500000  1
  Er  Er3  1  0.046141  0.746751  0.500000  1
  In  In4  1  0.933247  0.341053  0.000000  1
  In  In5  1  0.407807  0.066753  0.000000  1
  In  In6  1  0.658947  0.592193  0.000000  1
  In  In7  1  0.333333  0.666667  0.000000  1
  Pd  Pd8  1  0.000000  0.000000  0.000000  1
