# generated using pymatgen
data_Sr5LaCd2(CoO6)2
_symmetry_space_group_name_H-M   'P 1'
_cell_length_a   6.74117591
_cell_length_b   6.75071676
_cell_length_c   6.70848383
_cell_angle_alpha   90.46703916
_cell_angle_beta   91.01166994
_cell_angle_gamma   90.36173805
_symmetry_Int_Tables_number   1
_chemical_formula_structural   Sr5LaCd2(CoO6)2
_chemical_formula_sum   'Sr5 La1 Cd2 Co2 O12'
_cell_volume   305.22403814
_cell_formula_units_Z   1
loop_
 _symmetry_equiv_pos_site_id
 _symmetry_equiv_pos_as_xyz
  1  'x, y, z'
loop_
 _atom_site_type_symbol
 _atom_site_label
 _atom_site_symmetry_multiplicity
 _atom_site_fract_x
 _atom_site_fract_y
 _atom_site_fract_z
 _atom_site_occupancy
  Sr  Sr0  1  0.245650  0.618639  0.886522  1
  Sr  Sr1  1  0.616645  0.884645  0.244164  1
  Sr  Sr2  1  0.752935  0.386590  0.114050  1
  Sr  Sr3  1  0.383964  0.112134  0.755603  1
  Sr  Sr4  1  0.115122  0.753272  0.381022  1
  La  La5  1  0.889187  0.245488  0.616295  1
  Cd  Cd6  1  0.752314  0.751304  0.751580  1
  Cd  Cd7  1  0.250268  0.247981  0.245707  1
  Co  Co8  1  0.998425  0.003204  0.999804  1
  Co  Co9  1  0.499855  0.496885  0.501665  1
  O  O10  1  0.219159  0.416530  0.550868  1
  O  O11  1  0.424051  0.547629  0.228931  1
  O  O12  1  0.558016  0.225622  0.430192  1
  O  O13  1  0.917425  0.725509  0.052602  1
  O  O14  1  0.723816  0.059673  0.910517  1
  O  O15  1  0.050348  0.927832  0.718034  1
  O  O16  1  0.777377  0.569251  0.454350  1
  O  O17  1  0.579419  0.443184  0.771244  1
  O  O18  1  0.448560  0.766126  0.577085  1
  O  O19  1  0.075021  0.281835  0.940031  1
  O  O20  1  0.278320  0.949319  0.083915  1
  O  O21  1  0.944124  0.087350  0.285820  1
