# generated using pymatgen
data_Y14Tm2In4RuRh3
_symmetry_space_group_name_H-M   'P 1'
_cell_length_a   9.68674401
_cell_length_b   9.68002602
_cell_length_c   9.72875286
_cell_angle_alpha   59.82797424
_cell_angle_beta   59.74651012
_cell_angle_gamma   59.53924043
_symmetry_Int_Tables_number   1
_chemical_formula_structural   Y14Tm2In4RuRh3
_chemical_formula_sum   'Y14 Tm2 In4 Ru1 Rh3'
_cell_volume   640.71739818
_cell_formula_units_Z   1
loop_
 _symmetry_equiv_pos_site_id
 _symmetry_equiv_pos_as_xyz
  1  'x, y, z'
loop_
 _atom_site_type_symbol
 _atom_site_label
 _atom_site_symmetry_multiplicity
 _atom_site_fract_x
 _atom_site_fract_y
 _atom_site_fract_z
 _atom_site_occupancy
  Y  Y0  1  0.060317  0.060302  0.437502  1
  Y  Y1  1  0.442308  0.059751  0.437099  1
  Y  Y2  1  0.060577  0.439327  0.060429  1
  Y  Y3  1  0.048483  0.650248  0.648616  1
  Y  Y4  1  0.440124  0.440129  0.059248  1
  Y  Y5  1  0.650244  0.048476  0.648680  1
  Y  Y6  1  0.189005  0.809697  0.193270  1
  Y  Y7  1  0.190614  0.190568  0.809939  1
  Y  Y8  1  0.808699  0.808701  0.194535  1
  Y  Y9  1  0.439262  0.060640  0.060478  1
  Y  Y10  1  0.809722  0.189025  0.193304  1
  Y  Y11  1  0.059811  0.442196  0.437025  1
  Y  Y12  1  0.808953  0.192307  0.808706  1
  Y  Y13  1  0.192324  0.808931  0.808710  1
  Tm  Tm14  1  0.650538  0.650606  0.047363  1
  Tm  Tm15  1  0.652660  0.652614  0.649837  1
  In  In16  1  0.416663  0.416299  0.417572  1
  In  In17  1  0.748647  0.417589  0.417022  1
  In  In18  1  0.417458  0.749075  0.417093  1
  In  In19  1  0.418571  0.418595  0.747293  1
  Ru  Ru20  1  0.856075  0.856068  0.426168  1
  Rh  Rh21  1  0.856342  0.856324  0.862014  1
  Rh  Rh22  1  0.428851  0.853708  0.859033  1
  Rh  Rh23  1  0.853751  0.428823  0.859067  1
