# generated using pymatgen
data_Pa2FeRh2
_symmetry_space_group_name_H-M   'P 1'
_cell_length_a   5.52054400
_cell_length_b   7.87790300
_cell_length_c   8.26891200
_cell_angle_alpha   90.00000000
_cell_angle_beta   90.00000000
_cell_angle_gamma   90.00000000
_symmetry_Int_Tables_number   1
_chemical_formula_structural   Pa2FeRh2
_chemical_formula_sum   'Pa8 Fe4 Rh8'
_cell_volume   359.61754739
_cell_formula_units_Z   4
loop_
 _symmetry_equiv_pos_site_id
 _symmetry_equiv_pos_as_xyz
  1  'x, y, z'
loop_
 _atom_site_type_symbol
 _atom_site_label
 _atom_site_symmetry_multiplicity
 _atom_site_fract_x
 _atom_site_fract_y
 _atom_site_fract_z
 _atom_site_occupancy
  Pa  Pa0  1  0.750000  0.911431  0.848790  1
  Pa  Pa1  1  0.750000  0.411431  0.651210  1
  Pa  Pa2  1  0.250000  0.088569  0.151210  1
  Pa  Pa3  1  0.250000  0.588569  0.348790  1
  Pa  Pa4  1  0.750000  0.929279  0.390350  1
  Pa  Pa5  1  0.750000  0.429279  0.109650  1
  Pa  Pa6  1  0.250000  0.070721  0.609650  1
  Pa  Pa7  1  0.250000  0.570721  0.890350  1
  Fe  Fe8  1  0.750000  0.578657  0.339647  1
  Fe  Fe9  1  0.750000  0.078657  0.160353  1
  Fe  Fe10  1  0.250000  0.421343  0.660353  1
  Fe  Fe11  1  0.250000  0.921343  0.839647  1
  Rh  Rh12  1  0.998095  0.268709  0.390743  1
  Rh  Rh13  1  0.501905  0.768709  0.109257  1
  Rh  Rh14  1  0.498095  0.731291  0.609257  1
  Rh  Rh15  1  0.001905  0.231291  0.890743  1
  Rh  Rh16  1  0.001905  0.731291  0.609257  1
  Rh  Rh17  1  0.498095  0.231291  0.890743  1
  Rh  Rh18  1  0.501905  0.268709  0.390743  1
  Rh  Rh19  1  0.998095  0.768709  0.109257  1
