# generated using pymatgen
data_LaY(Ge2Pt)2
_symmetry_space_group_name_H-M   'P 1'
_cell_length_a   4.44039090
_cell_length_b   8.81980452
_cell_length_c   9.66973073
_cell_angle_alpha   117.13265598
_cell_angle_beta   103.27367801
_cell_angle_gamma   90.00000215
_symmetry_Int_Tables_number   1
_chemical_formula_structural   LaY(Ge2Pt)2
_chemical_formula_sum   'La2 Y2 Ge8 Pt4'
_cell_volume   325.61515038
_cell_formula_units_Z   2
loop_
 _symmetry_equiv_pos_site_id
 _symmetry_equiv_pos_as_xyz
  1  'x, y, z'
loop_
 _atom_site_type_symbol
 _atom_site_label
 _atom_site_symmetry_multiplicity
 _atom_site_fract_x
 _atom_site_fract_y
 _atom_site_fract_z
 _atom_site_occupancy
  La  La0  1  0.000000  0.260282  0.000000  1
  La  La1  1  0.000000  0.739718  0.000000  1
  Y  Y2  1  0.797822  0.297822  0.595644  1
  Y  Y3  1  0.202178  0.702178  0.404356  1
  Ge  Ge4  1  0.425977  0.925977  0.851954  1
  Ge  Ge5  1  0.574023  0.074023  0.148046  1
  Ge  Ge6  1  0.423921  0.423921  0.847843  1
  Ge  Ge7  1  0.576079  0.576079  0.152157  1
  Ge  Ge8  1  0.200724  0.051285  0.401448  1
  Ge  Ge9  1  0.799276  0.948715  0.598552  1
  Ge  Ge10  1  0.200724  0.350163  0.401448  1
  Ge  Ge11  1  0.799276  0.649837  0.598552  1
  Pt  Pt12  1  0.348561  0.095846  0.697122  1
  Pt  Pt13  1  0.651439  0.904154  0.302878  1
  Pt  Pt14  1  0.348561  0.601276  0.697122  1
  Pt  Pt15  1  0.651439  0.398724  0.302878  1
