# generated using pymatgen
data_Dy2SiAuBr2
_symmetry_space_group_name_H-M   'P 1'
_cell_length_a   4.17705300
_cell_length_b   4.17705274
_cell_length_c   10.99810700
_cell_angle_alpha   90.00000000
_cell_angle_beta   90.00000000
_cell_angle_gamma   119.99999414
_symmetry_Int_Tables_number   1
_chemical_formula_structural   Dy2SiAuBr2
_chemical_formula_sum   'Dy2 Si1 Au1 Br2'
_cell_volume   166.18374533
_cell_formula_units_Z   1
loop_
 _symmetry_equiv_pos_site_id
 _symmetry_equiv_pos_as_xyz
  1  'x, y, z'
loop_
 _atom_site_type_symbol
 _atom_site_label
 _atom_site_symmetry_multiplicity
 _atom_site_fract_x
 _atom_site_fract_y
 _atom_site_fract_z
 _atom_site_occupancy
  Dy  Dy0  1  0.000000  0.000000  0.179162  1
  Dy  Dy1  1  0.000000  0.000000  0.821257  1
  Si  Si2  1  0.666667  0.333333  0.979441  1
  Au  Au3  1  0.333333  0.666667  0.020288  1
  Br  Br4  1  0.333333  0.666667  0.662049  1
  Br  Br5  1  0.666667  0.333333  0.337803  1
