# generated using pymatgen
data_Th4Al13Cu9
_symmetry_space_group_name_H-M   'P 1'
_cell_length_a   11.19704600
_cell_length_b   11.19704389
_cell_length_c   4.12665500
_cell_angle_alpha   90.00000000
_cell_angle_beta   90.00000000
_cell_angle_gamma   119.99999442
_symmetry_Int_Tables_number   1
_chemical_formula_structural   Th4Al13Cu9
_chemical_formula_sum   'Th4 Al13 Cu9'
_cell_volume   448.05947034
_cell_formula_units_Z   1
loop_
 _symmetry_equiv_pos_site_id
 _symmetry_equiv_pos_as_xyz
  1  'x, y, z'
loop_
 _atom_site_type_symbol
 _atom_site_label
 _atom_site_symmetry_multiplicity
 _atom_site_fract_x
 _atom_site_fract_y
 _atom_site_fract_z
 _atom_site_occupancy
  Th  Th0  1  0.204436  0.795564  0.500000  1
  Th  Th1  1  0.591128  0.795564  0.500000  1
  Th  Th2  1  0.204436  0.408872  0.500000  1
  Th  Th3  1  0.666667  0.333333  0.000000  1
  Al  Al4  1  0.946646  0.291061  0.000000  1
  Al  Al5  1  0.708939  0.655584  0.000000  1
  Al  Al6  1  0.946646  0.655584  0.000000  1
  Al  Al7  1  0.344416  0.053354  0.000000  1
  Al  Al8  1  0.168220  0.084111  0.500000  1
  Al  Al9  1  0.915889  0.831780  0.500000  1
  Al  Al10  1  0.708939  0.053354  0.000000  1
  Al  Al11  1  0.529961  0.059922  0.500000  1
  Al  Al12  1  0.915889  0.084111  0.500000  1
  Al  Al13  1  0.344416  0.291061  0.000000  1
  Al  Al14  1  0.529961  0.470039  0.500000  1
  Al  Al15  1  0.940078  0.470039  0.500000  1
  Al  Al16  1  0.333333  0.666667  0.000000  1
  Cu  Cu17  1  0.457993  0.542007  0.000000  1
  Cu  Cu18  1  0.839528  0.919764  0.000000  1
  Cu  Cu19  1  0.457993  0.915985  0.000000  1
  Cu  Cu20  1  0.080236  0.160472  0.000000  1
  Cu  Cu21  1  0.080236  0.919764  0.000000  1
  Cu  Cu22  1  0.788101  0.576201  0.500000  1
  Cu  Cu23  1  0.084015  0.542007  0.000000  1
  Cu  Cu24  1  0.788101  0.211899  0.500000  1
  Cu  Cu25  1  0.423799  0.211899  0.500000  1
