# generated using pymatgen
data_TlCr(SnS3)2
_symmetry_space_group_name_H-M   'P 1'
_cell_length_a   9.07782495
_cell_length_b   9.07782384
_cell_length_c   9.07782500
_cell_angle_alpha   40.78360309
_cell_angle_beta   40.78361120
_cell_angle_gamma   40.78360911
_symmetry_Int_Tables_number   1
_chemical_formula_structural   TlCr(SnS3)2
_chemical_formula_sum   'Tl1 Cr1 Sn2 S6'
_cell_volume   288.03175271
_cell_formula_units_Z   1
loop_
 _symmetry_equiv_pos_site_id
 _symmetry_equiv_pos_as_xyz
  1  'x, y, z'
loop_
 _atom_site_type_symbol
 _atom_site_label
 _atom_site_symmetry_multiplicity
 _atom_site_fract_x
 _atom_site_fract_y
 _atom_site_fract_z
 _atom_site_occupancy
  Tl  Tl0  1  0.998986  0.998986  0.998986  1
  Cr  Cr1  1  0.166987  0.166987  0.166987  1
  Sn  Sn2  1  0.500989  0.500989  0.500989  1
  Sn  Sn3  1  0.832237  0.832237  0.832237  1
  S  S4  1  0.539549  0.220979  0.909956  1
  S  S5  1  0.909956  0.539549  0.220979  1
  S  S6  1  0.220979  0.909956  0.539549  1
  S  S7  1  0.795840  0.112613  0.421867  1
  S  S8  1  0.112613  0.421867  0.795840  1
  S  S9  1  0.421867  0.795840  0.112613  1
