# generated using pymatgen
data_Pr3Nd2P12Pd3Ru16
_symmetry_space_group_name_H-M   'P 1'
_cell_length_a   12.70647800
_cell_length_b   12.70647836
_cell_length_c   4.02265900
_cell_angle_alpha   90.00000000
_cell_angle_beta   90.00000000
_cell_angle_gamma   120.00000948
_symmetry_Int_Tables_number   1
_chemical_formula_structural   Pr3Nd2P12Pd3Ru16
_chemical_formula_sum   'Pr3 Nd2 P12 Pd3 Ru16'
_cell_volume   562.46331127
_cell_formula_units_Z   1
loop_
 _symmetry_equiv_pos_site_id
 _symmetry_equiv_pos_as_xyz
  1  'x, y, z'
loop_
 _atom_site_type_symbol
 _atom_site_label
 _atom_site_symmetry_multiplicity
 _atom_site_fract_x
 _atom_site_fract_y
 _atom_site_fract_z
 _atom_site_occupancy
  Pr  Pr0  1  0.000000  0.181843  0.500000  1
  Pr  Pr1  1  0.818157  0.818157  0.500000  1
  Pr  Pr2  1  0.181843  0.000000  0.500000  1
  Nd  Nd3  1  0.666667  0.333333  0.000000  1
  Nd  Nd4  1  0.333333  0.666667  0.000000  1
  P  P5  1  0.000000  0.811205  0.000000  1
  P  P6  1  0.188795  0.188795  0.000000  1
  P  P7  1  0.811205  0.000000  0.000000  1
  P  P8  1  0.700647  0.178830  0.500000  1
  P  P9  1  0.821170  0.521817  0.500000  1
  P  P10  1  0.478183  0.299353  0.500000  1
  P  P11  1  0.178830  0.700647  0.500000  1
  P  P12  1  0.521817  0.821170  0.500000  1
  P  P13  1  0.299353  0.478183  0.500000  1
  P  P14  1  0.000000  0.368985  0.000000  1
  P  P15  1  0.631015  0.631015  0.000000  1
  P  P16  1  0.368985  0.000000  0.000000  1
  Pd  Pd17  1  0.000000  0.553562  0.000000  1
  Pd  Pd18  1  0.446438  0.446438  0.000000  1
  Pd  Pd19  1  0.553562  0.000000  0.000000  1
  Ru  Ru20  1  0.000000  0.710360  0.500000  1
  Ru  Ru21  1  0.289640  0.289640  0.500000  1
  Ru  Ru22  1  0.710360  0.000000  0.500000  1
  Ru  Ru23  1  0.805568  0.185577  0.000000  1
  Ru  Ru24  1  0.814423  0.619991  0.000000  1
  Ru  Ru25  1  0.380009  0.194432  0.000000  1
  Ru  Ru26  1  0.185577  0.805568  0.000000  1
  Ru  Ru27  1  0.619991  0.814423  0.000000  1
  Ru  Ru28  1  0.194432  0.380009  0.000000  1
  Ru  Ru29  1  0.877393  0.369520  0.500000  1
  Ru  Ru30  1  0.630480  0.507873  0.500000  1
  Ru  Ru31  1  0.492127  0.122607  0.500000  1
  Ru  Ru32  1  0.369520  0.877393  0.500000  1
  Ru  Ru33  1  0.507873  0.630480  0.500000  1
  Ru  Ru34  1  0.122607  0.492127  0.500000  1
  Ru  Ru35  1  0.000000  0.000000  0.000000  1
