# generated using pymatgen
data_Y4Sc6Ga5Si3
_symmetry_space_group_name_H-M   'P 1'
_cell_length_a   7.20330400
_cell_length_b   7.51442110
_cell_length_c   14.30386517
_cell_angle_alpha   89.98188971
_cell_angle_beta   90.00000000
_cell_angle_gamma   90.00000000
_symmetry_Int_Tables_number   1
_chemical_formula_structural   Y4Sc6Ga5Si3
_chemical_formula_sum   'Y8 Sc12 Ga10 Si6'
_cell_volume   774.24900944
_cell_formula_units_Z   2
loop_
 _symmetry_equiv_pos_site_id
 _symmetry_equiv_pos_as_xyz
  1  'x, y, z'
loop_
 _atom_site_type_symbol
 _atom_site_label
 _atom_site_symmetry_multiplicity
 _atom_site_fract_x
 _atom_site_fract_y
 _atom_site_fract_z
 _atom_site_occupancy
  Y  Y0  1  0.512427  0.679122  0.595769  1
  Y  Y1  1  0.012427  0.820878  0.904231  1
  Y  Y2  1  0.487540  0.320799  0.096442  1
  Y  Y3  1  0.987540  0.179201  0.403558  1
  Y  Y4  1  0.484957  0.323587  0.403618  1
  Y  Y5  1  0.984957  0.176413  0.096382  1
  Y  Y6  1  0.514001  0.679155  0.904218  1
  Y  Y7  1  0.014001  0.820845  0.595782  1
  Sc  Sc8  1  0.673646  0.171895  0.622977  1
  Sc  Sc9  1  0.173646  0.328105  0.877023  1
  Sc  Sc10  1  0.328765  0.826603  0.123467  1
  Sc  Sc11  1  0.828765  0.673397  0.376533  1
  Sc  Sc12  1  0.324676  0.825842  0.377465  1
  Sc  Sc13  1  0.824676  0.674158  0.122535  1
  Sc  Sc14  1  0.674372  0.172463  0.877659  1
  Sc  Sc15  1  0.174372  0.327537  0.622341  1
  Sc  Sc16  1  0.841220  0.507374  0.750171  1
  Sc  Sc17  1  0.341220  0.992626  0.749829  1
  Sc  Sc18  1  0.158824  0.493183  0.250887  1
  Sc  Sc19  1  0.658824  0.006817  0.249113  1
  Ga  Ga20  1  0.659494  0.963724  0.457970  1
  Ga  Ga21  1  0.159494  0.536276  0.042030  1
  Ga  Ga22  1  0.342160  0.035781  0.959088  1
  Ga  Ga23  1  0.842160  0.464219  0.540912  1
  Ga  Ga24  1  0.340863  0.035808  0.541055  1
  Ga  Ga25  1  0.840863  0.464192  0.958945  1
  Ga  Ga26  1  0.471545  0.385778  0.749376  1
  Ga  Ga27  1  0.971545  0.114222  0.750624  1
  Ga  Ga28  1  0.529725  0.614747  0.249839  1
  Ga  Ga29  1  0.029725  0.885253  0.250161  1
  Si  Si30  1  0.655799  0.965397  0.041438  1
  Si  Si31  1  0.155799  0.534603  0.458562  1
  Si  Si32  1  0.718672  0.874690  0.750140  1
  Si  Si33  1  0.218672  0.625310  0.749860  1
  Si  Si34  1  0.281314  0.125541  0.249742  1
  Si  Si35  1  0.781314  0.374459  0.250258  1
