# generated using pymatgen
data_Sc10In8IrPtRh2
_symmetry_space_group_name_H-M   'P 1'
_cell_length_a   3.36291000
_cell_length_b   7.75588320
_cell_length_c   17.67059129
_cell_angle_alpha   89.85571382
_cell_angle_beta   90.00000000
_cell_angle_gamma   90.00000000
_symmetry_Int_Tables_number   1
_chemical_formula_structural   Sc10In8IrPtRh2
_chemical_formula_sum   'Sc10 In8 Ir1 Pt1 Rh2'
_cell_volume   460.88885841
_cell_formula_units_Z   1
loop_
 _symmetry_equiv_pos_site_id
 _symmetry_equiv_pos_as_xyz
  1  'x, y, z'
loop_
 _atom_site_type_symbol
 _atom_site_label
 _atom_site_symmetry_multiplicity
 _atom_site_fract_x
 _atom_site_fract_y
 _atom_site_fract_z
 _atom_site_occupancy
  Sc  Sc0  1  0.000000  0.999407  0.000604  1
  Sc  Sc1  1  0.000000  0.500554  0.499789  1
  Sc  Sc2  1  0.000000  0.741267  0.779751  1
  Sc  Sc3  1  0.000000  0.251781  0.221513  1
  Sc  Sc4  1  0.000000  0.252872  0.721905  1
  Sc  Sc5  1  0.000000  0.755991  0.278686  1
  Sc  Sc6  1  0.000000  0.874818  0.583130  1
  Sc  Sc7  1  0.000000  0.124032  0.414415  1
  Sc  Sc8  1  0.000000  0.376598  0.915347  1
  Sc  Sc9  1  0.000000  0.623690  0.086162  1
  In  In10  1  0.500000  0.796150  0.433867  1
  In  In11  1  0.500000  0.203829  0.565383  1
  In  In12  1  0.500000  0.297019  0.065927  1
  In  In13  1  0.500000  0.702843  0.933914  1
  In  In14  1  0.500000  0.930793  0.147971  1
  In  In15  1  0.500000  0.072511  0.852185  1
  In  In16  1  0.500000  0.431808  0.350816  1
  In  In17  1  0.500000  0.568038  0.648715  1
  Ir  Ir18  1  0.500000  0.035729  0.304796  1
  Pt  Pt19  1  0.500000  0.962329  0.694908  1
  Rh  Rh20  1  0.500000  0.462146  0.806056  1
  Rh  Rh21  1  0.500000  0.535795  0.194158  1
