# generated using pymatgen
data_Sc3Co8TcP6
_symmetry_space_group_name_H-M   'P 1'
_cell_length_a   11.93145801
_cell_length_b   11.93248870
_cell_length_c   3.63346400
_cell_angle_alpha   90.00000000
_cell_angle_beta   90.00000000
_cell_angle_gamma   120.00286223
_symmetry_Int_Tables_number   1
_chemical_formula_structural   Sc3Co8TcP6
_chemical_formula_sum   'Sc6 Co16 Tc2 P12'
_cell_volume   447.98504422
_cell_formula_units_Z   2
loop_
 _symmetry_equiv_pos_site_id
 _symmetry_equiv_pos_as_xyz
  1  'x, y, z'
loop_
 _atom_site_type_symbol
 _atom_site_label
 _atom_site_symmetry_multiplicity
 _atom_site_fract_x
 _atom_site_fract_y
 _atom_site_fract_z
 _atom_site_occupancy
  Sc  Sc0  1  0.815792  0.815030  0.500000  1
  Sc  Sc1  1  0.000000  0.179961  0.500000  1
  Sc  Sc2  1  0.334540  0.668315  0.000000  1
  Sc  Sc3  1  0.665460  0.333773  0.000000  1
  Sc  Sc4  1  0.000000  0.557507  0.000000  1
  Sc  Sc5  1  0.184208  0.999238  0.500000  1
  Co  Co6  1  0.624377  0.822940  0.000000  1
  Co  Co7  1  0.375623  0.198562  0.000000  1
  Co  Co8  1  0.000000  0.721565  0.500000  1
  Co  Co9  1  0.282103  0.280033  0.500000  1
  Co  Co10  1  0.870632  0.349616  0.500000  1
  Co  Co11  1  0.717897  0.997929  0.500000  1
  Co  Co12  1  0.817070  0.625746  0.000000  1
  Co  Co13  1  0.182930  0.808677  0.000000  1
  Co  Co14  1  0.358082  0.877316  0.500000  1
  Co  Co15  1  0.129368  0.478984  0.500000  1
  Co  Co16  1  0.641918  0.519234  0.500000  1
  Co  Co17  1  0.000000  0.999129  0.000000  1
  Co  Co18  1  0.516156  0.646765  0.500000  1
  Co  Co19  1  0.483844  0.130610  0.500000  1
  Co  Co20  1  0.196772  0.369682  0.000000  1
  Co  Co21  1  0.803228  0.172910  0.000000  1
  Tc  Tc22  1  0.447354  0.449391  0.000000  1
  Tc  Tc23  1  0.552646  0.002038  0.000000  1
  P  P24  1  0.000000  0.348529  0.000000  1
  P  P25  1  0.825400  0.515062  0.500000  1
  P  P26  1  0.684682  0.166015  0.500000  1
  P  P27  1  0.176347  0.173705  0.000000  1
  P  P28  1  0.640111  0.644470  0.000000  1
  P  P29  1  0.823653  0.997357  0.000000  1
  P  P30  1  0.516767  0.833970  0.500000  1
  P  P31  1  0.174600  0.689660  0.500000  1
  P  P32  1  0.359889  0.004360  0.000000  1
  P  P33  1  0.483233  0.317204  0.500000  1
  P  P34  1  0.000000  0.823386  0.000000  1
  P  P35  1  0.315318  0.481332  0.500000  1
