# generated using pymatgen
data_Dy2Ho10Co5Hg
_symmetry_space_group_name_H-M   'P 1'
_cell_length_a   8.23610561
_cell_length_b   8.23623427
_cell_length_c   8.23537789
_cell_angle_alpha   110.64684359
_cell_angle_beta   110.28030050
_cell_angle_gamma   107.50824528
_symmetry_Int_Tables_number   1
_chemical_formula_structural   Dy2Ho10Co5Hg
_chemical_formula_sum   'Dy2 Ho10 Co5 Hg1'
_cell_volume   429.64099617
_cell_formula_units_Z   1
loop_
 _symmetry_equiv_pos_site_id
 _symmetry_equiv_pos_as_xyz
  1  'x, y, z'
loop_
 _atom_site_type_symbol
 _atom_site_label
 _atom_site_symmetry_multiplicity
 _atom_site_fract_x
 _atom_site_fract_y
 _atom_site_fract_z
 _atom_site_occupancy
  Dy  Dy0  1  0.816511  0.710577  0.527097  1
  Dy  Dy1  1  0.183489  0.289423  0.472903  1
  Ho  Ho2  1  0.183595  0.710924  0.894516  1
  Ho  Ho3  1  0.816405  0.289076  0.105484  1
  Ho  Ho4  1  0.683709  0.379357  0.696255  1
  Ho  Ho5  1  0.316291  0.620643  0.303745  1
  Ho  Ho6  1  0.683121  0.987466  0.303748  1
  Ho  Ho7  1  0.316879  0.012534  0.696252  1
  Ho  Ho8  1  0.595958  0.788896  0.807711  1
  Ho  Ho9  1  0.404042  0.211104  0.192289  1
  Ho  Ho10  1  0.981182  0.788243  0.192292  1
  Ho  Ho11  1  0.018818  0.211757  0.807708  1
  Co  Co12  1  0.623529  0.000400  0.623935  1
  Co  Co13  1  0.376471  0.999600  0.376065  1
  Co  Co14  1  0.113665  0.613666  0.500005  1
  Co  Co15  1  0.886335  0.386334  0.499995  1
  Co  Co16  1  0.000000  0.000000  0.000000  1
  Hg  Hg17  1  0.500000  0.500000  0.000000  1
