# generated using pymatgen
data_Y2AlGaIrPt
_symmetry_space_group_name_H-M   'P 1'
_cell_length_a   4.39300600
_cell_length_b   6.83828348
_cell_length_c   7.83583846
_cell_angle_alpha   89.70704609
_cell_angle_beta   90.00000000
_cell_angle_gamma   90.00000000
_symmetry_Int_Tables_number   1
_chemical_formula_structural   Y2AlGaIrPt
_chemical_formula_sum   'Y4 Al2 Ga2 Ir2 Pt2'
_cell_volume   235.39037125
_cell_formula_units_Z   2
loop_
 _symmetry_equiv_pos_site_id
 _symmetry_equiv_pos_as_xyz
  1  'x, y, z'
loop_
 _atom_site_type_symbol
 _atom_site_label
 _atom_site_symmetry_multiplicity
 _atom_site_fract_x
 _atom_site_fract_y
 _atom_site_fract_z
 _atom_site_occupancy
  Y  Y0  1  0.250000  0.030907  0.683777  1
  Y  Y1  1  0.250000  0.529709  0.821851  1
  Y  Y2  1  0.750000  0.974662  0.311789  1
  Y  Y3  1  0.750000  0.476417  0.181923  1
  Al  Al4  1  0.250000  0.641457  0.435363  1
  Al  Al5  1  0.750000  0.354571  0.560089  1
  Ga  Ga6  1  0.250000  0.149162  0.067895  1
  Ga  Ga7  1  0.750000  0.847290  0.937061  1
  Ir  Ir8  1  0.250000  0.270075  0.387238  1
  Ir  Ir9  1  0.250000  0.768116  0.120736  1
  Pt  Pt10  1  0.750000  0.727420  0.614378  1
  Pt  Pt11  1  0.750000  0.230214  0.877900  1
