# generated using pymatgen
data_Pr2ErLu3(RuO7)2
_symmetry_space_group_name_H-M   'P 1'
_cell_length_a   6.37587588
_cell_length_b   6.38000555
_cell_length_c   7.47421100
_cell_angle_alpha   90.00000000
_cell_angle_beta   90.00000000
_cell_angle_gamma   109.68304568
_symmetry_Int_Tables_number   1
_chemical_formula_structural   Pr2ErLu3(RuO7)2
_chemical_formula_sum   'Pr2 Er1 Lu3 Ru2 O14'
_cell_volume   286.27208026
_cell_formula_units_Z   1
loop_
 _symmetry_equiv_pos_site_id
 _symmetry_equiv_pos_as_xyz
  1  'x, y, z'
loop_
 _atom_site_type_symbol
 _atom_site_label
 _atom_site_symmetry_multiplicity
 _atom_site_fract_x
 _atom_site_fract_y
 _atom_site_fract_z
 _atom_site_occupancy
  Pr  Pr0  1  0.998612  0.999607  0.500499  1
  Pr  Pr1  1  0.998612  0.999607  0.999501  1
  Er  Er2  1  0.064519  0.514674  0.250000  1
  Lu  Lu3  1  0.486146  0.940726  0.750000  1
  Lu  Lu4  1  0.512879  0.060299  0.250000  1
  Lu  Lu5  1  0.941614  0.486581  0.750000  1
  Ru  Ru6  1  0.500558  0.499570  0.500767  1
  Ru  Ru7  1  0.500558  0.499570  0.999233  1
  O  O8  1  0.591478  0.593601  0.750000  1
  O  O9  1  0.410470  0.407432  0.250000  1
  O  O10  1  0.834220  0.125670  0.750000  1
  O  O11  1  0.164097  0.879529  0.250000  1
  O  O12  1  0.125467  0.835231  0.750000  1
  O  O13  1  0.871876  0.162043  0.250000  1
  O  O14  1  0.441919  0.178469  0.964645  1
  O  O15  1  0.556511  0.820479  0.464289  1
  O  O16  1  0.178455  0.437680  0.962568  1
  O  O17  1  0.822562  0.561302  0.467072  1
  O  O18  1  0.441919  0.178469  0.535355  1
  O  O19  1  0.556511  0.820479  0.035711  1
  O  O20  1  0.822562  0.561302  0.032928  1
  O  O21  1  0.178455  0.437680  0.537432  1
