# generated using pymatgen
data_Ta9Si2B4Os
_symmetry_space_group_name_H-M   'P 1'
_cell_length_a   6.16805074
_cell_length_b   6.16805136
_cell_length_c   7.27589350
_cell_angle_alpha   115.07909038
_cell_angle_beta   115.07910781
_cell_angle_gamma   89.99999978
_symmetry_Int_Tables_number   1
_chemical_formula_structural   Ta9Si2B4Os
_chemical_formula_sum   'Ta9 Si2 B4 Os1'
_cell_volume   221.56413665
_cell_formula_units_Z   1
loop_
 _symmetry_equiv_pos_site_id
 _symmetry_equiv_pos_as_xyz
  1  'x, y, z'
loop_
 _atom_site_type_symbol
 _atom_site_label
 _atom_site_symmetry_multiplicity
 _atom_site_fract_x
 _atom_site_fract_y
 _atom_site_fract_z
 _atom_site_occupancy
  Ta  Ta0  1  0.000000  0.000000  0.000000  1
  Ta  Ta1  1  0.029745  0.523341  0.719265  1
  Ta  Ta2  1  0.689521  0.195925  0.719265  1
  Ta  Ta3  1  0.195925  0.029745  0.719265  1
  Ta  Ta4  1  0.523341  0.689521  0.719265  1
  Ta  Ta5  1  0.970255  0.476659  0.280735  1
  Ta  Ta6  1  0.310479  0.804075  0.280735  1
  Ta  Ta7  1  0.804075  0.970255  0.280735  1
  Ta  Ta8  1  0.476659  0.310479  0.280735  1
  Si  Si9  1  0.242689  0.242689  0.485378  1
  Si  Si10  1  0.757311  0.757311  0.514622  1
  B  B11  1  0.381999  0.879355  0.000000  1
  B  B12  1  0.618001  0.120645  0.000000  1
  B  B13  1  0.120645  0.381999  0.000000  1
  B  B14  1  0.879355  0.618001  0.000000  1
  Os  Os15  1  0.500000  0.500000  0.000000  1
