# generated using pymatgen
data_Zr8Si16MoOs10Ru
_symmetry_space_group_name_H-M   'P 1'
_cell_length_a   9.95923157
_cell_length_b   10.00127235
_cell_length_c   13.43699546
_cell_angle_alpha   53.88906535
_cell_angle_beta   53.89720618
_cell_angle_gamma   31.42932232
_symmetry_Int_Tables_number   1
_chemical_formula_structural   Zr8Si16MoOs10Ru
_chemical_formula_sum   'Zr8 Si16 Mo1 Os10 Ru1'
_cell_volume   551.84486837
_cell_formula_units_Z   1
loop_
 _symmetry_equiv_pos_site_id
 _symmetry_equiv_pos_as_xyz
  1  'x, y, z'
loop_
 _atom_site_type_symbol
 _atom_site_label
 _atom_site_symmetry_multiplicity
 _atom_site_fract_x
 _atom_site_fract_y
 _atom_site_fract_z
 _atom_site_occupancy
  Zr  Zr0  1  0.040136  0.293863  0.636006  1
  Zr  Zr1  1  0.703729  0.961025  0.866617  1
  Zr  Zr2  1  0.962356  0.703034  0.363711  1
  Zr  Zr3  1  0.292788  0.039616  0.136337  1
  Zr  Zr4  1  0.296506  0.553407  0.650655  1
  Zr  Zr5  1  0.450164  0.697116  0.853273  1
  Zr  Zr6  1  0.706879  0.444524  0.345784  1
  Zr  Zr7  1  0.554090  0.301922  0.146583  1
  Si  Si8  1  0.970742  0.253082  0.894560  1
  Si  Si9  1  0.749886  0.021849  0.607715  1
  Si  Si10  1  0.026033  0.747759  0.106694  1
  Si  Si11  1  0.252513  0.974522  0.393340  1
  Si  Si12  1  0.138477  0.392204  0.899210  1
  Si  Si13  1  0.613336  0.856895  0.604492  1
  Si  Si14  1  0.857470  0.613618  0.101205  1
  Si  Si15  1  0.387839  0.144134  0.395278  1
  Si  Si16  1  0.089601  0.570383  0.563340  1
  Si  Si17  1  0.418421  0.926031  0.932116  1
  Si  Si18  1  0.909794  0.429521  0.435770  1
  Si  Si19  1  0.572390  0.085043  0.066678  1
  Si  Si20  1  0.622813  0.379410  0.749605  1
  Si  Si21  1  0.378275  0.615955  0.252555  1
  Si  Si22  1  0.128525  0.872596  0.749047  1
  Si  Si23  1  0.872254  0.124761  0.252203  1
  Mo  Mo24  1  0.750223  0.491749  0.065889  1
  Os  Os25  1  0.903360  0.136639  0.584735  1
  Os  Os26  1  0.868708  0.088784  0.915368  1
  Os  Os27  1  0.101151  0.858599  0.416131  1
  Os  Os28  1  0.136847  0.905025  0.084700  1
  Os  Os29  1  0.829377  0.646429  0.780013  1
  Os  Os30  1  0.353913  0.171852  0.717950  1
  Os  Os31  1  0.168918  0.355720  0.218501  1
  Os  Os32  1  0.644425  0.830326  0.282684  1
  Os  Os33  1  0.245239  0.516838  0.927996  1
  Os  Os34  1  0.479739  0.770063  0.568858  1
  Ru  Ru35  1  0.523080  0.225708  0.434403  1
