# generated using pymatgen
data_Dy11Y5(CdPt)4
_symmetry_space_group_name_H-M   'P 1'
_cell_length_a   9.69480302
_cell_length_b   9.70081403
_cell_length_c   9.70081466
_cell_angle_alpha   60.02345143
_cell_angle_beta   60.02049844
_cell_angle_gamma   60.02049886
_symmetry_Int_Tables_number   1
_chemical_formula_structural   Dy11Y5(CdPt)4
_chemical_formula_sum   'Dy11 Y5 Cd4 Pt4'
_cell_volume   645.43398526
_cell_formula_units_Z   1
loop_
 _symmetry_equiv_pos_site_id
 _symmetry_equiv_pos_as_xyz
  1  'x, y, z'
loop_
 _atom_site_type_symbol
 _atom_site_label
 _atom_site_symmetry_multiplicity
 _atom_site_fract_x
 _atom_site_fract_y
 _atom_site_fract_z
 _atom_site_occupancy
  Dy  Dy0  1  0.350568  0.352307  0.352307  1
  Dy  Dy1  1  0.352350  0.353866  0.941434  1
  Dy  Dy2  1  0.352350  0.941434  0.353866  1
  Dy  Dy3  1  0.944818  0.352307  0.352307  1
  Dy  Dy4  1  0.809691  0.190309  0.190309  1
  Dy  Dy5  1  0.189212  0.810788  0.810788  1
  Dy  Dy6  1  0.189848  0.810591  0.189655  1
  Dy  Dy7  1  0.809906  0.189655  0.810591  1
  Dy  Dy8  1  0.189848  0.189655  0.810591  1
  Dy  Dy9  1  0.809906  0.810591  0.189655  1
  Dy  Dy10  1  0.935155  0.564845  0.564845  1
  Y  Y11  1  0.563640  0.936360  0.936360  1
  Y  Y12  1  0.564796  0.935841  0.563881  1
  Y  Y13  1  0.935482  0.563881  0.935841  1
  Y  Y14  1  0.564796  0.563881  0.935841  1
  Y  Y15  1  0.935482  0.935841  0.563881  1
  Cd  Cd16  1  0.582261  0.581505  0.581505  1
  Cd  Cd17  1  0.582213  0.581379  0.254194  1
  Cd  Cd18  1  0.582213  0.254194  0.581379  1
  Cd  Cd19  1  0.254728  0.581505  0.581505  1
  Pt  Pt20  1  0.144591  0.143284  0.143284  1
  Pt  Pt21  1  0.143650  0.142526  0.570174  1
  Pt  Pt22  1  0.143650  0.570174  0.142526  1
  Pt  Pt23  1  0.568842  0.143284  0.143284  1
