# generated using pymatgen
data_Er12Ir2OsI16
_symmetry_space_group_name_H-M   'P 1'
_cell_length_a   9.61732430
_cell_length_b   12.46583078
_cell_length_c   13.18123278
_cell_angle_alpha   117.38829870
_cell_angle_beta   101.22022903
_cell_angle_gamma   100.79452706
_symmetry_Int_Tables_number   1
_chemical_formula_structural   Er12Ir2OsI16
_chemical_formula_sum   'Er12 Ir2 Os1 I16'
_cell_volume   1304.95956424
_cell_formula_units_Z   1
loop_
 _symmetry_equiv_pos_site_id
 _symmetry_equiv_pos_as_xyz
  1  'x, y, z'
loop_
 _atom_site_type_symbol
 _atom_site_label
 _atom_site_symmetry_multiplicity
 _atom_site_fract_x
 _atom_site_fract_y
 _atom_site_fract_z
 _atom_site_occupancy
  Er  Er0  1  0.087285  0.271955  0.359904  1
  Er  Er1  1  0.912329  0.729105  0.640785  1
  Er  Er2  1  0.782164  0.535575  0.331338  1
  Er  Er3  1  0.217102  0.464622  0.668024  1
  Er  Er4  1  0.273147  0.728248  0.639879  1
  Er  Er5  1  0.725742  0.270762  0.359516  1
  Er  Er6  1  0.143404  0.535156  0.331957  1
  Er  Er7  1  0.856060  0.464672  0.668785  1
  Er  Er8  1  0.406547  0.362031  0.279637  1
  Er  Er9  1  0.590527  0.637729  0.720013  1
  Er  Er10  1  0.458025  0.311889  0.519776  1
  Er  Er11  1  0.539143  0.687851  0.479938  1
  Ir  Ir12  1  0.999519  0.500023  0.500018  1
  Ir  Ir13  1  0.659370  0.499971  0.500338  1
  Os  Os14  1  0.339662  0.500121  0.499879  1
  I  I15  1  0.391913  0.742002  0.885506  1
  I  I16  1  0.608378  0.258562  0.115188  1
  I  I17  1  0.189082  0.967048  0.785181  1
  I  I18  1  0.809998  0.033000  0.214903  1
  I  I19  1  0.339961  0.093982  0.250601  1
  I  I20  1  0.666252  0.905932  0.749211  1
  I  I21  1  0.562227  0.437219  0.798779  1
  I  I22  1  0.443585  0.562632  0.201114  1
  I  I23  1  0.302850  0.829507  0.463787  1
  I  I24  1  0.697280  0.171028  0.536185  1
  I  I25  1  0.160585  0.169879  0.534068  1
  I  I26  1  0.839120  0.829588  0.466043  1
  I  I27  1  0.925665  0.574860  0.158920  1
  I  I28  1  0.073552  0.425384  0.841298  1
  I  I29  1  0.929527  0.740618  0.885155  1
  I  I30  1  0.070004  0.259046  0.114274  1
