# generated using pymatgen
data_SmHo5Co16(P6Ru)2
_symmetry_space_group_name_H-M   'P 1'
_cell_length_a   3.69795800
_cell_length_b   10.51058500
_cell_length_c   12.24031100
_cell_angle_alpha   90.00000000
_cell_angle_beta   90.00000000
_cell_angle_gamma   90.00000000
_symmetry_Int_Tables_number   1
_chemical_formula_structural   SmHo5Co16(P6Ru)2
_chemical_formula_sum   'Sm1 Ho5 Co16 P12 Ru2'
_cell_volume   475.75275893
_cell_formula_units_Z   1
loop_
 _symmetry_equiv_pos_site_id
 _symmetry_equiv_pos_as_xyz
  1  'x, y, z'
loop_
 _atom_site_type_symbol
 _atom_site_label
 _atom_site_symmetry_multiplicity
 _atom_site_fract_x
 _atom_site_fract_y
 _atom_site_fract_z
 _atom_site_occupancy
  Sm  Sm0  1  0.000000  0.500000  0.524844  1
  Ho  Ho1  1  0.500000  0.000000  0.475449  1
  Ho  Ho2  1  0.500000  0.817363  0.206775  1
  Ho  Ho3  1  0.500000  0.182637  0.206775  1
  Ho  Ho4  1  0.000000  0.683323  0.793742  1
  Ho  Ho5  1  0.000000  0.316677  0.793742  1
  Co  Co6  1  0.000000  0.500000  0.986240  1
  Co  Co7  1  0.500000  0.000000  0.014091  1
  Co  Co8  1  0.500000  0.295234  0.430577  1
  Co  Co9  1  0.500000  0.704766  0.430577  1
  Co  Co10  1  0.000000  0.201169  0.569144  1
  Co  Co11  1  0.000000  0.798831  0.569144  1
  Co  Co12  1  0.500000  0.879581  0.708273  1
  Co  Co13  1  0.500000  0.120419  0.708273  1
  Co  Co14  1  0.000000  0.621344  0.291165  1
  Co  Co15  1  0.000000  0.378656  0.291165  1
  Co  Co16  1  0.500000  0.332222  0.990485  1
  Co  Co17  1  0.500000  0.667778  0.990485  1
  Co  Co18  1  0.000000  0.167316  0.009504  1
  Co  Co19  1  0.000000  0.832684  0.009504  1
  Co  Co20  1  0.500000  0.500000  0.705761  1
  Co  Co21  1  0.000000  0.000000  0.295740  1
  P  P22  1  0.500000  0.309258  0.617228  1
  P  P23  1  0.500000  0.690742  0.617228  1
  P  P24  1  0.000000  0.187955  0.383616  1
  P  P25  1  0.000000  0.812045  0.383616  1
  P  P26  1  0.500000  0.500000  0.882540  1
  P  P27  1  0.000000  0.000000  0.118203  1
  P  P28  1  0.500000  0.846711  0.893274  1
  P  P29  1  0.500000  0.153289  0.893274  1
  P  P30  1  0.000000  0.653975  0.106530  1
  P  P31  1  0.000000  0.346025  0.106530  1
  P  P32  1  0.500000  0.500000  0.347906  1
  P  P33  1  0.000000  0.000000  0.649715  1
  Ru  Ru34  1  0.500000  0.500000  0.158621  1
  Ru  Ru35  1  0.000000  0.000000  0.840265  1
