# generated using pymatgen
data_Y3Er5(B6Ru)4
_symmetry_space_group_name_H-M   'P 1'
_cell_length_a   3.64445200
_cell_length_b   9.11279000
_cell_length_c   11.49332501
_cell_angle_alpha   89.99652985
_cell_angle_beta   90.00000000
_cell_angle_gamma   90.00000000
_symmetry_Int_Tables_number   1
_chemical_formula_structural   Y3Er5(B6Ru)4
_chemical_formula_sum   'Y3 Er5 B24 Ru4'
_cell_volume   381.70626141
_cell_formula_units_Z   1
loop_
 _symmetry_equiv_pos_site_id
 _symmetry_equiv_pos_as_xyz
  1  'x, y, z'
loop_
 _atom_site_type_symbol
 _atom_site_label
 _atom_site_symmetry_multiplicity
 _atom_site_fract_x
 _atom_site_fract_y
 _atom_site_fract_z
 _atom_site_occupancy
  Y  Y0  1  0.000000  0.321915  0.414302  1
  Y  Y1  1  0.000000  0.678150  0.585872  1
  Y  Y2  1  0.000000  0.821998  0.085684  1
  Er  Er3  1  0.000000  0.178123  0.914419  1
  Er  Er4  1  0.000000  0.943440  0.372099  1
  Er  Er5  1  0.000000  0.056618  0.627993  1
  Er  Er6  1  0.000000  0.443350  0.127504  1
  Er  Er7  1  0.000000  0.556333  0.872346  1
  B  B8  1  0.500000  0.554207  0.432869  1
  B  B9  1  0.500000  0.445541  0.567385  1
  B  B10  1  0.500000  0.054567  0.066492  1
  B  B11  1  0.500000  0.946396  0.932891  1
  B  B12  1  0.500000  0.748744  0.419272  1
  B  B13  1  0.500000  0.251226  0.580978  1
  B  B14  1  0.500000  0.248545  0.079908  1
  B  B15  1  0.500000  0.751594  0.919307  1
  B  B16  1  0.500000  0.791053  0.265808  1
  B  B17  1  0.500000  0.208613  0.734717  1
  B  B18  1  0.500000  0.290942  0.233689  1
  B  B19  1  0.500000  0.709124  0.766089  1
  B  B20  1  0.500000  0.631023  0.184694  1
  B  B21  1  0.500000  0.368371  0.815680  1
  B  B22  1  0.500000  0.131100  0.314985  1
  B  B23  1  0.500000  0.869170  0.684978  1
  B  B24  1  0.500000  0.983359  0.212752  1
  B  B25  1  0.500000  0.017467  0.787339  1
  B  B26  1  0.500000  0.483129  0.286785  1
  B  B27  1  0.500000  0.516526  0.713300  1
  B  B28  1  0.500000  0.606088  0.029151  1
  B  B29  1  0.500000  0.393130  0.970574  1
  B  B30  1  0.500000  0.105731  0.470885  1
  B  B31  1  0.500000  0.894372  0.529127  1
  Ru  Ru32  1  0.000000  0.637940  0.320604  1
  Ru  Ru33  1  0.000000  0.361438  0.679908  1
  Ru  Ru34  1  0.000000  0.137896  0.178784  1
  Ru  Ru35  1  0.000000  0.862778  0.820832  1
