# generated using pymatgen
data_Lu4Cu2ReOs5
_symmetry_space_group_name_H-M   'P 1'
_cell_length_a   5.37470500
_cell_length_b   5.27243761
_cell_length_c   8.75661500
_cell_angle_alpha   90.00000000
_cell_angle_beta   90.00000000
_cell_angle_gamma   120.62508820
_symmetry_Int_Tables_number   1
_chemical_formula_structural   Lu4Cu2ReOs5
_chemical_formula_sum   'Lu4 Cu2 Re1 Os5'
_cell_volume   213.53193026
_cell_formula_units_Z   1
loop_
 _symmetry_equiv_pos_site_id
 _symmetry_equiv_pos_as_xyz
  1  'x, y, z'
loop_
 _atom_site_type_symbol
 _atom_site_label
 _atom_site_symmetry_multiplicity
 _atom_site_fract_x
 _atom_site_fract_y
 _atom_site_fract_z
 _atom_site_occupancy
  Lu  Lu0  1  0.328988  0.673398  0.438408  1
  Lu  Lu1  1  0.665572  0.341717  0.561369  1
  Lu  Lu2  1  0.665572  0.341717  0.938631  1
  Lu  Lu3  1  0.328988  0.673398  0.061592  1
  Cu  Cu4  1  0.350358  0.158268  0.250000  1
  Cu  Cu5  1  0.841997  0.645617  0.250000  1
  Re  Re6  1  0.162555  0.328249  0.750000  1
  Os  Os7  1  0.169340  0.819484  0.750000  1
  Os  Os8  1  0.650719  0.823285  0.750000  1
  Os  Os9  1  0.993365  0.021575  0.003544  1
  Os  Os10  1  0.849178  0.151723  0.250000  1
  Os  Os11  1  0.993365  0.021575  0.496456  1
