# generated using pymatgen
data_TaNb5AlZn3(AuC)2
_symmetry_space_group_name_H-M   'P 1'
_cell_length_a   8.45374763
_cell_length_b   8.45655315
_cell_length_c   8.45374600
_cell_angle_alpha   59.98902756
_cell_angle_beta   60.02196384
_cell_angle_gamma   59.98903007
_symmetry_Int_Tables_number   1
_chemical_formula_structural   TaNb5AlZn3(AuC)2
_chemical_formula_sum   'Ta2 Nb10 Al2 Zn6 Au4 C4'
_cell_volume   427.34323467
_cell_formula_units_Z   2
loop_
 _symmetry_equiv_pos_site_id
 _symmetry_equiv_pos_as_xyz
  1  'x, y, z'
loop_
 _atom_site_type_symbol
 _atom_site_label
 _atom_site_symmetry_multiplicity
 _atom_site_fract_x
 _atom_site_fract_y
 _atom_site_fract_z
 _atom_site_occupancy
  Ta  Ta0  1  0.678771  0.321477  0.679084  1
  Ta  Ta1  1  0.929332  0.570916  0.928523  1
  Nb  Nb2  1  0.570029  0.930359  0.570287  1
  Nb  Nb3  1  0.320720  0.680257  0.680539  1
  Nb  Nb4  1  0.681081  0.318964  0.319309  1
  Nb  Nb5  1  0.320675  0.679713  0.319641  1
  Nb  Nb6  1  0.680844  0.680796  0.319812  1
  Nb  Nb7  1  0.320494  0.319244  0.680324  1
  Nb  Nb8  1  0.570062  0.569676  0.930756  1
  Nb  Nb9  1  0.931517  0.569461  0.569743  1
  Nb  Nb10  1  0.569355  0.930691  0.931036  1
  Nb  Nb11  1  0.931453  0.930188  0.569204  1
  Al  Al12  1  0.250380  0.916135  0.916608  1
  Al  Al13  1  0.333122  0.333392  0.333865  1
  Zn  Zn14  1  0.912898  0.914975  0.915326  1
  Zn  Zn15  1  0.993200  0.334674  0.335025  1
  Zn  Zn16  1  0.334240  0.992774  0.335464  1
  Zn  Zn17  1  0.334476  0.335318  0.992337  1
  Zn  Zn18  1  0.912130  0.257663  0.914682  1
  Zn  Zn19  1  0.912479  0.914536  0.257226  1
  Au  Au20  1  0.125691  0.124009  0.122255  1
  Au  Au21  1  0.621955  0.127745  0.125991  1
  Au  Au22  1  0.128232  0.624468  0.124596  1
  Au  Au23  1  0.127297  0.125404  0.625532  1
  C  C24  1  0.627454  0.622777  0.625192  1
  C  C25  1  0.125424  0.624808  0.627223  1
  C  C26  1  0.627827  0.125307  0.625725  1
  C  C27  1  0.628860  0.624275  0.124693  1
