# generated using pymatgen
data_TbHo3Er8(GaCo2)2
_symmetry_space_group_name_H-M   'P 1'
_cell_length_a   8.20975771
_cell_length_b   8.20975773
_cell_length_c   8.19587271
_cell_angle_alpha   106.95848945
_cell_angle_beta   109.42792595
_cell_angle_gamma   112.13291591
_symmetry_Int_Tables_number   1
_chemical_formula_structural   TbHo3Er8(GaCo2)2
_chemical_formula_sum   'Tb1 Ho3 Er8 Ga2 Co4'
_cell_volume   424.03412499
_cell_formula_units_Z   1
loop_
 _symmetry_equiv_pos_site_id
 _symmetry_equiv_pos_as_xyz
  1  'x, y, z'
loop_
 _atom_site_type_symbol
 _atom_site_label
 _atom_site_symmetry_multiplicity
 _atom_site_fract_x
 _atom_site_fract_y
 _atom_site_fract_z
 _atom_site_occupancy
  Tb  Tb0  1  0.696753  0.262291  0.959044  1
  Ho  Ho1  1  0.301500  0.739038  0.040538  1
  Ho  Ho2  1  0.697492  0.739147  0.436640  1
  Ho  Ho3  1  0.301906  0.260447  0.562353  1
  Er  Er4  1  0.811825  0.138209  0.327345  1
  Er  Er5  1  0.811304  0.484286  0.672058  1
  Er  Er6  1  0.187772  0.860754  0.672058  1
  Er  Er7  1  0.189136  0.515520  0.327345  1
  Er  Er8  1  0.601135  0.780811  0.820412  1
  Er  Er9  1  0.960388  0.780620  0.179681  1
  Er  Er10  1  0.039602  0.219276  0.820412  1
  Er  Er11  1  0.399061  0.219293  0.179681  1
  Ga  Ga12  1  0.497470  0.501798  0.999268  1
  Ga  Ga13  1  0.499359  0.999323  0.498681  1
  Co  Co14  1  0.839241  0.500360  0.339601  1
  Co  Co15  1  0.164004  0.499806  0.663811  1
  Co  Co16  1  0.003566  0.114816  0.118381  1
  Co  Co17  1  0.998480  0.884207  0.882688  1
