# generated using pymatgen
data_Hf3Zr5Co16(SiP5)2
_symmetry_space_group_name_H-M   'P 1'
_cell_length_a   12.17449342
_cell_length_b   12.16327748
_cell_length_c   3.66235800
_cell_angle_alpha   90.00000000
_cell_angle_beta   90.00000000
_cell_angle_gamma   119.96952266
_symmetry_Int_Tables_number   1
_chemical_formula_structural   Hf3Zr5Co16(SiP5)2
_chemical_formula_sum   'Hf3 Zr5 Co16 Si2 P10'
_cell_volume   469.81430350
_cell_formula_units_Z   1
loop_
 _symmetry_equiv_pos_site_id
 _symmetry_equiv_pos_as_xyz
  1  'x, y, z'
loop_
 _atom_site_type_symbol
 _atom_site_label
 _atom_site_symmetry_multiplicity
 _atom_site_fract_x
 _atom_site_fract_y
 _atom_site_fract_z
 _atom_site_occupancy
  Hf  Hf0  1  0.442283  0.442968  0.000000  1
  Hf  Hf1  1  0.557717  0.000685  0.000000  1
  Hf  Hf2  1  0.000000  0.554615  0.000000  1
  Zr  Zr3  1  0.666370  0.334054  0.000000  1
  Zr  Zr4  1  0.333630  0.667685  0.000000  1
  Zr  Zr5  1  0.825970  0.825379  0.500000  1
  Zr  Zr6  1  0.174030  0.999408  0.500000  1
  Zr  Zr7  1  0.000000  0.175880  0.500000  1
  Co  Co8  1  0.193348  0.371353  0.000000  1
  Co  Co9  1  0.174391  0.801647  0.000000  1
  Co  Co10  1  0.825609  0.627256  0.000000  1
  Co  Co11  1  0.806652  0.178006  0.000000  1
  Co  Co12  1  0.371665  0.197442  0.000000  1
  Co  Co13  1  0.125784  0.479936  0.500000  1
  Co  Co14  1  0.355492  0.873194  0.500000  1
  Co  Co15  1  0.517132  0.644511  0.500000  1
  Co  Co16  1  0.644508  0.517702  0.500000  1
  Co  Co17  1  0.874216  0.354153  0.500000  1
  Co  Co18  1  0.482868  0.127379  0.500000  1
  Co  Co19  1  0.000000  0.000426  0.000000  1
  Co  Co20  1  0.722371  0.002079  0.500000  1
  Co  Co21  1  0.000000  0.720160  0.500000  1
  Co  Co22  1  0.628335  0.825777  0.000000  1
  Co  Co23  1  0.277629  0.279708  0.500000  1
  Si  Si24  1  0.654799  0.654376  0.000000  1
  Si  Si25  1  0.345201  0.999578  0.000000  1
  P  P26  1  0.000000  0.345381  0.000000  1
  P  P27  1  0.481146  0.308294  0.500000  1
  P  P28  1  0.691533  0.173506  0.500000  1
  P  P29  1  0.826883  0.518211  0.500000  1
  P  P30  1  0.518854  0.827148  0.500000  1
  P  P31  1  0.173117  0.691329  0.500000  1
  P  P32  1  0.824725  0.999437  0.000000  1
  P  P33  1  0.000000  0.824655  0.000000  1
  P  P34  1  0.308467  0.481973  0.500000  1
  P  P35  1  0.175275  0.174711  0.000000  1
