# generated using pymatgen
data_LiY3Tl2InAgRh
_symmetry_space_group_name_H-M   'P 1'
_cell_length_a   8.04408520
_cell_length_b   8.02040437
_cell_length_c   3.69657500
_cell_angle_alpha   90.00000000
_cell_angle_beta   90.00000000
_cell_angle_gamma   120.07198011
_symmetry_Int_Tables_number   1
_chemical_formula_structural   LiY3Tl2InAgRh
_chemical_formula_sum   'Li1 Y3 Tl2 In1 Ag1 Rh1'
_cell_volume   206.38951060
_cell_formula_units_Z   1
loop_
 _symmetry_equiv_pos_site_id
 _symmetry_equiv_pos_as_xyz
  1  'x, y, z'
loop_
 _atom_site_type_symbol
 _atom_site_label
 _atom_site_symmetry_multiplicity
 _atom_site_fract_x
 _atom_site_fract_y
 _atom_site_fract_z
 _atom_site_occupancy
  Li  Li0  1  0.999789  0.999795  0.500000  1
  Y  Y1  1  0.970568  0.576818  0.500000  1
  Y  Y2  1  0.423949  0.394784  0.500000  1
  Y  Y3  1  0.605396  0.028445  0.500000  1
  Tl  Tl4  1  0.004352  0.262325  0.000000  1
  Tl  Tl5  1  0.256478  0.992788  0.000000  1
  In  In6  1  0.735212  0.740525  0.000000  1
  Ag  Ag7  1  0.337212  0.667118  0.000000  1
  Rh  Rh8  1  0.667043  0.337404  0.000000  1
