# generated using pymatgen
data_Nd2Y6Cd2NiOs
_symmetry_space_group_name_H-M   'P 1'
_cell_length_a   9.69799065
_cell_length_b   9.69799143
_cell_length_c   9.79507800
_cell_angle_alpha   59.66827576
_cell_angle_beta   59.66827308
_cell_angle_gamma   59.51352215
_symmetry_Int_Tables_number   1
_chemical_formula_structural   Nd2Y6Cd2NiOs
_chemical_formula_sum   'Nd4 Y12 Cd4 Ni2 Os2'
_cell_volume   645.73523058
_cell_formula_units_Z   2
loop_
 _symmetry_equiv_pos_site_id
 _symmetry_equiv_pos_as_xyz
  1  'x, y, z'
loop_
 _atom_site_type_symbol
 _atom_site_label
 _atom_site_symmetry_multiplicity
 _atom_site_fract_x
 _atom_site_fract_y
 _atom_site_fract_z
 _atom_site_occupancy
  Nd  Nd0  1  0.601563  0.601563  0.594833  1
  Nd  Nd1  1  0.601563  0.601563  0.202040  1
  Nd  Nd2  1  0.603245  0.201286  0.597734  1
  Nd  Nd3  1  0.201286  0.603245  0.597734  1
  Y  Y4  1  0.062276  0.435376  0.439812  1
  Y  Y5  1  0.435376  0.062276  0.062536  1
  Y  Y6  1  0.435376  0.062276  0.439812  1
  Y  Y7  1  0.062276  0.435376  0.062536  1
  Y  Y8  1  0.437768  0.437768  0.062232  1
  Y  Y9  1  0.060436  0.060436  0.439564  1
  Y  Y10  1  0.187781  0.806410  0.818041  1
  Y  Y11  1  0.806410  0.187781  0.187767  1
  Y  Y12  1  0.806410  0.187781  0.818041  1
  Y  Y13  1  0.187781  0.806410  0.187767  1
  Y  Y14  1  0.815448  0.815448  0.184552  1
  Y  Y15  1  0.189814  0.189814  0.810186  1
  Cd  Cd16  1  0.830039  0.830039  0.832766  1
  Cd  Cd17  1  0.830039  0.830039  0.507155  1
  Cd  Cd18  1  0.830242  0.505854  0.831951  1
  Cd  Cd19  1  0.505854  0.830242  0.831951  1
  Ni  Ni20  1  0.392026  0.830295  0.388840  1
  Ni  Ni21  1  0.830295  0.392026  0.388840  1
  Os  Os22  1  0.393348  0.393348  0.386192  1
  Os  Os23  1  0.393348  0.393348  0.827114  1
