# generated using pymatgen
data_Y10Ga3OsPb2
_symmetry_space_group_name_H-M   'P 1'
_cell_length_a   7.90882659
_cell_length_b   7.90882659
_cell_length_c   13.81594400
_cell_angle_alpha   90.00000000
_cell_angle_beta   90.00000000
_cell_angle_gamma   89.81251132
_symmetry_Int_Tables_number   1
_chemical_formula_structural   Y10Ga3OsPb2
_chemical_formula_sum   'Y20 Ga6 Os2 Pb4'
_cell_volume   864.17628697
_cell_formula_units_Z   2
loop_
 _symmetry_equiv_pos_site_id
 _symmetry_equiv_pos_as_xyz
  1  'x, y, z'
loop_
 _atom_site_type_symbol
 _atom_site_label
 _atom_site_symmetry_multiplicity
 _atom_site_fract_x
 _atom_site_fract_y
 _atom_site_fract_z
 _atom_site_occupancy
  Y  Y0  1  0.836310  0.835310  0.894758  1
  Y  Y1  1  0.164690  0.163690  0.605242  1
  Y  Y2  1  0.824875  0.176170  0.385046  1
  Y  Y3  1  0.175125  0.823830  0.385046  1
  Y  Y4  1  0.347579  0.348738  0.384028  1
  Y  Y5  1  0.823830  0.175125  0.114954  1
  Y  Y6  1  0.336284  0.662819  0.893490  1
  Y  Y7  1  0.176170  0.824875  0.114954  1
  Y  Y8  1  0.500000  0.000000  0.751021  1
  Y  Y9  1  0.000000  0.500000  0.248960  1
  Y  Y10  1  0.337181  0.663716  0.606510  1
  Y  Y11  1  0.651262  0.652421  0.115972  1
  Y  Y12  1  0.662819  0.336284  0.606510  1
  Y  Y13  1  0.000000  0.500000  0.748979  1
  Y  Y14  1  0.835310  0.836310  0.605242  1
  Y  Y15  1  0.663716  0.337181  0.893490  1
  Y  Y16  1  0.163690  0.164690  0.894758  1
  Y  Y17  1  0.500000  0.000000  0.251040  1
  Y  Y18  1  0.652421  0.651262  0.384028  1
  Y  Y19  1  0.348738  0.347579  0.115972  1
  Ga  Ga20  1  0.130561  0.130561  0.250000  1
  Ga  Ga21  1  0.370644  0.370644  0.750000  1
  Ga  Ga22  1  0.129349  0.870651  0.750000  1
  Ga  Ga23  1  0.869439  0.869439  0.250000  1
  Ga  Ga24  1  0.629356  0.629356  0.750000  1
  Ga  Ga25  1  0.870651  0.129349  0.750000  1
  Os  Os26  1  0.634076  0.365924  0.250000  1
  Os  Os27  1  0.365924  0.634076  0.250000  1
  Pb  Pb28  1  0.000000  0.500000  0.997259  1
  Pb  Pb29  1  0.500000  0.000000  0.997314  1
  Pb  Pb30  1  0.500000  0.000000  0.502741  1
  Pb  Pb31  1  0.000000  0.500000  0.502686  1
