# generated using pymatgen
data_CsRbTcH9
_symmetry_space_group_name_H-M   'P 1'
_cell_length_a   10.11698800
_cell_length_b   10.11698696
_cell_length_c   5.98267100
_cell_angle_alpha   90.00000000
_cell_angle_beta   90.00000000
_cell_angle_gamma   119.99999684
_symmetry_Int_Tables_number   1
_chemical_formula_structural   CsRbTcH9
_chemical_formula_sum   'Cs3 Rb3 Tc3 H27'
_cell_volume   530.30801559
_cell_formula_units_Z   3
loop_
 _symmetry_equiv_pos_site_id
 _symmetry_equiv_pos_as_xyz
  1  'x, y, z'
loop_
 _atom_site_type_symbol
 _atom_site_label
 _atom_site_symmetry_multiplicity
 _atom_site_fract_x
 _atom_site_fract_y
 _atom_site_fract_z
 _atom_site_occupancy
  Cs  Cs0  1  0.589324  0.000000  0.000000  1
  Cs  Cs1  1  0.000000  0.589324  0.000000  1
  Cs  Cs2  1  0.410676  0.410676  0.000000  1
  Rb  Rb3  1  0.261402  0.000000  0.500000  1
  Rb  Rb4  1  0.000000  0.261402  0.500000  1
  Rb  Rb5  1  0.738598  0.738598  0.500000  1
  Tc  Tc6  1  0.000000  0.000000  0.000000  1
  Tc  Tc7  1  0.333333  0.666667  0.500000  1
  Tc  Tc8  1  0.666667  0.333333  0.500000  1
  H  H9  1  0.881291  0.000000  0.199167  1
  H  H10  1  0.000000  0.881291  0.199167  1
  H  H11  1  0.881291  0.000000  0.800833  1
  H  H12  1  0.000000  0.881291  0.800833  1
  H  H13  1  0.118709  0.118709  0.199167  1
  H  H14  1  0.118709  0.118709  0.800833  1
  H  H15  1  0.164952  0.000000  0.000000  1
  H  H16  1  0.000000  0.164952  0.000000  1
  H  H17  1  0.835048  0.835048  0.000000  1
  H  H18  1  0.230787  0.539221  0.297155  1
  H  H19  1  0.460779  0.691566  0.297155  1
  H  H20  1  0.230787  0.539221  0.702845  1
  H  H21  1  0.539221  0.230787  0.702845  1
  H  H22  1  0.308434  0.769213  0.297155  1
  H  H23  1  0.460779  0.691566  0.702845  1
  H  H24  1  0.691566  0.460779  0.702845  1
  H  H25  1  0.539221  0.230787  0.297155  1
  H  H26  1  0.308434  0.769213  0.702845  1
  H  H27  1  0.691566  0.460779  0.297155  1
  H  H28  1  0.769213  0.308434  0.702845  1
  H  H29  1  0.769213  0.308434  0.297155  1
  H  H30  1  0.367388  0.521412  0.500000  1
  H  H31  1  0.478588  0.845977  0.500000  1
  H  H32  1  0.521412  0.367388  0.500000  1
  H  H33  1  0.154023  0.632612  0.500000  1
  H  H34  1  0.845977  0.478588  0.500000  1
  H  H35  1  0.632612  0.154023  0.500000  1
