# generated using pymatgen
data_USn3(AsO4)6
_symmetry_space_group_name_H-M   'P 1'
_cell_length_a   9.49724346
_cell_length_b   9.49724368
_cell_length_c   9.49724300
_cell_angle_alpha   55.20672817
_cell_angle_beta   55.20673460
_cell_angle_gamma   55.20672756
_symmetry_Int_Tables_number   1
_chemical_formula_structural   USn3(AsO4)6
_chemical_formula_sum   'U1 Sn3 As6 O24'
_cell_volume   538.23201340
_cell_formula_units_Z   1
loop_
 _symmetry_equiv_pos_site_id
 _symmetry_equiv_pos_as_xyz
  1  'x, y, z'
loop_
 _atom_site_type_symbol
 _atom_site_label
 _atom_site_symmetry_multiplicity
 _atom_site_fract_x
 _atom_site_fract_y
 _atom_site_fract_z
 _atom_site_occupancy
  U  U0  1  0.859156  0.859156  0.859156  1
  Sn  Sn1  1  0.142991  0.142991  0.142991  1
  Sn  Sn2  1  0.353165  0.353165  0.353165  1
  Sn  Sn3  1  0.651209  0.651209  0.651209  1
  As  As4  1  0.751731  0.036388  0.449315  1
  As  As5  1  0.036388  0.449315  0.751731  1
  As  As6  1  0.449315  0.751731  0.036388  1
  As  As7  1  0.521818  0.265551  0.971585  1
  As  As8  1  0.971585  0.521818  0.265551  1
  As  As9  1  0.265551  0.971585  0.521818  1
  O  O10  1  0.203558  0.181010  0.519496  1
  O  O11  1  0.519496  0.203558  0.181010  1
  O  O12  1  0.887558  0.136889  0.238787  1
  O  O13  1  0.181010  0.519496  0.203558  1
  O  O14  1  0.525634  0.176953  0.500227  1
  O  O15  1  0.808748  0.999528  0.618235  1
  O  O16  1  0.136889  0.238787  0.887558  1
  O  O17  1  0.176953  0.500227  0.525634  1
  O  O18  1  0.500227  0.525634  0.176953  1
  O  O19  1  0.371292  0.215872  0.978892  1
  O  O20  1  0.738585  0.115577  0.877917  1
  O  O21  1  0.978892  0.371292  0.215872  1
  O  O22  1  0.999528  0.618235  0.808748  1
  O  O23  1  0.238787  0.887558  0.136889  1
  O  O24  1  0.618235  0.808748  0.999528  1
  O  O25  1  0.496117  0.486459  0.822775  1
  O  O26  1  0.822775  0.496117  0.486459  1
  O  O27  1  0.877917  0.738585  0.115577  1
  O  O28  1  0.215872  0.978892  0.371292  1
  O  O29  1  0.486459  0.822775  0.496117  1
  O  O30  1  0.821665  0.472966  0.802345  1
  O  O31  1  0.115577  0.877917  0.738585  1
  O  O32  1  0.472966  0.802345  0.821665  1
  O  O33  1  0.802345  0.821665  0.472966  1
