# generated using pymatgen
data_Th4CuRu3
_symmetry_space_group_name_H-M   'P 1'
_cell_length_a   4.13608400
_cell_length_b   6.01170900
_cell_length_c   14.78076100
_cell_angle_alpha   90.00000000
_cell_angle_beta   90.00000000
_cell_angle_gamma   90.00000000
_symmetry_Int_Tables_number   1
_chemical_formula_structural   Th4CuRu3
_chemical_formula_sum   'Th8 Cu2 Ru6'
_cell_volume   367.52263798
_cell_formula_units_Z   2
loop_
 _symmetry_equiv_pos_site_id
 _symmetry_equiv_pos_as_xyz
  1  'x, y, z'
loop_
 _atom_site_type_symbol
 _atom_site_label
 _atom_site_symmetry_multiplicity
 _atom_site_fract_x
 _atom_site_fract_y
 _atom_site_fract_z
 _atom_site_occupancy
  Th  Th0  1  0.250000  0.547421  0.285456  1
  Th  Th1  1  0.750000  0.465493  0.719117  1
  Th  Th2  1  0.250000  0.952579  0.785456  1
  Th  Th3  1  0.250000  0.758876  0.533725  1
  Th  Th4  1  0.250000  0.741124  0.033725  1
  Th  Th5  1  0.750000  0.256516  0.957477  1
  Th  Th6  1  0.750000  0.034507  0.219117  1
  Th  Th7  1  0.750000  0.243484  0.457477  1
  Cu  Cu8  1  0.250000  0.255707  0.105233  1
  Cu  Cu9  1  0.250000  0.244293  0.605233  1
  Ru  Ru10  1  0.250000  0.063174  0.348237  1
  Ru  Ru11  1  0.750000  0.545231  0.144819  1
  Ru  Ru12  1  0.750000  0.715222  0.405935  1
  Ru  Ru13  1  0.250000  0.436826  0.848237  1
  Ru  Ru14  1  0.750000  0.954769  0.644819  1
  Ru  Ru15  1  0.750000  0.784778  0.905935  1
