# generated using pymatgen
data_DyY5(Er2Pb3)2
_symmetry_space_group_name_H-M   'P 1'
_cell_length_a   9.04762300
_cell_length_b   9.04762310
_cell_length_c   6.62375800
_cell_angle_alpha   90.00000000
_cell_angle_beta   90.00000000
_cell_angle_gamma   120.00363426
_symmetry_Int_Tables_number   1
_chemical_formula_structural   DyY5(Er2Pb3)2
_chemical_formula_sum   'Dy1 Y5 Er4 Pb6'
_cell_volume   469.55684953
_cell_formula_units_Z   1
loop_
 _symmetry_equiv_pos_site_id
 _symmetry_equiv_pos_as_xyz
  1  'x, y, z'
loop_
 _atom_site_type_symbol
 _atom_site_label
 _atom_site_symmetry_multiplicity
 _atom_site_fract_x
 _atom_site_fract_y
 _atom_site_fract_z
 _atom_site_occupancy
  Dy  Dy0  1  0.760663  0.760663  0.750000  1
  Y  Y1  1  0.239255  0.999966  0.750000  1
  Y  Y2  1  0.999966  0.239255  0.750000  1
  Y  Y3  1  0.239362  0.239362  0.250000  1
  Y  Y4  1  0.760620  0.999897  0.250000  1
  Y  Y5  1  0.999897  0.760620  0.250000  1
  Er  Er6  1  0.666686  0.333350  0.000004  1
  Er  Er7  1  0.333350  0.666686  0.000004  1
  Er  Er8  1  0.333350  0.666686  0.499996  1
  Er  Er9  1  0.666686  0.333350  0.499996  1
  Pb  Pb10  1  0.395089  0.395089  0.750000  1
  Pb  Pb11  1  0.605037  0.999951  0.750000  1
  Pb  Pb12  1  0.999951  0.605037  0.750000  1
  Pb  Pb13  1  0.605089  0.605089  0.250000  1
  Pb  Pb14  1  0.394967  0.000033  0.250000  1
  Pb  Pb15  1  0.000033  0.394967  0.250000  1
