# generated using pymatgen
data_Dy2Er2Tm4Ga3Co
_symmetry_space_group_name_H-M   'P 1'
_cell_length_a   9.89923600
_cell_length_b   9.89502531
_cell_length_c   6.93379800
_cell_angle_alpha   89.99912851
_cell_angle_beta   90.00000000
_cell_angle_gamma   120.01407093
_symmetry_Int_Tables_number   1
_chemical_formula_structural   Dy2Er2Tm4Ga3Co
_chemical_formula_sum   'Dy4 Er4 Tm8 Ga6 Co2'
_cell_volume   588.11033215
_cell_formula_units_Z   2
loop_
 _symmetry_equiv_pos_site_id
 _symmetry_equiv_pos_as_xyz
  1  'x, y, z'
loop_
 _atom_site_type_symbol
 _atom_site_label
 _atom_site_symmetry_multiplicity
 _atom_site_fract_x
 _atom_site_fract_y
 _atom_site_fract_z
 _atom_site_occupancy
  Dy  Dy0  1  0.072345  0.536402  0.291617  1
  Dy  Dy1  1  0.464055  0.536402  0.291617  1
  Dy  Dy2  1  0.000089  0.000177  0.768741  1
  Dy  Dy3  1  0.999988  0.999976  0.268798  1
  Er  Er4  1  0.536953  0.073903  0.791985  1
  Er  Er5  1  0.925677  0.462876  0.791781  1
  Er  Er6  1  0.537201  0.462876  0.791781  1
  Er  Er7  1  0.463421  0.926844  0.292371  1
  Tm  Tm8  1  0.826297  0.652593  0.488459  1
  Tm  Tm9  1  0.347688  0.173326  0.487966  1
  Tm  Tm10  1  0.825639  0.173326  0.487966  1
  Tm  Tm11  1  0.173486  0.346971  0.986418  1
  Tm  Tm12  1  0.652522  0.826610  0.986932  1
  Tm  Tm13  1  0.174088  0.826610  0.986932  1
  Tm  Tm14  1  0.666384  0.332767  0.172450  1
  Tm  Tm15  1  0.333644  0.667290  0.673493  1
  Ga  Ga16  1  0.835947  0.671895  0.042431  1
  Ga  Ga17  1  0.328140  0.164017  0.042812  1
  Ga  Ga18  1  0.835877  0.164017  0.042812  1
  Ga  Ga19  1  0.163640  0.327280  0.543958  1
  Ga  Ga20  1  0.672233  0.836436  0.543388  1
  Ga  Ga21  1  0.164201  0.836436  0.543388  1
  Co  Co22  1  0.666626  0.333252  0.554614  1
  Co  Co23  1  0.333857  0.667716  0.053366  1
