# generated using pymatgen
data_K6ScSe4
_symmetry_space_group_name_H-M   'P 1'
_cell_length_a   10.74710100
_cell_length_b   10.74710083
_cell_length_c   8.00834600
_cell_angle_alpha   90.00000000
_cell_angle_beta   90.00000000
_cell_angle_gamma   120.00000360
_symmetry_Int_Tables_number   1
_chemical_formula_structural   K6ScSe4
_chemical_formula_sum   'K12 Sc2 Se8'
_cell_volume   801.04349568
_cell_formula_units_Z   2
loop_
 _symmetry_equiv_pos_site_id
 _symmetry_equiv_pos_as_xyz
  1  'x, y, z'
loop_
 _atom_site_type_symbol
 _atom_site_label
 _atom_site_symmetry_multiplicity
 _atom_site_fract_x
 _atom_site_fract_y
 _atom_site_fract_z
 _atom_site_occupancy
  K  K0  1  0.531903  0.063804  0.363713  1
  K  K1  1  0.468097  0.531903  0.863713  1
  K  K2  1  0.936196  0.468097  0.363713  1
  K  K3  1  0.531903  0.468097  0.363713  1
  K  K4  1  0.133614  0.866386  0.543550  1
  K  K5  1  0.267227  0.133614  0.043550  1
  K  K6  1  0.063804  0.531903  0.863713  1
  K  K7  1  0.866386  0.732773  0.043550  1
  K  K8  1  0.866386  0.133614  0.043550  1
  K  K9  1  0.732773  0.866386  0.543550  1
  K  K10  1  0.133614  0.267227  0.543550  1
  K  K11  1  0.468097  0.936196  0.863713  1
  Sc  Sc12  1  0.666667  0.333333  0.756160  1
  Sc  Sc13  1  0.333333  0.666667  0.256160  1
  Se  Se14  1  0.797811  0.202189  0.649942  1
  Se  Se15  1  0.595623  0.797811  0.149942  1
  Se  Se16  1  0.202189  0.404377  0.149942  1
  Se  Se17  1  0.797811  0.595623  0.649942  1
  Se  Se18  1  0.404377  0.202189  0.649942  1
  Se  Se19  1  0.202189  0.797811  0.149942  1
  Se  Se20  1  0.666667  0.333333  0.079325  1
  Se  Se21  1  0.333333  0.666667  0.579325  1
