# generated using pymatgen
data_Cs6Sc(AsI6)3
_symmetry_space_group_name_H-M   'P 1'
_cell_length_a   8.40777089
_cell_length_b   8.40847693
_cell_length_c   21.18549471
_cell_angle_alpha   89.35017158
_cell_angle_beta   89.34648309
_cell_angle_gamma   119.90650301
_symmetry_Int_Tables_number   1
_chemical_formula_structural   Cs6Sc(AsI6)3
_chemical_formula_sum   'Cs6 Sc1 As3 I18'
_cell_volume   1297.96735589
_cell_formula_units_Z   1
loop_
 _symmetry_equiv_pos_site_id
 _symmetry_equiv_pos_as_xyz
  1  'x, y, z'
loop_
 _atom_site_type_symbol
 _atom_site_label
 _atom_site_symmetry_multiplicity
 _atom_site_fract_x
 _atom_site_fract_y
 _atom_site_fract_z
 _atom_site_occupancy
  Cs  Cs0  1  0.996477  0.003517  0.751518  1
  Cs  Cs1  1  0.664698  0.327811  0.074807  1
  Cs  Cs2  1  0.003486  0.996521  0.249981  1
  Cs  Cs3  1  0.328064  0.664996  0.574827  1
  Cs  Cs4  1  0.334477  0.671436  0.925146  1
  Cs  Cs5  1  0.671900  0.334997  0.423535  1
  Sc  Sc6  1  0.674660  0.344401  0.842198  1
  As  As7  1  0.655497  0.325330  0.656343  1
  As  As8  1  0.344005  0.674150  0.341727  1
  As  As9  1  0.325564  0.655789  0.157234  1
  I  I10  1  0.638603  0.809698  0.081395  1
  I  I11  1  0.355244  0.187135  0.918631  1
  I  I12  1  0.507081  0.019045  0.757130  1
  I  I13  1  0.191620  0.845160  0.412417  1
  I  I14  1  0.848437  0.189106  0.911959  1
  I  I15  1  0.809978  0.639217  0.581118  1
  I  I16  1  0.808345  0.154887  0.587502  1
  I  I17  1  0.326522  0.157754  0.592640  1
  I  I18  1  0.494933  0.984909  0.243835  1
  I  I19  1  0.980990  0.493055  0.744064  1
  I  I20  1  0.155113  0.807952  0.087809  1
  I  I21  1  0.015165  0.505123  0.257410  1
  I  I22  1  0.507060  0.493543  0.750625  1
  I  I23  1  0.845308  0.679088  0.906514  1
  I  I24  1  0.158102  0.327355  0.093011  1
  I  I25  1  0.673482  0.842312  0.407268  1
  I  I26  1  0.495191  0.504942  0.250612  1
  I  I27  1  0.190000  0.360770  0.418746  1
