# generated using pymatgen
data_Dy5P12Ru15Pt4
_symmetry_space_group_name_H-M   'P 1'
_cell_length_a   12.72666742
_cell_length_b   12.63453467
_cell_length_c   3.95470900
_cell_angle_alpha   90.00000000
_cell_angle_beta   90.00000000
_cell_angle_gamma   120.38787868
_symmetry_Int_Tables_number   1
_chemical_formula_structural   Dy5P12Ru15Pt4
_chemical_formula_sum   'Dy5 P12 Ru15 Pt4'
_cell_volume   548.54006886
_cell_formula_units_Z   1
loop_
 _symmetry_equiv_pos_site_id
 _symmetry_equiv_pos_as_xyz
  1  'x, y, z'
loop_
 _atom_site_type_symbol
 _atom_site_label
 _atom_site_symmetry_multiplicity
 _atom_site_fract_x
 _atom_site_fract_y
 _atom_site_fract_z
 _atom_site_occupancy
  Dy  Dy0  1  0.665035  0.332343  0.000000  1
  Dy  Dy1  1  0.337586  0.667937  0.000000  1
  Dy  Dy2  1  0.815765  0.000300  0.500000  1
  Dy  Dy3  1  0.182344  0.182849  0.500000  1
  Dy  Dy4  1  0.000614  0.817748  0.500000  1
  P  P5  1  0.629008  0.988886  0.000000  1
  P  P6  1  0.359168  0.370274  0.000000  1
  P  P7  1  0.002251  0.641275  0.000000  1
  P  P8  1  0.693215  0.527947  0.500000  1
  P  P9  1  0.832551  0.305326  0.500000  1
  P  P10  1  0.317527  0.838188  0.500000  1
  P  P11  1  0.522740  0.691990  0.500000  1
  P  P12  1  0.180607  0.998531  0.000000  1
  P  P13  1  0.817681  0.818420  0.000000  1
  P  P14  1  0.996406  0.181073  0.000000  1
  P  P15  1  0.470531  0.165870  0.500000  1
  P  P16  1  0.175785  0.474586  0.500000  1
  Ru  Ru17  1  0.622301  0.801011  0.000000  1
  Ru  Ru18  1  0.178891  0.378113  0.000000  1
  Ru  Ru19  1  0.376665  0.185412  0.000000  1
  Ru  Ru20  1  0.197674  0.816451  0.000000  1
  Ru  Ru21  1  0.805486  0.620523  0.000000  1
  Ru  Ru22  1  0.365466  0.489838  0.500000  1
  Ru  Ru23  1  0.511464  0.873371  0.500000  1
  Ru  Ru24  1  0.000324  0.000647  0.000000  1
  Ru  Ru25  1  0.717087  0.716467  0.500000  1
  Ru  Ru26  1  0.998091  0.284733  0.500000  1
  Ru  Ru27  1  0.451164  0.002479  0.000000  1
  Ru  Ru28  1  0.551781  0.546458  0.000000  1
  Ru  Ru29  1  0.996898  0.453348  0.000000  1
  Ru  Ru30  1  0.812645  0.193087  0.000000  1
  Ru  Ru31  1  0.282203  0.998665  0.500000  1
  Pt  Pt32  1  0.867892  0.503794  0.500000  1
  Pt  Pt33  1  0.497021  0.364645  0.500000  1
  Pt  Pt34  1  0.633037  0.132253  0.500000  1
  Pt  Pt35  1  0.135094  0.635161  0.500000  1
