# generated using pymatgen
data_Ta4Mn3Si4Ir
_symmetry_space_group_name_H-M   'P 1'
_cell_length_a   3.65611700
_cell_length_b   6.32688243
_cell_length_c   7.38881163
_cell_angle_alpha   89.90141295
_cell_angle_beta   90.00000000
_cell_angle_gamma   90.00000000
_symmetry_Int_Tables_number   1
_chemical_formula_structural   Ta4Mn3Si4Ir
_chemical_formula_sum   'Ta4 Mn3 Si4 Ir1'
_cell_volume   170.91642550
_cell_formula_units_Z   1
loop_
 _symmetry_equiv_pos_site_id
 _symmetry_equiv_pos_as_xyz
  1  'x, y, z'
loop_
 _atom_site_type_symbol
 _atom_site_label
 _atom_site_symmetry_multiplicity
 _atom_site_fract_x
 _atom_site_fract_y
 _atom_site_fract_z
 _atom_site_occupancy
  Ta  Ta0  1  0.750000  0.535544  0.825762  1
  Ta  Ta1  1  0.250000  0.966974  0.330497  1
  Ta  Ta2  1  0.750000  0.028026  0.672362  1
  Ta  Ta3  1  0.250000  0.476011  0.177502  1
  Mn  Mn4  1  0.250000  0.851581  0.936870  1
  Mn  Mn5  1  0.250000  0.359682  0.558976  1
  Mn  Mn6  1  0.750000  0.638105  0.439912  1
  Si  Si7  1  0.250000  0.236364  0.866277  1
  Si  Si8  1  0.250000  0.731890  0.627546  1
  Si  Si9  1  0.750000  0.765810  0.133035  1
  Si  Si10  1  0.750000  0.267867  0.373155  1
  Ir  Ir11  1  0.750000  0.142145  0.058106  1
