# generated using pymatgen
data_YTm5Co16(P6Os)2
_symmetry_space_group_name_H-M   'P 1'
_cell_length_a   3.70102000
_cell_length_b   10.47684100
_cell_length_c   12.21477500
_cell_angle_alpha   90.00000000
_cell_angle_beta   90.00000000
_cell_angle_gamma   90.00000000
_symmetry_Int_Tables_number   1
_chemical_formula_structural   YTm5Co16(P6Os)2
_chemical_formula_sum   'Y1 Tm5 Co16 P12 Os2'
_cell_volume   473.62787715
_cell_formula_units_Z   1
loop_
 _symmetry_equiv_pos_site_id
 _symmetry_equiv_pos_as_xyz
  1  'x, y, z'
loop_
 _atom_site_type_symbol
 _atom_site_label
 _atom_site_symmetry_multiplicity
 _atom_site_fract_x
 _atom_site_fract_y
 _atom_site_fract_z
 _atom_site_occupancy
  Y  Y0  1  0.000000  0.500000  0.525032  1
  Tm  Tm1  1  0.500000  0.000000  0.474712  1
  Tm  Tm2  1  0.500000  0.817871  0.207258  1
  Tm  Tm3  1  0.500000  0.182129  0.207258  1
  Tm  Tm4  1  0.000000  0.682556  0.793063  1
  Tm  Tm5  1  0.000000  0.317444  0.793063  1
  Co  Co6  1  0.500000  0.500000  0.704621  1
  Co  Co7  1  0.000000  0.000000  0.296533  1
  Co  Co8  1  0.000000  0.500000  0.987093  1
  Co  Co9  1  0.500000  0.000000  0.013172  1
  Co  Co10  1  0.500000  0.332263  0.989513  1
  Co  Co11  1  0.500000  0.667737  0.989513  1
  Co  Co12  1  0.000000  0.167405  0.010524  1
  Co  Co13  1  0.000000  0.832595  0.010524  1
  Co  Co14  1  0.500000  0.296265  0.431054  1
  Co  Co15  1  0.500000  0.703735  0.431054  1
  Co  Co16  1  0.000000  0.201643  0.568760  1
  Co  Co17  1  0.000000  0.798357  0.568760  1
  Co  Co18  1  0.500000  0.878958  0.708264  1
  Co  Co19  1  0.500000  0.121042  0.708264  1
  Co  Co20  1  0.000000  0.621599  0.291306  1
  Co  Co21  1  0.000000  0.378401  0.291306  1
  P  P22  1  0.500000  0.500000  0.880567  1
  P  P23  1  0.000000  0.000000  0.119905  1
  P  P24  1  0.500000  0.500000  0.350568  1
  P  P25  1  0.000000  0.000000  0.648029  1
  P  P26  1  0.500000  0.311570  0.617149  1
  P  P27  1  0.500000  0.688430  0.617149  1
  P  P28  1  0.000000  0.187140  0.383429  1
  P  P29  1  0.000000  0.812860  0.383429  1
  P  P30  1  0.500000  0.846141  0.892150  1
  P  P31  1  0.500000  0.153859  0.892150  1
  P  P32  1  0.000000  0.654308  0.107746  1
  P  P33  1  0.000000  0.345692  0.107746  1
  Os  Os34  1  0.500000  0.500000  0.158734  1
  Os  Os35  1  0.000000  0.000000  0.840603  1
