# generated using pymatgen
data_LiNd2Y2Al17Pd6
_symmetry_space_group_name_H-M   'P 1'
_cell_length_a   7.65914303
_cell_length_b   7.65914367
_cell_length_c   9.55649500
_cell_angle_alpha   90.00000000
_cell_angle_beta   90.00000000
_cell_angle_gamma   119.36142737
_symmetry_Int_Tables_number   1
_chemical_formula_structural   LiNd2Y2Al17Pd6
_chemical_formula_sum   'Li1 Nd2 Y2 Al17 Pd6'
_cell_volume   488.59430364
_cell_formula_units_Z   1
loop_
 _symmetry_equiv_pos_site_id
 _symmetry_equiv_pos_as_xyz
  1  'x, y, z'
loop_
 _atom_site_type_symbol
 _atom_site_label
 _atom_site_symmetry_multiplicity
 _atom_site_fract_x
 _atom_site_fract_y
 _atom_site_fract_z
 _atom_site_occupancy
  Li  Li0  1  0.128488  0.128489  0.250000  1
  Nd  Nd1  1  0.008052  0.331607  0.750000  1
  Nd  Nd2  1  0.331616  0.008051  0.750000  1
  Y  Y3  1  0.994738  0.664502  0.250000  1
  Y  Y4  1  0.664501  0.994738  0.250000  1
  Al  Al5  1  0.864701  0.864699  0.750000  1
  Al  Al6  1  0.001309  0.328518  0.081976  1
  Al  Al7  1  0.998517  0.665418  0.929365  1
  Al  Al8  1  0.998517  0.665418  0.570635  1
  Al  Al9  1  0.328517  0.001310  0.418024  1
  Al  Al10  1  0.001309  0.328518  0.418024  1
  Al  Al11  1  0.665419  0.998517  0.570633  1
  Al  Al12  1  0.665419  0.998517  0.929367  1
  Al  Al13  1  0.328517  0.001310  0.081976  1
  Al  Al14  1  0.336073  0.336072  0.540839  1
  Al  Al15  1  0.671138  0.671138  0.438094  1
  Al  Al16  1  0.671138  0.671138  0.061906  1
  Al  Al17  1  0.336073  0.336072  0.959161  1
  Al  Al18  1  0.340503  0.542495  0.250000  1
  Al  Al19  1  0.659683  0.454866  0.750000  1
  Al  Al20  1  0.542494  0.340504  0.250000  1
  Al  Al21  1  0.454865  0.659682  0.750000  1
  Pd  Pd22  1  0.675035  0.330667  0.002310  1
  Pd  Pd23  1  0.330666  0.675035  0.002310  1
  Pd  Pd24  1  0.330666  0.675035  0.497690  1
  Pd  Pd25  1  0.675035  0.330667  0.497690  1
  Pd  Pd26  1  0.998507  0.998508  0.995407  1
  Pd  Pd27  1  0.998507  0.998508  0.504593  1
