# generated using pymatgen
data_Sm(TiZn2)2
_symmetry_space_group_name_H-M   'P 1'
_cell_length_a   5.55845458
_cell_length_b   5.55845527
_cell_length_c   5.55845524
_cell_angle_alpha   101.22093164
_cell_angle_beta   101.22092753
_cell_angle_gamma   127.64842982
_symmetry_Int_Tables_number   1
_chemical_formula_structural   Sm(TiZn2)2
_chemical_formula_sum   'Sm1 Ti2 Zn4'
_cell_volume   122.03126498
_cell_formula_units_Z   1
loop_
 _symmetry_equiv_pos_site_id
 _symmetry_equiv_pos_as_xyz
  1  'x, y, z'
loop_
 _atom_site_type_symbol
 _atom_site_label
 _atom_site_symmetry_multiplicity
 _atom_site_fract_x
 _atom_site_fract_y
 _atom_site_fract_z
 _atom_site_occupancy
  Sm  Sm0  1  0.000000  0.000000  0.000000  1
  Ti  Ti1  1  0.250000  0.750000  0.500000  1
  Ti  Ti2  1  0.750000  0.250000  0.500000  1
  Zn  Zn3  1  0.307610  0.307610  0.615220  1
  Zn  Zn4  1  0.692390  0.692390  0.384780  1
  Zn  Zn5  1  0.692390  0.307610  0.000000  1
  Zn  Zn6  1  0.307610  0.692390  0.000000  1
