# generated using pymatgen
data_YHoAl2PdRu
_symmetry_space_group_name_H-M   'P 1'
_cell_length_a   4.23626000
_cell_length_b   6.96359300
_cell_length_c   7.98653100
_cell_angle_alpha   90.00000000
_cell_angle_beta   90.00000000
_cell_angle_gamma   90.00000000
_symmetry_Int_Tables_number   1
_chemical_formula_structural   YHoAl2PdRu
_chemical_formula_sum   'Y2 Ho2 Al4 Pd2 Ru2'
_cell_volume   235.59939387
_cell_formula_units_Z   2
loop_
 _symmetry_equiv_pos_site_id
 _symmetry_equiv_pos_as_xyz
  1  'x, y, z'
loop_
 _atom_site_type_symbol
 _atom_site_label
 _atom_site_symmetry_multiplicity
 _atom_site_fract_x
 _atom_site_fract_y
 _atom_site_fract_z
 _atom_site_occupancy
  Y  Y0  1  0.250000  0.034585  0.676171  1
  Y  Y1  1  0.250000  0.534585  0.823829  1
  Ho  Ho2  1  0.750000  0.972733  0.314151  1
  Ho  Ho3  1  0.750000  0.472733  0.185849  1
  Al  Al4  1  0.250000  0.138630  0.064652  1
  Al  Al5  1  0.250000  0.638630  0.435348  1
  Al  Al6  1  0.750000  0.855582  0.942539  1
  Al  Al7  1  0.750000  0.355582  0.557461  1
  Pd  Pd8  1  0.750000  0.729863  0.620006  1
  Pd  Pd9  1  0.750000  0.229863  0.879994  1
  Ru  Ru10  1  0.250000  0.268607  0.380931  1
  Ru  Ru11  1  0.250000  0.768607  0.119069  1
