# generated using pymatgen
data_TbTmNi2(SnH)2
_symmetry_space_group_name_H-M   'P 1'
_cell_length_a   4.22708000
_cell_length_b   7.08018548
_cell_length_c   8.28610475
_cell_angle_alpha   90.15587782
_cell_angle_beta   90.00000000
_cell_angle_gamma   90.00000000
_symmetry_Int_Tables_number   1
_chemical_formula_structural   TbTmNi2(SnH)2
_chemical_formula_sum   'Tb2 Tm2 Ni4 Sn4 H4'
_cell_volume   247.98985473
_cell_formula_units_Z   2
loop_
 _symmetry_equiv_pos_site_id
 _symmetry_equiv_pos_as_xyz
  1  'x, y, z'
loop_
 _atom_site_type_symbol
 _atom_site_label
 _atom_site_symmetry_multiplicity
 _atom_site_fract_x
 _atom_site_fract_y
 _atom_site_fract_z
 _atom_site_occupancy
  Tb  Tb0  1  0.750000  0.515930  0.813601  1
  Tb  Tb1  1  0.250000  0.484070  0.186399  1
  Tm  Tm2  1  0.250000  0.983826  0.315008  1
  Tm  Tm3  1  0.750000  0.016174  0.684992  1
  Ni  Ni4  1  0.750000  0.269386  0.393023  1
  Ni  Ni5  1  0.250000  0.730614  0.606977  1
  Ni  Ni6  1  0.250000  0.223589  0.889002  1
  Ni  Ni7  1  0.750000  0.776411  0.110998  1
  Sn  Sn8  1  0.750000  0.155509  0.071886  1
  Sn  Sn9  1  0.250000  0.844491  0.928114  1
  Sn  Sn10  1  0.250000  0.342874  0.570718  1
  Sn  Sn11  1  0.750000  0.657126  0.429282  1
  H  H12  1  0.250000  0.952613  0.577198  1
  H  H13  1  0.750000  0.047387  0.422802  1
  H  H14  1  0.750000  0.552674  0.079072  1
  H  H15  1  0.250000  0.447326  0.920928  1
