# generated using pymatgen
data_Dy12TcRu3
_symmetry_space_group_name_H-M   'P 1'
_cell_length_a   7.34000417
_cell_length_b   9.21043400
_cell_length_c   6.29556115
_cell_angle_alpha   90.00000000
_cell_angle_beta   90.02488241
_cell_angle_gamma   90.00000000
_symmetry_Int_Tables_number   1
_chemical_formula_structural   Dy12TcRu3
_chemical_formula_sum   'Dy12 Tc1 Ru3'
_cell_volume   425.60900414
_cell_formula_units_Z   1
loop_
 _symmetry_equiv_pos_site_id
 _symmetry_equiv_pos_as_xyz
  1  'x, y, z'
loop_
 _atom_site_type_symbol
 _atom_site_label
 _atom_site_symmetry_multiplicity
 _atom_site_fract_x
 _atom_site_fract_y
 _atom_site_fract_z
 _atom_site_occupancy
  Dy  Dy0  1  0.457487  0.750000  0.134610  1
  Dy  Dy1  1  0.176584  0.064662  0.167892  1
  Dy  Dy2  1  0.176584  0.435337  0.167892  1
  Dy  Dy3  1  0.676683  0.064972  0.332564  1
  Dy  Dy4  1  0.676683  0.435027  0.332564  1
  Dy  Dy5  1  0.958292  0.750000  0.365492  1
  Dy  Dy6  1  0.041997  0.250000  0.629403  1
  Dy  Dy7  1  0.323000  0.564769  0.668332  1
  Dy  Dy8  1  0.323000  0.935232  0.668332  1
  Dy  Dy9  1  0.823886  0.563322  0.833961  1
  Dy  Dy10  1  0.823886  0.936679  0.833961  1
  Dy  Dy11  1  0.539951  0.250000  0.866616  1
  Tc  Tc12  1  0.886897  0.250000  0.039302  1
  Ru  Ru13  1  0.385602  0.250000  0.460643  1
  Ru  Ru14  1  0.613852  0.750000  0.538807  1
  Ru  Ru15  1  0.115614  0.750000  0.959627  1
