# generated using pymatgen
data_Ca2In8IrRh
_symmetry_space_group_name_H-M   'P 1'
_cell_length_a   4.29147800
_cell_length_b   7.60930300
_cell_length_c   8.75532700
_cell_angle_alpha   90.00000000
_cell_angle_beta   90.00000000
_cell_angle_gamma   90.00000000
_symmetry_Int_Tables_number   1
_chemical_formula_structural   Ca2In8IrRh
_chemical_formula_sum   'Ca2 In8 Ir1 Rh1'
_cell_volume   285.90657269
_cell_formula_units_Z   1
loop_
 _symmetry_equiv_pos_site_id
 _symmetry_equiv_pos_as_xyz
  1  'x, y, z'
loop_
 _atom_site_type_symbol
 _atom_site_label
 _atom_site_symmetry_multiplicity
 _atom_site_fract_x
 _atom_site_fract_y
 _atom_site_fract_z
 _atom_site_occupancy
  Ca  Ca0  1  0.000000  0.401910  0.250000  1
  Ca  Ca1  1  0.000000  0.599285  0.750000  1
  In  In2  1  0.000000  0.001300  0.999375  1
  In  In3  1  0.000000  0.001300  0.500625  1
  In  In4  1  0.500000  0.066800  0.250000  1
  In  In5  1  0.500000  0.932364  0.750000  1
  In  In6  1  0.500000  0.684624  0.064406  1
  In  In7  1  0.500000  0.314710  0.936460  1
  In  In8  1  0.500000  0.684624  0.435594  1
  In  In9  1  0.500000  0.314710  0.563540  1
  Ir  Ir10  1  0.000000  0.804329  0.250000  1
  Rh  Rh11  1  0.000000  0.194044  0.750000  1
