# generated using pymatgen
data_Ho2Re7Si4Mo
_symmetry_space_group_name_H-M   'P 1'
_cell_length_a   7.13909912
_cell_length_b   7.67810447
_cell_length_c   4.17423000
_cell_angle_alpha   90.00000000
_cell_angle_beta   90.00000000
_cell_angle_gamma   90.12176282
_symmetry_Int_Tables_number   1
_chemical_formula_structural   Ho2Re7Si4Mo
_chemical_formula_sum   'Ho2 Re7 Si4 Mo1'
_cell_volume   228.80885235
_cell_formula_units_Z   1
loop_
 _symmetry_equiv_pos_site_id
 _symmetry_equiv_pos_as_xyz
  1  'x, y, z'
loop_
 _atom_site_type_symbol
 _atom_site_label
 _atom_site_symmetry_multiplicity
 _atom_site_fract_x
 _atom_site_fract_y
 _atom_site_fract_z
 _atom_site_occupancy
  Ho  Ho0  1  0.500773  0.498819  0.000000  1
  Ho  Ho1  1  0.999116  0.999951  0.500000  1
  Re  Re2  1  0.155881  0.604993  0.500000  1
  Re  Re3  1  0.083479  0.340477  0.000000  1
  Re  Re4  1  0.918586  0.657592  0.000000  1
  Re  Re5  1  0.416745  0.840430  0.500000  1
  Re  Re6  1  0.581950  0.163662  0.500000  1
  Re  Re7  1  0.343658  0.107216  0.000000  1
  Re  Re8  1  0.845948  0.393775  0.500000  1
  Si  Si9  1  0.223494  0.806217  0.000000  1
  Si  Si10  1  0.778123  0.195455  0.000000  1
  Si  Si11  1  0.723659  0.693027  0.500000  1
  Si  Si12  1  0.276975  0.305503  0.500000  1
  Mo  Mo13  1  0.651613  0.892884  0.000000  1
