# generated using pymatgen
data_Tb5ThTcRh
_symmetry_space_group_name_H-M   'P 1'
_cell_length_a   6.33852500
_cell_length_b   7.29175400
_cell_length_c   9.56338600
_cell_angle_alpha   90.00000000
_cell_angle_beta   90.00000000
_cell_angle_gamma   90.00000000
_symmetry_Int_Tables_number   1
_chemical_formula_structural   Tb5ThTcRh
_chemical_formula_sum   'Tb10 Th2 Tc2 Rh2'
_cell_volume   442.00980303
_cell_formula_units_Z   2
loop_
 _symmetry_equiv_pos_site_id
 _symmetry_equiv_pos_as_xyz
  1  'x, y, z'
loop_
 _atom_site_type_symbol
 _atom_site_label
 _atom_site_symmetry_multiplicity
 _atom_site_fract_x
 _atom_site_fract_y
 _atom_site_fract_z
 _atom_site_occupancy
  Tb  Tb0  1  0.331121  0.677973  0.066323  1
  Tb  Tb1  1  0.168879  0.177973  0.433677  1
  Tb  Tb2  1  0.666845  0.323363  0.564795  1
  Tb  Tb3  1  0.833155  0.823363  0.935205  1
  Tb  Tb4  1  0.666845  0.323363  0.935205  1
  Tb  Tb5  1  0.833155  0.823363  0.564795  1
  Tb  Tb6  1  0.331121  0.677973  0.433677  1
  Tb  Tb7  1  0.168879  0.177973  0.066323  1
  Tb  Tb8  1  0.139851  0.459636  0.750000  1
  Tb  Tb9  1  0.360149  0.959636  0.750000  1
  Th  Th10  1  0.858136  0.548024  0.250000  1
  Th  Th11  1  0.641864  0.048024  0.250000  1
  Tc  Tc12  1  0.021771  0.872661  0.250000  1
  Tc  Tc13  1  0.478229  0.372661  0.250000  1
  Rh  Rh14  1  0.946929  0.117004  0.750000  1
  Rh  Rh15  1  0.553071  0.617004  0.750000  1
