# generated using pymatgen
data_Dy3Mg3AlAgSn
_symmetry_space_group_name_H-M   'P 1'
_cell_length_a   7.49084900
_cell_length_b   7.49084793
_cell_length_c   4.45059200
_cell_angle_alpha   90.00000000
_cell_angle_beta   90.00000000
_cell_angle_gamma   120.00000916
_symmetry_Int_Tables_number   1
_chemical_formula_structural   Dy3Mg3AlAgSn
_chemical_formula_sum   'Dy3 Mg3 Al1 Ag1 Sn1'
_cell_volume   216.27703027
_cell_formula_units_Z   1
loop_
 _symmetry_equiv_pos_site_id
 _symmetry_equiv_pos_as_xyz
  1  'x, y, z'
loop_
 _atom_site_type_symbol
 _atom_site_label
 _atom_site_symmetry_multiplicity
 _atom_site_fract_x
 _atom_site_fract_y
 _atom_site_fract_z
 _atom_site_occupancy
  Dy  Dy0  1  0.421843  0.414570  0.500000  1
  Dy  Dy1  1  0.585430  0.007273  0.500000  1
  Dy  Dy2  1  0.992727  0.578157  0.500000  1
  Mg  Mg3  1  0.762892  0.758654  0.000000  1
  Mg  Mg4  1  0.241346  0.004239  0.000000  1
  Mg  Mg5  1  0.995761  0.237108  0.000000  1
  Al  Al6  1  0.666667  0.333333  0.000000  1
  Ag  Ag7  1  0.000000  0.000000  0.500000  1
  Sn  Sn8  1  0.333333  0.666667  0.000000  1
