# generated using pymatgen
data_La2Dy3(TcB3)2
_symmetry_space_group_name_H-M   'P 1'
_cell_length_a   5.55575305
_cell_length_b   5.55575496
_cell_length_c   8.73765489
_cell_angle_alpha   71.46281001
_cell_angle_beta   71.46280294
_cell_angle_gamma   59.99998916
_symmetry_Int_Tables_number   1
_chemical_formula_structural   La2Dy3(TcB3)2
_chemical_formula_sum   'La2 Dy3 Tc2 B6'
_cell_volume   217.25946156
_cell_formula_units_Z   1
loop_
 _symmetry_equiv_pos_site_id
 _symmetry_equiv_pos_as_xyz
  1  'x, y, z'
loop_
 _atom_site_type_symbol
 _atom_site_label
 _atom_site_symmetry_multiplicity
 _atom_site_fract_x
 _atom_site_fract_y
 _atom_site_fract_z
 _atom_site_occupancy
  La  La0  1  0.001097  0.001097  0.996710  1
  La  La1  1  0.252121  0.252121  0.243637  1
  Dy  Dy2  1  0.753732  0.753732  0.738805  1
  Dy  Dy3  1  0.421882  0.421882  0.734354  1
  Dy  Dy4  1  0.577099  0.577099  0.268702  1
  Tc  Tc5  1  0.112054  0.112054  0.663838  1
  Tc  Tc6  1  0.886765  0.886765  0.339705  1
  B  B7  1  0.167594  0.829289  0.502375  1
  B  B8  1  0.829289  0.500743  0.502375  1
  B  B9  1  0.500743  0.167594  0.502375  1
  B  B10  1  0.167594  0.500743  0.502375  1
  B  B11  1  0.500743  0.829289  0.502375  1
  B  B12  1  0.829289  0.167594  0.502375  1
