# generated using pymatgen
data_Nd2Si7(PdPt2)4
_symmetry_space_group_name_H-M   'P 1'
_cell_length_a   9.94627025
_cell_length_b   9.95054516
_cell_length_c   3.99044505
_cell_angle_alpha   89.99444872
_cell_angle_beta   89.99060783
_cell_angle_gamma   119.86875384
_symmetry_Int_Tables_number   1
_chemical_formula_structural   Nd2Si7(PdPt2)4
_chemical_formula_sum   'Nd2 Si7 Pd4 Pt8'
_cell_volume   342.47740824
_cell_formula_units_Z   1
loop_
 _symmetry_equiv_pos_site_id
 _symmetry_equiv_pos_as_xyz
  1  'x, y, z'
loop_
 _atom_site_type_symbol
 _atom_site_label
 _atom_site_symmetry_multiplicity
 _atom_site_fract_x
 _atom_site_fract_y
 _atom_site_fract_z
 _atom_site_occupancy
  Nd  Nd0  1  0.665375  0.331800  0.257855  1
  Nd  Nd1  1  0.000394  0.001105  0.758344  1
  Si  Si2  1  0.331694  0.663946  0.286917  1
  Si  Si3  1  0.741108  0.782350  0.258222  1
  Si  Si4  1  0.038871  0.258526  0.258618  1
  Si  Si5  1  0.221023  0.962080  0.258385  1
  Si  Si6  1  0.934381  0.556585  0.758356  1
  Si  Si7  1  0.622872  0.067108  0.757733  1
  Si  Si8  1  0.445221  0.378056  0.758198  1
  Pd  Pd9  1  0.449801  0.936976  0.257082  1
  Pd  Pd10  1  0.206377  0.763696  0.758358  1
  Pd  Pd11  1  0.557731  0.795228  0.757743  1
  Pd  Pd12  1  0.234488  0.437726  0.759513  1
  Pt  Pt13  1  0.772712  0.038365  0.258289  1
  Pt  Pt14  1  0.262137  0.225468  0.259113  1
  Pt  Pt15  1  0.964387  0.741313  0.258336  1
  Pt  Pt16  1  0.889162  0.282477  0.758600  1
  Pt  Pt17  1  0.394006  0.110033  0.758643  1
  Pt  Pt18  1  0.719285  0.606875  0.758354  1
  Pt  Pt19  1  0.490450  0.549806  0.257213  1
  Pt  Pt20  1  0.058525  0.510480  0.257642  1
