# generated using pymatgen
data_Er4Nb2CoOs5
_symmetry_space_group_name_H-M   'P 1'
_cell_length_a   5.51344527
_cell_length_b   5.51344554
_cell_length_c   8.44382100
_cell_angle_alpha   90.00000000
_cell_angle_beta   90.00000000
_cell_angle_gamma   120.19843016
_symmetry_Int_Tables_number   1
_chemical_formula_structural   Er4Nb2CoOs5
_chemical_formula_sum   'Er4 Nb2 Co1 Os5'
_cell_volume   221.84209166
_cell_formula_units_Z   1
loop_
 _symmetry_equiv_pos_site_id
 _symmetry_equiv_pos_as_xyz
  1  'x, y, z'
loop_
 _atom_site_type_symbol
 _atom_site_label
 _atom_site_symmetry_multiplicity
 _atom_site_fract_x
 _atom_site_fract_y
 _atom_site_fract_z
 _atom_site_occupancy
  Er  Er0  1  0.332288  0.667712  0.433782  1
  Er  Er1  1  0.666404  0.333596  0.562515  1
  Er  Er2  1  0.666404  0.333596  0.937485  1
  Er  Er3  1  0.332288  0.667712  0.066218  1
  Nb  Nb4  1  0.998967  0.001033  0.495105  1
  Nb  Nb5  1  0.998967  0.001033  0.004895  1
  Co  Co6  1  0.832986  0.167014  0.250000  1
  Os  Os7  1  0.820516  0.644588  0.250000  1
  Os  Os8  1  0.355412  0.179484  0.250000  1
  Os  Os9  1  0.172681  0.827319  0.750000  1
  Os  Os10  1  0.171915  0.348827  0.750000  1
  Os  Os11  1  0.651173  0.828085  0.750000  1
