# generated using pymatgen
data_HfSc3(GeRh5)2
_symmetry_space_group_name_H-M   'P 1'
_cell_length_a   4.09258200
_cell_length_b   5.51560578
_cell_length_c   10.85491996
_cell_angle_alpha   90.23626125
_cell_angle_beta   90.00000000
_cell_angle_gamma   90.00000000
_symmetry_Int_Tables_number   1
_chemical_formula_structural   HfSc3(GeRh5)2
_chemical_formula_sum   'Hf1 Sc3 Ge2 Rh10'
_cell_volume   245.02677335
_cell_formula_units_Z   1
loop_
 _symmetry_equiv_pos_site_id
 _symmetry_equiv_pos_as_xyz
  1  'x, y, z'
loop_
 _atom_site_type_symbol
 _atom_site_label
 _atom_site_symmetry_multiplicity
 _atom_site_fract_x
 _atom_site_fract_y
 _atom_site_fract_z
 _atom_site_occupancy
  Hf  Hf0  1  0.500000  0.324484  0.140864  1
  Sc  Sc1  1  0.500000  0.176490  0.640149  1
  Sc  Sc2  1  0.500000  0.823376  0.361763  1
  Sc  Sc3  1  0.500000  0.677102  0.858083  1
  Ge  Ge4  1  0.000000  0.500184  0.500756  1
  Ge  Ge5  1  0.000000  0.997381  0.998227  1
  Rh  Rh6  1  0.500000  0.183755  0.894574  1
  Rh  Rh7  1  0.500000  0.817237  0.106554  1
  Rh  Rh8  1  0.500000  0.682525  0.606523  1
  Rh  Rh9  1  0.500000  0.317672  0.392694  1
  Rh  Rh10  1  0.000000  0.428655  0.744676  1
  Rh  Rh11  1  0.000000  0.570909  0.254507  1
  Rh  Rh12  1  0.000000  0.000073  0.500197  1
  Rh  Rh13  1  0.000000  0.500014  0.000202  1
  Rh  Rh14  1  0.000000  0.070572  0.244851  1
  Rh  Rh15  1  0.000000  0.929570  0.755380  1
