# generated using pymatgen
data_Tm15Th(HgPt)4
_symmetry_space_group_name_H-M   'P 1'
_cell_length_a   9.53097136
_cell_length_b   9.53097127
_cell_length_c   9.53097017
_cell_angle_alpha   60.32150638
_cell_angle_beta   60.32150636
_cell_angle_gamma   60.32150891
_symmetry_Int_Tables_number   1
_chemical_formula_structural   Tm15Th(HgPt)4
_chemical_formula_sum   'Tm15 Th1 Hg4 Pt4'
_cell_volume   616.65783745
_cell_formula_units_Z   1
loop_
 _symmetry_equiv_pos_site_id
 _symmetry_equiv_pos_as_xyz
  1  'x, y, z'
loop_
 _atom_site_type_symbol
 _atom_site_label
 _atom_site_symmetry_multiplicity
 _atom_site_fract_x
 _atom_site_fract_y
 _atom_site_fract_z
 _atom_site_occupancy
  Tm  Tm0  1  0.358880  0.358880  0.926450  1
  Tm  Tm1  1  0.358880  0.926450  0.358880  1
  Tm  Tm2  1  0.926450  0.358880  0.358880  1
  Tm  Tm3  1  0.814400  0.187422  0.187422  1
  Tm  Tm4  1  0.190461  0.811031  0.811031  1
  Tm  Tm5  1  0.187422  0.814400  0.187422  1
  Tm  Tm6  1  0.811031  0.190461  0.811031  1
  Tm  Tm7  1  0.187422  0.187422  0.814400  1
  Tm  Tm8  1  0.811031  0.811031  0.190461  1
  Tm  Tm9  1  0.935459  0.566856  0.566856  1
  Tm  Tm10  1  0.562578  0.938259  0.938259  1
  Tm  Tm11  1  0.566856  0.935459  0.566856  1
  Tm  Tm12  1  0.938259  0.562578  0.938259  1
  Tm  Tm13  1  0.566856  0.566856  0.935459  1
  Tm  Tm14  1  0.938259  0.938259  0.562578  1
  Th  Th15  1  0.351548  0.351548  0.351548  1
  Hg  Hg16  1  0.587486  0.587486  0.587486  1
  Hg  Hg17  1  0.588769  0.588769  0.235624  1
  Hg  Hg18  1  0.588769  0.235624  0.588769  1
  Hg  Hg19  1  0.235624  0.588769  0.588769  1
  Pt  Pt20  1  0.146207  0.146207  0.146207  1
  Pt  Pt21  1  0.139121  0.139121  0.569115  1
  Pt  Pt22  1  0.139121  0.569115  0.139121  1
  Pt  Pt23  1  0.569115  0.139121  0.139121  1
