# generated using pymatgen
data_La2CdPdAu
_symmetry_space_group_name_H-M   'P 1'
_cell_length_a   8.12008042
_cell_length_b   8.12008042
_cell_length_c   3.97734200
_cell_angle_alpha   90.00000000
_cell_angle_beta   90.00000000
_cell_angle_gamma   89.31184650
_symmetry_Int_Tables_number   1
_chemical_formula_structural   La2CdPdAu
_chemical_formula_sum   'La4 Cd2 Pd2 Au2'
_cell_volume   262.22993786
_cell_formula_units_Z   2
loop_
 _symmetry_equiv_pos_site_id
 _symmetry_equiv_pos_as_xyz
  1  'x, y, z'
loop_
 _atom_site_type_symbol
 _atom_site_label
 _atom_site_symmetry_multiplicity
 _atom_site_fract_x
 _atom_site_fract_y
 _atom_site_fract_z
 _atom_site_occupancy
  La  La0  1  0.668419  0.168419  0.500000  1
  La  La1  1  0.331581  0.831581  0.500000  1
  La  La2  1  0.181618  0.318382  0.500000  1
  La  La3  1  0.818382  0.681618  0.500000  1
  Cd  Cd4  1  0.000000  0.000000  0.000000  1
  Cd  Cd5  1  0.500000  0.500000  0.000000  1
  Pd  Pd6  1  0.625843  0.874157  0.000000  1
  Pd  Pd7  1  0.374157  0.125843  0.000000  1
  Au  Au8  1  0.127242  0.627242  0.000000  1
  Au  Au9  1  0.872758  0.372758  0.000000  1
