# generated using pymatgen
data_Er2(AlAu3)3
_symmetry_space_group_name_H-M   'P 1'
_cell_length_a   7.92635214
_cell_length_b   7.92628279
_cell_length_c   10.70718846
_cell_angle_alpha   68.39597807
_cell_angle_beta   68.39570401
_cell_angle_gamma   60.22898685
_symmetry_Int_Tables_number   1
_chemical_formula_structural   Er2(AlAu3)3
_chemical_formula_sum   'Er4 Al6 Au18'
_cell_volume   528.37557622
_cell_formula_units_Z   2
loop_
 _symmetry_equiv_pos_site_id
 _symmetry_equiv_pos_as_xyz
  1  'x, y, z'
loop_
 _atom_site_type_symbol
 _atom_site_label
 _atom_site_symmetry_multiplicity
 _atom_site_fract_x
 _atom_site_fract_y
 _atom_site_fract_z
 _atom_site_occupancy
  Er  Er0  1  0.414806  0.247192  0.249053  1
  Er  Er1  1  0.585194  0.752808  0.750947  1
  Er  Er2  1  0.752806  0.585195  0.250946  1
  Er  Er3  1  0.247194  0.414805  0.749054  1
  Al  Al4  1  0.500000  0.000000  0.000000  1
  Al  Al5  1  0.000000  0.500000  0.500000  1
  Al  Al6  1  0.650301  0.175713  0.499001  1
  Al  Al7  1  0.349699  0.824287  0.500999  1
  Al  Al8  1  0.824288  0.349698  0.000999  1
  Al  Al9  1  0.175712  0.650302  0.999001  1
  Au  Au10  1  0.305687  0.917521  0.254229  1
  Au  Au11  1  0.694313  0.082479  0.745771  1
  Au  Au12  1  0.082481  0.694315  0.245771  1
  Au  Au13  1  0.917519  0.305685  0.754229  1
  Au  Au14  1  0.480273  0.639472  0.072236  1
  Au  Au15  1  0.519727  0.360528  0.927764  1
  Au  Au16  1  0.360529  0.519728  0.427762  1
  Au  Au17  1  0.639471  0.480272  0.572238  1
  Au  Au18  1  0.850955  0.149045  0.250000  1
  Au  Au19  1  0.149045  0.850955  0.750000  1
  Au  Au20  1  0.798849  0.977496  0.075179  1
  Au  Au21  1  0.201151  0.022504  0.924821  1
  Au  Au22  1  0.022500  0.201153  0.424822  1
  Au  Au23  1  0.977500  0.798847  0.575178  1
  Au  Au24  1  0.688279  0.857360  0.431016  1
  Au  Au25  1  0.311721  0.142640  0.568984  1
  Au  Au26  1  0.142642  0.311718  0.068985  1
  Au  Au27  1  0.857358  0.688282  0.931015  1
