# generated using pymatgen
data_Dy2Al9FePt2
_symmetry_space_group_name_H-M   'P 1'
_cell_length_a   7.55773050
_cell_length_b   7.55773085
_cell_length_c   9.43456300
_cell_angle_alpha   90.00000000
_cell_angle_beta   90.00000000
_cell_angle_gamma   119.77908148
_symmetry_Int_Tables_number   1
_chemical_formula_structural   Dy2Al9FePt2
_chemical_formula_sum   'Dy4 Al18 Fe2 Pt4'
_cell_volume   467.73270465
_cell_formula_units_Z   2
loop_
 _symmetry_equiv_pos_site_id
 _symmetry_equiv_pos_as_xyz
  1  'x, y, z'
loop_
 _atom_site_type_symbol
 _atom_site_label
 _atom_site_symmetry_multiplicity
 _atom_site_fract_x
 _atom_site_fract_y
 _atom_site_fract_z
 _atom_site_occupancy
  Dy  Dy0  1  0.993302  0.664819  0.750000  1
  Dy  Dy1  1  0.006698  0.335181  0.250000  1
  Dy  Dy2  1  0.664819  0.993302  0.750000  1
  Dy  Dy3  1  0.335181  0.006698  0.250000  1
  Al  Al4  1  0.112889  0.112889  0.750000  1
  Al  Al5  1  0.887111  0.887111  0.250000  1
  Al  Al6  1  0.999307  0.322328  0.574350  1
  Al  Al7  1  0.000693  0.677672  0.425650  1
  Al  Al8  1  0.000693  0.677672  0.074350  1
  Al  Al9  1  0.322328  0.999307  0.925650  1
  Al  Al10  1  0.999307  0.322328  0.925650  1
  Al  Al11  1  0.677672  0.000693  0.074350  1
  Al  Al12  1  0.677672  0.000693  0.425650  1
  Al  Al13  1  0.322328  0.999307  0.574350  1
  Al  Al14  1  0.321962  0.321962  0.052439  1
  Al  Al15  1  0.678038  0.678038  0.947561  1
  Al  Al16  1  0.678038  0.678038  0.552439  1
  Al  Al17  1  0.321962  0.321962  0.447561  1
  Al  Al18  1  0.340010  0.542335  0.750000  1
  Al  Al19  1  0.659990  0.457665  0.250000  1
  Al  Al20  1  0.542335  0.340010  0.750000  1
  Al  Al21  1  0.457665  0.659990  0.250000  1
  Fe  Fe22  1  0.000000  0.000000  0.500000  1
  Fe  Fe23  1  0.000000  0.000000  0.000000  1
  Pt  Pt24  1  0.672229  0.327771  0.500000  1
  Pt  Pt25  1  0.327771  0.672229  0.500000  1
  Pt  Pt26  1  0.327771  0.672229  0.000000  1
  Pt  Pt27  1  0.672229  0.327771  0.000000  1
