# generated using pymatgen
data_PrNdCo22
_symmetry_space_group_name_H-M   'P 1'
_cell_length_a   7.62436773
_cell_length_b   7.62437932
_cell_length_c   7.62436695
_cell_angle_alpha   99.82386865
_cell_angle_beta   99.84037874
_cell_angle_gamma   131.18364507
_symmetry_Int_Tables_number   1
_chemical_formula_structural   PrNdCo22
_chemical_formula_sum   'Pr1 Nd1 Co22'
_cell_volume   303.75105721
_cell_formula_units_Z   1
loop_
 _symmetry_equiv_pos_site_id
 _symmetry_equiv_pos_as_xyz
  1  'x, y, z'
loop_
 _atom_site_type_symbol
 _atom_site_label
 _atom_site_symmetry_multiplicity
 _atom_site_fract_x
 _atom_site_fract_y
 _atom_site_fract_z
 _atom_site_occupancy
  Pr  Pr0  1  0.250017  0.750032  0.500016  1
  Nd  Nd1  1  0.999923  0.999901  0.999978  1
  Co  Co2  1  0.433281  0.104107  0.920645  1
  Co  Co3  1  0.183482  0.512670  0.079343  1
  Co  Co4  1  0.499975  0.499962  0.999988  1
  Co  Co5  1  0.749943  0.249927  0.499985  1
  Co  Co6  1  0.625183  0.375892  0.750709  1
  Co  Co7  1  0.125351  0.374772  0.750562  1
  Co  Co8  1  0.624210  0.374772  0.249421  1
  Co  Co9  1  0.625236  0.874543  0.249307  1
  Co  Co10  1  0.183462  0.104107  0.670828  1
  Co  Co11  1  0.763475  0.933956  0.579134  1
  Co  Co12  1  0.354819  0.184327  0.420880  1
  Co  Co13  1  0.433328  0.512670  0.329187  1
  Co  Co14  1  0.896029  0.816567  0.329377  1
  Co  Co15  1  0.487189  0.566653  0.670648  1
  Co  Co16  1  0.066021  0.236539  0.420767  1
  Co  Co17  1  0.815806  0.645281  0.579244  1
  Co  Co18  1  0.066037  0.645281  0.829474  1
  Co  Co19  1  0.487190  0.816567  0.920539  1
  Co  Co20  1  0.896006  0.566653  0.079464  1
  Co  Co21  1  0.815772  0.236539  0.170519  1
  Co  Co22  1  0.354823  0.933956  0.170482  1
  Co  Co23  1  0.763447  0.184327  0.829507  1
