# generated using pymatgen
data_Sc6Co16Si6Os
_symmetry_space_group_name_H-M   'P 1'
_cell_length_a   8.12240685
_cell_length_b   8.12240434
_cell_length_c   8.02291100
_cell_angle_alpha   60.40438537
_cell_angle_beta   60.40439541
_cell_angle_gamma   59.48123932
_symmetry_Int_Tables_number   1
_chemical_formula_structural   Sc6Co16Si6Os
_chemical_formula_sum   'Sc6 Co16 Si6 Os1'
_cell_volume   375.02663092
_cell_formula_units_Z   1
loop_
 _symmetry_equiv_pos_site_id
 _symmetry_equiv_pos_as_xyz
  1  'x, y, z'
loop_
 _atom_site_type_symbol
 _atom_site_label
 _atom_site_symmetry_multiplicity
 _atom_site_fract_x
 _atom_site_fract_y
 _atom_site_fract_z
 _atom_site_occupancy
  Sc  Sc0  1  0.212392  0.787608  0.789247  1
  Sc  Sc1  1  0.792792  0.792792  0.207208  1
  Sc  Sc2  1  0.787608  0.212392  0.210753  1
  Sc  Sc3  1  0.207208  0.207208  0.792792  1
  Sc  Sc4  1  0.787608  0.212392  0.789247  1
  Sc  Sc5  1  0.212392  0.787608  0.210753  1
  Co  Co6  1  0.618911  0.618911  0.144457  1
  Co  Co7  1  0.174317  0.480797  0.172443  1
  Co  Co8  1  0.862439  0.380166  0.378698  1
  Co  Co9  1  0.519203  0.825683  0.827557  1
  Co  Co10  1  0.480797  0.174317  0.172443  1
  Co  Co11  1  0.821348  0.821348  0.524516  1
  Co  Co12  1  0.178652  0.178652  0.475484  1
  Co  Co13  1  0.137561  0.619834  0.621302  1
  Co  Co14  1  0.178652  0.178652  0.167212  1
  Co  Co15  1  0.381089  0.381089  0.855543  1
  Co  Co16  1  0.618911  0.618911  0.617723  1
  Co  Co17  1  0.380166  0.862439  0.378698  1
  Co  Co18  1  0.381089  0.381089  0.382277  1
  Co  Co19  1  0.821348  0.821348  0.832788  1
  Co  Co20  1  0.619834  0.137561  0.621302  1
  Co  Co21  1  0.825683  0.519203  0.827557  1
  Si  Si22  1  0.500000  0.000000  0.500000  1
  Si  Si23  1  0.500000  0.500000  0.000000  1
  Si  Si24  1  0.500000  0.500000  0.500000  1
  Si  Si25  1  0.000000  0.500000  0.000000  1
  Si  Si26  1  0.000000  0.500000  0.500000  1
  Si  Si27  1  0.500000  0.000000  0.000000  1
  Os  Os28  1  0.000000  0.000000  0.500000  1
