# generated using pymatgen
data_Tm7LuTc3B24Ru
_symmetry_space_group_name_H-M   'P 1'
_cell_length_a   3.63062400
_cell_length_b   9.07675631
_cell_length_c   11.44388400
_cell_angle_alpha   89.92181675
_cell_angle_beta   90.00000000
_cell_angle_gamma   90.00000000
_symmetry_Int_Tables_number   1
_chemical_formula_structural   Tm7LuTc3B24Ru
_chemical_formula_sum   'Tm7 Lu1 Tc3 B24 Ru1'
_cell_volume   377.12471313
_cell_formula_units_Z   1
loop_
 _symmetry_equiv_pos_site_id
 _symmetry_equiv_pos_as_xyz
  1  'x, y, z'
loop_
 _atom_site_type_symbol
 _atom_site_label
 _atom_site_symmetry_multiplicity
 _atom_site_fract_x
 _atom_site_fract_y
 _atom_site_fract_z
 _atom_site_occupancy
  Tm  Tm0  1  0.000000  0.323287  0.413864  1
  Tm  Tm1  1  0.000000  0.675564  0.584228  1
  Tm  Tm2  1  0.000000  0.822440  0.087397  1
  Tm  Tm3  1  0.000000  0.178560  0.914340  1
  Tm  Tm4  1  0.000000  0.942825  0.370475  1
  Tm  Tm5  1  0.000000  0.057580  0.630301  1
  Tm  Tm6  1  0.000000  0.443366  0.129608  1
  Lu  Lu7  1  0.000000  0.557603  0.869520  1
  Tc  Tc8  1  0.000000  0.638540  0.320477  1
  Tc  Tc9  1  0.000000  0.361790  0.680390  1
  Tc  Tc10  1  0.000000  0.138210  0.178332  1
  B  B11  1  0.500000  0.552963  0.433416  1
  B  B12  1  0.500000  0.446810  0.566479  1
  B  B13  1  0.500000  0.052886  0.066137  1
  B  B14  1  0.500000  0.945922  0.933170  1
  B  B15  1  0.500000  0.749471  0.419453  1
  B  B16  1  0.500000  0.250082  0.580756  1
  B  B17  1  0.500000  0.250153  0.080448  1
  B  B18  1  0.500000  0.750211  0.919051  1
  B  B19  1  0.500000  0.792461  0.265144  1
  B  B20  1  0.500000  0.207706  0.735760  1
  B  B21  1  0.500000  0.292444  0.235014  1
  B  B22  1  0.500000  0.708153  0.764898  1
  B  B23  1  0.500000  0.630951  0.184838  1
  B  B24  1  0.500000  0.369515  0.815995  1
  B  B25  1  0.500000  0.130376  0.314790  1
  B  B26  1  0.500000  0.868821  0.684981  1
  B  B27  1  0.500000  0.980979  0.211734  1
  B  B28  1  0.500000  0.017337  0.788301  1
  B  B29  1  0.500000  0.481272  0.287991  1
  B  B30  1  0.500000  0.518873  0.712091  1
  B  B31  1  0.500000  0.601501  0.027450  1
  B  B32  1  0.500000  0.400664  0.971666  1
  B  B33  1  0.500000  0.100950  0.472193  1
  B  B34  1  0.500000  0.898829  0.528516  1
  Ru  Ru35  1  0.000000  0.860904  0.820800  1
