# generated using pymatgen
data_DyHo5Al21Si3Os8
_symmetry_space_group_name_H-M   'P 1'
_cell_length_a   8.71555800
_cell_length_b   8.71466822
_cell_length_c   9.64861301
_cell_angle_alpha   90.00143253
_cell_angle_beta   90.00007508
_cell_angle_gamma   120.00380050
_symmetry_Int_Tables_number   1
_chemical_formula_structural   DyHo5Al21Si3Os8
_chemical_formula_sum   'Dy1 Ho5 Al21 Si3 Os8'
_cell_volume   634.63634612
_cell_formula_units_Z   1
loop_
 _symmetry_equiv_pos_site_id
 _symmetry_equiv_pos_as_xyz
  1  'x, y, z'
loop_
 _atom_site_type_symbol
 _atom_site_label
 _atom_site_symmetry_multiplicity
 _atom_site_fract_x
 _atom_site_fract_y
 _atom_site_fract_z
 _atom_site_occupancy
  Dy  Dy0  1  0.194897  0.389794  0.247978  1
  Ho  Ho1  1  0.803899  0.607796  0.752391  1
  Ho  Ho2  1  0.609362  0.804738  0.247888  1
  Ho  Ho3  1  0.392272  0.196130  0.752383  1
  Ho  Ho4  1  0.195376  0.804740  0.247892  1
  Ho  Ho5  1  0.803858  0.196128  0.752384  1
  Al  Al6  1  0.333398  0.666796  0.476603  1
  Al  Al7  1  0.164172  0.328344  0.574299  1
  Al  Al8  1  0.835279  0.670554  0.423718  1
  Al  Al9  1  0.671726  0.835872  0.574169  1
  Al  Al10  1  0.835119  0.670234  0.076099  1
  Al  Al11  1  0.329558  0.164693  0.423765  1
  Al  Al12  1  0.165319  0.330636  0.923201  1
  Al  Al13  1  0.164144  0.835870  0.574169  1
  Al  Al14  1  0.329873  0.164851  0.076059  1
  Al  Al15  1  0.835135  0.164693  0.423765  1
  Al  Al16  1  0.669422  0.834731  0.923312  1
  Al  Al17  1  0.834978  0.164850  0.076059  1
  Al  Al18  1  0.165309  0.834729  0.923313  1
  Al  Al19  1  0.563528  0.127056  0.248774  1
  Al  Al20  1  0.436818  0.873635  0.748730  1
  Al  Al21  1  0.872764  0.436509  0.248762  1
  Al  Al22  1  0.126399  0.563233  0.748745  1
  Al  Al23  1  0.563745  0.436509  0.248760  1
  Al  Al24  1  0.436836  0.563236  0.748742  1
  Al  Al25  1  0.999722  0.999443  0.248836  1
  Al  Al26  1  0.000010  0.000020  0.749432  1
  Si  Si27  1  0.333435  0.666871  0.039633  1
  Si  Si28  1  0.666696  0.333394  0.961941  1
  Si  Si29  1  0.666690  0.333380  0.539398  1
  Os  Os30  1  0.499981  0.999965  0.998768  1
  Os  Os31  1  0.000060  0.500135  0.998704  1
  Os  Os32  1  0.504364  0.008731  0.501456  1
  Os  Os33  1  0.500078  0.500137  0.998703  1
  Os  Os34  1  0.991258  0.495751  0.501551  1
  Os  Os35  1  0.504491  0.495752  0.501545  1
  Os  Os36  1  0.000012  0.000023  0.998812  1
  Os  Os37  1  0.000020  0.000036  0.499263  1
