# generated using pymatgen
data_LuPaB6Mo
_symmetry_space_group_name_H-M   'P 1'
_cell_length_a   3.73055400
_cell_length_b   9.12129800
_cell_length_c   11.49205700
_cell_angle_alpha   90.00000000
_cell_angle_beta   90.00000000
_cell_angle_gamma   90.00000000
_symmetry_Int_Tables_number   1
_chemical_formula_structural   LuPaB6Mo
_chemical_formula_sum   'Lu4 Pa4 B24 Mo4'
_cell_volume   391.04590911
_cell_formula_units_Z   4
loop_
 _symmetry_equiv_pos_site_id
 _symmetry_equiv_pos_as_xyz
  1  'x, y, z'
loop_
 _atom_site_type_symbol
 _atom_site_label
 _atom_site_symmetry_multiplicity
 _atom_site_fract_x
 _atom_site_fract_y
 _atom_site_fract_z
 _atom_site_occupancy
  Lu  Lu0  1  0.000000  0.945521  0.373388  1
  Lu  Lu1  1  0.000000  0.054479  0.626612  1
  Lu  Lu2  1  0.000000  0.445521  0.126612  1
  Lu  Lu3  1  0.000000  0.554479  0.873388  1
  Pa  Pa4  1  0.000000  0.322178  0.413877  1
  Pa  Pa5  1  0.000000  0.677822  0.586123  1
  Pa  Pa6  1  0.000000  0.822178  0.086123  1
  Pa  Pa7  1  0.000000  0.177822  0.913877  1
  B  B8  1  0.500000  0.553708  0.433098  1
  B  B9  1  0.500000  0.446292  0.566902  1
  B  B10  1  0.500000  0.053708  0.066902  1
  B  B11  1  0.500000  0.946292  0.933098  1
  B  B12  1  0.500000  0.750799  0.420042  1
  B  B13  1  0.500000  0.249201  0.579958  1
  B  B14  1  0.500000  0.250799  0.079958  1
  B  B15  1  0.500000  0.749201  0.920042  1
  B  B16  1  0.500000  0.793985  0.264499  1
  B  B17  1  0.500000  0.206015  0.735500  1
  B  B18  1  0.500000  0.293985  0.235501  1
  B  B19  1  0.500000  0.706015  0.764500  1
  B  B20  1  0.500000  0.631688  0.184480  1
  B  B21  1  0.500000  0.368312  0.815520  1
  B  B22  1  0.500000  0.131688  0.315520  1
  B  B23  1  0.500000  0.868312  0.684480  1
  B  B24  1  0.500000  0.981915  0.212921  1
  B  B25  1  0.500000  0.018085  0.787079  1
  B  B26  1  0.500000  0.481915  0.287079  1
  B  B27  1  0.500000  0.518085  0.712921  1
  B  B28  1  0.500000  0.605778  0.029319  1
  B  B29  1  0.500000  0.394222  0.970681  1
  B  B30  1  0.500000  0.105778  0.470681  1
  B  B31  1  0.500000  0.894222  0.529319  1
  Mo  Mo32  1  0.000000  0.639396  0.321045  1
  Mo  Mo33  1  0.000000  0.360604  0.678955  1
  Mo  Mo34  1  0.000000  0.139396  0.178955  1
  Mo  Mo35  1  0.000000  0.860604  0.821045  1
