# generated using pymatgen
data_Mg(S8Br)3
_symmetry_space_group_name_H-M   'P 1'
_cell_length_a   15.23641833
_cell_length_b   15.23744672
_cell_length_c   15.23660777
_cell_angle_alpha   118.93704292
_cell_angle_beta   118.93188685
_cell_angle_gamma   118.93632202
_symmetry_Int_Tables_number   1
_chemical_formula_structural   Mg(S8Br)3
_chemical_formula_sum   'Mg1 S24 Br3'
_cell_volume   944.25719626
_cell_formula_units_Z   1
loop_
 _symmetry_equiv_pos_site_id
 _symmetry_equiv_pos_as_xyz
  1  'x, y, z'
loop_
 _atom_site_type_symbol
 _atom_site_label
 _atom_site_symmetry_multiplicity
 _atom_site_fract_x
 _atom_site_fract_y
 _atom_site_fract_z
 _atom_site_occupancy
  Mg  Mg0  1  0.101341  0.101340  0.101341  1
  S  S1  1  0.011481  0.607487  0.607489  1
  S  S2  1  0.607471  0.607469  0.011470  1
  S  S3  1  0.607390  0.011419  0.607390  1
  S  S4  1  0.239137  0.848736  0.721063  1
  S  S5  1  0.848735  0.721075  0.239154  1
  S  S6  1  0.721106  0.239198  0.848765  1
  S  S7  1  0.848764  0.239200  0.721107  1
  S  S8  1  0.239144  0.721067  0.848732  1
  S  S9  1  0.721069  0.848742  0.239143  1
  S  S10  1  0.096081  0.622577  0.442499  1
  S  S11  1  0.622582  0.442500  0.096085  1
  S  S12  1  0.442453  0.096031  0.622514  1
  S  S13  1  0.622515  0.096033  0.442455  1
  S  S14  1  0.096091  0.442506  0.622590  1
  S  S15  1  0.442492  0.622567  0.096073  1
  S  S16  1  0.360934  0.747393  0.619078  1
  S  S17  1  0.747410  0.619087  0.360950  1
  S  S18  1  0.619201  0.361021  0.747491  1
  S  S19  1  0.747492  0.361022  0.619199  1
  S  S20  1  0.360937  0.619068  0.747393  1
  S  S21  1  0.619103  0.747410  0.360948  1
  S  S22  1  0.187049  0.463832  0.463830  1
  S  S23  1  0.463811  0.463814  0.187022  1
  S  S24  1  0.463730  0.186900  0.463731  1
  Br  Br25  1  0.176537  0.016534  0.016515  1
  Br  Br26  1  0.016512  0.016539  0.176537  1
  Br  Br27  1  0.016531  0.176532  0.016537  1
