# generated using pymatgen
data_YbEu4Mo3O14
_symmetry_space_group_name_H-M   'P 1'
_cell_length_a   7.60149681
_cell_length_b   7.41758750
_cell_length_c   7.60149700
_cell_angle_alpha   59.17638023
_cell_angle_beta   59.99999482
_cell_angle_gamma   59.17638201
_symmetry_Int_Tables_number   1
_chemical_formula_structural   YbEu4Mo3O14
_chemical_formula_sum   'Yb1 Eu4 Mo3 O14'
_cell_volume   299.24415860
_cell_formula_units_Z   1
loop_
 _symmetry_equiv_pos_site_id
 _symmetry_equiv_pos_as_xyz
  1  'x, y, z'
loop_
 _atom_site_type_symbol
 _atom_site_label
 _atom_site_symmetry_multiplicity
 _atom_site_fract_x
 _atom_site_fract_y
 _atom_site_fract_z
 _atom_site_occupancy
  Yb  Yb0  1  0.625000  0.125000  0.625000  1
  Eu  Eu1  1  0.625000  0.125000  0.125000  1
  Eu  Eu2  1  0.125000  0.625000  0.125000  1
  Eu  Eu3  1  0.125000  0.125000  0.625000  1
  Eu  Eu4  1  0.125000  0.125000  0.125000  1
  Mo  Mo5  1  0.125000  0.625000  0.625000  1
  Mo  Mo6  1  0.625000  0.625000  0.125000  1
  Mo  Mo7  1  0.625000  0.625000  0.625000  1
  O  O8  1  0.250374  0.248878  0.250374  1
  O  O9  1  0.999626  0.001122  0.999626  1
  O  O10  1  0.715023  0.676174  0.304401  1
  O  O11  1  0.260972  0.304902  0.717064  1
  O  O12  1  0.717064  0.304902  0.717064  1
  O  O13  1  0.304401  0.676174  0.304401  1
  O  O14  1  0.304401  0.676174  0.715023  1
  O  O15  1  0.717064  0.304902  0.260972  1
  O  O16  1  0.534977  0.573826  0.945599  1
  O  O17  1  0.989028  0.945098  0.532936  1
  O  O18  1  0.532936  0.945098  0.532936  1
  O  O19  1  0.945599  0.573826  0.945599  1
  O  O20  1  0.945599  0.573826  0.534977  1
  O  O21  1  0.532936  0.945098  0.989028  1
