# generated using pymatgen
data_Hf3U(NbN2)6
_symmetry_space_group_name_H-M   'P 1'
_cell_length_a   5.35098200
_cell_length_b   5.35098083
_cell_length_c   10.67737300
_cell_angle_alpha   90.00000000
_cell_angle_beta   90.00000000
_cell_angle_gamma   120.00000721
_symmetry_Int_Tables_number   1
_chemical_formula_structural   Hf3U(NbN2)6
_chemical_formula_sum   'Hf3 U1 Nb6 N12'
_cell_volume   264.76580843
_cell_formula_units_Z   1
loop_
 _symmetry_equiv_pos_site_id
 _symmetry_equiv_pos_as_xyz
  1  'x, y, z'
loop_
 _atom_site_type_symbol
 _atom_site_label
 _atom_site_symmetry_multiplicity
 _atom_site_fract_x
 _atom_site_fract_y
 _atom_site_fract_z
 _atom_site_occupancy
  Hf  Hf0  1  0.333333  0.666667  0.500000  1
  Hf  Hf1  1  0.666667  0.333333  0.000000  1
  Hf  Hf2  1  0.666667  0.333333  0.500000  1
  U  U3  1  0.333333  0.666667  0.000000  1
  Nb  Nb4  1  0.677599  0.001502  0.748119  1
  Nb  Nb5  1  0.677599  0.676096  0.251881  1
  Nb  Nb6  1  0.998498  0.322401  0.251881  1
  Nb  Nb7  1  0.998498  0.676096  0.748119  1
  Nb  Nb8  1  0.323904  0.322401  0.748119  1
  Nb  Nb9  1  0.323904  0.001502  0.251881  1
  N  N10  1  0.347860  0.348069  0.375760  1
  N  N11  1  0.651931  0.999791  0.375760  1
  N  N12  1  0.000209  0.652140  0.375760  1
  N  N13  1  0.997188  0.344183  0.872536  1
  N  N14  1  0.655817  0.002812  0.127464  1
  N  N15  1  0.655817  0.653004  0.872536  1
  N  N16  1  0.346996  0.002812  0.872536  1
  N  N17  1  0.651931  0.652140  0.624240  1
  N  N18  1  0.000209  0.348069  0.624240  1
  N  N19  1  0.997188  0.653004  0.127464  1
  N  N20  1  0.347860  0.999791  0.624240  1
  N  N21  1  0.346996  0.344183  0.127464  1
