# generated using pymatgen
data_TiNb3(CrB2)2
_symmetry_space_group_name_H-M   'P 1'
_cell_length_a   5.93262710
_cell_length_b   5.93262710
_cell_length_c   3.23133600
_cell_angle_alpha   90.00000000
_cell_angle_beta   90.00000000
_cell_angle_gamma   89.97915859
_symmetry_Int_Tables_number   1
_chemical_formula_structural   TiNb3(CrB2)2
_chemical_formula_sum   'Ti1 Nb3 Cr2 B4'
_cell_volume   113.73030206
_cell_formula_units_Z   1
loop_
 _symmetry_equiv_pos_site_id
 _symmetry_equiv_pos_as_xyz
  1  'x, y, z'
loop_
 _atom_site_type_symbol
 _atom_site_label
 _atom_site_symmetry_multiplicity
 _atom_site_fract_x
 _atom_site_fract_y
 _atom_site_fract_z
 _atom_site_occupancy
  Ti  Ti0  1  0.681122  0.181122  0.500000  1
  Nb  Nb1  1  0.320057  0.820057  0.500000  1
  Nb  Nb2  1  0.180657  0.317510  0.500000  1
  Nb  Nb3  1  0.817510  0.680657  0.500000  1
  Cr  Cr4  1  0.501381  0.496851  0.000000  1
  Cr  Cr5  1  0.996851  0.001381  0.000000  1
  B  B6  1  0.109342  0.609342  0.000000  1
  B  B7  1  0.886828  0.386828  0.000000  1
  B  B8  1  0.611141  0.895112  0.000000  1
  B  B9  1  0.395112  0.111141  0.000000  1
