# generated using pymatgen
data_Sc7TiAl14GeRh7
_symmetry_space_group_name_H-M   'P 1'
_cell_length_a   8.86431825
_cell_length_b   8.86366788
_cell_length_c   8.86431858
_cell_angle_alpha   120.05713410
_cell_angle_beta   119.92490785
_cell_angle_gamma   90.01770362
_symmetry_Int_Tables_number   1
_chemical_formula_structural   Sc7TiAl14GeRh7
_chemical_formula_sum   'Sc7 Ti1 Al14 Ge1 Rh7'
_cell_volume   492.53756644
_cell_formula_units_Z   1
loop_
 _symmetry_equiv_pos_site_id
 _symmetry_equiv_pos_as_xyz
  1  'x, y, z'
loop_
 _atom_site_type_symbol
 _atom_site_label
 _atom_site_symmetry_multiplicity
 _atom_site_fract_x
 _atom_site_fract_y
 _atom_site_fract_z
 _atom_site_occupancy
  Sc  Sc0  1  0.797944  0.290796  0.078134  1
  Sc  Sc1  1  0.212662  0.290796  0.492852  1
  Sc  Sc2  1  0.205752  0.702746  0.496994  1
  Sc  Sc3  1  0.214234  0.719425  0.926394  1
  Sc  Sc4  1  0.793031  0.719425  0.505192  1
  Sc  Sc5  1  0.781041  0.280783  0.499742  1
  Sc  Sc6  1  0.380183  0.120408  0.740225  1
  Ti  Ti7  1  0.380095  0.636254  0.256158  1
  Al  Al8  1  0.165629  0.335164  0.169536  1
  Al  Al9  1  0.162170  0.989525  0.827354  1
  Al  Al10  1  0.158579  0.339770  0.821768  1
  Al  Al11  1  0.518000  0.339770  0.181190  1
  Al  Al12  1  0.835739  0.662244  0.826507  1
  Al  Al13  1  0.836207  0.009840  0.173634  1
  Al  Al14  1  0.833569  0.664321  0.169278  1
  Al  Al15  1  0.495042  0.664321  0.830752  1
  Al  Al16  1  0.380627  0.121771  0.259715  1
  Al  Al17  1  0.862058  0.121771  0.741145  1
  Al  Al18  1  0.620120  0.875536  0.255415  1
  Al  Al19  1  0.620955  0.364435  0.743481  1
  Al  Al20  1  0.620003  0.876768  0.740829  1
  Al  Al21  1  0.135938  0.876768  0.256763  1
  Ge  Ge22  1  0.992524  0.494156  0.501632  1
  Rh  Rh23  1  0.995158  0.000676  0.500474  1
  Rh  Rh24  1  0.500202  0.000676  0.005518  1
  Rh  Rh25  1  0.498868  0.504179  0.005311  1
  Rh  Rh26  1  0.498883  0.500695  0.498963  1
  Rh  Rh27  1  0.001732  0.500695  0.001812  1
  Rh  Rh28  1  0.001468  0.002227  0.000759  1
  Rh  Rh29  1  0.501584  0.994056  0.492472  1
