# generated using pymatgen
data_Ta5Nb13Os12
_symmetry_space_group_name_H-M   'P 1'
_cell_length_a   9.95292082
_cell_length_b   9.90784400
_cell_length_c   5.10709400
_cell_angle_alpha   89.99898593
_cell_angle_beta   89.99816454
_cell_angle_gamma   89.97770283
_symmetry_Int_Tables_number   1
_chemical_formula_structural   Ta5Nb13Os12
_chemical_formula_sum   'Ta5 Nb13 Os12'
_cell_volume   503.62064792
_cell_formula_units_Z   1
loop_
 _symmetry_equiv_pos_site_id
 _symmetry_equiv_pos_as_xyz
  1  'x, y, z'
loop_
 _atom_site_type_symbol
 _atom_site_label
 _atom_site_symmetry_multiplicity
 _atom_site_fract_x
 _atom_site_fract_y
 _atom_site_fract_z
 _atom_site_occupancy
  Ta  Ta0  1  0.371375  0.038836  0.501286  1
  Ta  Ta1  1  0.868407  0.465453  0.002629  1
  Ta  Ta2  1  0.131695  0.534555  0.002754  1
  Ta  Ta3  1  0.681058  0.680261  0.750871  1
  Ta  Ta4  1  0.318696  0.319147  0.750883  1
  Nb  Nb5  1  0.103308  0.105917  0.503358  1
  Nb  Nb6  1  0.895896  0.894342  0.503456  1
  Nb  Nb7  1  0.599977  0.397283  0.993315  1
  Nb  Nb8  1  0.400000  0.602641  0.993489  1
  Nb  Nb9  1  0.038712  0.372977  0.501620  1
  Nb  Nb10  1  0.961373  0.627203  0.501621  1
  Nb  Nb11  1  0.534034  0.129136  0.002327  1
  Nb  Nb12  1  0.465709  0.871074  0.002134  1
  Nb  Nb13  1  0.630440  0.960509  0.501234  1
  Nb  Nb14  1  0.818884  0.181678  0.750483  1
  Nb  Nb15  1  0.181154  0.818823  0.750602  1
  Nb  Nb16  1  0.182184  0.818131  0.250410  1
  Nb  Nb17  1  0.817541  0.182334  0.250295  1
  Os  Os18  1  0.499833  0.500132  0.476135  1
  Os  Os19  1  0.999951  0.000181  0.001149  1
  Os  Os20  1  0.756081  0.434414  0.500587  1
  Os  Os21  1  0.243881  0.565635  0.500647  1
  Os  Os22  1  0.259160  0.070398  0.001744  1
  Os  Os23  1  0.741457  0.929253  0.001771  1
  Os  Os24  1  0.564546  0.242363  0.500356  1
  Os  Os25  1  0.434785  0.758010  0.500174  1
  Os  Os26  1  0.929918  0.739016  0.002492  1
  Os  Os27  1  0.070182  0.260871  0.002427  1
  Os  Os28  1  0.319169  0.318991  0.249962  1
  Os  Os29  1  0.680595  0.680437  0.249789  1
