# generated using pymatgen
data_HoEr3HfSc3Pt4
_symmetry_space_group_name_H-M   'P 1'
_cell_length_a   4.63043200
_cell_length_b   6.95024527
_cell_length_c   8.34685602
_cell_angle_alpha   89.36569918
_cell_angle_beta   90.00000000
_cell_angle_gamma   90.00000000
_symmetry_Int_Tables_number   1
_chemical_formula_structural   HoEr3HfSc3Pt4
_chemical_formula_sum   'Ho1 Er3 Hf1 Sc3 Pt4'
_cell_volume   268.60738552
_cell_formula_units_Z   1
loop_
 _symmetry_equiv_pos_site_id
 _symmetry_equiv_pos_as_xyz
  1  'x, y, z'
loop_
 _atom_site_type_symbol
 _atom_site_label
 _atom_site_symmetry_multiplicity
 _atom_site_fract_x
 _atom_site_fract_y
 _atom_site_fract_z
 _atom_site_occupancy
  Ho  Ho0  1  0.750000  0.016979  0.673657  1
  Er  Er1  1  0.250000  0.982643  0.323716  1
  Er  Er2  1  0.250000  0.483277  0.178341  1
  Er  Er3  1  0.750000  0.519269  0.823615  1
  Hf  Hf4  1  0.750000  0.141286  0.072692  1
  Sc  Sc5  1  0.250000  0.355760  0.574939  1
  Sc  Sc6  1  0.250000  0.858218  0.924729  1
  Sc  Sc7  1  0.750000  0.639819  0.427615  1
  Pt  Pt8  1  0.250000  0.243164  0.909528  1
  Pt  Pt9  1  0.250000  0.744239  0.599278  1
  Pt  Pt10  1  0.750000  0.760972  0.097811  1
  Pt  Pt11  1  0.750000  0.254374  0.394080  1
