# generated using pymatgen
data_Ba4SiHgPd4
_symmetry_space_group_name_H-M   'P 1'
_cell_length_a   6.10434172
_cell_length_b   6.10434011
_cell_length_c   8.48443700
_cell_angle_alpha   78.66685068
_cell_angle_beta   78.66685370
_cell_angle_gamma   60.61089154
_symmetry_Int_Tables_number   1
_chemical_formula_structural   Ba4SiHgPd4
_chemical_formula_sum   'Ba4 Si1 Hg1 Pd4'
_cell_volume   268.23753366
_cell_formula_units_Z   1
loop_
 _symmetry_equiv_pos_site_id
 _symmetry_equiv_pos_as_xyz
  1  'x, y, z'
loop_
 _atom_site_type_symbol
 _atom_site_label
 _atom_site_symmetry_multiplicity
 _atom_site_fract_x
 _atom_site_fract_y
 _atom_site_fract_z
 _atom_site_occupancy
  Ba  Ba0  1  0.507478  0.790284  0.356771  1
  Ba  Ba1  1  0.209716  0.492522  0.143229  1
  Ba  Ba2  1  0.486477  0.219149  0.651068  1
  Ba  Ba3  1  0.780851  0.513523  0.848932  1
  Si  Si4  1  0.115443  0.884557  0.750000  1
  Hg  Hg5  1  0.856765  0.143235  0.250000  1
  Pd  Pd6  1  0.753235  0.986762  0.981879  1
  Pd  Pd7  1  0.013238  0.246765  0.518121  1
  Pd  Pd8  1  0.260806  0.984008  0.975485  1
  Pd  Pd9  1  0.015992  0.739194  0.524515  1
