# generated using pymatgen
data_HfVBr9
_symmetry_space_group_name_H-M   'P 1'
_cell_length_a   7.94063058
_cell_length_b   10.11373979
_cell_length_c   10.69482376
_cell_angle_alpha   102.23009096
_cell_angle_beta   96.77457290
_cell_angle_gamma   95.22078965
_symmetry_Int_Tables_number   1
_chemical_formula_structural   HfVBr9
_chemical_formula_sum   'Hf2 V2 Br18'
_cell_volume   827.56798102
_cell_formula_units_Z   2
loop_
 _symmetry_equiv_pos_site_id
 _symmetry_equiv_pos_as_xyz
  1  'x, y, z'
loop_
 _atom_site_type_symbol
 _atom_site_label
 _atom_site_symmetry_multiplicity
 _atom_site_fract_x
 _atom_site_fract_y
 _atom_site_fract_z
 _atom_site_occupancy
  Hf  Hf0  1  0.611163  0.638584  0.676215  1
  Hf  Hf1  1  0.388837  0.361416  0.323785  1
  V  V2  1  0.050426  0.194194  0.778448  1
  V  V3  1  0.949574  0.805806  0.221552  1
  Br  Br4  1  0.377662  0.570682  0.218385  1
  Br  Br5  1  0.622338  0.429318  0.781615  1
  Br  Br6  1  0.419962  0.165361  0.441722  1
  Br  Br7  1  0.580038  0.834639  0.558278  1
  Br  Br8  1  0.072254  0.284501  0.245488  1
  Br  Br9  1  0.927746  0.715499  0.754512  1
  Br  Br10  1  0.519347  0.232470  0.133607  1
  Br  Br11  1  0.480653  0.767530  0.866393  1
  Br  Br12  1  0.295247  0.517766  0.546081  1
  Br  Br13  1  0.704753  0.482234  0.453919  1
  Br  Br14  1  0.831864  0.599119  0.108781  1
  Br  Br15  1  0.168136  0.400881  0.891219  1
  Br  Br16  1  0.940878  0.208147  0.579350  1
  Br  Br17  1  0.059122  0.791853  0.420650  1
  Br  Br18  1  0.254800  0.054208  0.765135  1
  Br  Br19  1  0.745200  0.945792  0.234865  1
  Br  Br20  1  0.842988  0.110257  0.875996  1
  Br  Br21  1  0.157012  0.889743  0.124004  1
