# generated using pymatgen
data_Dy4Lu4Re3OsC8
_symmetry_space_group_name_H-M   'P 1'
_cell_length_a   5.04825600
_cell_length_b   6.54243394
_cell_length_c   9.70666506
_cell_angle_alpha   89.84845741
_cell_angle_beta   90.00000000
_cell_angle_gamma   90.00000000
_symmetry_Int_Tables_number   1
_chemical_formula_structural   Dy4Lu4Re3OsC8
_chemical_formula_sum   'Dy4 Lu4 Re3 Os1 C8'
_cell_volume   320.58946123
_cell_formula_units_Z   1
loop_
 _symmetry_equiv_pos_site_id
 _symmetry_equiv_pos_as_xyz
  1  'x, y, z'
loop_
 _atom_site_type_symbol
 _atom_site_label
 _atom_site_symmetry_multiplicity
 _atom_site_fract_x
 _atom_site_fract_y
 _atom_site_fract_z
 _atom_site_occupancy
  Dy  Dy0  1  0.250000  0.533545  0.214354  1
  Dy  Dy1  1  0.750000  0.464348  0.786762  1
  Dy  Dy2  1  0.750000  0.967068  0.710703  1
  Dy  Dy3  1  0.250000  0.033459  0.286678  1
  Lu  Lu4  1  0.250000  0.671328  0.556669  1
  Lu  Lu5  1  0.750000  0.325897  0.442025  1
  Lu  Lu6  1  0.750000  0.826539  0.057560  1
  Lu  Lu7  1  0.250000  0.173846  0.942533  1
  Re  Re8  1  0.250000  0.720814  0.866922  1
  Re  Re9  1  0.750000  0.279102  0.131766  1
  Re  Re10  1  0.750000  0.778333  0.367929  1
  Os  Os11  1  0.250000  0.221441  0.633365  1
  C  C12  1  0.250000  0.453015  0.760908  1
  C  C13  1  0.750000  0.548072  0.239023  1
  C  C14  1  0.750000  0.047890  0.261020  1
  C  C15  1  0.250000  0.952967  0.740498  1
  C  C16  1  0.250000  0.831085  0.051879  1
  C  C17  1  0.750000  0.169520  0.947140  1
  C  C18  1  0.750000  0.669531  0.553234  1
  C  C19  1  0.250000  0.332202  0.449029  1
