# generated using pymatgen
data_Dy2Ga3Pd4
_symmetry_space_group_name_H-M   'P 1'
_cell_length_a   8.15879900
_cell_length_b   8.15879828
_cell_length_c   7.65890500
_cell_angle_alpha   90.00000000
_cell_angle_beta   90.00000000
_cell_angle_gamma   139.99849144
_symmetry_Int_Tables_number   1
_chemical_formula_structural   Dy2Ga3Pd4
_chemical_formula_sum   'Dy4 Ga6 Pd8'
_cell_volume   327.71795483
_cell_formula_units_Z   2
loop_
 _symmetry_equiv_pos_site_id
 _symmetry_equiv_pos_as_xyz
  1  'x, y, z'
loop_
 _atom_site_type_symbol
 _atom_site_label
 _atom_site_symmetry_multiplicity
 _atom_site_fract_x
 _atom_site_fract_y
 _atom_site_fract_z
 _atom_site_occupancy
  Dy  Dy0  1  0.109746  0.890254  0.413524  1
  Dy  Dy1  1  0.890254  0.109746  0.586476  1
  Dy  Dy2  1  0.390254  0.609746  0.913524  1
  Dy  Dy3  1  0.609746  0.390254  0.086476  1
  Ga  Ga4  1  0.000000  0.000000  0.000000  1
  Ga  Ga5  1  0.500000  0.500000  0.500000  1
  Ga  Ga6  1  0.020381  0.479619  0.250000  1
  Ga  Ga7  1  0.479619  0.020381  0.750000  1
  Ga  Ga8  1  0.979619  0.520381  0.750000  1
  Ga  Ga9  1  0.520381  0.979619  0.250000  1
  Pd  Pd10  1  0.189132  0.310868  0.250000  1
  Pd  Pd11  1  0.310868  0.189132  0.750000  1
  Pd  Pd12  1  0.810868  0.689132  0.750000  1
  Pd  Pd13  1  0.689132  0.810868  0.250000  1
  Pd  Pd14  1  0.181466  0.818534  0.021083  1
  Pd  Pd15  1  0.818534  0.181466  0.978917  1
  Pd  Pd16  1  0.318534  0.681466  0.521083  1
  Pd  Pd17  1  0.681466  0.318534  0.478917  1
