# generated using pymatgen
data_Ho7Pa(Si3Pd)4
_symmetry_space_group_name_H-M   'P 1'
_cell_length_a   8.13802500
_cell_length_b   8.13802578
_cell_length_c   8.02892300
_cell_angle_alpha   90.00000000
_cell_angle_beta   90.00000000
_cell_angle_gamma   120.00000089
_symmetry_Int_Tables_number   1
_chemical_formula_structural   Ho7Pa(Si3Pd)4
_chemical_formula_sum   'Ho7 Pa1 Si12 Pd4'
_cell_volume   460.49614802
_cell_formula_units_Z   1
loop_
 _symmetry_equiv_pos_site_id
 _symmetry_equiv_pos_as_xyz
  1  'x, y, z'
loop_
 _atom_site_type_symbol
 _atom_site_label
 _atom_site_symmetry_multiplicity
 _atom_site_fract_x
 _atom_site_fract_y
 _atom_site_fract_z
 _atom_site_occupancy
  Ho  Ho0  1  0.499859  0.500141  0.750000  1
  Ho  Ho1  1  0.500141  0.499859  0.250000  1
  Ho  Ho2  1  0.000281  0.500141  0.750000  1
  Ho  Ho3  1  0.999717  0.499859  0.250000  1
  Ho  Ho4  1  0.499859  0.999719  0.750000  1
  Ho  Ho5  1  0.500141  0.000283  0.250000  1
  Ho  Ho6  1  0.000000  0.000000  0.750000  1
  Pa  Pa7  1  0.000000  0.000000  0.250000  1
  Si  Si8  1  0.834673  0.165327  0.001640  1
  Si  Si9  1  0.165326  0.834674  0.001506  1
  Si  Si10  1  0.330653  0.165327  0.001640  1
  Si  Si11  1  0.165326  0.834674  0.498494  1
  Si  Si12  1  0.669348  0.834674  0.001506  1
  Si  Si13  1  0.834673  0.165327  0.498360  1
  Si  Si14  1  0.834673  0.669347  0.001640  1
  Si  Si15  1  0.669348  0.834674  0.498494  1
  Si  Si16  1  0.165326  0.330652  0.001506  1
  Si  Si17  1  0.330653  0.165327  0.498360  1
  Si  Si18  1  0.165326  0.330652  0.498494  1
  Si  Si19  1  0.834673  0.669347  0.498360  1
  Pd  Pd20  1  0.666667  0.333333  0.998627  1
  Pd  Pd21  1  0.333333  0.666667  0.999989  1
  Pd  Pd22  1  0.333333  0.666667  0.500011  1
  Pd  Pd23  1  0.666667  0.333333  0.501373  1
