# generated using pymatgen
data_Tm10Tl2In6PtRh3
_symmetry_space_group_name_H-M   'P 1'
_cell_length_a   3.57410000
_cell_length_b   8.03800588
_cell_length_c   18.15172262
_cell_angle_alpha   90.00253671
_cell_angle_beta   90.00000000
_cell_angle_gamma   90.00000000
_symmetry_Int_Tables_number   1
_chemical_formula_structural   Tm10Tl2In6PtRh3
_chemical_formula_sum   'Tm10 Tl2 In6 Pt1 Rh3'
_cell_volume   521.47424589
_cell_formula_units_Z   1
loop_
 _symmetry_equiv_pos_site_id
 _symmetry_equiv_pos_as_xyz
  1  'x, y, z'
loop_
 _atom_site_type_symbol
 _atom_site_label
 _atom_site_symmetry_multiplicity
 _atom_site_fract_x
 _atom_site_fract_y
 _atom_site_fract_z
 _atom_site_occupancy
  Tm  Tm0  1  0.000000  0.114491  0.412656  1
  Tm  Tm1  1  0.000000  0.883901  0.588230  1
  Tm  Tm2  1  0.000000  0.383252  0.912454  1
  Tm  Tm3  1  0.000000  0.617885  0.085765  1
  Tm  Tm4  1  0.000000  0.241300  0.221338  1
  Tm  Tm5  1  0.000000  0.755371  0.779088  1
  Tm  Tm6  1  0.000000  0.255395  0.721604  1
  Tm  Tm7  1  0.000000  0.748610  0.278747  1
  Tm  Tm8  1  0.000000  0.999434  0.999870  1
  Tm  Tm9  1  0.000000  0.500573  0.500333  1
  Tl  Tl10  1  0.500000  0.423110  0.353916  1
  Tl  Tl11  1  0.500000  0.572672  0.648654  1
  In  In12  1  0.500000  0.073562  0.850037  1
  In  In13  1  0.500000  0.929694  0.149142  1
  In  In14  1  0.500000  0.291717  0.065426  1
  In  In15  1  0.500000  0.706818  0.932383  1
  In  In16  1  0.500000  0.204151  0.565998  1
  In  In17  1  0.500000  0.795043  0.433595  1
  Pt  Pt18  1  0.500000  0.524984  0.194875  1
  Rh  Rh19  1  0.500000  0.021045  0.304603  1
  Rh  Rh20  1  0.500000  0.980865  0.695402  1
  Rh  Rh21  1  0.500000  0.476127  0.805887  1
