# generated using pymatgen
data_Th4SiHgRh11
_symmetry_space_group_name_H-M   'P 1'
_cell_length_a   7.36010511
_cell_length_b   7.36010489
_cell_length_c   7.36010565
_cell_angle_alpha   108.42623303
_cell_angle_beta   108.42623711
_cell_angle_gamma   111.58203600
_symmetry_Int_Tables_number   1
_chemical_formula_structural   Th4SiHgRh11
_chemical_formula_sum   'Th4 Si1 Hg1 Rh11'
_cell_volume   306.60982125
_cell_formula_units_Z   1
loop_
 _symmetry_equiv_pos_site_id
 _symmetry_equiv_pos_as_xyz
  1  'x, y, z'
loop_
 _atom_site_type_symbol
 _atom_site_label
 _atom_site_symmetry_multiplicity
 _atom_site_fract_x
 _atom_site_fract_y
 _atom_site_fract_z
 _atom_site_occupancy
  Th  Th0  1  0.011602  0.988398  0.500000  1
  Th  Th1  1  0.011602  0.511602  0.023204  1
  Th  Th2  1  0.488398  0.988398  0.976796  1
  Th  Th3  1  0.488398  0.511602  0.500000  1
  Si  Si4  1  0.000000  0.000000  0.000000  1
  Hg  Hg5  1  0.750000  0.250000  0.500000  1
  Rh  Rh6  1  0.748152  0.497189  0.250962  1
  Rh  Rh7  1  0.502811  0.251848  0.749038  1
  Rh  Rh8  1  0.246227  0.497189  0.749038  1
  Rh  Rh9  1  0.250000  0.750000  0.500000  1
  Rh  Rh10  1  0.502811  0.753773  0.250962  1
  Rh  Rh11  1  0.720670  0.720670  0.000000  1
  Rh  Rh12  1  0.274222  0.004191  0.270030  1
  Rh  Rh13  1  0.995809  0.265839  0.270030  1
  Rh  Rh14  1  0.279330  0.279330  0.000000  1
  Rh  Rh15  1  0.734161  0.004191  0.729970  1
  Rh  Rh16  1  0.995809  0.725778  0.729970  1
