# generated using pymatgen
data_Nd12AlGe11Pd12
_symmetry_space_group_name_H-M   'P 1'
_cell_length_a   4.52287700
_cell_length_b   7.68321724
_cell_length_c   21.94715070
_cell_angle_alpha   89.88061574
_cell_angle_beta   90.00000000
_cell_angle_gamma   90.00000000
_symmetry_Int_Tables_number   1
_chemical_formula_structural   Nd12AlGe11Pd12
_chemical_formula_sum   'Nd12 Al1 Ge11 Pd12'
_cell_volume   762.66724250
_cell_formula_units_Z   1
loop_
 _symmetry_equiv_pos_site_id
 _symmetry_equiv_pos_as_xyz
  1  'x, y, z'
loop_
 _atom_site_type_symbol
 _atom_site_label
 _atom_site_symmetry_multiplicity
 _atom_site_fract_x
 _atom_site_fract_y
 _atom_site_fract_z
 _atom_site_occupancy
  Nd  Nd0  1  0.250000  0.708758  0.333066  1
  Nd  Nd1  1  0.750000  0.293110  0.666735  1
  Nd  Nd2  1  0.750000  0.208142  0.166688  1
  Nd  Nd3  1  0.250000  0.796384  0.833150  1
  Nd  Nd4  1  0.250000  0.791889  0.166473  1
  Nd  Nd5  1  0.750000  0.204475  0.832003  1
  Nd  Nd6  1  0.750000  0.292226  0.333674  1
  Nd  Nd7  1  0.250000  0.704683  0.666790  1
  Nd  Nd8  1  0.250000  0.715240  0.002867  1
  Nd  Nd9  1  0.750000  0.285202  0.998843  1
  Nd  Nd10  1  0.750000  0.213808  0.498529  1
  Nd  Nd11  1  0.250000  0.785455  0.501576  1
  Al  Al12  1  0.250000  0.412986  0.896053  1
  Ge  Ge13  1  0.250000  0.090195  0.071737  1
  Ge  Ge14  1  0.750000  0.911103  0.930318  1
  Ge  Ge15  1  0.750000  0.589630  0.428927  1
  Ge  Ge16  1  0.250000  0.410265  0.569740  1
  Ge  Ge17  1  0.250000  0.085083  0.269049  1
  Ge  Ge18  1  0.750000  0.913793  0.729499  1
  Ge  Ge19  1  0.750000  0.584969  0.230511  1
  Ge  Ge20  1  0.250000  0.413883  0.770306  1
  Ge  Ge21  1  0.250000  0.086512  0.396611  1
  Ge  Ge22  1  0.750000  0.913482  0.603365  1
  Ge  Ge23  1  0.750000  0.586892  0.104062  1
  Pd  Pd24  1  0.250000  0.418237  0.237011  1
  Pd  Pd25  1  0.750000  0.583092  0.763795  1
  Pd  Pd26  1  0.750000  0.918088  0.263128  1
  Pd  Pd27  1  0.250000  0.080387  0.736006  1
  Pd  Pd28  1  0.250000  0.417000  0.436278  1
  Pd  Pd29  1  0.750000  0.582794  0.564057  1
  Pd  Pd30  1  0.750000  0.916559  0.063653  1
  Pd  Pd31  1  0.250000  0.085385  0.934480  1
  Pd  Pd32  1  0.250000  0.421008  0.094677  1
  Pd  Pd33  1  0.750000  0.579359  0.906342  1
  Pd  Pd34  1  0.750000  0.921019  0.405571  1
  Pd  Pd35  1  0.250000  0.078903  0.594427  1
