# generated using pymatgen
data_Mn7Nb12Al5N2
_symmetry_space_group_name_H-M   'P 1'
_cell_length_a   8.20393296
_cell_length_b   8.19899033
_cell_length_c   8.20878100
_cell_angle_alpha   60.02414956
_cell_angle_beta   60.01954189
_cell_angle_gamma   59.98006118
_symmetry_Int_Tables_number   1
_chemical_formula_structural   Mn7Nb12Al5N2
_chemical_formula_sum   'Mn7 Nb12 Al5 N2'
_cell_volume   390.50261151
_cell_formula_units_Z   1
loop_
 _symmetry_equiv_pos_site_id
 _symmetry_equiv_pos_as_xyz
  1  'x, y, z'
loop_
 _atom_site_type_symbol
 _atom_site_label
 _atom_site_symmetry_multiplicity
 _atom_site_fract_x
 _atom_site_fract_y
 _atom_site_fract_z
 _atom_site_occupancy
  Mn  Mn0  1  0.420111  0.733244  0.426532  1
  Mn  Mn1  1  0.830360  0.824617  0.822258  1
  Mn  Mn2  1  0.522767  0.824617  0.822258  1
  Mn  Mn3  1  0.623836  0.104406  0.647920  1
  Mn  Mn4  1  0.615583  0.650239  0.118595  1
  Mn  Mn5  1  0.124339  0.648714  0.626475  1
  Mn  Mn6  1  0.600471  0.648714  0.626475  1
  Nb  Nb7  1  0.197993  0.805703  0.189389  1
  Nb  Nb8  1  0.447051  0.054283  0.439810  1
  Nb  Nb9  1  0.442604  0.053880  0.060913  1
  Nb  Nb10  1  0.444081  0.445172  0.056404  1
  Nb  Nb11  1  0.192384  0.802119  0.813113  1
  Nb  Nb12  1  0.054342  0.445172  0.056404  1
  Nb  Nb13  1  0.806915  0.805703  0.189389  1
  Nb  Nb14  1  0.057990  0.441026  0.442994  1
  Nb  Nb15  1  0.198101  0.189689  0.805784  1
  Nb  Nb16  1  0.806558  0.193897  0.192987  1
  Nb  Nb17  1  0.806426  0.189689  0.805784  1
  Nb  Nb18  1  0.058856  0.054283  0.439810  1
  Al  Al19  1  0.833547  0.502662  0.830244  1
  Al  Al20  1  0.417069  0.414131  0.751730  1
  Al  Al21  1  0.745652  0.417406  0.419688  1
  Al  Al22  1  0.417253  0.417406  0.419688  1
  Al  Al23  1  0.835957  0.831447  0.496641  1
  N  N24  1  0.000559  0.001014  0.997869  1
  N  N25  1  0.249196  0.250761  0.250846  1
