# generated using pymatgen
data_Hf5BeSn2Sb
_symmetry_space_group_name_H-M   'P 1'
_cell_length_a   8.55384056
_cell_length_b   8.55384120
_cell_length_c   5.73021800
_cell_angle_alpha   90.00000000
_cell_angle_beta   90.00000000
_cell_angle_gamma   119.99539141
_symmetry_Int_Tables_number   1
_chemical_formula_structural   Hf5BeSn2Sb
_chemical_formula_sum   'Hf10 Be2 Sn4 Sb2'
_cell_volume   363.11507282
_cell_formula_units_Z   2
loop_
 _symmetry_equiv_pos_site_id
 _symmetry_equiv_pos_as_xyz
  1  'x, y, z'
loop_
 _atom_site_type_symbol
 _atom_site_label
 _atom_site_symmetry_multiplicity
 _atom_site_fract_x
 _atom_site_fract_y
 _atom_site_fract_z
 _atom_site_occupancy
  Hf  Hf0  1  0.666837  0.332397  0.999718  1
  Hf  Hf1  1  0.332397  0.666837  0.999718  1
  Hf  Hf2  1  0.332397  0.666837  0.500282  1
  Hf  Hf3  1  0.666837  0.332397  0.500282  1
  Hf  Hf4  1  0.747672  0.747672  0.750000  1
  Hf  Hf5  1  0.253582  0.000208  0.750000  1
  Hf  Hf6  1  0.000208  0.253582  0.750000  1
  Hf  Hf7  1  0.250039  0.250039  0.250000  1
  Hf  Hf8  1  0.749120  0.000752  0.250000  1
  Hf  Hf9  1  0.000752  0.749120  0.250000  1
  Be  Be10  1  0.999194  0.999194  0.503202  1
  Be  Be11  1  0.999194  0.999194  0.996798  1
  Sn  Sn12  1  0.391250  0.391250  0.750000  1
  Sn  Sn13  1  0.610591  0.999426  0.750000  1
  Sn  Sn14  1  0.999426  0.610591  0.750000  1
  Sn  Sn15  1  0.608851  0.608851  0.250000  1
  Sb  Sb16  1  0.391512  0.000138  0.250000  1
  Sb  Sb17  1  0.000138  0.391512  0.250000  1
