# generated using pymatgen
data_Ce5Be4TlRh10
_symmetry_space_group_name_H-M   'P 1'
_cell_length_a   9.80145700
_cell_length_b   9.80145700
_cell_length_c   3.44907000
_cell_angle_alpha   90.00000000
_cell_angle_beta   90.00000000
_cell_angle_gamma   90.00000000
_symmetry_Int_Tables_number   1
_chemical_formula_structural   Ce5Be4TlRh10
_chemical_formula_sum   'Ce5 Be4 Tl1 Rh10'
_cell_volume   331.34718590
_cell_formula_units_Z   1
loop_
 _symmetry_equiv_pos_site_id
 _symmetry_equiv_pos_as_xyz
  1  'x, y, z'
loop_
 _atom_site_type_symbol
 _atom_site_label
 _atom_site_symmetry_multiplicity
 _atom_site_fract_x
 _atom_site_fract_y
 _atom_site_fract_z
 _atom_site_occupancy
  Ce  Ce0  1  0.816363  0.334367  0.000000  1
  Ce  Ce1  1  0.334367  0.183637  0.000000  1
  Ce  Ce2  1  0.665633  0.816363  0.000000  1
  Ce  Ce3  1  0.183637  0.665633  0.000000  1
  Ce  Ce4  1  0.000000  0.000000  0.000000  1
  Be  Be5  1  0.622594  0.115961  0.000000  1
  Be  Be6  1  0.115961  0.377406  0.000000  1
  Be  Be7  1  0.884039  0.622594  0.000000  1
  Be  Be8  1  0.377406  0.884039  0.000000  1
  Tl  Tl9  1  0.500000  0.500000  0.000000  1
  Rh  Rh10  1  0.069210  0.219001  0.500000  1
  Rh  Rh11  1  0.219001  0.930790  0.500000  1
  Rh  Rh12  1  0.780999  0.069210  0.500000  1
  Rh  Rh13  1  0.930790  0.780999  0.500000  1
  Rh  Rh14  1  0.424632  0.722954  0.500000  1
  Rh  Rh15  1  0.575368  0.277046  0.500000  1
  Rh  Rh16  1  0.722954  0.575368  0.500000  1
  Rh  Rh17  1  0.277046  0.424632  0.500000  1
  Rh  Rh18  1  0.500000  0.000000  0.500000  1
  Rh  Rh19  1  0.000000  0.500000  0.500000  1
