# generated using pymatgen
data_Tm12Co4AgOs
_symmetry_space_group_name_H-M   'P 1'
_cell_length_a   8.15247122
_cell_length_b   8.15242882
_cell_length_c   8.15246967
_cell_angle_alpha   111.27231229
_cell_angle_beta   111.02300400
_cell_angle_gamma   106.16829807
_symmetry_Int_Tables_number   1
_chemical_formula_structural   Tm12Co4AgOs
_chemical_formula_sum   'Tm12 Co4 Ag1 Os1'
_cell_volume   416.06814771
_cell_formula_units_Z   1
loop_
 _symmetry_equiv_pos_site_id
 _symmetry_equiv_pos_as_xyz
  1  'x, y, z'
loop_
 _atom_site_type_symbol
 _atom_site_label
 _atom_site_symmetry_multiplicity
 _atom_site_fract_x
 _atom_site_fract_y
 _atom_site_fract_z
 _atom_site_occupancy
  Tm  Tm0  1  0.580538  0.273754  0.306786  1
  Tm  Tm1  1  0.180791  0.225469  0.406270  1
  Tm  Tm2  1  0.180802  0.774531  0.955323  1
  Tm  Tm3  1  0.685286  0.494573  0.809287  1
  Tm  Tm4  1  0.685272  0.875979  0.190706  1
  Tm  Tm5  1  0.966968  0.273754  0.693215  1
  Tm  Tm6  1  0.033032  0.726246  0.306785  1
  Tm  Tm7  1  0.314728  0.124021  0.809294  1
  Tm  Tm8  1  0.314714  0.505427  0.190713  1
  Tm  Tm9  1  0.819198  0.225469  0.044677  1
  Tm  Tm10  1  0.819209  0.774531  0.593730  1
  Tm  Tm11  1  0.419462  0.726246  0.693214  1
  Co  Co12  1  0.887471  0.887472  0.000001  1
  Co  Co13  1  0.368890  0.500000  0.868890  1
  Co  Co14  1  0.631110  0.500000  0.131110  1
  Co  Co15  1  0.112529  0.112528  0.999999  1
  Ag  Ag16  1  0.500000  0.000000  0.500000  1
  Os  Os17  1  0.000000  0.500000  0.500000  1
