# generated using pymatgen
data_Zr2Nb2SiP
_symmetry_space_group_name_H-M   'P 1'
_cell_length_a   3.60580200
_cell_length_b   6.98091600
_cell_length_c   8.45900300
_cell_angle_alpha   90.00000000
_cell_angle_beta   90.00000000
_cell_angle_gamma   90.00000000
_symmetry_Int_Tables_number   1
_chemical_formula_structural   Zr2Nb2SiP
_chemical_formula_sum   'Zr4 Nb4 Si2 P2'
_cell_volume   212.92833911
_cell_formula_units_Z   2
loop_
 _symmetry_equiv_pos_site_id
 _symmetry_equiv_pos_as_xyz
  1  'x, y, z'
loop_
 _atom_site_type_symbol
 _atom_site_label
 _atom_site_symmetry_multiplicity
 _atom_site_fract_x
 _atom_site_fract_y
 _atom_site_fract_z
 _atom_site_occupancy
  Zr  Zr0  1  0.250000  0.535347  0.833881  1
  Zr  Zr1  1  0.750000  0.964653  0.333881  1
  Zr  Zr2  1  0.250000  0.039200  0.669775  1
  Zr  Zr3  1  0.750000  0.460800  0.169775  1
  Nb  Nb4  1  0.250000  0.140068  0.059522  1
  Nb  Nb5  1  0.750000  0.869369  0.939078  1
  Nb  Nb6  1  0.250000  0.630631  0.439078  1
  Nb  Nb7  1  0.750000  0.359932  0.559522  1
  Si  Si8  1  0.750000  0.739692  0.639706  1
  Si  Si9  1  0.250000  0.760308  0.139706  1
  P  P10  1  0.750000  0.241912  0.858037  1
  P  P11  1  0.250000  0.258088  0.358037  1
