# generated using pymatgen
data_TbY3Al18PtRh5
_symmetry_space_group_name_H-M   'P 1'
_cell_length_a   7.57582000
_cell_length_b   7.57560150
_cell_length_c   9.48312101
_cell_angle_alpha   89.99685133
_cell_angle_beta   89.99721370
_cell_angle_gamma   119.47350849
_symmetry_Int_Tables_number   1
_chemical_formula_structural   TbY3Al18PtRh5
_chemical_formula_sum   'Tb1 Y3 Al18 Pt1 Rh5'
_cell_volume   473.81453819
_cell_formula_units_Z   1
loop_
 _symmetry_equiv_pos_site_id
 _symmetry_equiv_pos_as_xyz
  1  'x, y, z'
loop_
 _atom_site_type_symbol
 _atom_site_label
 _atom_site_symmetry_multiplicity
 _atom_site_fract_x
 _atom_site_fract_y
 _atom_site_fract_z
 _atom_site_occupancy
  Tb  Tb0  1  0.329589  0.005335  0.749927  1
  Y  Y1  1  0.994593  0.670495  0.250094  1
  Y  Y2  1  0.005018  0.328951  0.750137  1
  Y  Y3  1  0.671067  0.994949  0.249857  1
  Al  Al4  1  0.127733  0.127119  0.250148  1
  Al  Al5  1  0.872729  0.872176  0.749851  1
  Al  Al6  1  0.004260  0.335174  0.076138  1
  Al  Al7  1  0.002549  0.668329  0.924094  1
  Al  Al8  1  0.999731  0.664764  0.574416  1
  Al  Al9  1  0.335175  0.000253  0.425425  1
  Al  Al10  1  0.000994  0.334985  0.425186  1
  Al  Al11  1  0.665050  0.999009  0.574750  1
  Al  Al12  1  0.664856  0.995741  0.923915  1
  Al  Al13  1  0.331614  0.997430  0.076061  1
  Al  Al14  1  0.332776  0.332900  0.550046  1
  Al  Al15  1  0.667121  0.667215  0.449888  1
  Al  Al16  1  0.666562  0.669955  0.051587  1
  Al  Al17  1  0.330029  0.333460  0.948470  1
  Al  Al18  1  0.340170  0.549871  0.250129  1
  Al  Al19  1  0.660049  0.453148  0.746965  1
  Al  Al20  1  0.547007  0.339919  0.253021  1
  Al  Al21  1  0.450192  0.659831  0.749869  1
  Pt  Pt22  1  0.672334  0.327724  0.999923  1
  Rh  Rh23  1  0.328188  0.671797  0.999950  1
  Rh  Rh24  1  0.328293  0.671689  0.500060  1
  Rh  Rh25  1  0.672197  0.327881  0.500090  1
  Rh  Rh26  1  0.999987  0.000019  0.999929  1
  Rh  Rh27  1  0.000139  0.999880  0.500076  1
