# generated using pymatgen
data_Rb28Mn7CoO32
_symmetry_space_group_name_H-M   'P 1'
_cell_length_a   10.65344300
_cell_length_b   6.52820186
_cell_length_c   21.02570500
_cell_angle_alpha   87.04644455
_cell_angle_beta   90.00000000
_cell_angle_gamma   90.00000000
_symmetry_Int_Tables_number   1
_chemical_formula_structural   Rb28Mn7CoO32
_chemical_formula_sum   'Rb28 Mn7 Co1 O32'
_cell_volume   1460.34961819
_cell_formula_units_Z   1
loop_
 _symmetry_equiv_pos_site_id
 _symmetry_equiv_pos_as_xyz
  1  'x, y, z'
loop_
 _atom_site_type_symbol
 _atom_site_label
 _atom_site_symmetry_multiplicity
 _atom_site_fract_x
 _atom_site_fract_y
 _atom_site_fract_z
 _atom_site_occupancy
  Rb  Rb0  1  0.548446  0.588464  0.859247  1
  Rb  Rb1  1  0.035005  0.428775  0.636488  1
  Rb  Rb2  1  0.444618  0.406023  0.134897  1
  Rb  Rb3  1  0.962263  0.579294  0.364876  1
  Rb  Rb4  1  0.887223  0.787392  0.532830  1
  Rb  Rb5  1  0.388886  0.205803  0.967799  1
  Rb  Rb6  1  0.116254  0.209553  0.468375  1
  Rb  Rb7  1  0.606038  0.784833  0.029045  1
  Rb  Rb8  1  0.843115  0.902164  0.885397  1
  Rb  Rb9  1  0.339234  0.103276  0.618714  1
  Rb  Rb10  1  0.163421  0.092184  0.114140  1
  Rb  Rb11  1  0.656361  0.890264  0.383922  1
  Rb  Rb12  1  0.824721  0.408321  0.798030  1
  Rb  Rb13  1  0.349852  0.594950  0.696854  1
  Rb  Rb14  1  0.169014  0.592135  0.192589  1
  Rb  Rb15  1  0.660507  0.395536  0.306013  1
  Rb  Rb16  1  0.566449  0.720425  0.555131  1
  Rb  Rb17  1  0.065574  0.284447  0.954391  1
  Rb  Rb18  1  0.443169  0.280889  0.452531  1
  Rb  Rb19  1  0.949264  0.721664  0.045323  1
  Rb  Rb20  1  0.977492  0.882380  0.718422  1
  Rb  Rb21  1  0.512595  0.099089  0.782698  1
  Rb  Rb22  1  0.008232  0.119245  0.284337  1
  Rb  Rb23  1  0.488818  0.882837  0.214037  1
  Rb  Rb24  1  0.701758  0.222864  0.640006  1
  Rb  Rb25  1  0.209460  0.791875  0.865393  1
  Rb  Rb26  1  0.296593  0.776376  0.361906  1
  Rb  Rb27  1  0.792593  0.220598  0.135939  1
  Mn  Mn28  1  0.222887  0.718890  0.524210  1
  Mn  Mn29  1  0.722578  0.287513  0.977290  1
  Mn  Mn30  1  0.781172  0.278526  0.471056  1
  Mn  Mn31  1  0.281436  0.715874  0.026058  1
  Mn  Mn32  1  0.333874  0.283571  0.296057  1
  Mn  Mn33  1  0.155801  0.290681  0.793815  1
  Mn  Mn34  1  0.838542  0.715377  0.205987  1
  Co  Co35  1  0.664710  0.714336  0.704529  1
  O  O36  1  0.734337  0.840907  0.776222  1
  O  O37  1  0.209228  0.177305  0.726907  1
  O  O38  1  0.256399  0.163800  0.231311  1
  O  O39  1  0.780104  0.827175  0.272244  1
  O  O40  1  0.801081  0.648043  0.652161  1
  O  O41  1  0.275185  0.324274  0.847286  1
  O  O42  1  0.198635  0.342096  0.345418  1
  O  O43  1  0.720943  0.677650  0.152165  1
  O  O44  1  0.584294  0.461482  0.730758  1
  O  O45  1  0.091462  0.526849  0.770846  1
  O  O46  1  0.418619  0.515001  0.270195  1
  O  O47  1  0.904058  0.480159  0.229592  1
  O  O48  1  0.533334  0.883688  0.670695  1
  O  O49  1  0.038495  0.138680  0.828255  1
  O  O50  1  0.464210  0.126035  0.328919  1
  O  O51  1  0.955339  0.870984  0.172802  1
  O  O52  1  0.790642  0.519961  0.953608  1
  O  O53  1  0.210486  0.477182  0.059443  1
  O  O54  1  0.710786  0.509563  0.446412  1
  O  O55  1  0.337995  0.889447  0.497244  1
  O  O56  1  0.889269  0.308521  0.529930  1
  O  O57  1  0.387025  0.710639  0.958790  1
  O  O58  1  0.116274  0.695887  0.463339  1
  O  O59  1  0.616208  0.315173  0.038108  1
  O  O60  1  0.145825  0.816089  0.588174  1
  O  O61  1  0.647014  0.188450  0.913352  1
  O  O62  1  0.855680  0.183589  0.405235  1
  O  O63  1  0.357837  0.798062  0.098379  1
  O  O64  1  0.166774  0.899615  0.992555  1
  O  O65  1  0.668482  0.105058  0.497989  1
  O  O66  1  0.836963  0.118049  0.006026  1
  O  O67  1  0.289062  0.484164  0.547306  1
