# generated using pymatgen
data_ErTm2Mg(Co4P3)2
_symmetry_space_group_name_H-M   'P 1'
_cell_length_a   3.71279500
_cell_length_b   10.58386000
_cell_length_c   12.21479800
_cell_angle_alpha   90.00000000
_cell_angle_beta   90.00000000
_cell_angle_gamma   90.00000000
_symmetry_Int_Tables_number   1
_chemical_formula_structural   ErTm2Mg(Co4P3)2
_chemical_formula_sum   'Er2 Tm4 Mg2 Co16 P12'
_cell_volume   479.98906817
_cell_formula_units_Z   2
loop_
 _symmetry_equiv_pos_site_id
 _symmetry_equiv_pos_as_xyz
  1  'x, y, z'
loop_
 _atom_site_type_symbol
 _atom_site_label
 _atom_site_symmetry_multiplicity
 _atom_site_fract_x
 _atom_site_fract_y
 _atom_site_fract_z
 _atom_site_occupancy
  Er  Er0  1  0.000000  0.500000  0.526115  1
  Er  Er1  1  0.500000  0.000000  0.473885  1
  Tm  Tm2  1  0.500000  0.822627  0.206511  1
  Tm  Tm3  1  0.500000  0.177373  0.206511  1
  Tm  Tm4  1  0.000000  0.677373  0.793489  1
  Tm  Tm5  1  0.000000  0.322627  0.793489  1
  Mg  Mg6  1  0.500000  0.500000  0.157034  1
  Mg  Mg7  1  0.000000  0.000000  0.842966  1
  Co  Co8  1  0.500000  0.500000  0.705147  1
  Co  Co9  1  0.000000  0.000000  0.294853  1
  Co  Co10  1  0.000000  0.500000  0.988345  1
  Co  Co11  1  0.500000  0.000000  0.011655  1
  Co  Co12  1  0.500000  0.332572  0.996586  1
  Co  Co13  1  0.500000  0.667428  0.996586  1
  Co  Co14  1  0.000000  0.167428  0.003414  1
  Co  Co15  1  0.000000  0.832572  0.003414  1
  Co  Co16  1  0.500000  0.296379  0.431988  1
  Co  Co17  1  0.500000  0.703621  0.431988  1
  Co  Co18  1  0.000000  0.203621  0.568012  1
  Co  Co19  1  0.000000  0.796379  0.568012  1
  Co  Co20  1  0.500000  0.877081  0.705819  1
  Co  Co21  1  0.500000  0.122919  0.705819  1
  Co  Co22  1  0.000000  0.622919  0.294181  1
  Co  Co23  1  0.000000  0.377081  0.294181  1
  P  P24  1  0.500000  0.500000  0.884414  1
  P  P25  1  0.000000  0.000000  0.115586  1
  P  P26  1  0.500000  0.500000  0.356572  1
  P  P27  1  0.000000  0.000000  0.643428  1
  P  P28  1  0.500000  0.310592  0.616110  1
  P  P29  1  0.500000  0.689408  0.616110  1
  P  P30  1  0.000000  0.189408  0.383890  1
  P  P31  1  0.000000  0.810592  0.383890  1
  P  P32  1  0.500000  0.838149  0.891900  1
  P  P33  1  0.500000  0.161851  0.891900  1
  P  P34  1  0.000000  0.661851  0.108100  1
  P  P35  1  0.000000  0.338149  0.108100  1
