# generated using pymatgen
data_Ho16AgHg3Ir4
_symmetry_space_group_name_H-M   'P 1'
_cell_length_a   9.56278576
_cell_length_b   9.56278605
_cell_length_c   9.56278632
_cell_angle_alpha   59.86891189
_cell_angle_beta   59.86891109
_cell_angle_gamma   59.86890854
_symmetry_Int_Tables_number   1
_chemical_formula_structural   Ho16AgHg3Ir4
_chemical_formula_sum   'Ho16 Ag1 Hg3 Ir4'
_cell_volume   616.51628877
_cell_formula_units_Z   1
loop_
 _symmetry_equiv_pos_site_id
 _symmetry_equiv_pos_as_xyz
  1  'x, y, z'
loop_
 _atom_site_type_symbol
 _atom_site_label
 _atom_site_symmetry_multiplicity
 _atom_site_fract_x
 _atom_site_fract_y
 _atom_site_fract_z
 _atom_site_occupancy
  Ho  Ho0  1  0.600499  0.600499  0.600499  1
  Ho  Ho1  1  0.600989  0.600989  0.198514  1
  Ho  Ho2  1  0.600989  0.198514  0.600989  1
  Ho  Ho3  1  0.198514  0.600989  0.600989  1
  Ho  Ho4  1  0.059224  0.440208  0.440208  1
  Ho  Ho5  1  0.438287  0.059863  0.059863  1
  Ho  Ho6  1  0.440208  0.059224  0.440208  1
  Ho  Ho7  1  0.059863  0.438287  0.059863  1
  Ho  Ho8  1  0.440208  0.440208  0.059224  1
  Ho  Ho9  1  0.059863  0.059863  0.438287  1
  Ho  Ho10  1  0.187564  0.811558  0.811558  1
  Ho  Ho11  1  0.811643  0.187296  0.187296  1
  Ho  Ho12  1  0.811558  0.187564  0.811558  1
  Ho  Ho13  1  0.187296  0.811643  0.187296  1
  Ho  Ho14  1  0.811558  0.811558  0.187564  1
  Ho  Ho15  1  0.187296  0.187296  0.811643  1
  Ag  Ag16  1  0.833019  0.833019  0.833019  1
  Hg  Hg17  1  0.835833  0.835833  0.497050  1
  Hg  Hg18  1  0.835833  0.497050  0.835833  1
  Hg  Hg19  1  0.497050  0.835833  0.835833  1
  Ir  Ir20  1  0.392004  0.392004  0.392004  1
  Ir  Ir21  1  0.393089  0.393089  0.824524  1
  Ir  Ir22  1  0.393089  0.824524  0.393089  1
  Ir  Ir23  1  0.824524  0.393089  0.393089  1
