# generated using pymatgen
data_Ho8Mg2Sc10Si15Se
_symmetry_space_group_name_H-M   'P 1'
_cell_length_a   7.09131762
_cell_length_b   7.32395386
_cell_length_c   14.00768484
_cell_angle_alpha   89.89623556
_cell_angle_beta   88.42019206
_cell_angle_gamma   90.05743573
_symmetry_Int_Tables_number   1
_chemical_formula_structural   Ho8Mg2Sc10Si15Se
_chemical_formula_sum   'Ho8 Mg2 Sc10 Si15 Se1'
_cell_volume   727.23175874
_cell_formula_units_Z   1
loop_
 _symmetry_equiv_pos_site_id
 _symmetry_equiv_pos_as_xyz
  1  'x, y, z'
loop_
 _atom_site_type_symbol
 _atom_site_label
 _atom_site_symmetry_multiplicity
 _atom_site_fract_x
 _atom_site_fract_y
 _atom_site_fract_z
 _atom_site_occupancy
  Ho  Ho0  1  0.007071  0.177267  0.097803  1
  Ho  Ho1  1  0.992250  0.825262  0.902533  1
  Ho  Ho2  1  0.493040  0.675170  0.903364  1
  Ho  Ho3  1  0.001532  0.822317  0.596386  1
  Ho  Ho4  1  0.509113  0.325638  0.097545  1
  Ho  Ho5  1  0.993886  0.178874  0.400849  1
  Ho  Ho6  1  0.505289  0.317835  0.399079  1
  Ho  Ho7  1  0.502925  0.680304  0.599676  1
  Mg  Mg8  1  0.170906  0.506085  0.759576  1
  Mg  Mg9  1  0.828688  0.497816  0.250191  1
  Sc  Sc10  1  0.328690  0.001296  0.251960  1
  Sc  Sc11  1  0.671054  0.998782  0.748801  1
  Sc  Sc12  1  0.349585  0.170936  0.625442  1
  Sc  Sc13  1  0.651816  0.826793  0.375011  1
  Sc  Sc14  1  0.142629  0.669547  0.376689  1
  Sc  Sc15  1  0.664382  0.819892  0.124479  1
  Sc  Sc16  1  0.853632  0.329887  0.621695  1
  Sc  Sc17  1  0.334945  0.178766  0.875292  1
  Sc  Sc18  1  0.837818  0.321231  0.874256  1
  Sc  Sc19  1  0.161219  0.678710  0.125409  1
  Si  Si20  1  0.044379  0.107067  0.747934  1
  Si  Si21  1  0.955798  0.892488  0.249937  1
  Si  Si22  1  0.447628  0.618554  0.249737  1
  Si  Si23  1  0.551214  0.381954  0.749709  1
  Si  Si24  1  0.299395  0.878854  0.751000  1
  Si  Si25  1  0.701031  0.118753  0.247877  1
  Si  Si26  1  0.211521  0.371799  0.249236  1
  Si  Si27  1  0.789992  0.628531  0.750109  1
  Si  Si28  1  0.797813  0.545104  0.464422  1
  Si  Si29  1  0.315638  0.960779  0.460198  1
  Si  Si30  1  0.839576  0.538696  0.033443  1
  Si  Si31  1  0.681496  0.038456  0.540989  1
  Si  Si32  1  0.159880  0.462593  0.965768  1
  Si  Si33  1  0.658622  0.033541  0.960068  1
  Si  Si34  1  0.340696  0.967693  0.040258  1
  Se  Se35  1  0.204853  0.452731  0.533281  1
