# generated using pymatgen
data_Th4Co5Si10Rh
_symmetry_space_group_name_H-M   'P 1'
_cell_length_a   8.05268945
_cell_length_b   8.05268852
_cell_length_c   8.05268800
_cell_angle_alpha   138.08507288
_cell_angle_beta   105.47426517
_cell_angle_gamma   89.37299527
_symmetry_Int_Tables_number   1
_chemical_formula_structural   Th4Co5Si10Rh
_chemical_formula_sum   'Th4 Co5 Si10 Rh1'
_cell_volume   321.59845729
_cell_formula_units_Z   1
loop_
 _symmetry_equiv_pos_site_id
 _symmetry_equiv_pos_as_xyz
  1  'x, y, z'
loop_
 _atom_site_type_symbol
 _atom_site_label
 _atom_site_symmetry_multiplicity
 _atom_site_fract_x
 _atom_site_fract_y
 _atom_site_fract_z
 _atom_site_occupancy
  Th  Th0  1  0.866291  0.628639  0.233879  1
  Th  Th1  1  0.133709  0.367587  0.762348  1
  Th  Th2  1  0.605239  0.871361  0.737652  1
  Th  Th3  1  0.394761  0.132413  0.266121  1
  Co  Co4  1  0.749489  0.134592  0.612804  1
  Co  Co5  1  0.521789  0.636687  0.887196  1
  Co  Co6  1  0.478211  0.365408  0.114898  1
  Co  Co7  1  0.000000  0.750000  0.750000  1
  Co  Co8  1  0.250511  0.863313  0.385102  1
  Si  Si9  1  0.042143  0.882169  0.142359  1
  Si  Si10  1  0.957857  0.100215  0.840026  1
  Si  Si11  1  0.260190  0.617831  0.659974  1
  Si  Si12  1  0.739810  0.399785  0.357641  1
  Si  Si13  1  0.237116  0.987116  0.750000  1
  Si  Si14  1  0.762884  0.512884  0.750000  1
  Si  Si15  1  0.762696  0.012696  0.250000  1
  Si  Si16  1  0.500000  0.250000  0.750000  1
  Si  Si17  1  0.500000  0.750000  0.250000  1
  Si  Si18  1  0.237304  0.487304  0.250000  1
  Rh  Rh19  1  0.000000  0.250000  0.250000  1
