# generated using pymatgen
data_ScAg(CO3)2
_symmetry_space_group_name_H-M   'P 1'
_cell_length_a   6.28127211
_cell_length_b   6.28127161
_cell_length_c   6.28127244
_cell_angle_alpha   46.86647999
_cell_angle_beta   46.86648426
_cell_angle_gamma   46.86648120
_symmetry_Int_Tables_number   1
_chemical_formula_structural   ScAg(CO3)2
_chemical_formula_sum   'Sc1 Ag1 C2 O6'
_cell_volume   120.60820919
_cell_formula_units_Z   1
loop_
 _symmetry_equiv_pos_site_id
 _symmetry_equiv_pos_as_xyz
  1  'x, y, z'
loop_
 _atom_site_type_symbol
 _atom_site_label
 _atom_site_symmetry_multiplicity
 _atom_site_fract_x
 _atom_site_fract_y
 _atom_site_fract_z
 _atom_site_occupancy
  Sc  Sc0  1  0.500000  0.500000  0.500000  1
  Ag  Ag1  1  0.000000  0.000000  0.000000  1
  C  C2  1  0.761027  0.761027  0.761027  1
  C  C3  1  0.238973  0.238973  0.238973  1
  O  O4  1  0.959810  0.285879  0.472976  1
  O  O5  1  0.527024  0.040190  0.714121  1
  O  O6  1  0.714121  0.527024  0.040190  1
  O  O7  1  0.285879  0.472976  0.959810  1
  O  O8  1  0.472976  0.959810  0.285879  1
  O  O9  1  0.040190  0.714121  0.527024  1
