# generated using pymatgen
data_LaTm(BIr)8
_symmetry_space_group_name_H-M   'P 1'
_cell_length_a   7.68337200
_cell_length_b   7.68337200
_cell_length_c   3.99025000
_cell_angle_alpha   90.00000000
_cell_angle_beta   90.00000000
_cell_angle_gamma   90.00000000
_symmetry_Int_Tables_number   1
_chemical_formula_structural   LaTm(BIr)8
_chemical_formula_sum   'La1 Tm1 B8 Ir8'
_cell_volume   235.56123766
_cell_formula_units_Z   1
loop_
 _symmetry_equiv_pos_site_id
 _symmetry_equiv_pos_as_xyz
  1  'x, y, z'
loop_
 _atom_site_type_symbol
 _atom_site_label
 _atom_site_symmetry_multiplicity
 _atom_site_fract_x
 _atom_site_fract_y
 _atom_site_fract_z
 _atom_site_occupancy
  La  La0  1  0.000000  0.000000  0.500000  1
  Tm  Tm1  1  0.500000  0.500000  0.000000  1
  B  B2  1  0.657316  0.775562  0.613092  1
  B  B3  1  0.158515  0.281873  0.893056  1
  B  B4  1  0.281873  0.841485  0.106944  1
  B  B5  1  0.718127  0.158515  0.106944  1
  B  B6  1  0.342684  0.224438  0.613092  1
  B  B7  1  0.841485  0.718127  0.893056  1
  B  B8  1  0.224438  0.657316  0.386908  1
  B  B9  1  0.775562  0.342684  0.386908  1
  Ir  Ir10  1  0.344017  0.110922  0.110611  1
  Ir  Ir11  1  0.655983  0.889078  0.110611  1
  Ir  Ir12  1  0.608191  0.163252  0.610723  1
  Ir  Ir13  1  0.110922  0.655983  0.889389  1
  Ir  Ir14  1  0.163252  0.391809  0.389277  1
  Ir  Ir15  1  0.836748  0.608191  0.389277  1
  Ir  Ir16  1  0.889078  0.344017  0.889389  1
  Ir  Ir17  1  0.391809  0.836748  0.610723  1
