# generated using pymatgen
data_La6Mg7Cd16As
_symmetry_space_group_name_H-M   'P 1'
_cell_length_a   10.18186633
_cell_length_b   10.18186684
_cell_length_c   10.18186700
_cell_angle_alpha   60.00000274
_cell_angle_beta   60.00000109
_cell_angle_gamma   60.00000613
_symmetry_Int_Tables_number   1
_chemical_formula_structural   La6Mg7Cd16As
_chemical_formula_sum   'La6 Mg7 Cd16 As1'
_cell_volume   746.39248685
_cell_formula_units_Z   1
loop_
 _symmetry_equiv_pos_site_id
 _symmetry_equiv_pos_as_xyz
  1  'x, y, z'
loop_
 _atom_site_type_symbol
 _atom_site_label
 _atom_site_symmetry_multiplicity
 _atom_site_fract_x
 _atom_site_fract_y
 _atom_site_fract_z
 _atom_site_occupancy
  La  La0  1  0.790260  0.790260  0.209740  1
  La  La1  1  0.209740  0.790260  0.209740  1
  La  La2  1  0.790260  0.209740  0.209740  1
  La  La3  1  0.209740  0.209740  0.790260  1
  La  La4  1  0.790260  0.209740  0.790260  1
  La  La5  1  0.209740  0.790260  0.790260  1
  Mg  Mg6  1  0.000000  0.000000  0.500000  1
  Mg  Mg7  1  0.500000  0.000000  0.500000  1
  Mg  Mg8  1  0.000000  0.500000  0.500000  1
  Mg  Mg9  1  0.500000  0.500000  0.000000  1
  Mg  Mg10  1  0.000000  0.500000  0.000000  1
  Mg  Mg11  1  0.500000  0.000000  0.000000  1
  Mg  Mg12  1  0.500000  0.500000  0.500000  1
  Cd  Cd13  1  0.830110  0.830110  0.509672  1
  Cd  Cd14  1  0.830110  0.509672  0.830110  1
  Cd  Cd15  1  0.509672  0.830110  0.830110  1
  Cd  Cd16  1  0.830110  0.830110  0.830110  1
  Cd  Cd17  1  0.169890  0.169890  0.490328  1
  Cd  Cd18  1  0.169890  0.490328  0.169890  1
  Cd  Cd19  1  0.490328  0.169890  0.169890  1
  Cd  Cd20  1  0.169890  0.169890  0.169890  1
  Cd  Cd21  1  0.620703  0.620703  0.137891  1
  Cd  Cd22  1  0.620703  0.137891  0.620703  1
  Cd  Cd23  1  0.137891  0.620703  0.620703  1
  Cd  Cd24  1  0.620703  0.620703  0.620703  1
  Cd  Cd25  1  0.379297  0.379297  0.862109  1
  Cd  Cd26  1  0.379297  0.862109  0.379297  1
  Cd  Cd27  1  0.862109  0.379297  0.379297  1
  Cd  Cd28  1  0.379297  0.379297  0.379297  1
  As  As29  1  0.000000  0.000000  0.000000  1
