# generated using pymatgen
data_Ca6TbTh(Si3Au)4
_symmetry_space_group_name_H-M   'P 1'
_cell_length_a   8.29562900
_cell_length_b   8.29562836
_cell_length_c   8.47191100
_cell_angle_alpha   90.00000000
_cell_angle_beta   90.00000000
_cell_angle_gamma   119.99999858
_symmetry_Int_Tables_number   1
_chemical_formula_structural   Ca6TbTh(Si3Au)4
_chemical_formula_sum   'Ca6 Tb1 Th1 Si12 Au4'
_cell_volume   504.90611583
_cell_formula_units_Z   1
loop_
 _symmetry_equiv_pos_site_id
 _symmetry_equiv_pos_as_xyz
  1  'x, y, z'
loop_
 _atom_site_type_symbol
 _atom_site_label
 _atom_site_symmetry_multiplicity
 _atom_site_fract_x
 _atom_site_fract_y
 _atom_site_fract_z
 _atom_site_occupancy
  Ca  Ca0  1  0.500374  0.000744  0.250000  1
  Ca  Ca1  1  0.499629  0.999259  0.750000  1
  Ca  Ca2  1  0.999256  0.499626  0.250000  1
  Ca  Ca3  1  0.000741  0.500371  0.750000  1
  Ca  Ca4  1  0.500374  0.499626  0.250000  1
  Ca  Ca5  1  0.499629  0.500371  0.750000  1
  Tb  Tb6  1  0.000000  0.000000  0.750000  1
  Th  Th7  1  0.000000  0.000000  0.250000  1
  Si  Si8  1  0.162558  0.325115  0.998479  1
  Si  Si9  1  0.837443  0.674886  0.997500  1
  Si  Si10  1  0.674885  0.837442  0.998479  1
  Si  Si11  1  0.837443  0.674886  0.502500  1
  Si  Si12  1  0.325114  0.162557  0.997500  1
  Si  Si13  1  0.162558  0.325115  0.501521  1
  Si  Si14  1  0.162558  0.837442  0.998479  1
  Si  Si15  1  0.325114  0.162557  0.502500  1
  Si  Si16  1  0.837443  0.162557  0.997500  1
  Si  Si17  1  0.674885  0.837442  0.501521  1
  Si  Si18  1  0.837443  0.162557  0.502500  1
  Si  Si19  1  0.162558  0.837442  0.501521  1
  Au  Au20  1  0.333333  0.666667  0.000487  1
  Au  Au21  1  0.666667  0.333333  0.998980  1
  Au  Au22  1  0.666667  0.333333  0.501020  1
  Au  Au23  1  0.333333  0.666667  0.499513  1
