# generated using pymatgen
data_Tm3Co8MoP6
_symmetry_space_group_name_H-M   'P 1'
_cell_length_a   3.69924900
_cell_length_b   10.53140200
_cell_length_c   12.18683700
_cell_angle_alpha   90.00000000
_cell_angle_beta   90.00000000
_cell_angle_gamma   90.00000000
_symmetry_Int_Tables_number   1
_chemical_formula_structural   Tm3Co8MoP6
_chemical_formula_sum   'Tm6 Co16 Mo2 P12'
_cell_volume   474.77818765
_cell_formula_units_Z   2
loop_
 _symmetry_equiv_pos_site_id
 _symmetry_equiv_pos_as_xyz
  1  'x, y, z'
loop_
 _atom_site_type_symbol
 _atom_site_label
 _atom_site_symmetry_multiplicity
 _atom_site_fract_x
 _atom_site_fract_y
 _atom_site_fract_z
 _atom_site_occupancy
  Tm  Tm0  1  0.750000  0.250000  0.475271  1
  Tm  Tm1  1  0.250000  0.750000  0.524729  1
  Tm  Tm2  1  0.250000  0.930752  0.794781  1
  Tm  Tm3  1  0.250000  0.569248  0.794781  1
  Tm  Tm4  1  0.750000  0.069248  0.205219  1
  Tm  Tm5  1  0.750000  0.430752  0.205219  1
  Co  Co6  1  0.250000  0.250000  0.299164  1
  Co  Co7  1  0.750000  0.750000  0.700836  1
  Co  Co8  1  0.750000  0.250000  0.014125  1
  Co  Co9  1  0.250000  0.750000  0.985875  1
  Co  Co10  1  0.250000  0.417468  0.010200  1
  Co  Co11  1  0.250000  0.082532  0.010200  1
  Co  Co12  1  0.750000  0.582532  0.989800  1
  Co  Co13  1  0.750000  0.917468  0.989800  1
  Co  Co14  1  0.250000  0.454012  0.568381  1
  Co  Co15  1  0.250000  0.045988  0.568381  1
  Co  Co16  1  0.750000  0.545988  0.431619  1
  Co  Co17  1  0.750000  0.954012  0.431619  1
  Co  Co18  1  0.250000  0.872626  0.293434  1
  Co  Co19  1  0.250000  0.627374  0.293434  1
  Co  Co20  1  0.750000  0.127374  0.706566  1
  Co  Co21  1  0.750000  0.372626  0.706566  1
  Mo  Mo22  1  0.250000  0.250000  0.843376  1
  Mo  Mo23  1  0.750000  0.750000  0.156624  1
  P  P24  1  0.250000  0.250000  0.120193  1
  P  P25  1  0.750000  0.750000  0.879807  1
  P  P26  1  0.250000  0.250000  0.649507  1
  P  P27  1  0.750000  0.750000  0.350493  1
  P  P28  1  0.250000  0.437629  0.383642  1
  P  P29  1  0.250000  0.062371  0.383642  1
  P  P30  1  0.750000  0.562371  0.616358  1
  P  P31  1  0.750000  0.937629  0.616358  1
  P  P32  1  0.250000  0.905981  0.107649  1
  P  P33  1  0.250000  0.594019  0.107649  1
  P  P34  1  0.750000  0.094019  0.892351  1
  P  P35  1  0.750000  0.405981  0.892351  1
