# generated using pymatgen
data_LuSc9In8(RuPt)2
_symmetry_space_group_name_H-M   'P 1'
_cell_length_a   3.40109800
_cell_length_b   7.76205680
_cell_length_c   17.72147124
_cell_angle_alpha   89.90130451
_cell_angle_beta   90.00000000
_cell_angle_gamma   90.00000000
_symmetry_Int_Tables_number   1
_chemical_formula_structural   LuSc9In8(RuPt)2
_chemical_formula_sum   'Lu1 Sc9 In8 Ru2 Pt2'
_cell_volume   467.83756675
_cell_formula_units_Z   1
loop_
 _symmetry_equiv_pos_site_id
 _symmetry_equiv_pos_as_xyz
  1  'x, y, z'
loop_
 _atom_site_type_symbol
 _atom_site_label
 _atom_site_symmetry_multiplicity
 _atom_site_fract_x
 _atom_site_fract_y
 _atom_site_fract_z
 _atom_site_occupancy
  Lu  Lu0  1  0.000000  0.750506  0.280426  1
  Sc  Sc1  1  0.000000  0.116765  0.413001  1
  Sc  Sc2  1  0.000000  0.884011  0.587556  1
  Sc  Sc3  1  0.000000  0.380800  0.914954  1
  Sc  Sc4  1  0.000000  0.619133  0.084389  1
  Sc  Sc5  1  0.000000  0.235678  0.222834  1
  Sc  Sc6  1  0.000000  0.764111  0.777175  1
  Sc  Sc7  1  0.000000  0.245979  0.719821  1
  Sc  Sc8  1  0.000000  0.000090  0.999836  1
  Sc  Sc9  1  0.000000  0.500059  0.499967  1
  In  In10  1  0.500000  0.420301  0.353155  1
  In  In11  1  0.500000  0.577214  0.647265  1
  In  In12  1  0.500000  0.072033  0.851242  1
  In  In13  1  0.500000  0.929915  0.147462  1
  In  In14  1  0.500000  0.291656  0.064430  1
  In  In15  1  0.500000  0.708210  0.935152  1
  In  In16  1  0.500000  0.206796  0.566566  1
  In  In17  1  0.500000  0.794247  0.435138  1
  Ru  Ru18  1  0.500000  0.030732  0.304622  1
  Ru  Ru19  1  0.500000  0.974100  0.695732  1
  Pt  Pt20  1  0.500000  0.473462  0.804251  1
  Pt  Pt21  1  0.500000  0.524201  0.195025  1
