# generated using pymatgen
data_Dy4Cd3Co2
_symmetry_space_group_name_H-M   'P 1'
_cell_length_a   3.68783600
_cell_length_b   7.37987548
_cell_length_c   7.95454921
_cell_angle_alpha   70.86227931
_cell_angle_beta   90.00000000
_cell_angle_gamma   90.00000000
_symmetry_Int_Tables_number   1
_chemical_formula_structural   Dy4Cd3Co2
_chemical_formula_sum   'Dy4 Cd3 Co2'
_cell_volume   204.52453895
_cell_formula_units_Z   1
loop_
 _symmetry_equiv_pos_site_id
 _symmetry_equiv_pos_as_xyz
  1  'x, y, z'
loop_
 _atom_site_type_symbol
 _atom_site_label
 _atom_site_symmetry_multiplicity
 _atom_site_fract_x
 _atom_site_fract_y
 _atom_site_fract_z
 _atom_site_occupancy
  Dy  Dy0  1  0.500000  0.905233  0.223929  1
  Dy  Dy1  1  0.500000  0.094767  0.776071  1
  Dy  Dy2  1  0.500000  0.397439  0.311501  1
  Dy  Dy3  1  0.500000  0.602561  0.688499  1
  Cd  Cd4  1  0.000000  0.705535  0.001873  1
  Cd  Cd5  1  0.000000  0.294465  0.998127  1
  Cd  Cd6  1  0.000000  0.000000  0.500000  1
  Co  Co7  1  0.000000  0.648201  0.396602  1
  Co  Co8  1  0.000000  0.351799  0.603398  1
