# generated using pymatgen
data_La6Pr2Cd2PdRu
_symmetry_space_group_name_H-M   'P 1'
_cell_length_a   10.11177778
_cell_length_b   10.10804095
_cell_length_c   10.19454895
_cell_angle_alpha   59.73509121
_cell_angle_beta   59.69510552
_cell_angle_gamma   59.74835727
_symmetry_Int_Tables_number   1
_chemical_formula_structural   La6Pr2Cd2PdRu
_chemical_formula_sum   'La12 Pr4 Cd4 Pd2 Ru2'
_cell_volume   732.21420544
_cell_formula_units_Z   2
loop_
 _symmetry_equiv_pos_site_id
 _symmetry_equiv_pos_as_xyz
  1  'x, y, z'
loop_
 _atom_site_type_symbol
 _atom_site_label
 _atom_site_symmetry_multiplicity
 _atom_site_fract_x
 _atom_site_fract_y
 _atom_site_fract_z
 _atom_site_occupancy
  La  La0  1  0.347225  0.346757  0.356765  1
  La  La1  1  0.346760  0.347196  0.949246  1
  La  La2  1  0.342833  0.956945  0.350308  1
  La  La3  1  0.956944  0.342836  0.349909  1
  La  La4  1  0.817131  0.190051  0.190984  1
  La  La5  1  0.190042  0.817140  0.801849  1
  La  La6  1  0.189929  0.817386  0.190766  1
  La  La7  1  0.817370  0.189935  0.801936  1
  La  La8  1  0.188883  0.188881  0.811119  1
  La  La9  1  0.805796  0.805778  0.194221  1
  La  La10  1  0.936310  0.559004  0.566030  1
  La  La11  1  0.558996  0.936329  0.938637  1
  Pr  Pr12  1  0.559509  0.936432  0.565704  1
  Pr  Pr13  1  0.936418  0.559506  0.938357  1
  Pr  Pr14  1  0.562941  0.562918  0.937077  1
  Pr  Pr15  1  0.937430  0.937415  0.562576  1
  Cd  Cd16  1  0.579571  0.579830  0.579797  1
  Cd  Cd17  1  0.579836  0.579566  0.260796  1
  Cd  Cd18  1  0.580936  0.258991  0.579888  1
  Cd  Cd19  1  0.258988  0.580937  0.580181  1
  Pd  Pd20  1  0.146541  0.573626  0.139844  1
  Pd  Pd21  1  0.573629  0.146539  0.139988  1
  Ru  Ru22  1  0.143310  0.142668  0.137067  1
  Ru  Ru23  1  0.142667  0.143327  0.576954  1
