# generated using pymatgen
data_Tb2YMoO7
_symmetry_space_group_name_H-M   'P 1'
_cell_length_a   6.49852705
_cell_length_b   6.49852765
_cell_length_c   7.50341510
_cell_angle_alpha   89.98888894
_cell_angle_beta   89.98888713
_cell_angle_gamma   108.83042372
_symmetry_Int_Tables_number   1
_chemical_formula_structural   Tb2YMoO7
_chemical_formula_sum   'Tb4 Y2 Mo2 O14'
_cell_volume   299.91582222
_cell_formula_units_Z   2
loop_
 _symmetry_equiv_pos_site_id
 _symmetry_equiv_pos_as_xyz
  1  'x, y, z'
loop_
 _atom_site_type_symbol
 _atom_site_label
 _atom_site_symmetry_multiplicity
 _atom_site_fract_x
 _atom_site_fract_y
 _atom_site_fract_z
 _atom_site_occupancy
  Tb  Tb0  1  0.470097  0.470100  0.999983  1
  Tb  Tb1  1  0.529900  0.529903  0.500017  1
  Tb  Tb2  1  0.535711  0.000325  0.755010  1
  Tb  Tb3  1  0.999675  0.464289  0.744990  1
  Y  Y4  1  0.464379  0.999493  0.255809  1
  Y  Y5  1  0.000507  0.535621  0.244191  1
  Mo  Mo6  1  0.001370  0.001665  0.499741  1
  Mo  Mo7  1  0.998335  0.998630  0.000259  1
  O  O8  1  0.926888  0.073112  0.750000  1
  O  O9  1  0.636993  0.363007  0.750000  1
  O  O10  1  0.312540  0.059186  0.536229  1
  O  O11  1  0.940814  0.687460  0.963771  1
  O  O12  1  0.630891  0.369109  0.250000  1
  O  O13  1  0.917817  0.674619  0.525761  1
  O  O14  1  0.325381  0.082183  0.974239  1
  O  O15  1  0.082508  0.326799  0.026172  1
  O  O16  1  0.673201  0.917492  0.473828  1
  O  O17  1  0.369626  0.630374  0.750000  1
  O  O18  1  0.689054  0.941133  0.036733  1
  O  O19  1  0.058867  0.310946  0.463267  1
  O  O20  1  0.362315  0.637685  0.250000  1
  O  O21  1  0.073132  0.926868  0.250000  1
