# generated using pymatgen
data_Er12InSi4Tc
_symmetry_space_group_name_H-M   'P 1'
_cell_length_a   8.38855304
_cell_length_b   8.38855292
_cell_length_c   8.38855300
_cell_angle_alpha   111.88556671
_cell_angle_beta   111.92878036
_cell_angle_gamma   104.70201395
_symmetry_Int_Tables_number   1
_chemical_formula_structural   Er12InSi4Tc
_chemical_formula_sum   'Er12 In1 Si4 Tc1'
_cell_volume   452.06575318
_cell_formula_units_Z   1
loop_
 _symmetry_equiv_pos_site_id
 _symmetry_equiv_pos_as_xyz
  1  'x, y, z'
loop_
 _atom_site_type_symbol
 _atom_site_label
 _atom_site_symmetry_multiplicity
 _atom_site_fract_x
 _atom_site_fract_y
 _atom_site_fract_z
 _atom_site_occupancy
  Er  Er0  1  0.176661  0.266432  0.443093  1
  Er  Er1  1  0.823339  0.733568  0.556907  1
  Er  Er2  1  0.176661  0.733568  0.910228  1
  Er  Er3  1  0.823339  0.266432  0.089772  1
  Er  Er4  1  0.317935  0.614568  0.296633  1
  Er  Er5  1  0.682065  0.385432  0.703367  1
  Er  Er6  1  0.317938  0.021305  0.703367  1
  Er  Er7  1  0.682062  0.978695  0.296633  1
  Er  Er8  1  0.425979  0.232810  0.193169  1
  Er  Er9  1  0.574021  0.767190  0.806831  1
  Er  Er10  1  0.039641  0.232810  0.806831  1
  Er  Er11  1  0.960359  0.767190  0.193169  1
  In  In12  1  0.500000  0.500000  0.000000  1
  Si  Si13  1  0.117855  0.617855  0.500000  1
  Si  Si14  1  0.882145  0.382145  0.500000  1
  Si  Si15  1  0.362150  0.000000  0.362150  1
  Si  Si16  1  0.637850  0.000000  0.637850  1
  Tc  Tc17  1  0.000000  0.000000  0.000000  1
