# generated using pymatgen
data_Er3(In2Ru)2
_symmetry_space_group_name_H-M   'P 1'
_cell_length_a   8.01398500
_cell_length_b   8.01398473
_cell_length_c   3.61322800
_cell_angle_alpha   90.00000000
_cell_angle_beta   90.00000000
_cell_angle_gamma   120.00000522
_symmetry_Int_Tables_number   1
_chemical_formula_structural   Er3(In2Ru)2
_chemical_formula_sum   'Er3 In4 Ru2'
_cell_volume   200.96619595
_cell_formula_units_Z   1
loop_
 _symmetry_equiv_pos_site_id
 _symmetry_equiv_pos_as_xyz
  1  'x, y, z'
loop_
 _atom_site_type_symbol
 _atom_site_label
 _atom_site_symmetry_multiplicity
 _atom_site_fract_x
 _atom_site_fract_y
 _atom_site_fract_z
 _atom_site_occupancy
  Er  Er0  1  0.707435  0.959840  0.500000  1
  Er  Er1  1  0.252405  0.292565  0.500000  1
  Er  Er2  1  0.040160  0.747595  0.500000  1
  In  In3  1  0.933319  0.335872  0.000000  1
  In  In4  1  0.402554  0.066681  0.000000  1
  In  In5  1  0.664128  0.597446  0.000000  1
  In  In6  1  0.333333  0.666667  0.000000  1
  Ru  Ru7  1  0.666667  0.333333  0.500000  1
  Ru  Ru8  1  0.000000  0.000000  0.000000  1
