# generated using pymatgen
data_Dy5Ho14LuPb16
_symmetry_space_group_name_H-M   'P 1'
_cell_length_a   8.18068005
_cell_length_b   8.26028296
_cell_length_c   15.58944311
_cell_angle_alpha   90.00501955
_cell_angle_beta   89.98750100
_cell_angle_gamma   89.95036652
_symmetry_Int_Tables_number   1
_chemical_formula_structural   Dy5Ho14LuPb16
_chemical_formula_sum   'Dy5 Ho14 Lu1 Pb16'
_cell_volume   1053.45201603
_cell_formula_units_Z   1
loop_
 _symmetry_equiv_pos_site_id
 _symmetry_equiv_pos_as_xyz
  1  'x, y, z'
loop_
 _atom_site_type_symbol
 _atom_site_label
 _atom_site_symmetry_multiplicity
 _atom_site_fract_x
 _atom_site_fract_y
 _atom_site_fract_z
 _atom_site_occupancy
  Dy  Dy0  1  0.963876  0.823673  0.100163  1
  Dy  Dy1  1  0.463943  0.676323  0.099977  1
  Dy  Dy2  1  0.963860  0.823655  0.399851  1
  Dy  Dy3  1  0.535815  0.323950  0.600101  1
  Dy  Dy4  1  0.036315  0.176781  0.899923  1
  Ho  Ho5  1  0.376256  0.841115  0.879006  1
  Ho  Ho6  1  0.877296  0.658293  0.621066  1
  Ho  Ho7  1  0.623287  0.158707  0.379029  1
  Ho  Ho8  1  0.123341  0.341276  0.120796  1
  Ho  Ho9  1  0.623288  0.158733  0.120948  1
  Ho  Ho10  1  0.123360  0.341303  0.379240  1
  Ho  Ho11  1  0.376254  0.841108  0.620971  1
  Ho  Ho12  1  0.877255  0.658252  0.878921  1
  Ho  Ho13  1  0.535826  0.323978  0.899842  1
  Ho  Ho14  1  0.036365  0.176726  0.600130  1
  Ho  Ho15  1  0.463902  0.676291  0.399962  1
  Ho  Ho16  1  0.708404  0.995938  0.749988  1
  Ho  Ho17  1  0.791485  0.495913  0.250035  1
  Ho  Ho18  1  0.291567  0.004285  0.250012  1
  Lu  Lu19  1  0.208812  0.504460  0.749988  1
  Pb  Pb20  1  0.281150  0.033234  0.042781  1
  Pb  Pb21  1  0.780968  0.466730  0.457218  1
  Pb  Pb22  1  0.719007  0.966796  0.542971  1
  Pb  Pb23  1  0.218960  0.532929  0.956455  1
  Pb  Pb24  1  0.718829  0.966771  0.957053  1
  Pb  Pb25  1  0.218859  0.533018  0.543477  1
  Pb  Pb26  1  0.281136  0.033228  0.457284  1
  Pb  Pb27  1  0.781029  0.466561  0.042700  1
  Pb  Pb28  1  0.570752  0.625533  0.750001  1
  Pb  Pb29  1  0.072323  0.872974  0.750010  1
  Pb  Pb30  1  0.427928  0.373782  0.249992  1
  Pb  Pb31  1  0.927936  0.126378  0.250012  1
  Pb  Pb32  1  0.347267  0.155291  0.750058  1
  Pb  Pb33  1  0.847892  0.346538  0.749948  1
  Pb  Pb34  1  0.652603  0.846151  0.250069  1
  Pb  Pb35  1  0.152851  0.653322  0.250025  1
