# generated using pymatgen
data_CaTm3Zn2(Co2B)6
_symmetry_space_group_name_H-M   'P 1'
_cell_length_a   5.07215426
_cell_length_b   5.07337282
_cell_length_c   12.61854400
_cell_angle_alpha   90.00000000
_cell_angle_beta   90.00000000
_cell_angle_gamma   119.95543821
_symmetry_Int_Tables_number   1
_chemical_formula_structural   CaTm3Zn2(Co2B)6
_chemical_formula_sum   'Ca1 Tm3 Zn2 Co12 B6'
_cell_volume   281.33511841
_cell_formula_units_Z   1
loop_
 _symmetry_equiv_pos_site_id
 _symmetry_equiv_pos_as_xyz
  1  'x, y, z'
loop_
 _atom_site_type_symbol
 _atom_site_label
 _atom_site_symmetry_multiplicity
 _atom_site_fract_x
 _atom_site_fract_y
 _atom_site_fract_z
 _atom_site_occupancy
  Ca  Ca0  1  0.000000  0.000000  0.000000  1
  Tm  Tm1  1  0.000000  0.000000  0.500000  1
  Tm  Tm2  1  0.000000  0.000000  0.739752  1
  Tm  Tm3  1  0.000000  0.000000  0.260248  1
  Zn  Zn4  1  0.666655  0.333353  0.000000  1
  Zn  Zn5  1  0.333345  0.666647  0.000000  1
  Co  Co6  1  0.500000  0.500000  0.836036  1
  Co  Co7  1  0.500000  0.000000  0.835987  1
  Co  Co8  1  0.000000  0.500000  0.836005  1
  Co  Co9  1  0.500000  0.500000  0.163964  1
  Co  Co10  1  0.500000  0.000000  0.164013  1
  Co  Co11  1  0.000000  0.500000  0.163995  1
  Co  Co12  1  0.500000  0.500000  0.612795  1
  Co  Co13  1  0.500000  0.000000  0.612789  1
  Co  Co14  1  0.000000  0.500000  0.612780  1
  Co  Co15  1  0.500000  0.500000  0.387205  1
  Co  Co16  1  0.500000  0.000000  0.387211  1
  Co  Co17  1  0.000000  0.500000  0.387220  1
  B  B18  1  0.666648  0.333345  0.500000  1
  B  B19  1  0.333352  0.666655  0.500000  1
  B  B20  1  0.666641  0.333395  0.728398  1
  B  B21  1  0.333359  0.666605  0.728398  1
  B  B22  1  0.333359  0.666605  0.271602  1
  B  B23  1  0.666641  0.333395  0.271602  1
