# generated using pymatgen
data_Dy2Al3Si2Ni3
_symmetry_space_group_name_H-M   'P 1'
_cell_length_a   8.06743622
_cell_length_b   8.06743674
_cell_length_c   8.06743625
_cell_angle_alpha   138.73952369
_cell_angle_beta   102.43055209
_cell_angle_gamma   91.89251927
_symmetry_Int_Tables_number   1
_chemical_formula_structural   Dy2Al3Si2Ni3
_chemical_formula_sum   'Dy4 Al6 Si4 Ni6'
_cell_volume   322.30337669
_cell_formula_units_Z   2
loop_
 _symmetry_equiv_pos_site_id
 _symmetry_equiv_pos_as_xyz
  1  'x, y, z'
loop_
 _atom_site_type_symbol
 _atom_site_label
 _atom_site_symmetry_multiplicity
 _atom_site_fract_x
 _atom_site_fract_y
 _atom_site_fract_z
 _atom_site_occupancy
  Dy  Dy0  1  0.114679  0.868686  0.245993  1
  Dy  Dy1  1  0.885321  0.131314  0.754007  1
  Dy  Dy2  1  0.377307  0.631314  0.745993  1
  Dy  Dy3  1  0.622693  0.368686  0.254007  1
  Al  Al4  1  0.000000  0.750000  0.750000  1
  Al  Al5  1  0.000000  0.250000  0.250000  1
  Al  Al6  1  0.256092  0.006092  0.750000  1
  Al  Al7  1  0.743908  0.493908  0.750000  1
  Al  Al8  1  0.743908  0.993908  0.250000  1
  Al  Al9  1  0.256092  0.506092  0.250000  1
  Si  Si10  1  0.752288  0.606710  0.145579  1
  Si  Si11  1  0.461131  0.106710  0.354421  1
  Si  Si12  1  0.538869  0.893290  0.645579  1
  Si  Si13  1  0.247712  0.393290  0.854421  1
  Ni  Ni14  1  0.261310  0.128716  0.132593  1
  Ni  Ni15  1  0.500000  0.250000  0.750000  1
  Ni  Ni16  1  0.996123  0.628716  0.367407  1
  Ni  Ni17  1  0.003877  0.371284  0.632593  1
  Ni  Ni18  1  0.738690  0.871284  0.867407  1
  Ni  Ni19  1  0.500000  0.750000  0.250000  1
