# generated using pymatgen
data_Ho2Al(ZnPt2)2
_symmetry_space_group_name_H-M   'P 1'
_cell_length_a   8.02461722
_cell_length_b   8.02461794
_cell_length_c   7.66977800
_cell_angle_alpha   90.00000000
_cell_angle_beta   90.00000000
_cell_angle_gamma   139.30995525
_symmetry_Int_Tables_number   1
_chemical_formula_structural   Ho2Al(ZnPt2)2
_chemical_formula_sum   'Ho4 Al2 Zn4 Pt8'
_cell_volume   322.00074403
_cell_formula_units_Z   2
loop_
 _symmetry_equiv_pos_site_id
 _symmetry_equiv_pos_as_xyz
  1  'x, y, z'
loop_
 _atom_site_type_symbol
 _atom_site_label
 _atom_site_symmetry_multiplicity
 _atom_site_fract_x
 _atom_site_fract_y
 _atom_site_fract_z
 _atom_site_occupancy
  Ho  Ho0  1  0.110661  0.889339  0.407162  1
  Ho  Ho1  1  0.889339  0.110661  0.592838  1
  Ho  Ho2  1  0.389339  0.610661  0.907162  1
  Ho  Ho3  1  0.610661  0.389339  0.092838  1
  Al  Al4  1  0.000000  0.000000  0.000000  1
  Al  Al5  1  0.500000  0.500000  0.500000  1
  Zn  Zn6  1  0.022970  0.477030  0.250000  1
  Zn  Zn7  1  0.477030  0.022970  0.750000  1
  Zn  Zn8  1  0.977030  0.522970  0.750000  1
  Zn  Zn9  1  0.522970  0.977030  0.250000  1
  Pt  Pt10  1  0.196212  0.303788  0.250000  1
  Pt  Pt11  1  0.303788  0.196212  0.750000  1
  Pt  Pt12  1  0.803788  0.696212  0.750000  1
  Pt  Pt13  1  0.696212  0.803788  0.250000  1
  Pt  Pt14  1  0.175927  0.824073  0.027751  1
  Pt  Pt15  1  0.824073  0.175927  0.972249  1
  Pt  Pt16  1  0.324073  0.675927  0.527751  1
  Pt  Pt17  1  0.675927  0.324073  0.472249  1
