# generated using pymatgen
data_Hf2V3Tc
_symmetry_space_group_name_H-M   'P 1'
_cell_length_a   5.27644300
_cell_length_b   5.27644303
_cell_length_c   8.20536600
_cell_angle_alpha   90.00000000
_cell_angle_beta   90.00000000
_cell_angle_gamma   119.99999356
_symmetry_Int_Tables_number   1
_chemical_formula_structural   Hf2V3Tc
_chemical_formula_sum   'Hf4 V6 Tc2'
_cell_volume   197.83864165
_cell_formula_units_Z   2
loop_
 _symmetry_equiv_pos_site_id
 _symmetry_equiv_pos_as_xyz
  1  'x, y, z'
loop_
 _atom_site_type_symbol
 _atom_site_label
 _atom_site_symmetry_multiplicity
 _atom_site_fract_x
 _atom_site_fract_y
 _atom_site_fract_z
 _atom_site_occupancy
  Hf  Hf0  1  0.333333  0.666667  0.438167  1
  Hf  Hf1  1  0.666667  0.333333  0.561833  1
  Hf  Hf2  1  0.666667  0.333333  0.938167  1
  Hf  Hf3  1  0.333333  0.666667  0.061833  1
  V  V4  1  0.829216  0.170784  0.250000  1
  V  V5  1  0.829216  0.658432  0.250000  1
  V  V6  1  0.341568  0.170784  0.250000  1
  V  V7  1  0.170784  0.829216  0.750000  1
  V  V8  1  0.170784  0.341568  0.750000  1
  V  V9  1  0.658432  0.829216  0.750000  1
  Tc  Tc10  1  0.000000  0.000000  0.500000  1
  Tc  Tc11  1  0.000000  0.000000  0.000000  1
