# generated using pymatgen
data_YbPa7Cd3BiPt8
_symmetry_space_group_name_H-M   'P 1'
_cell_length_a   7.86417005
_cell_length_b   7.87896564
_cell_length_c   7.29467643
_cell_angle_alpha   89.98852934
_cell_angle_beta   90.04606898
_cell_angle_gamma   90.26089819
_symmetry_Int_Tables_number   1
_chemical_formula_structural   YbPa7Cd3BiPt8
_chemical_formula_sum   'Yb1 Pa7 Cd3 Bi1 Pt8'
_cell_volume   451.98444002
_cell_formula_units_Z   1
loop_
 _symmetry_equiv_pos_site_id
 _symmetry_equiv_pos_as_xyz
  1  'x, y, z'
loop_
 _atom_site_type_symbol
 _atom_site_label
 _atom_site_symmetry_multiplicity
 _atom_site_fract_x
 _atom_site_fract_y
 _atom_site_fract_z
 _atom_site_occupancy
  Yb  Yb0  1  0.178824  0.830008  0.502698  1
  Pa  Pa1  1  0.672426  0.676162  0.999074  1
  Pa  Pa2  1  0.332612  0.328940  0.499961  1
  Pa  Pa3  1  0.827005  0.168977  0.500103  1
  Pa  Pa4  1  0.664475  0.671952  0.502010  1
  Pa  Pa5  1  0.328350  0.323225  0.998753  1
  Pa  Pa6  1  0.830504  0.164099  0.998114  1
  Pa  Pa7  1  0.171278  0.832394  0.998715  1
  Cd  Cd8  1  0.494436  0.998674  0.746375  1
  Cd  Cd9  1  0.494051  0.997196  0.253957  1
  Cd  Cd10  1  0.001518  0.506389  0.746494  1
  Bi  Bi11  1  0.001337  0.505643  0.255844  1
  Pt  Pt12  1  0.863292  0.872067  0.748133  1
  Pt  Pt13  1  0.127941  0.138812  0.748684  1
  Pt  Pt14  1  0.635198  0.365692  0.754168  1
  Pt  Pt15  1  0.626829  0.360113  0.243624  1
  Pt  Pt16  1  0.382025  0.628534  0.237557  1
  Pt  Pt17  1  0.131861  0.128883  0.249250  1
  Pt  Pt18  1  0.860832  0.877230  0.253185  1
  Pt  Pt19  1  0.375207  0.625011  0.763300  1
