# generated using pymatgen
data_Ho16InAg3Ir3Rh
_symmetry_space_group_name_H-M   'P 1'
_cell_length_a   9.57202851
_cell_length_b   9.52599519
_cell_length_c   9.54102596
_cell_angle_alpha   59.78722766
_cell_angle_beta   59.89245347
_cell_angle_gamma   59.84001732
_symmetry_Int_Tables_number   1
_chemical_formula_structural   Ho16InAg3Ir3Rh
_chemical_formula_sum   'Ho16 In1 Ag3 Ir3 Rh1'
_cell_volume   612.93270405
_cell_formula_units_Z   1
loop_
 _symmetry_equiv_pos_site_id
 _symmetry_equiv_pos_as_xyz
  1  'x, y, z'
loop_
 _atom_site_type_symbol
 _atom_site_label
 _atom_site_symmetry_multiplicity
 _atom_site_fract_x
 _atom_site_fract_y
 _atom_site_fract_z
 _atom_site_occupancy
  Ho  Ho0  1  0.188831  0.181975  0.813734  1
  Ho  Ho1  1  0.600121  0.599879  0.199880  1
  Ho  Ho2  1  0.441143  0.061110  0.437030  1
  Ho  Ho3  1  0.442870  0.438539  0.059159  1
  Ho  Ho4  1  0.815461  0.181975  0.813734  1
  Ho  Ho5  1  0.188809  0.808530  0.188973  1
  Ho  Ho6  1  0.439821  0.060626  0.059733  1
  Ho  Ho7  1  0.187770  0.811870  0.812588  1
  Ho  Ho8  1  0.059432  0.438539  0.059159  1
  Ho  Ho9  1  0.813686  0.808530  0.188973  1
  Ho  Ho10  1  0.197847  0.600716  0.601144  1
  Ho  Ho11  1  0.060021  0.438159  0.441798  1
  Ho  Ho12  1  0.060718  0.061110  0.437030  1
  Ho  Ho13  1  0.814743  0.182164  0.188351  1
  Ho  Ho14  1  0.599934  0.199781  0.600350  1
  Ho  Ho15  1  0.600293  0.600716  0.601144  1
  In  In16  1  0.829285  0.512189  0.829241  1
  Ag  Ag17  1  0.831189  0.835425  0.832349  1
  Ag  Ag18  1  0.831854  0.834940  0.501352  1
  Ag  Ag19  1  0.501039  0.835425  0.832349  1
  Ir  Ir20  1  0.391006  0.824303  0.393686  1
  Ir  Ir21  1  0.389508  0.394546  0.392036  1
  Ir  Ir22  1  0.823908  0.394546  0.392036  1
  Rh  Rh23  1  0.390710  0.394409  0.824171  1
