# generated using pymatgen
data_LaNd11(Si7Br3)2
_symmetry_space_group_name_H-M   'P 1'
_cell_length_a   4.09071900
_cell_length_b   11.76474241
_cell_length_c   16.55430267
_cell_angle_alpha   90.16692214
_cell_angle_beta   90.00000000
_cell_angle_gamma   90.00000000
_symmetry_Int_Tables_number   1
_chemical_formula_structural   LaNd11(Si7Br3)2
_chemical_formula_sum   'La1 Nd11 Si14 Br6'
_cell_volume   796.69321545
_cell_formula_units_Z   1
loop_
 _symmetry_equiv_pos_site_id
 _symmetry_equiv_pos_as_xyz
  1  'x, y, z'
loop_
 _atom_site_type_symbol
 _atom_site_label
 _atom_site_symmetry_multiplicity
 _atom_site_fract_x
 _atom_site_fract_y
 _atom_site_fract_z
 _atom_site_occupancy
  La  La0  1  0.000000  0.936087  0.379187  1
  Nd  Nd1  1  0.500000  0.342828  0.499966  1
  Nd  Nd2  1  0.000000  0.657469  0.000264  1
  Nd  Nd3  1  0.500000  0.359049  0.756993  1
  Nd  Nd4  1  0.000000  0.640895  0.743310  1
  Nd  Nd5  1  0.500000  0.359544  0.242413  1
  Nd  Nd6  1  0.000000  0.640182  0.257070  1
  Nd  Nd7  1  0.500000  0.066002  0.880438  1
  Nd  Nd8  1  0.000000  0.933642  0.620408  1
  Nd  Nd9  1  0.500000  0.066266  0.118856  1
  Nd  Nd10  1  0.500000  0.355878  0.999978  1
  Nd  Nd11  1  0.000000  0.642937  0.500537  1
  Si  Si12  1  0.000000  0.150783  0.999942  1
  Si  Si13  1  0.500000  0.847509  0.500702  1
  Si  Si14  1  0.500000  0.567953  0.876284  1
  Si  Si15  1  0.000000  0.431808  0.623967  1
  Si  Si16  1  0.500000  0.568197  0.123663  1
  Si  Si17  1  0.000000  0.431595  0.376131  1
  Si  Si18  1  0.000000  0.253245  0.873680  1
  Si  Si19  1  0.500000  0.746374  0.627040  1
  Si  Si20  1  0.000000  0.253188  0.126375  1
  Si  Si21  1  0.500000  0.745112  0.374278  1
  Si  Si22  1  0.000000  0.458129  0.876609  1
  Si  Si23  1  0.500000  0.541640  0.623561  1
  Si  Si24  1  0.500000  0.541124  0.376745  1
  Si  Si25  1  0.000000  0.458269  0.123262  1
  Br  Br26  1  0.500000  0.108568  0.693119  1
  Br  Br27  1  0.000000  0.891421  0.807265  1
  Br  Br28  1  0.000000  0.140544  0.501436  1
  Br  Br29  1  0.500000  0.861063  0.999698  1
  Br  Br30  1  0.500000  0.112045  0.305765  1
  Br  Br31  1  0.000000  0.890652  0.191059  1
