# generated using pymatgen
data_Nd4Ga3Si
_symmetry_space_group_name_H-M   'P 1'
_cell_length_a   4.13427000
_cell_length_b   6.00733128
_cell_length_c   8.34203676
_cell_angle_alpha   89.92532471
_cell_angle_beta   90.00000000
_cell_angle_gamma   90.00000000
_symmetry_Int_Tables_number   1
_chemical_formula_structural   Nd4Ga3Si
_chemical_formula_sum   'Nd4 Ga3 Si1'
_cell_volume   207.18206094
_cell_formula_units_Z   1
loop_
 _symmetry_equiv_pos_site_id
 _symmetry_equiv_pos_as_xyz
  1  'x, y, z'
loop_
 _atom_site_type_symbol
 _atom_site_label
 _atom_site_symmetry_multiplicity
 _atom_site_fract_x
 _atom_site_fract_y
 _atom_site_fract_z
 _atom_site_occupancy
  Nd  Nd0  1  0.250000  0.385466  0.679893  1
  Nd  Nd1  1  0.750000  0.616913  0.318107  1
  Nd  Nd2  1  0.750000  0.883316  0.823482  1
  Nd  Nd3  1  0.250000  0.111920  0.178157  1
  Ga  Ga4  1  0.250000  0.875123  0.534033  1
  Ga  Ga5  1  0.750000  0.126294  0.465417  1
  Ga  Ga6  1  0.750000  0.377773  0.966252  1
  Si  Si7  1  0.250000  0.623195  0.034660  1
