# generated using pymatgen
data_Ho3FeCo3
_symmetry_space_group_name_H-M   'P 1'
_cell_length_a   5.46752885
_cell_length_b   5.46752775
_cell_length_c   12.72912800
_cell_angle_alpha   90.00000000
_cell_angle_beta   90.00000000
_cell_angle_gamma   137.87456002
_symmetry_Int_Tables_number   1
_chemical_formula_structural   Ho3FeCo3
_chemical_formula_sum   'Ho6 Fe2 Co6'
_cell_volume   255.23797970
_cell_formula_units_Z   2
loop_
 _symmetry_equiv_pos_site_id
 _symmetry_equiv_pos_as_xyz
  1  'x, y, z'
loop_
 _atom_site_type_symbol
 _atom_site_label
 _atom_site_symmetry_multiplicity
 _atom_site_fract_x
 _atom_site_fract_y
 _atom_site_fract_z
 _atom_site_occupancy
  Ho  Ho0  1  0.001962  0.998038  0.250000  1
  Ho  Ho1  1  0.998038  0.001962  0.750000  1
  Ho  Ho2  1  0.711536  0.288464  0.604543  1
  Ho  Ho3  1  0.288464  0.711536  0.395457  1
  Ho  Ho4  1  0.288464  0.711536  0.104543  1
  Ho  Ho5  1  0.711536  0.288464  0.895457  1
  Fe  Fe6  1  0.000000  0.000000  0.000000  1
  Fe  Fe7  1  0.000000  0.000000  0.500000  1
  Co  Co8  1  0.697033  0.302967  0.250000  1
  Co  Co9  1  0.302967  0.697033  0.750000  1
  Co  Co10  1  0.426558  0.573442  0.589977  1
  Co  Co11  1  0.573442  0.426558  0.410023  1
  Co  Co12  1  0.573442  0.426558  0.089977  1
  Co  Co13  1  0.426558  0.573442  0.910023  1
