# generated using pymatgen
data_YbHo2Lu5(B6Ru)4
_symmetry_space_group_name_H-M   'P 1'
_cell_length_a   3.60909400
_cell_length_b   9.05449439
_cell_length_c   11.43787803
_cell_angle_alpha   89.94177822
_cell_angle_beta   90.00000000
_cell_angle_gamma   90.00000000
_symmetry_Int_Tables_number   1
_chemical_formula_structural   YbHo2Lu5(B6Ru)4
_chemical_formula_sum   'Yb1 Ho2 Lu5 B24 Ru4'
_cell_volume   373.77274900
_cell_formula_units_Z   1
loop_
 _symmetry_equiv_pos_site_id
 _symmetry_equiv_pos_as_xyz
  1  'x, y, z'
loop_
 _atom_site_type_symbol
 _atom_site_label
 _atom_site_symmetry_multiplicity
 _atom_site_fract_x
 _atom_site_fract_y
 _atom_site_fract_z
 _atom_site_occupancy
  Yb  Yb0  1  0.000000  0.322820  0.413707  1
  Ho  Ho1  1  0.000000  0.676542  0.585143  1
  Ho  Ho2  1  0.000000  0.821979  0.086231  1
  Lu  Lu3  1  0.000000  0.179087  0.914718  1
  Lu  Lu4  1  0.000000  0.944314  0.371483  1
  Lu  Lu5  1  0.000000  0.057754  0.627821  1
  Lu  Lu6  1  0.000000  0.442998  0.128818  1
  Lu  Lu7  1  0.000000  0.555725  0.872475  1
  B  B8  1  0.500000  0.554063  0.432602  1
  B  B9  1  0.500000  0.445459  0.567534  1
  B  B10  1  0.500000  0.053836  0.065896  1
  B  B11  1  0.500000  0.946479  0.932745  1
  B  B12  1  0.500000  0.749608  0.419218  1
  B  B13  1  0.500000  0.250730  0.581178  1
  B  B14  1  0.500000  0.248823  0.079759  1
  B  B15  1  0.500000  0.750589  0.919474  1
  B  B16  1  0.500000  0.792221  0.265714  1
  B  B17  1  0.500000  0.208353  0.735194  1
  B  B18  1  0.500000  0.290844  0.233675  1
  B  B19  1  0.500000  0.708499  0.766008  1
  B  B20  1  0.500000  0.630934  0.184982  1
  B  B21  1  0.500000  0.368718  0.816379  1
  B  B22  1  0.500000  0.130563  0.314694  1
  B  B23  1  0.500000  0.869595  0.684577  1
  B  B24  1  0.500000  0.982700  0.212231  1
  B  B25  1  0.500000  0.018308  0.787195  1
  B  B26  1  0.500000  0.482738  0.287051  1
  B  B27  1  0.500000  0.517056  0.713409  1
  B  B28  1  0.500000  0.604874  0.029005  1
  B  B29  1  0.500000  0.394134  0.971159  1
  B  B30  1  0.500000  0.102036  0.471868  1
  B  B31  1  0.500000  0.897011  0.528407  1
  Ru  Ru32  1  0.000000  0.639746  0.319813  1
  Ru  Ru33  1  0.000000  0.361127  0.681325  1
  Ru  Ru34  1  0.000000  0.137449  0.177944  1
  Ru  Ru35  1  0.000000  0.862287  0.820564  1
