# generated using pymatgen
data_Ca5Tb3Cd8
_symmetry_space_group_name_H-M   'P 1'
_cell_length_a   7.53085200
_cell_length_b   7.54405200
_cell_length_c   7.47101300
_cell_angle_alpha   90.00000000
_cell_angle_beta   90.00044888
_cell_angle_gamma   90.00000000
_symmetry_Int_Tables_number   1
_chemical_formula_structural   Ca5Tb3Cd8
_chemical_formula_sum   'Ca5 Tb3 Cd8'
_cell_volume   424.45170073
_cell_formula_units_Z   1
loop_
 _symmetry_equiv_pos_site_id
 _symmetry_equiv_pos_as_xyz
  1  'x, y, z'
loop_
 _atom_site_type_symbol
 _atom_site_label
 _atom_site_symmetry_multiplicity
 _atom_site_fract_x
 _atom_site_fract_y
 _atom_site_fract_z
 _atom_site_occupancy
  Ca  Ca0  1  0.749380  0.250000  0.000084  1
  Ca  Ca1  1  0.249446  0.750000  0.499917  1
  Ca  Ca2  1  0.750526  0.250000  0.500083  1
  Ca  Ca3  1  0.250566  0.750000  0.999915  1
  Ca  Ca4  1  0.249337  0.250000  0.500008  1
  Tb  Tb5  1  0.250616  0.250000  0.999998  1
  Tb  Tb6  1  0.749449  0.750000  0.000002  1
  Tb  Tb7  1  0.750610  0.750000  0.499993  1
  Cd  Cd8  1  0.999608  0.500657  0.247686  1
  Cd  Cd9  1  0.999608  0.999345  0.247686  1
  Cd  Cd10  1  0.500679  0.999583  0.250162  1
  Cd  Cd11  1  0.500679  0.500417  0.250162  1
  Cd  Cd12  1  0.500417  0.500592  0.749826  1
  Cd  Cd13  1  0.500417  0.999410  0.749826  1
  Cd  Cd14  1  0.999331  0.999505  0.752328  1
  Cd  Cd15  1  0.999331  0.500495  0.752328  1
