# generated using pymatgen
data_DyY2In3GaCu2
_symmetry_space_group_name_H-M   'P 1'
_cell_length_a   7.24517612
_cell_length_b   7.24147805
_cell_length_c   4.32519300
_cell_angle_alpha   90.00000000
_cell_angle_beta   90.00000000
_cell_angle_gamma   119.99608746
_symmetry_Int_Tables_number   1
_chemical_formula_structural   DyY2In3GaCu2
_chemical_formula_sum   'Dy1 Y2 In3 Ga1 Cu2'
_cell_volume   196.53025148
_cell_formula_units_Z   1
loop_
 _symmetry_equiv_pos_site_id
 _symmetry_equiv_pos_as_xyz
  1  'x, y, z'
loop_
 _atom_site_type_symbol
 _atom_site_label
 _atom_site_symmetry_multiplicity
 _atom_site_fract_x
 _atom_site_fract_y
 _atom_site_fract_z
 _atom_site_occupancy
  Dy  Dy0  1  0.414530  0.002765  0.500000  1
  Y  Y1  1  0.997764  0.411928  0.500000  1
  Y  Y2  1  0.587960  0.585726  0.500000  1
  In  In3  1  0.755730  0.011696  0.000000  1
  In  In4  1  0.988316  0.744209  0.000000  1
  In  In5  1  0.255828  0.243997  0.000000  1
  Ga  Ga6  1  0.333331  0.667149  0.000000  1
  Cu  Cu7  1  0.665956  0.332543  0.000000  1
  Cu  Cu8  1  0.000586  0.999986  0.500000  1
