# generated using pymatgen
data_Sm8Si(Pd5Pt7)2
_symmetry_space_group_name_H-M   'P 1'
_cell_length_a   8.42555900
_cell_length_b   8.41327300
_cell_length_c   8.44859500
_cell_angle_alpha   90.00000000
_cell_angle_beta   90.00000000
_cell_angle_gamma   90.00000000
_symmetry_Int_Tables_number   1
_chemical_formula_structural   Sm8Si(Pd5Pt7)2
_chemical_formula_sum   'Sm8 Si1 Pd10 Pt14'
_cell_volume   598.89156641
_cell_formula_units_Z   1
loop_
 _symmetry_equiv_pos_site_id
 _symmetry_equiv_pos_as_xyz
  1  'x, y, z'
loop_
 _atom_site_type_symbol
 _atom_site_label
 _atom_site_symmetry_multiplicity
 _atom_site_fract_x
 _atom_site_fract_y
 _atom_site_fract_z
 _atom_site_occupancy
  Sm  Sm0  1  0.252875  0.253109  0.253116  1
  Sm  Sm1  1  0.747125  0.746891  0.746884  1
  Sm  Sm2  1  0.747125  0.746891  0.253116  1
  Sm  Sm3  1  0.747125  0.253109  0.746884  1
  Sm  Sm4  1  0.252875  0.253109  0.746884  1
  Sm  Sm5  1  0.252875  0.746891  0.253116  1
  Sm  Sm6  1  0.252875  0.746891  0.746884  1
  Sm  Sm7  1  0.747125  0.253109  0.253116  1
  Si  Si8  1  0.000000  0.000000  0.000000  1
  Pd  Pd9  1  0.500000  0.000000  0.257958  1
  Pd  Pd10  1  0.257937  0.000000  0.500000  1
  Pd  Pd11  1  0.500000  0.000000  0.742042  1
  Pd  Pd12  1  0.742063  0.000000  0.500000  1
  Pd  Pd13  1  0.000000  0.500000  0.258218  1
  Pd  Pd14  1  0.000000  0.500000  0.741782  1
  Pd  Pd15  1  0.500000  0.252645  0.500000  1
  Pd  Pd16  1  0.500000  0.747355  0.500000  1
  Pd  Pd17  1  0.500000  0.500000  0.252641  1
  Pd  Pd18  1  0.500000  0.500000  0.747359  1
  Pt  Pt19  1  0.258072  0.500000  0.000000  1
  Pt  Pt20  1  0.741928  0.500000  0.000000  1
  Pt  Pt21  1  0.000000  0.257584  0.500000  1
  Pt  Pt22  1  0.500000  0.257574  0.000000  1
  Pt  Pt23  1  0.000000  0.742416  0.500000  1
  Pt  Pt24  1  0.500000  0.742426  0.000000  1
  Pt  Pt25  1  0.251972  0.500000  0.500000  1
  Pt  Pt26  1  0.748028  0.500000  0.500000  1
  Pt  Pt27  1  0.282344  0.000000  0.000000  1
  Pt  Pt28  1  0.717656  0.000000  0.000000  1
  Pt  Pt29  1  0.000000  0.281719  0.000000  1
  Pt  Pt30  1  0.000000  0.718281  0.000000  1
  Pt  Pt31  1  0.000000  0.000000  0.282114  1
  Pt  Pt32  1  0.000000  0.000000  0.717886  1
