# generated using pymatgen
data_Ho4As6Ir4Ru3
_symmetry_space_group_name_H-M   'P 1'
_cell_length_a   7.24762213
_cell_length_b   7.24923815
_cell_length_c   7.24923848
_cell_angle_alpha   109.47017170
_cell_angle_beta   109.47627335
_cell_angle_gamma   109.47625553
_symmetry_Int_Tables_number   1
_chemical_formula_structural   Ho4As6Ir4Ru3
_chemical_formula_sum   'Ho4 As6 Ir4 Ru3'
_cell_volume   293.16353548
_cell_formula_units_Z   1
loop_
 _symmetry_equiv_pos_site_id
 _symmetry_equiv_pos_as_xyz
  1  'x, y, z'
loop_
 _atom_site_type_symbol
 _atom_site_label
 _atom_site_symmetry_multiplicity
 _atom_site_fract_x
 _atom_site_fract_y
 _atom_site_fract_z
 _atom_site_occupancy
  Ho  Ho0  1  0.000000  0.000048  0.499921  1
  Ho  Ho1  1  0.500000  0.999933  0.000067  1
  Ho  Ho2  1  0.000000  0.500079  0.999952  1
  Ho  Ho3  1  0.500000  0.499933  0.500067  1
  As  As4  1  0.679419  0.682421  0.996998  1
  As  As5  1  0.314435  0.317377  0.997058  1
  As  As6  1  0.000000  0.678346  0.684157  1
  As  As7  1  0.000000  0.315843  0.321654  1
  As  As8  1  0.685565  0.002942  0.682623  1
  As  As9  1  0.320581  0.003002  0.317579  1
  Ir  Ir10  1  0.500000  0.250576  0.749424  1
  Ir  Ir11  1  0.500000  0.750576  0.249424  1
  Ir  Ir12  1  0.748725  0.499188  0.249537  1
  Ir  Ir13  1  0.251275  0.750463  0.500812  1
  Ru  Ru14  1  0.000000  0.999926  0.000074  1
  Ru  Ru15  1  0.250582  0.499965  0.750617  1
  Ru  Ru16  1  0.749418  0.249383  0.500035  1
