# generated using pymatgen
data_TbDy3BI5
_symmetry_space_group_name_H-M   'P 1'
_cell_length_a   9.67527111
_cell_length_b   9.67527230
_cell_length_c   8.60968343
_cell_angle_alpha   102.41165952
_cell_angle_beta   102.41165961
_cell_angle_gamma   24.53518030
_symmetry_Int_Tables_number   1
_chemical_formula_structural   TbDy3BI5
_chemical_formula_sum   'Tb1 Dy3 B1 I5'
_cell_volume   326.48010262
_cell_formula_units_Z   1
loop_
 _symmetry_equiv_pos_site_id
 _symmetry_equiv_pos_as_xyz
  1  'x, y, z'
loop_
 _atom_site_type_symbol
 _atom_site_label
 _atom_site_symmetry_multiplicity
 _atom_site_fract_x
 _atom_site_fract_y
 _atom_site_fract_z
 _atom_site_occupancy
  Tb  Tb0  1  0.636316  0.636316  0.069906  1
  Dy  Dy1  1  0.999295  0.999295  0.193009  1
  Dy  Dy2  1  0.000625  0.000625  0.806961  1
  Dy  Dy3  1  0.363949  0.363949  0.930154  1
  B  B4  1  0.499750  0.499750  0.999871  1
  I  I5  1  0.828173  0.828173  0.174325  1
  I  I6  1  0.165961  0.165961  0.343915  1
  I  I7  1  0.499989  0.499989  0.500001  1
  I  I8  1  0.834023  0.834023  0.656732  1
  I  I9  1  0.171918  0.171918  0.825127  1
