# generated using pymatgen
data_Zr3Sn3OsRh2
_symmetry_space_group_name_H-M   'P 1'
_cell_length_a   7.58685200
_cell_length_b   7.58685151
_cell_length_c   6.97291900
_cell_angle_alpha   90.00000000
_cell_angle_beta   90.00000000
_cell_angle_gamma   120.00000214
_symmetry_Int_Tables_number   1
_chemical_formula_structural   Zr3Sn3OsRh2
_chemical_formula_sum   'Zr6 Sn6 Os2 Rh4'
_cell_volume   347.59093273
_cell_formula_units_Z   2
loop_
 _symmetry_equiv_pos_site_id
 _symmetry_equiv_pos_as_xyz
  1  'x, y, z'
loop_
 _atom_site_type_symbol
 _atom_site_label
 _atom_site_symmetry_multiplicity
 _atom_site_fract_x
 _atom_site_fract_y
 _atom_site_fract_z
 _atom_site_occupancy
  Zr  Zr0  1  0.609105  0.005522  0.750000  1
  Zr  Zr1  1  0.396417  0.390895  0.750000  1
  Zr  Zr2  1  0.994478  0.603583  0.750000  1
  Zr  Zr3  1  0.613890  0.012326  0.250000  1
  Zr  Zr4  1  0.398436  0.386110  0.250000  1
  Zr  Zr5  1  0.987674  0.601564  0.250000  1
  Sn  Sn6  1  0.269174  0.992465  0.999756  1
  Sn  Sn7  1  0.723292  0.730826  0.500244  1
  Sn  Sn8  1  0.007535  0.276708  0.500244  1
  Sn  Sn9  1  0.007535  0.276708  0.999756  1
  Sn  Sn10  1  0.723292  0.730826  0.999756  1
  Sn  Sn11  1  0.269174  0.992465  0.500244  1
  Os  Os12  1  0.666667  0.333333  0.995852  1
  Os  Os13  1  0.666667  0.333333  0.504148  1
  Rh  Rh14  1  0.333333  0.666667  0.016454  1
  Rh  Rh15  1  0.333333  0.666667  0.483546  1
  Rh  Rh16  1  0.000000  0.000000  0.750000  1
  Rh  Rh17  1  0.000000  0.000000  0.250000  1
