# generated using pymatgen
data_Pa4Mn3
_symmetry_space_group_name_H-M   'P 1'
_cell_length_a   7.59895675
_cell_length_b   7.59895622
_cell_length_c   5.64549409
_cell_angle_alpha   76.42761480
_cell_angle_beta   76.42761876
_cell_angle_gamma   114.94073347
_symmetry_Int_Tables_number   1
_chemical_formula_structural   Pa4Mn3
_chemical_formula_sum   'Pa8 Mn6'
_cell_volume   265.95948352
_cell_formula_units_Z   2
loop_
 _symmetry_equiv_pos_site_id
 _symmetry_equiv_pos_as_xyz
  1  'x, y, z'
loop_
 _atom_site_type_symbol
 _atom_site_label
 _atom_site_symmetry_multiplicity
 _atom_site_fract_x
 _atom_site_fract_y
 _atom_site_fract_z
 _atom_site_occupancy
  Pa  Pa0  1  0.881110  0.615550  0.156579  1
  Pa  Pa1  1  0.348079  0.348079  0.288316  1
  Pa  Pa2  1  0.118890  0.384450  0.843421  1
  Pa  Pa3  1  0.384450  0.118890  0.843421  1
  Pa  Pa4  1  0.167527  0.832473  0.500000  1
  Pa  Pa5  1  0.651921  0.651921  0.711684  1
  Pa  Pa6  1  0.832473  0.167527  0.500000  1
  Pa  Pa7  1  0.615550  0.881110  0.156579  1
  Mn  Mn8  1  0.822217  0.426586  0.738933  1
  Mn  Mn9  1  0.994354  0.994354  0.254882  1
  Mn  Mn10  1  0.426586  0.822217  0.738933  1
  Mn  Mn11  1  0.573414  0.177783  0.261067  1
  Mn  Mn12  1  0.005646  0.005646  0.745118  1
  Mn  Mn13  1  0.177783  0.573414  0.261067  1
