# generated using pymatgen
data_Tb3InSn2PdPt2
_symmetry_space_group_name_H-M   'P 1'
_cell_length_a   7.70864503
_cell_length_b   7.70864412
_cell_length_c   3.87199900
_cell_angle_alpha   90.00000000
_cell_angle_beta   90.00000000
_cell_angle_gamma   120.35551269
_symmetry_Int_Tables_number   1
_chemical_formula_structural   Tb3InSn2PdPt2
_chemical_formula_sum   'Tb3 In1 Sn2 Pd1 Pt2'
_cell_volume   198.54315991
_cell_formula_units_Z   1
loop_
 _symmetry_equiv_pos_site_id
 _symmetry_equiv_pos_as_xyz
  1  'x, y, z'
loop_
 _atom_site_type_symbol
 _atom_site_label
 _atom_site_symmetry_multiplicity
 _atom_site_fract_x
 _atom_site_fract_y
 _atom_site_fract_z
 _atom_site_occupancy
  Tb  Tb0  1  0.408078  0.408078  0.500000  1
  Tb  Tb1  1  0.594385  0.997747  0.500000  1
  Tb  Tb2  1  0.997747  0.594385  0.500000  1
  In  In3  1  0.738476  0.738476  0.000000  1
  Sn  Sn4  1  0.259427  0.997628  0.000000  1
  Sn  Sn5  1  0.997628  0.259427  0.000000  1
  Pd  Pd6  1  0.005650  0.005650  0.500000  1
  Pt  Pt7  1  0.666474  0.332136  0.000000  1
  Pt  Pt8  1  0.332136  0.666474  0.000000  1
