# generated using pymatgen
data_AcPr7(TcO6)4
_symmetry_space_group_name_H-M   'P 1'
_cell_length_a   10.26263035
_cell_length_b   10.26648735
_cell_length_c   5.66083500
_cell_angle_alpha   75.19815077
_cell_angle_beta   75.25188598
_cell_angle_gamma   69.30828739
_symmetry_Int_Tables_number   1
_chemical_formula_structural   AcPr7(TcO6)4
_chemical_formula_sum   'Ac1 Pr7 Tc4 O24'
_cell_volume   530.46829122
_cell_formula_units_Z   1
loop_
 _symmetry_equiv_pos_site_id
 _symmetry_equiv_pos_as_xyz
  1  'x, y, z'
loop_
 _atom_site_type_symbol
 _atom_site_label
 _atom_site_symmetry_multiplicity
 _atom_site_fract_x
 _atom_site_fract_y
 _atom_site_fract_z
 _atom_site_occupancy
  Ac  Ac0  1  0.062760  0.290355  0.618770  1
  Pr  Pr1  1  0.936247  0.714902  0.370666  1
  Pr  Pr2  1  0.712081  0.938283  0.872856  1
  Pr  Pr3  1  0.371981  0.628615  0.250217  1
  Pr  Pr4  1  0.888939  0.108490  0.250215  1
  Pr  Pr5  1  0.111042  0.887038  0.747723  1
  Pr  Pr6  1  0.628365  0.370971  0.751537  1
  Pr  Pr7  1  0.288615  0.055916  0.124840  1
  Tc  Tc8  1  0.798006  0.506624  0.055482  1
  Tc  Tc9  1  0.505669  0.799597  0.551587  1
  Tc  Tc10  1  0.497356  0.198333  0.446434  1
  Tc  Tc11  1  0.201225  0.498200  0.946335  1
  O  O12  1  0.888283  0.923735  0.073531  1
  O  O13  1  0.922919  0.888242  0.575029  1
  O  O14  1  0.528649  0.927057  0.265357  1
  O  O15  1  0.781912  0.677520  0.131267  1
  O  O16  1  0.924081  0.533675  0.770393  1
  O  O17  1  0.675612  0.787124  0.625119  1
  O  O18  1  0.821428  0.389777  0.354029  1
  O  O19  1  0.389170  0.822818  0.849215  1
  O  O20  1  0.616207  0.542555  0.021923  1
  O  O21  1  0.313797  0.835862  0.411347  1
  O  O22  1  0.540061  0.617347  0.523356  1
  O  O23  1  0.833617  0.314750  0.919188  1
  O  O24  1  0.163293  0.688435  0.088324  1
  O  O25  1  0.460356  0.380889  0.478701  1
  O  O26  1  0.688409  0.162226  0.590901  1
  O  O27  1  0.383478  0.462737  0.977789  1
  O  O28  1  0.614189  0.175703  0.150183  1
  O  O29  1  0.179244  0.611432  0.645678  1
  O  O30  1  0.328878  0.211298  0.365897  1
  O  O31  1  0.066557  0.480286  0.223234  1
  O  O32  1  0.217362  0.323748  0.887280  1
  O  O33  1  0.472020  0.072053  0.733600  1
  O  O34  1  0.077581  0.103340  0.423141  1
  O  O35  1  0.110615  0.070066  0.928854  1
