# generated using pymatgen
data_Er5Co19(SiP3)3
_symmetry_space_group_name_H-M   'P 1'
_cell_length_a   12.02157900
_cell_length_b   12.02157942
_cell_length_c   3.67386200
_cell_angle_alpha   90.00000000
_cell_angle_beta   90.00000000
_cell_angle_gamma   120.00000161
_symmetry_Int_Tables_number   1
_chemical_formula_structural   Er5Co19(SiP3)3
_chemical_formula_sum   'Er5 Co19 Si3 P9'
_cell_volume   459.80798427
_cell_formula_units_Z   1
loop_
 _symmetry_equiv_pos_site_id
 _symmetry_equiv_pos_as_xyz
  1  'x, y, z'
loop_
 _atom_site_type_symbol
 _atom_site_label
 _atom_site_symmetry_multiplicity
 _atom_site_fract_x
 _atom_site_fract_y
 _atom_site_fract_z
 _atom_site_occupancy
  Er  Er0  1  0.333333  0.666667  0.000000  1
  Er  Er1  1  0.666667  0.333333  0.000000  1
  Er  Er2  1  0.000000  0.184872  0.500000  1
  Er  Er3  1  0.815128  0.815128  0.500000  1
  Er  Er4  1  0.184872  0.000000  0.500000  1
  Co  Co5  1  0.622467  0.824749  0.000000  1
  Co  Co6  1  0.175251  0.797718  0.000000  1
  Co  Co7  1  0.202282  0.377533  0.000000  1
  Co  Co8  1  0.377533  0.202282  0.000000  1
  Co  Co9  1  0.824749  0.622467  0.000000  1
  Co  Co10  1  0.797718  0.175251  0.000000  1
  Co  Co11  1  0.000000  0.556105  0.000000  1
  Co  Co12  1  0.443895  0.443895  0.000000  1
  Co  Co13  1  0.556105  0.000000  0.000000  1
  Co  Co14  1  0.514849  0.642242  0.500000  1
  Co  Co15  1  0.357758  0.872607  0.500000  1
  Co  Co16  1  0.127393  0.485151  0.500000  1
  Co  Co17  1  0.485151  0.127393  0.500000  1
  Co  Co18  1  0.642242  0.514849  0.500000  1
  Co  Co19  1  0.872607  0.357758  0.500000  1
  Co  Co20  1  0.000000  0.715727  0.500000  1
  Co  Co21  1  0.284273  0.284273  0.500000  1
  Co  Co22  1  0.715727  0.000000  0.500000  1
  Co  Co23  1  0.000000  0.000000  0.000000  1
  Si  Si24  1  0.000000  0.368240  0.000000  1
  Si  Si25  1  0.631760  0.631760  0.000000  1
  Si  Si26  1  0.368240  0.000000  0.000000  1
  P  P27  1  0.519757  0.834173  0.500000  1
  P  P28  1  0.165827  0.685584  0.500000  1
  P  P29  1  0.314416  0.480243  0.500000  1
  P  P30  1  0.480243  0.314416  0.500000  1
  P  P31  1  0.834173  0.519757  0.500000  1
  P  P32  1  0.685584  0.165827  0.500000  1
  P  P33  1  0.000000  0.818630  0.000000  1
  P  P34  1  0.181370  0.181370  0.000000  1
  P  P35  1  0.818630  0.000000  0.000000  1
