# generated using pymatgen
data_TmLu5Co16(TcP6)2
_symmetry_space_group_name_H-M   'P 1'
_cell_length_a   3.67679000
_cell_length_b   10.45457600
_cell_length_c   12.11317700
_cell_angle_alpha   90.00000000
_cell_angle_beta   90.00000000
_cell_angle_gamma   90.00000000
_symmetry_Int_Tables_number   1
_chemical_formula_structural   TmLu5Co16(TcP6)2
_chemical_formula_sum   'Tm1 Lu5 Co16 Tc2 P12'
_cell_volume   465.62180834
_cell_formula_units_Z   1
loop_
 _symmetry_equiv_pos_site_id
 _symmetry_equiv_pos_as_xyz
  1  'x, y, z'
loop_
 _atom_site_type_symbol
 _atom_site_label
 _atom_site_symmetry_multiplicity
 _atom_site_fract_x
 _atom_site_fract_y
 _atom_site_fract_z
 _atom_site_occupancy
  Tm  Tm0  1  0.000000  0.500000  0.526200  1
  Lu  Lu1  1  0.500000  0.000000  0.473533  1
  Lu  Lu2  1  0.500000  0.818603  0.205951  1
  Lu  Lu3  1  0.500000  0.181397  0.205951  1
  Lu  Lu4  1  0.000000  0.681536  0.794285  1
  Lu  Lu5  1  0.000000  0.318464  0.794285  1
  Co  Co6  1  0.500000  0.500000  0.702345  1
  Co  Co7  1  0.000000  0.000000  0.298201  1
  Co  Co8  1  0.000000  0.500000  0.986946  1
  Co  Co9  1  0.500000  0.000000  0.013184  1
  Co  Co10  1  0.500000  0.332097  0.988981  1
  Co  Co11  1  0.500000  0.667903  0.988981  1
  Co  Co12  1  0.000000  0.167768  0.011071  1
  Co  Co13  1  0.000000  0.832232  0.011071  1
  Co  Co14  1  0.500000  0.296582  0.431519  1
  Co  Co15  1  0.500000  0.703418  0.431519  1
  Co  Co16  1  0.000000  0.202556  0.568401  1
  Co  Co17  1  0.000000  0.797444  0.568401  1
  Co  Co18  1  0.500000  0.877804  0.706950  1
  Co  Co19  1  0.500000  0.122196  0.706950  1
  Co  Co20  1  0.000000  0.622392  0.292822  1
  Co  Co21  1  0.000000  0.377608  0.292822  1
  Tc  Tc22  1  0.500000  0.500000  0.157113  1
  Tc  Tc23  1  0.000000  0.000000  0.842537  1
  P  P24  1  0.500000  0.500000  0.879549  1
  P  P25  1  0.000000  0.000000  0.120709  1
  P  P26  1  0.500000  0.500000  0.350574  1
  P  P27  1  0.000000  0.000000  0.648748  1
  P  P28  1  0.500000  0.312807  0.617153  1
  P  P29  1  0.500000  0.687193  0.617153  1
  P  P30  1  0.000000  0.186803  0.383060  1
  P  P31  1  0.000000  0.813197  0.383060  1
  P  P32  1  0.500000  0.845530  0.891319  1
  P  P33  1  0.500000  0.154470  0.891319  1
  P  P34  1  0.000000  0.654681  0.108667  1
  P  P35  1  0.000000  0.345319  0.108667  1
