# generated using pymatgen
data_Eu2Si4NiPt3
_symmetry_space_group_name_H-M   'P 1'
_cell_length_a   4.24669600
_cell_length_b   4.24669600
_cell_length_c   9.91649200
_cell_angle_alpha   90.00000000
_cell_angle_beta   90.00000000
_cell_angle_gamma   90.00000000
_symmetry_Int_Tables_number   1
_chemical_formula_structural   Eu2Si4NiPt3
_chemical_formula_sum   'Eu2 Si4 Ni1 Pt3'
_cell_volume   178.83825024
_cell_formula_units_Z   1
loop_
 _symmetry_equiv_pos_site_id
 _symmetry_equiv_pos_as_xyz
  1  'x, y, z'
loop_
 _atom_site_type_symbol
 _atom_site_label
 _atom_site_symmetry_multiplicity
 _atom_site_fract_x
 _atom_site_fract_y
 _atom_site_fract_z
 _atom_site_occupancy
  Eu  Eu0  1  0.000000  0.500000  0.249585  1
  Eu  Eu1  1  0.500000  0.000000  0.750415  1
  Si  Si2  1  0.000000  0.000000  0.500000  1
  Si  Si3  1  0.500000  0.500000  0.500000  1
  Si  Si4  1  0.000000  0.500000  0.876785  1
  Si  Si5  1  0.500000  0.000000  0.123215  1
  Ni  Ni6  1  0.000000  0.000000  0.000000  1
  Pt  Pt7  1  0.500000  0.500000  0.000000  1
  Pt  Pt8  1  0.000000  0.500000  0.626302  1
  Pt  Pt9  1  0.500000  0.000000  0.373698  1
