# generated using pymatgen
data_LuHfReB6
_symmetry_space_group_name_H-M   'P 1'
_cell_length_a   3.55656000
_cell_length_b   8.97084600
_cell_length_c   11.30854000
_cell_angle_alpha   90.00000000
_cell_angle_beta   90.00000000
_cell_angle_gamma   90.00000000
_symmetry_Int_Tables_number   1
_chemical_formula_structural   LuHfReB6
_chemical_formula_sum   'Lu4 Hf4 Re4 B24'
_cell_volume   360.80294987
_cell_formula_units_Z   4
loop_
 _symmetry_equiv_pos_site_id
 _symmetry_equiv_pos_as_xyz
  1  'x, y, z'
loop_
 _atom_site_type_symbol
 _atom_site_label
 _atom_site_symmetry_multiplicity
 _atom_site_fract_x
 _atom_site_fract_y
 _atom_site_fract_z
 _atom_site_occupancy
  Lu  Lu0  1  0.500000  0.320907  0.413394  1
  Lu  Lu1  1  0.500000  0.679093  0.586606  1
  Lu  Lu2  1  0.500000  0.179093  0.913394  1
  Lu  Lu3  1  0.500000  0.820907  0.086606  1
  Hf  Hf4  1  0.500000  0.444634  0.126706  1
  Hf  Hf5  1  0.500000  0.555366  0.873294  1
  Hf  Hf6  1  0.500000  0.055366  0.626706  1
  Hf  Hf7  1  0.500000  0.944634  0.373294  1
  Re  Re8  1  0.500000  0.140518  0.181661  1
  Re  Re9  1  0.500000  0.859482  0.818339  1
  Re  Re10  1  0.500000  0.359482  0.681661  1
  Re  Re11  1  0.500000  0.640518  0.318339  1
  B  B12  1  0.000000  0.100929  0.472848  1
  B  B13  1  0.000000  0.899071  0.527152  1
  B  B14  1  0.000000  0.399071  0.972848  1
  B  B15  1  0.000000  0.600929  0.027152  1
  B  B16  1  0.000000  0.130398  0.317291  1
  B  B17  1  0.000000  0.869602  0.682709  1
  B  B18  1  0.000000  0.369602  0.817291  1
  B  B19  1  0.000000  0.630398  0.182709  1
  B  B20  1  0.000000  0.053481  0.066105  1
  B  B21  1  0.000000  0.946519  0.933895  1
  B  B22  1  0.000000  0.446519  0.566105  1
  B  B23  1  0.000000  0.553481  0.433895  1
  B  B24  1  0.000000  0.480924  0.287385  1
  B  B25  1  0.000000  0.519076  0.712615  1
  B  B26  1  0.000000  0.019076  0.787385  1
  B  B27  1  0.000000  0.980924  0.212615  1
  B  B28  1  0.000000  0.252418  0.080888  1
  B  B29  1  0.000000  0.747582  0.919112  1
  B  B30  1  0.000000  0.247582  0.580888  1
  B  B31  1  0.000000  0.752418  0.419112  1
  B  B32  1  0.000000  0.295073  0.236000  1
  B  B33  1  0.000000  0.704927  0.764000  1
  B  B34  1  0.000000  0.204927  0.736000  1
  B  B35  1  0.000000  0.795073  0.264000  1
