# generated using pymatgen
data_Sm2Ta3Co9P7
_symmetry_space_group_name_H-M   'P 1'
_cell_length_a   3.70625600
_cell_length_b   9.25814719
_cell_length_c   9.25814700
_cell_angle_alpha   119.99999575
_cell_angle_beta   90.00000000
_cell_angle_gamma   90.00000000
_symmetry_Int_Tables_number   1
_chemical_formula_structural   Sm2Ta3Co9P7
_chemical_formula_sum   'Sm2 Ta3 Co9 P7'
_cell_volume   275.11496664
_cell_formula_units_Z   1
loop_
 _symmetry_equiv_pos_site_id
 _symmetry_equiv_pos_as_xyz
  1  'x, y, z'
loop_
 _atom_site_type_symbol
 _atom_site_label
 _atom_site_symmetry_multiplicity
 _atom_site_fract_x
 _atom_site_fract_y
 _atom_site_fract_z
 _atom_site_occupancy
  Sm  Sm0  1  0.000000  0.666667  0.333333  1
  Sm  Sm1  1  0.500000  0.333333  0.666667  1
  Ta  Ta2  1  0.500000  0.775645  0.896956  1
  Ta  Ta3  1  0.500000  0.121311  0.224355  1
  Ta  Ta4  1  0.500000  0.103044  0.878689  1
  Co  Co5  1  0.000000  0.569356  0.938269  1
  Co  Co6  1  0.000000  0.368913  0.430644  1
  Co  Co7  1  0.000000  0.061731  0.631087  1
  Co  Co8  1  0.000000  0.878949  0.159499  1
  Co  Co9  1  0.000000  0.280551  0.121051  1
  Co  Co10  1  0.000000  0.840501  0.719449  1
  Co  Co11  1  0.500000  0.948152  0.386451  1
  Co  Co12  1  0.500000  0.438298  0.051848  1
  Co  Co13  1  0.500000  0.613549  0.561702  1
  P  P14  1  0.000000  0.000000  0.000000  1
  P  P15  1  0.500000  0.708723  0.121286  1
  P  P16  1  0.500000  0.412563  0.291277  1
  P  P17  1  0.500000  0.878714  0.587437  1
  P  P18  1  0.000000  0.584245  0.690465  1
  P  P19  1  0.000000  0.106220  0.415755  1
  P  P20  1  0.000000  0.309535  0.893780  1
