# generated using pymatgen
data_Nd2Er(AlI)2
_symmetry_space_group_name_H-M   'P 1'
_cell_length_a   9.79787238
_cell_length_b   9.79787329
_cell_length_c   11.99206787
_cell_angle_alpha   59.75797630
_cell_angle_beta   59.75797378
_cell_angle_gamma   25.17844528
_symmetry_Int_Tables_number   1
_chemical_formula_structural   Nd2Er(AlI)2
_chemical_formula_sum   'Nd4 Er2 Al4 I4'
_cell_volume   419.51596113
_cell_formula_units_Z   2
loop_
 _symmetry_equiv_pos_site_id
 _symmetry_equiv_pos_as_xyz
  1  'x, y, z'
loop_
 _atom_site_type_symbol
 _atom_site_label
 _atom_site_symmetry_multiplicity
 _atom_site_fract_x
 _atom_site_fract_y
 _atom_site_fract_z
 _atom_site_occupancy
  Nd  Nd0  1  0.754830  0.754830  0.800660  1
  Nd  Nd1  1  0.245170  0.245170  0.199340  1
  Nd  Nd2  1  0.534646  0.534646  0.311426  1
  Nd  Nd3  1  0.465354  0.465354  0.688574  1
  Er  Er4  1  0.830531  0.830531  0.392235  1
  Er  Er5  1  0.169469  0.169469  0.607765  1
  Al  Al6  1  0.925765  0.925765  0.529495  1
  Al  Al7  1  0.074235  0.074235  0.470505  1
  Al  Al8  1  0.335511  0.335511  0.580640  1
  Al  Al9  1  0.664489  0.664489  0.419360  1
  I  I10  1  0.421017  0.421017  0.177334  1
  I  I11  1  0.578983  0.578983  0.822666  1
  I  I12  1  0.860126  0.860126  0.942505  1
  I  I13  1  0.139874  0.139874  0.057495  1
