# generated using pymatgen
data_Sm4Ho4Re3B24Ru
_symmetry_space_group_name_H-M   'P 1'
_cell_length_a   3.70361300
_cell_length_b   9.20336555
_cell_length_c   11.62568103
_cell_angle_alpha   90.09443386
_cell_angle_beta   90.00000000
_cell_angle_gamma   90.00000000
_symmetry_Int_Tables_number   1
_chemical_formula_structural   Sm4Ho4Re3B24Ru
_chemical_formula_sum   'Sm4 Ho4 Re3 B24 Ru1'
_cell_volume   396.26898764
_cell_formula_units_Z   1
loop_
 _symmetry_equiv_pos_site_id
 _symmetry_equiv_pos_as_xyz
  1  'x, y, z'
loop_
 _atom_site_type_symbol
 _atom_site_label
 _atom_site_symmetry_multiplicity
 _atom_site_fract_x
 _atom_site_fract_y
 _atom_site_fract_z
 _atom_site_occupancy
  Sm  Sm0  1  0.000000  0.321970  0.414374  1
  Sm  Sm1  1  0.000000  0.677308  0.587275  1
  Sm  Sm2  1  0.000000  0.824238  0.084449  1
  Sm  Sm3  1  0.000000  0.177169  0.913812  1
  Ho  Ho4  1  0.000000  0.941867  0.369280  1
  Ho  Ho5  1  0.000000  0.056516  0.629722  1
  Ho  Ho6  1  0.000000  0.442949  0.130859  1
  Ho  Ho7  1  0.000000  0.556954  0.870530  1
  Re  Re8  1  0.000000  0.361550  0.679078  1
  Re  Re9  1  0.000000  0.139058  0.180611  1
  Re  Re10  1  0.000000  0.860849  0.819861  1
  B  B11  1  0.500000  0.554900  0.431304  1
  B  B12  1  0.500000  0.446020  0.568243  1
  B  B13  1  0.500000  0.054221  0.068126  1
  B  B14  1  0.500000  0.946035  0.931508  1
  B  B15  1  0.500000  0.748956  0.416899  1
  B  B16  1  0.500000  0.250180  0.582641  1
  B  B17  1  0.500000  0.249943  0.082931  1
  B  B18  1  0.500000  0.750848  0.917277  1
  B  B19  1  0.500000  0.790457  0.265990  1
  B  B20  1  0.500000  0.208437  0.733728  1
  B  B21  1  0.500000  0.291327  0.234376  1
  B  B22  1  0.500000  0.708293  0.766303  1
  B  B23  1  0.500000  0.630628  0.186302  1
  B  B24  1  0.500000  0.370062  0.813635  1
  B  B25  1  0.500000  0.130212  0.314476  1
  B  B26  1  0.500000  0.869516  0.685947  1
  B  B27  1  0.500000  0.983546  0.212540  1
  B  B28  1  0.500000  0.016517  0.786914  1
  B  B29  1  0.500000  0.484670  0.287619  1
  B  B30  1  0.500000  0.517086  0.712760  1
  B  B31  1  0.500000  0.599270  0.028078  1
  B  B32  1  0.500000  0.401159  0.973115  1
  B  B33  1  0.500000  0.098064  0.472199  1
  B  B34  1  0.500000  0.900099  0.527267  1
  Ru  Ru35  1  0.000000  0.639128  0.319975  1
