# generated using pymatgen
data_K3B2Pd2Pt5
_symmetry_space_group_name_H-M   'P 1'
_cell_length_a   8.43038442
_cell_length_b   8.46061088
_cell_length_c   8.43038314
_cell_angle_alpha   39.34837576
_cell_angle_beta   39.20217648
_cell_angle_gamma   39.34837249
_symmetry_Int_Tables_number   1
_chemical_formula_structural   K3B2Pd2Pt5
_chemical_formula_sum   'K3 B2 Pd2 Pt5'
_cell_volume   217.05669482
_cell_formula_units_Z   1
loop_
 _symmetry_equiv_pos_site_id
 _symmetry_equiv_pos_as_xyz
  1  'x, y, z'
loop_
 _atom_site_type_symbol
 _atom_site_label
 _atom_site_symmetry_multiplicity
 _atom_site_fract_x
 _atom_site_fract_y
 _atom_site_fract_z
 _atom_site_occupancy
  K  K0  1  0.857353  0.856797  0.857353  1
  K  K1  1  0.142600  0.142853  0.142600  1
  K  K2  1  0.998994  0.999511  0.998994  1
  B  B3  1  0.671206  0.663946  0.671206  1
  B  B4  1  0.329171  0.338817  0.329171  1
  Pd  Pd5  1  0.437360  0.933591  0.437360  1
  Pd  Pd6  1  0.503170  0.493643  0.503170  1
  Pt  Pt7  1  0.439919  0.442804  0.930075  1
  Pt  Pt8  1  0.930075  0.442804  0.439919  1
  Pt  Pt9  1  0.559097  0.065316  0.559097  1
  Pt  Pt10  1  0.560912  0.559960  0.070144  1
  Pt  Pt11  1  0.070144  0.559960  0.560912  1
