# generated using pymatgen
data_La6Tb7Er3(CdIr)4
_symmetry_space_group_name_H-M   'P 1'
_cell_length_a   9.82710219
_cell_length_b   9.83912298
_cell_length_c   9.82816825
_cell_angle_alpha   59.95845153
_cell_angle_beta   59.92276027
_cell_angle_gamma   59.96236993
_symmetry_Int_Tables_number   1
_chemical_formula_structural   La6Tb7Er3(CdIr)4
_chemical_formula_sum   'La6 Tb7 Er3 Cd4 Ir4'
_cell_volume   671.15905662
_cell_formula_units_Z   1
loop_
 _symmetry_equiv_pos_site_id
 _symmetry_equiv_pos_as_xyz
  1  'x, y, z'
loop_
 _atom_site_type_symbol
 _atom_site_label
 _atom_site_symmetry_multiplicity
 _atom_site_fract_x
 _atom_site_fract_y
 _atom_site_fract_z
 _atom_site_occupancy
  La  La0  1  0.192310  0.807034  0.807287  1
  La  La1  1  0.807251  0.193380  0.192267  1
  La  La2  1  0.807645  0.192338  0.807662  1
  La  La3  1  0.193369  0.806661  0.193348  1
  La  La4  1  0.807228  0.806905  0.192539  1
  La  La5  1  0.192488  0.193382  0.807265  1
  Tb  Tb6  1  0.596710  0.596388  0.597668  1
  Tb  Tb7  1  0.597686  0.596451  0.208513  1
  Tb  Tb8  1  0.597683  0.209217  0.596707  1
  Tb  Tb9  1  0.208515  0.597346  0.597695  1
  Tb  Tb10  1  0.063079  0.437075  0.435481  1
  Tb  Tb11  1  0.435482  0.064377  0.063059  1
  Tb  Tb12  1  0.436546  0.063447  0.436562  1
  Er  Er13  1  0.063472  0.436530  0.063499  1
  Er  Er14  1  0.436002  0.437431  0.062621  1
  Er  Er15  1  0.062659  0.063988  0.435930  1
  Cd  Cd16  1  0.828911  0.828332  0.828497  1
  Cd  Cd17  1  0.829052  0.828769  0.513805  1
  Cd  Cd18  1  0.828481  0.514252  0.828928  1
  Cd  Cd19  1  0.513816  0.828364  0.829056  1
  Ir  Ir20  1  0.391917  0.390632  0.390363  1
  Ir  Ir21  1  0.390812  0.391226  0.828516  1
  Ir  Ir22  1  0.390405  0.827040  0.391936  1
  Ir  Ir23  1  0.828479  0.389431  0.390791  1
