# generated using pymatgen
data_Ta4Be3SiW2
_symmetry_space_group_name_H-M   'P 1'
_cell_length_a   6.45823000
_cell_length_b   6.45822907
_cell_length_c   3.36386100
_cell_angle_alpha   90.00000000
_cell_angle_beta   90.00000000
_cell_angle_gamma   89.76771037
_symmetry_Int_Tables_number   1
_chemical_formula_structural   Ta4Be3SiW2
_chemical_formula_sum   'Ta4 Be3 Si1 W2'
_cell_volume   140.30121297
_cell_formula_units_Z   1
loop_
 _symmetry_equiv_pos_site_id
 _symmetry_equiv_pos_as_xyz
  1  'x, y, z'
loop_
 _atom_site_type_symbol
 _atom_site_label
 _atom_site_symmetry_multiplicity
 _atom_site_fract_x
 _atom_site_fract_y
 _atom_site_fract_z
 _atom_site_occupancy
  Ta  Ta0  1  0.678149  0.178149  0.500000  1
  Ta  Ta1  1  0.330827  0.830827  0.500000  1
  Ta  Ta2  1  0.178408  0.312984  0.500000  1
  Ta  Ta3  1  0.812984  0.678408  0.500000  1
  Be  Be4  1  0.877474  0.377474  0.000000  1
  Be  Be5  1  0.617984  0.884728  0.000000  1
  Be  Be6  1  0.384728  0.117984  0.000000  1
  Si  Si7  1  0.118236  0.618236  0.000000  1
  W  W8  1  0.503441  0.497770  0.000000  1
  W  W9  1  0.997770  0.003441  0.000000  1
