# generated using pymatgen
data_Lu4InBiAu4
_symmetry_space_group_name_H-M   'P 1'
_cell_length_a   7.95100700
_cell_length_b   7.95100700
_cell_length_c   7.27611200
_cell_angle_alpha   90.00000000
_cell_angle_beta   90.00000000
_cell_angle_gamma   90.00000000
_symmetry_Int_Tables_number   1
_chemical_formula_structural   Lu4InBiAu4
_chemical_formula_sum   'Lu8 In2 Bi2 Au8'
_cell_volume   459.98497607
_cell_formula_units_Z   2
loop_
 _symmetry_equiv_pos_site_id
 _symmetry_equiv_pos_as_xyz
  1  'x, y, z'
loop_
 _atom_site_type_symbol
 _atom_site_label
 _atom_site_symmetry_multiplicity
 _atom_site_fract_x
 _atom_site_fract_y
 _atom_site_fract_z
 _atom_site_occupancy
  Lu  Lu0  1  0.845340  0.154660  0.500000  1
  Lu  Lu1  1  0.154660  0.845340  0.500000  1
  Lu  Lu2  1  0.345340  0.345340  0.000000  1
  Lu  Lu3  1  0.654660  0.654660  0.000000  1
  Lu  Lu4  1  0.680367  0.680367  0.500000  1
  Lu  Lu5  1  0.319633  0.319633  0.500000  1
  Lu  Lu6  1  0.180368  0.819633  0.000000  1
  Lu  Lu7  1  0.819633  0.180368  0.000000  1
  In  In8  1  0.500000  0.000000  0.750000  1
  In  In9  1  0.000000  0.500000  0.250000  1
  Bi  Bi10  1  0.500000  0.000000  0.250000  1
  Bi  Bi11  1  0.000000  0.500000  0.750000  1
  Au  Au12  1  0.632372  0.376697  0.277312  1
  Au  Au13  1  0.367628  0.623303  0.277312  1
  Au  Au14  1  0.132372  0.123303  0.777312  1
  Au  Au15  1  0.867628  0.876697  0.777312  1
  Au  Au16  1  0.376697  0.632372  0.722688  1
  Au  Au17  1  0.623303  0.367628  0.722688  1
  Au  Au18  1  0.876697  0.867628  0.222688  1
  Au  Au19  1  0.123303  0.132372  0.222688  1
