# generated using pymatgen
data_Dy8HoLu(BiAu2)2
_symmetry_space_group_name_H-M   'P 1'
_cell_length_a   8.71013767
_cell_length_b   8.71013797
_cell_length_c   8.71013805
_cell_angle_alpha   124.19891565
_cell_angle_beta   124.19891983
_cell_angle_gamma   82.86916310
_symmetry_Int_Tables_number   1
_chemical_formula_structural   Dy8HoLu(BiAu2)2
_chemical_formula_sum   'Dy8 Ho1 Lu1 Bi2 Au4'
_cell_volume   433.91668739
_cell_formula_units_Z   1
loop_
 _symmetry_equiv_pos_site_id
 _symmetry_equiv_pos_as_xyz
  1  'x, y, z'
loop_
 _atom_site_type_symbol
 _atom_site_label
 _atom_site_symmetry_multiplicity
 _atom_site_fract_x
 _atom_site_fract_y
 _atom_site_fract_z
 _atom_site_occupancy
  Dy  Dy0  1  0.014418  0.515214  0.809962  1
  Dy  Dy1  1  0.705252  0.204457  0.190038  1
  Dy  Dy2  1  0.515214  0.705252  0.500795  1
  Dy  Dy3  1  0.204457  0.014418  0.499205  1
  Dy  Dy4  1  0.985582  0.484786  0.190038  1
  Dy  Dy5  1  0.294748  0.795543  0.809962  1
  Dy  Dy6  1  0.484786  0.294748  0.499205  1
  Dy  Dy7  1  0.795543  0.985582  0.500795  1
  Ho  Ho8  1  0.500000  0.500000  0.000000  1
  Lu  Lu9  1  0.000000  0.000000  0.000000  1
  Bi  Bi10  1  0.750372  0.750372  0.000000  1
  Bi  Bi11  1  0.249628  0.249628  0.000000  1
  Au  Au12  1  0.638672  0.137953  0.776625  1
  Au  Au13  1  0.361328  0.862047  0.223375  1
  Au  Au14  1  0.137953  0.361328  0.499282  1
  Au  Au15  1  0.862047  0.638672  0.500718  1
