# generated using pymatgen
data_Er4Al17Fe2SiPd4
_symmetry_space_group_name_H-M   'P 1'
_cell_length_a   7.55378241
_cell_length_b   7.55380863
_cell_length_c   9.31581000
_cell_angle_alpha   89.99837715
_cell_angle_beta   89.99869792
_cell_angle_gamma   119.96807631
_symmetry_Int_Tables_number   1
_chemical_formula_structural   Er4Al17Fe2SiPd4
_chemical_formula_sum   'Er4 Al17 Fe2 Si1 Pd4'
_cell_volume   460.49118197
_cell_formula_units_Z   1
loop_
 _symmetry_equiv_pos_site_id
 _symmetry_equiv_pos_as_xyz
  1  'x, y, z'
loop_
 _atom_site_type_symbol
 _atom_site_label
 _atom_site_symmetry_multiplicity
 _atom_site_fract_x
 _atom_site_fract_y
 _atom_site_fract_z
 _atom_site_occupancy
  Er  Er0  1  0.992191  0.669432  0.250004  1
  Er  Er1  1  0.004578  0.338290  0.750009  1
  Er  Er2  1  0.669442  0.992183  0.249998  1
  Er  Er3  1  0.338294  0.004580  0.750011  1
  Al  Al4  1  0.893191  0.893191  0.749969  1
  Al  Al5  1  0.999820  0.324537  0.077670  1
  Al  Al6  1  0.001175  0.679377  0.925981  1
  Al  Al7  1  0.001172  0.679388  0.574032  1
  Al  Al8  1  0.324517  0.999837  0.422346  1
  Al  Al9  1  0.999833  0.324516  0.422348  1
  Al  Al10  1  0.679387  0.001171  0.574030  1
  Al  Al11  1  0.679374  0.001176  0.925981  1
  Al  Al12  1  0.324536  0.999822  0.077669  1
  Al  Al13  1  0.320529  0.320531  0.557292  1
  Al  Al14  1  0.673395  0.673395  0.447784  1
  Al  Al15  1  0.673373  0.673371  0.052240  1
  Al  Al16  1  0.320565  0.320568  0.942693  1
  Al  Al17  1  0.337513  0.542788  0.250008  1
  Al  Al18  1  0.662061  0.458525  0.749999  1
  Al  Al19  1  0.542787  0.337516  0.250010  1
  Al  Al20  1  0.458527  0.662060  0.749994  1
  Fe  Fe21  1  0.999808  0.999811  0.010623  1
  Fe  Fe22  1  0.999746  0.999747  0.489313  1
  Si  Si23  1  0.109655  0.109657  0.249999  1
  Pd  Pd24  1  0.671399  0.325868  0.999951  1
  Pd  Pd25  1  0.325862  0.671395  0.999938  1
  Pd  Pd26  1  0.325869  0.671403  0.500055  1
  Pd  Pd27  1  0.671400  0.325866  0.500055  1
