# generated using pymatgen
data_Ca2La8AlSn2Ge3H2
_symmetry_space_group_name_H-M   'P 1'
_cell_length_a   9.28277005
_cell_length_b   9.28277058
_cell_length_c   9.28277000
_cell_angle_alpha   127.68304883
_cell_angle_beta   127.68305138
_cell_angle_gamma   77.13903969
_symmetry_Int_Tables_number   1
_chemical_formula_structural   Ca2La8AlSn2Ge3H2
_chemical_formula_sum   'Ca2 La8 Al1 Sn2 Ge3 H2'
_cell_volume   486.19435318
_cell_formula_units_Z   1
loop_
 _symmetry_equiv_pos_site_id
 _symmetry_equiv_pos_as_xyz
  1  'x, y, z'
loop_
 _atom_site_type_symbol
 _atom_site_label
 _atom_site_symmetry_multiplicity
 _atom_site_fract_x
 _atom_site_fract_y
 _atom_site_fract_z
 _atom_site_occupancy
  Ca  Ca0  1  0.497124  0.501150  0.998274  1
  Ca  Ca1  1  0.001150  0.997124  0.998274  1
  La  La2  1  0.520912  0.020912  0.831902  1
  La  La3  1  0.186846  0.686846  0.165731  1
  La  La4  1  0.024504  0.184376  0.501988  1
  La  La5  1  0.684376  0.524504  0.501988  1
  La  La6  1  0.478885  0.978885  0.165731  1
  La  La7  1  0.810990  0.310990  0.831902  1
  La  La8  1  0.977484  0.817613  0.501988  1
  La  La9  1  0.317613  0.477484  0.501988  1
  Al  Al10  1  0.883147  0.383147  0.266296  1
  Sn  Sn11  1  0.250477  0.250477  0.000954  1
  Sn  Sn12  1  0.750477  0.750477  0.000954  1
  Ge  Ge13  1  0.118464  0.618464  0.736927  1
  Ge  Ge14  1  0.375240  0.121245  0.496485  1
  Ge  Ge15  1  0.621245  0.875240  0.496485  1
  H  H16  1  0.250151  0.750151  0.501067  1
  H  H17  1  0.750915  0.250915  0.501067  1
