# generated using pymatgen
data_La10Ga4(IrOs)3
_symmetry_space_group_name_H-M   'P 1'
_cell_length_a   8.66148431
_cell_length_b   8.67609688
_cell_length_c   8.66145384
_cell_angle_alpha   109.61754022
_cell_angle_beta   109.29985915
_cell_angle_gamma   109.42887520
_symmetry_Int_Tables_number   1
_chemical_formula_structural   La10Ga4(IrOs)3
_chemical_formula_sum   'La10 Ga4 Ir3 Os3'
_cell_volume   501.46859798
_cell_formula_units_Z   1
loop_
 _symmetry_equiv_pos_site_id
 _symmetry_equiv_pos_as_xyz
  1  'x, y, z'
loop_
 _atom_site_type_symbol
 _atom_site_label
 _atom_site_symmetry_multiplicity
 _atom_site_fract_x
 _atom_site_fract_y
 _atom_site_fract_z
 _atom_site_occupancy
  La  La0  1  0.248880  0.686786  0.437155  1
  La  La1  1  0.750365  0.813219  0.062076  1
  La  La2  1  0.439311  0.250007  0.689325  1
  La  La3  1  0.688531  0.434431  0.248992  1
  La  La4  1  0.061621  0.750000  0.811612  1
  La  La5  1  0.814573  0.065570  0.754109  1
  La  La6  1  0.213711  0.215163  0.212468  1
  La  La7  1  0.501573  0.003389  0.287671  1
  La  La8  1  0.284285  0.496633  0.998183  1
  La  La9  1  0.997264  0.284816  0.498517  1
  Ga  Ga10  1  0.500542  0.002044  0.908893  1
  Ga  Ga11  1  0.594258  0.592056  0.593253  1
  Ga  Ga12  1  0.906847  0.497956  0.998517  1
  Ga  Ga13  1  0.001192  0.907940  0.502192  1
  Ir  Ir14  1  0.119466  0.869733  0.249411  1
  Ir  Ir15  1  0.627992  0.749997  0.377992  1
  Ir  Ir16  1  0.379674  0.630264  0.749732  1
  Os  Os17  1  0.249139  0.119594  0.868652  1
  Os  Os18  1  0.749077  0.380391  0.629545  1
  Os  Os19  1  0.871697  0.250013  0.121705  1
