# generated using pymatgen
data_TbNdB6Os
_symmetry_space_group_name_H-M   'P 1'
_cell_length_a   3.71810100
_cell_length_b   9.26677000
_cell_length_c   11.68526400
_cell_angle_alpha   90.00000000
_cell_angle_beta   90.00000000
_cell_angle_gamma   90.00000000
_symmetry_Int_Tables_number   1
_chemical_formula_structural   TbNdB6Os
_chemical_formula_sum   'Tb4 Nd4 B24 Os4'
_cell_volume   402.61327987
_cell_formula_units_Z   4
loop_
 _symmetry_equiv_pos_site_id
 _symmetry_equiv_pos_as_xyz
  1  'x, y, z'
loop_
 _atom_site_type_symbol
 _atom_site_label
 _atom_site_symmetry_multiplicity
 _atom_site_fract_x
 _atom_site_fract_y
 _atom_site_fract_z
 _atom_site_occupancy
  Tb  Tb0  1  0.000000  0.944080  0.372018  1
  Tb  Tb1  1  0.000000  0.055920  0.627982  1
  Tb  Tb2  1  0.000000  0.444080  0.127982  1
  Tb  Tb3  1  0.000000  0.555920  0.872018  1
  Nd  Nd4  1  0.000000  0.322893  0.414264  1
  Nd  Nd5  1  0.000000  0.677107  0.585736  1
  Nd  Nd6  1  0.000000  0.822893  0.085736  1
  Nd  Nd7  1  0.000000  0.177107  0.914264  1
  B  B8  1  0.500000  0.556186  0.430414  1
  B  B9  1  0.500000  0.443814  0.569586  1
  B  B10  1  0.500000  0.056186  0.069586  1
  B  B11  1  0.500000  0.943814  0.930414  1
  B  B12  1  0.500000  0.748613  0.417293  1
  B  B13  1  0.500000  0.251387  0.582707  1
  B  B14  1  0.500000  0.248613  0.082707  1
  B  B15  1  0.500000  0.751387  0.917293  1
  B  B16  1  0.500000  0.789867  0.266886  1
  B  B17  1  0.500000  0.210133  0.733114  1
  B  B18  1  0.500000  0.289867  0.233114  1
  B  B19  1  0.500000  0.710133  0.766886  1
  B  B20  1  0.500000  0.631326  0.185762  1
  B  B21  1  0.500000  0.368674  0.814238  1
  B  B22  1  0.500000  0.131326  0.314238  1
  B  B23  1  0.500000  0.868674  0.685762  1
  B  B24  1  0.500000  0.986264  0.213646  1
  B  B25  1  0.500000  0.013736  0.786354  1
  B  B26  1  0.500000  0.486264  0.286354  1
  B  B27  1  0.500000  0.513736  0.713646  1
  B  B28  1  0.500000  0.604159  0.028578  1
  B  B29  1  0.500000  0.395841  0.971422  1
  B  B30  1  0.500000  0.104159  0.471422  1
  B  B31  1  0.500000  0.895841  0.528578  1
  Os  Os32  1  0.000000  0.638781  0.320049  1
  Os  Os33  1  0.000000  0.361219  0.679951  1
  Os  Os34  1  0.000000  0.138781  0.179951  1
  Os  Os35  1  0.000000  0.861219  0.820049  1
