# generated using pymatgen
data_Ca10Pd3Rh
_symmetry_space_group_name_H-M   'P 1'
_cell_length_a   6.64488099
_cell_length_b   7.67065990
_cell_length_c   8.86500710
_cell_angle_alpha   96.89710911
_cell_angle_beta   111.77413223
_cell_angle_gamma   89.81473773
_symmetry_Int_Tables_number   1
_chemical_formula_structural   Ca10Pd3Rh
_chemical_formula_sum   'Ca10 Pd3 Rh1'
_cell_volume   416.16155790
_cell_formula_units_Z   1
loop_
 _symmetry_equiv_pos_site_id
 _symmetry_equiv_pos_as_xyz
  1  'x, y, z'
loop_
 _atom_site_type_symbol
 _atom_site_label
 _atom_site_symmetry_multiplicity
 _atom_site_fract_x
 _atom_site_fract_y
 _atom_site_fract_z
 _atom_site_occupancy
  Ca  Ca0  1  0.426966  0.746065  0.003646  1
  Ca  Ca1  1  0.582675  0.256926  0.003733  1
  Ca  Ca2  1  0.196845  0.421669  0.183083  1
  Ca  Ca3  1  0.976523  0.911796  0.183138  1
  Ca  Ca4  1  0.639654  0.813997  0.431284  1
  Ca  Ca5  1  0.797200  0.325096  0.430906  1
  Ca  Ca6  1  0.196811  0.679279  0.559431  1
  Ca  Ca7  1  0.363532  0.181107  0.564414  1
  Ca  Ca8  1  0.797685  0.580741  0.822309  1
  Ca  Ca9  1  0.021386  0.081460  0.818576  1
  Pd  Pd10  1  0.401814  0.080134  0.219981  1
  Pd  Pd11  1  0.595697  0.920556  0.779166  1
  Pd  Pd12  1  0.183194  0.419406  0.779346  1
  Rh  Rh13  1  0.820022  0.581771  0.220989  1
