# generated using pymatgen
data_TbCe(Al3Rh)3
_symmetry_space_group_name_H-M   'P 1'
_cell_length_a   7.59212669
_cell_length_b   7.58940189
_cell_length_c   9.47111700
_cell_angle_alpha   90.00000000
_cell_angle_beta   90.00000000
_cell_angle_gamma   119.43670825
_symmetry_Int_Tables_number   1
_chemical_formula_structural   TbCe(Al3Rh)3
_chemical_formula_sum   'Tb2 Ce2 Al18 Rh6'
_cell_volume   475.26961653
_cell_formula_units_Z   2
loop_
 _symmetry_equiv_pos_site_id
 _symmetry_equiv_pos_as_xyz
  1  'x, y, z'
loop_
 _atom_site_type_symbol
 _atom_site_label
 _atom_site_symmetry_multiplicity
 _atom_site_fract_x
 _atom_site_fract_y
 _atom_site_fract_z
 _atom_site_occupancy
  Tb  Tb0  1  0.995098  0.671827  0.250000  1
  Tb  Tb1  1  0.004902  0.328173  0.750000  1
  Ce  Ce2  1  0.672076  0.996227  0.250000  1
  Ce  Ce3  1  0.327924  0.003773  0.750000  1
  Al  Al4  1  0.002222  0.337553  0.075280  1
  Al  Al5  1  0.997778  0.662447  0.924720  1
  Al  Al6  1  0.997778  0.662447  0.575280  1
  Al  Al7  1  0.334196  0.000822  0.422376  1
  Al  Al8  1  0.002222  0.337553  0.424720  1
  Al  Al9  1  0.665804  0.999178  0.577624  1
  Al  Al10  1  0.665804  0.999178  0.922376  1
  Al  Al11  1  0.334196  0.000822  0.077624  1
  Al  Al12  1  0.332743  0.334049  0.549759  1
  Al  Al13  1  0.667257  0.665951  0.450241  1
  Al  Al14  1  0.667257  0.665951  0.049759  1
  Al  Al15  1  0.332743  0.334049  0.950241  1
  Al  Al16  1  0.129049  0.129455  0.250000  1
  Al  Al17  1  0.870951  0.870545  0.750000  1
  Al  Al18  1  0.339895  0.549381  0.250000  1
  Al  Al19  1  0.660105  0.450619  0.750000  1
  Al  Al20  1  0.550264  0.343201  0.250000  1
  Al  Al21  1  0.449736  0.656799  0.750000  1
  Rh  Rh22  1  0.671243  0.327564  0.000199  1
  Rh  Rh23  1  0.328757  0.672436  0.999801  1
  Rh  Rh24  1  0.328757  0.672436  0.500199  1
  Rh  Rh25  1  0.671243  0.327564  0.499801  1
  Rh  Rh26  1  0.000000  0.000000  0.000000  1
  Rh  Rh27  1  0.000000  0.000000  0.500000  1
