# generated using pymatgen
data_Tb3In3CuAgHg
_symmetry_space_group_name_H-M   'P 1'
_cell_length_a   7.77005977
_cell_length_b   7.76976252
_cell_length_c   4.03794400
_cell_angle_alpha   90.00000000
_cell_angle_beta   90.00000000
_cell_angle_gamma   120.00106288
_symmetry_Int_Tables_number   1
_chemical_formula_structural   Tb3In3CuAgHg
_chemical_formula_sum   'Tb3 In3 Cu1 Ag1 Hg1'
_cell_volume   211.11465236
_cell_formula_units_Z   1
loop_
 _symmetry_equiv_pos_site_id
 _symmetry_equiv_pos_as_xyz
  1  'x, y, z'
loop_
 _atom_site_type_symbol
 _atom_site_label
 _atom_site_symmetry_multiplicity
 _atom_site_fract_x
 _atom_site_fract_y
 _atom_site_fract_z
 _atom_site_occupancy
  Tb  Tb0  1  0.995325  0.596599  0.500000  1
  Tb  Tb1  1  0.403381  0.398721  0.500000  1
  Tb  Tb2  1  0.601323  0.004653  0.500000  1
  In  In3  1  0.757210  0.751197  0.000000  1
  In  In4  1  0.994142  0.243073  0.000000  1
  In  In5  1  0.248790  0.005819  0.000000  1
  Cu  Cu6  1  0.999865  0.999934  0.500000  1
  Ag  Ag7  1  0.666559  0.333300  0.000000  1
  Hg  Hg8  1  0.333404  0.666702  0.000000  1
