# generated using pymatgen
data_Nb6Fe6Si11P
_symmetry_space_group_name_H-M   'P 1'
_cell_length_a   9.45799214
_cell_length_b   9.45076026
_cell_length_c   9.45075997
_cell_angle_alpha   148.81859126
_cell_angle_beta   132.90720078
_cell_angle_gamma   57.55731348
_symmetry_Int_Tables_number   1
_chemical_formula_structural   Nb6Fe6Si11P
_chemical_formula_sum   'Nb6 Fe6 Si11 P1'
_cell_volume   317.99145311
_cell_formula_units_Z   1
loop_
 _symmetry_equiv_pos_site_id
 _symmetry_equiv_pos_as_xyz
  1  'x, y, z'
loop_
 _atom_site_type_symbol
 _atom_site_label
 _atom_site_symmetry_multiplicity
 _atom_site_fract_x
 _atom_site_fract_y
 _atom_site_fract_z
 _atom_site_occupancy
  Nb  Nb0  1  0.845909  0.593747  0.252163  1
  Nb  Nb1  1  0.150404  0.406739  0.743663  1
  Nb  Nb2  1  0.663014  0.405330  0.257684  1
  Nb  Nb3  1  0.341247  0.594193  0.747054  1
  Nb  Nb4  1  0.139703  0.139788  0.999915  1
  Nb  Nb5  1  0.862288  0.862034  0.000253  1
  Fe  Fe6  1  0.747888  0.001018  0.746870  1
  Fe  Fe7  1  0.997869  0.000935  0.499774  1
  Fe  Fe8  1  0.499863  0.495367  0.500176  1
  Fe  Fe9  1  0.499863  0.999686  0.004496  1
  Fe  Fe10  1  0.257776  0.003764  0.254011  1
  Fe  Fe11  1  0.997869  0.498095  0.996934  1
  Si  Si12  1  0.516881  0.861152  0.655729  1
  Si  Si13  1  0.206905  0.861861  0.345045  1
  Si  Si14  1  0.786736  0.137764  0.648971  1
  Si  Si15  1  0.708109  0.704436  0.003673  1
  Si  Si16  1  0.296423  0.296584  0.999840  1
  Si  Si17  1  0.499317  0.735872  0.239951  1
  Si  Si18  1  0.499317  0.259366  0.763445  1
  Si  Si19  1  0.000928  0.260878  0.259832  1
  Si  Si20  1  0.210117  0.711515  0.498602  1
  Si  Si21  1  0.000928  0.741095  0.740050  1
  Si  Si22  1  0.792141  0.290441  0.501700  1
  P  P23  1  0.478510  0.138338  0.340171  1
