# generated using pymatgen
data_Y2Sc2ReB12Rh
_symmetry_space_group_name_H-M   'P 1'
_cell_length_a   3.58647500
_cell_length_b   8.99434690
_cell_length_c   11.39244245
_cell_angle_alpha   90.13112682
_cell_angle_beta   90.00000000
_cell_angle_gamma   90.00000000
_symmetry_Int_Tables_number   1
_chemical_formula_structural   Y2Sc2ReB12Rh
_chemical_formula_sum   'Y4 Sc4 Re2 B24 Rh2'
_cell_volume   367.49644935
_cell_formula_units_Z   2
loop_
 _symmetry_equiv_pos_site_id
 _symmetry_equiv_pos_as_xyz
  1  'x, y, z'
loop_
 _atom_site_type_symbol
 _atom_site_label
 _atom_site_symmetry_multiplicity
 _atom_site_fract_x
 _atom_site_fract_y
 _atom_site_fract_z
 _atom_site_occupancy
  Y  Y0  1  0.000000  0.317439  0.412469  1
  Y  Y1  1  0.000000  0.682561  0.587531  1
  Y  Y2  1  0.000000  0.822659  0.083387  1
  Y  Y3  1  0.000000  0.177341  0.916613  1
  Sc  Sc4  1  0.000000  0.948221  0.372718  1
  Sc  Sc5  1  0.000000  0.051779  0.627282  1
  Sc  Sc6  1  0.000000  0.442587  0.125657  1
  Sc  Sc7  1  0.000000  0.557413  0.874343  1
  Re  Re8  1  0.000000  0.141233  0.182431  1
  Re  Re9  1  0.000000  0.858767  0.817569  1
  B  B10  1  0.500000  0.555583  0.433424  1
  B  B11  1  0.500000  0.444417  0.566576  1
  B  B12  1  0.500000  0.054569  0.067542  1
  B  B13  1  0.500000  0.945431  0.932458  1
  B  B14  1  0.500000  0.754606  0.419305  1
  B  B15  1  0.500000  0.245394  0.580695  1
  B  B16  1  0.500000  0.253487  0.081572  1
  B  B17  1  0.500000  0.746513  0.918428  1
  B  B18  1  0.500000  0.793653  0.265078  1
  B  B19  1  0.500000  0.206347  0.734922  1
  B  B20  1  0.500000  0.295295  0.235375  1
  B  B21  1  0.500000  0.704705  0.764625  1
  B  B22  1  0.500000  0.628646  0.181376  1
  B  B23  1  0.500000  0.371354  0.818624  1
  B  B24  1  0.500000  0.129250  0.317425  1
  B  B25  1  0.500000  0.870750  0.682575  1
  B  B26  1  0.500000  0.981585  0.214532  1
  B  B27  1  0.500000  0.018415  0.785468  1
  B  B28  1  0.500000  0.482499  0.285870  1
  B  B29  1  0.500000  0.517501  0.714130  1
  B  B30  1  0.500000  0.598988  0.027138  1
  B  B31  1  0.500000  0.401012  0.972862  1
  B  B32  1  0.500000  0.099521  0.473756  1
  B  B33  1  0.500000  0.900479  0.526244  1
  Rh  Rh34  1  0.000000  0.640686  0.318779  1
  Rh  Rh35  1  0.000000  0.359314  0.681221  1
