# generated using pymatgen
data_TbScCoB6
_symmetry_space_group_name_H-M   'P 1'
_cell_length_a   3.45759600
_cell_length_b   8.95307900
_cell_length_c   11.31557200
_cell_angle_alpha   90.00000000
_cell_angle_beta   90.00000000
_cell_angle_gamma   90.00000000
_symmetry_Int_Tables_number   1
_chemical_formula_structural   TbScCoB6
_chemical_formula_sum   'Tb4 Sc4 Co4 B24'
_cell_volume   350.28631942
_cell_formula_units_Z   4
loop_
 _symmetry_equiv_pos_site_id
 _symmetry_equiv_pos_as_xyz
  1  'x, y, z'
loop_
 _atom_site_type_symbol
 _atom_site_label
 _atom_site_symmetry_multiplicity
 _atom_site_fract_x
 _atom_site_fract_y
 _atom_site_fract_z
 _atom_site_occupancy
  Tb  Tb0  1  0.000000  0.321965  0.414411  1
  Tb  Tb1  1  0.000000  0.678035  0.585589  1
  Tb  Tb2  1  0.000000  0.821965  0.085589  1
  Tb  Tb3  1  0.000000  0.178035  0.914411  1
  Sc  Sc4  1  0.000000  0.944076  0.371781  1
  Sc  Sc5  1  0.000000  0.055924  0.628219  1
  Sc  Sc6  1  0.000000  0.444076  0.128219  1
  Sc  Sc7  1  0.000000  0.555924  0.871781  1
  Co  Co8  1  0.000000  0.641728  0.317534  1
  Co  Co9  1  0.000000  0.358272  0.682466  1
  Co  Co10  1  0.000000  0.141728  0.182466  1
  Co  Co11  1  0.000000  0.858272  0.817534  1
  B  B12  1  0.500000  0.555916  0.431702  1
  B  B13  1  0.500000  0.444084  0.568298  1
  B  B14  1  0.500000  0.055916  0.068298  1
  B  B15  1  0.500000  0.944084  0.931702  1
  B  B16  1  0.500000  0.751921  0.417139  1
  B  B17  1  0.500000  0.248079  0.582861  1
  B  B18  1  0.500000  0.251921  0.082861  1
  B  B19  1  0.500000  0.748079  0.917139  1
  B  B20  1  0.500000  0.793368  0.264948  1
  B  B21  1  0.500000  0.206632  0.735052  1
  B  B22  1  0.500000  0.293368  0.235052  1
  B  B23  1  0.500000  0.706632  0.764948  1
  B  B24  1  0.500000  0.630167  0.183108  1
  B  B25  1  0.500000  0.369833  0.816892  1
  B  B26  1  0.500000  0.130167  0.316892  1
  B  B27  1  0.500000  0.869833  0.683108  1
  B  B28  1  0.500000  0.984566  0.214063  1
  B  B29  1  0.500000  0.015434  0.785937  1
  B  B30  1  0.500000  0.484566  0.285937  1
  B  B31  1  0.500000  0.515434  0.714063  1
  B  B32  1  0.500000  0.599032  0.026478  1
  B  B33  1  0.500000  0.400968  0.973522  1
  B  B34  1  0.500000  0.099032  0.473522  1
  B  B35  1  0.500000  0.900968  0.526478  1
