# generated using pymatgen
data_TbDyCo12GeP6
_symmetry_space_group_name_H-M   'P 1'
_cell_length_a   9.08558900
_cell_length_b   9.08558899
_cell_length_c   3.57937600
_cell_angle_alpha   90.00000000
_cell_angle_beta   90.00000000
_cell_angle_gamma   120.00001097
_symmetry_Int_Tables_number   1
_chemical_formula_structural   TbDyCo12GeP6
_chemical_formula_sum   'Tb1 Dy1 Co12 Ge1 P6'
_cell_volume   255.88455838
_cell_formula_units_Z   1
loop_
 _symmetry_equiv_pos_site_id
 _symmetry_equiv_pos_as_xyz
  1  'x, y, z'
loop_
 _atom_site_type_symbol
 _atom_site_label
 _atom_site_symmetry_multiplicity
 _atom_site_fract_x
 _atom_site_fract_y
 _atom_site_fract_z
 _atom_site_occupancy
  Tb  Tb0  1  0.000000  0.000000  0.000000  1
  Dy  Dy1  1  0.333333  0.666667  0.500000  1
  Co  Co2  1  0.102754  0.393961  0.000000  1
  Co  Co3  1  0.606039  0.708793  0.000000  1
  Co  Co4  1  0.291207  0.897246  0.000000  1
  Co  Co5  1  0.052957  0.771180  0.500000  1
  Co  Co6  1  0.228820  0.281778  0.500000  1
  Co  Co7  1  0.718222  0.947043  0.500000  1
  Co  Co8  1  0.827389  0.620065  0.000000  1
  Co  Co9  1  0.379935  0.207324  0.000000  1
  Co  Co10  1  0.792676  0.172611  0.000000  1
  Co  Co11  1  0.914863  0.443759  0.500000  1
  Co  Co12  1  0.556241  0.471102  0.500000  1
  Co  Co13  1  0.528898  0.085137  0.500000  1
  Ge  Ge14  1  0.666667  0.333333  0.000000  1
  P  P15  1  0.777064  0.735258  0.500000  1
  P  P16  1  0.264742  0.041806  0.500000  1
  P  P17  1  0.958194  0.222936  0.500000  1
  P  P18  1  0.071949  0.626589  0.000000  1
  P  P19  1  0.373411  0.445362  0.000000  1
  P  P20  1  0.554638  0.928051  0.000000  1
