# generated using pymatgen
data_ErAlV6O18
_symmetry_space_group_name_H-M   'P 1'
_cell_length_a   7.13943692
_cell_length_b   8.03653939
_cell_length_c   9.15143100
_cell_angle_alpha   86.52412064
_cell_angle_beta   67.18217947
_cell_angle_gamma   63.85479407
_symmetry_Int_Tables_number   1
_chemical_formula_structural   ErAlV6O18
_chemical_formula_sum   'Er1 Al1 V6 O18'
_cell_volume   430.58914160
_cell_formula_units_Z   1
loop_
 _symmetry_equiv_pos_site_id
 _symmetry_equiv_pos_as_xyz
  1  'x, y, z'
loop_
 _atom_site_type_symbol
 _atom_site_label
 _atom_site_symmetry_multiplicity
 _atom_site_fract_x
 _atom_site_fract_y
 _atom_site_fract_z
 _atom_site_occupancy
  Er  Er0  1  0.009324  0.497150  0.499737  1
  Al  Al1  1  0.986894  0.000903  0.002511  1
  V  V2  1  0.574443  0.434330  0.170187  1
  V  V3  1  0.721771  0.754242  0.244175  1
  V  V4  1  0.144531  0.049179  0.314543  1
  V  V5  1  0.840032  0.946324  0.690934  1
  V  V6  1  0.278187  0.233433  0.772473  1
  V  V7  1  0.436197  0.569310  0.834273  1
  O  O8  1  0.881150  0.823568  0.087939  1
  O  O9  1  0.112445  0.977428  0.159319  1
  O  O10  1  0.707277  0.197564  0.147329  1
  O  O11  1  0.749406  0.531276  0.188701  1
  O  O12  1  0.324268  0.514075  0.331782  1
  O  O13  1  0.081750  0.277432  0.319864  1
  O  O14  1  0.428991  0.918878  0.303230  1
  O  O15  1  0.806850  0.730975  0.395534  1
  O  O16  1  0.964991  0.020965  0.505220  1
  O  O17  1  0.214257  0.278187  0.610378  1
  O  O18  1  0.674002  0.506305  0.663868  1
  O  O19  1  0.962362  0.710899  0.672114  1
  O  O20  1  0.546497  0.031782  0.724814  1
  O  O21  1  0.861725  0.032304  0.844602  1
  O  O22  1  0.262296  0.801685  0.858414  1
  O  O23  1  0.292388  0.431409  0.839693  1
  O  O24  1  0.082877  0.184744  0.917737  1
  O  O25  1  0.520287  0.517851  0.998029  1
