# generated using pymatgen
data_La13Pr3Cd4(CoRu)2
_symmetry_space_group_name_H-M   'P 1'
_cell_length_a   10.01005200
_cell_length_b   9.99522517
_cell_length_c   10.01005386
_cell_angle_alpha   59.91660804
_cell_angle_beta   60.10851796
_cell_angle_gamma   59.91661072
_symmetry_Int_Tables_number   1
_chemical_formula_structural   La13Pr3Cd4(CoRu)2
_chemical_formula_sum   'La13 Pr3 Cd4 Co2 Ru2'
_cell_volume   707.87370744
_cell_formula_units_Z   1
loop_
 _symmetry_equiv_pos_site_id
 _symmetry_equiv_pos_as_xyz
  1  'x, y, z'
loop_
 _atom_site_type_symbol
 _atom_site_label
 _atom_site_symmetry_multiplicity
 _atom_site_fract_x
 _atom_site_fract_y
 _atom_site_fract_z
 _atom_site_occupancy
  La  La0  1  0.684778  0.694370  0.309052  1
  La  La1  1  0.158342  0.151619  0.539167  1
  La  La2  1  0.309052  0.694370  0.684778  1
  La  La3  1  0.158128  0.149475  0.158128  1
  La  La4  1  0.539167  0.151619  0.158342  1
  La  La5  1  0.309101  0.691777  0.309101  1
  La  La6  1  0.309185  0.310058  0.686574  1
  La  La7  1  0.687868  0.311446  0.687868  1
  La  La8  1  0.937716  0.560453  0.557579  1
  La  La9  1  0.557579  0.560453  0.937716  1
  La  La10  1  0.157146  0.537375  0.157146  1
  La  La11  1  0.686574  0.310058  0.309185  1
  La  La12  1  0.940022  0.558878  0.940022  1
  Pr  Pr13  1  0.934825  0.940659  0.561214  1
  Pr  Pr14  1  0.562067  0.938520  0.562067  1
  Pr  Pr15  1  0.561214  0.940659  0.934825  1
  Cd  Cd16  1  0.238347  0.921164  0.920139  1
  Cd  Cd17  1  0.921184  0.921670  0.921184  1
  Cd  Cd18  1  0.920139  0.921164  0.238347  1
  Cd  Cd19  1  0.921184  0.236693  0.921184  1
  Co  Co20  1  0.363206  0.917122  0.363206  1
  Co  Co21  1  0.363127  0.356920  0.363127  1
  Ru  Ru22  1  0.914034  0.361737  0.366012  1
  Ru  Ru23  1  0.366012  0.361737  0.914034  1
