# generated using pymatgen
data_Ce2B8OsW
_symmetry_space_group_name_H-M   'P 1'
_cell_length_a   3.66063000
_cell_length_b   6.05276490
_cell_length_c   11.70758606
_cell_angle_alpha   90.14272736
_cell_angle_beta   90.00000000
_cell_angle_gamma   90.00000000
_symmetry_Int_Tables_number   1
_chemical_formula_structural   Ce2B8OsW
_chemical_formula_sum   'Ce4 B16 Os2 W2'
_cell_volume   259.40339266
_cell_formula_units_Z   2
loop_
 _symmetry_equiv_pos_site_id
 _symmetry_equiv_pos_as_xyz
  1  'x, y, z'
loop_
 _atom_site_type_symbol
 _atom_site_label
 _atom_site_symmetry_multiplicity
 _atom_site_fract_x
 _atom_site_fract_y
 _atom_site_fract_z
 _atom_site_occupancy
  Ce  Ce0  1  0.000000  0.126041  0.152918  1
  Ce  Ce1  1  0.000000  0.873959  0.847082  1
  Ce  Ce2  1  0.000000  0.627264  0.352096  1
  Ce  Ce3  1  0.000000  0.372736  0.647904  1
  B  B4  1  0.500000  0.526001  0.807585  1
  B  B5  1  0.500000  0.473999  0.192415  1
  B  B6  1  0.500000  0.028220  0.689511  1
  B  B7  1  0.500000  0.971780  0.310489  1
  B  B8  1  0.500000  0.385987  0.046371  1
  B  B9  1  0.500000  0.614013  0.953629  1
  B  B10  1  0.500000  0.888336  0.454225  1
  B  B11  1  0.500000  0.111664  0.545775  1
  B  B12  1  0.500000  0.213989  0.812412  1
  B  B13  1  0.500000  0.786011  0.187588  1
  B  B14  1  0.500000  0.713913  0.684101  1
  B  B15  1  0.500000  0.286087  0.315899  1
  B  B16  1  0.500000  0.135260  0.967634  1
  B  B17  1  0.500000  0.864740  0.032366  1
  B  B18  1  0.500000  0.637242  0.531723  1
  B  B19  1  0.500000  0.362758  0.468277  1
  Os  Os20  1  0.000000  0.140495  0.406915  1
  Os  Os21  1  0.000000  0.859505  0.593085  1
  W  W22  1  0.000000  0.630253  0.086882  1
  W  W23  1  0.000000  0.369747  0.913118  1
