# generated using pymatgen
data_Pr6Si2Pd9Au
_symmetry_space_group_name_H-M   'P 1'
_cell_length_a   8.49412660
_cell_length_b   8.47698911
_cell_length_c   8.47788796
_cell_angle_alpha   126.95089037
_cell_angle_beta   126.01982847
_cell_angle_gamma   79.16778211
_symmetry_Int_Tables_number   1
_chemical_formula_structural   Pr6Si2Pd9Au
_chemical_formula_sum   'Pr6 Si2 Pd9 Au1'
_cell_volume   381.40643040
_cell_formula_units_Z   1
loop_
 _symmetry_equiv_pos_site_id
 _symmetry_equiv_pos_as_xyz
  1  'x, y, z'
loop_
 _atom_site_type_symbol
 _atom_site_label
 _atom_site_symmetry_multiplicity
 _atom_site_fract_x
 _atom_site_fract_y
 _atom_site_fract_z
 _atom_site_occupancy
  Pr  Pr0  1  0.223888  0.451031  0.781806  1
  Pr  Pr1  1  0.774387  0.552980  0.225464  1
  Pr  Pr2  1  0.820069  0.046326  0.768078  1
  Pr  Pr3  1  0.177940  0.951258  0.227754  1
  Pr  Pr4  1  0.396260  0.245075  0.135667  1
  Pr  Pr5  1  0.610178  0.750287  0.859534  1
  Si  Si6  1  0.791641  0.251686  0.544038  1
  Si  Si7  1  0.209619  0.757622  0.461827  1
  Pd  Pd8  1  0.826882  0.194303  0.239857  1
  Pd  Pd9  1  0.457043  0.092496  0.761790  1
  Pd  Pd10  1  0.548356  0.307361  0.637868  1
  Pd  Pd11  1  0.000881  0.501848  0.001788  1
  Pd  Pd12  1  0.998140  0.000802  0.498755  1
  Pd  Pd13  1  0.452451  0.691690  0.362828  1
  Pd  Pd14  1  0.544584  0.909956  0.237447  1
  Pd  Pd15  1  0.169544  0.804388  0.758342  1
  Pd  Pd16  1  0.830025  0.591175  0.636273  1
  Au  Au17  1  0.168113  0.399717  0.360885  1
