# generated using pymatgen
data_CeDy3(B4Os)4
_symmetry_space_group_name_H-M   'P 1'
_cell_length_a   3.58147700
_cell_length_b   5.98362143
_cell_length_c   11.58621569
_cell_angle_alpha   89.89682513
_cell_angle_beta   90.00000000
_cell_angle_gamma   90.00000000
_symmetry_Int_Tables_number   1
_chemical_formula_structural   CeDy3(B4Os)4
_chemical_formula_sum   'Ce1 Dy3 B16 Os4'
_cell_volume   248.29454615
_cell_formula_units_Z   1
loop_
 _symmetry_equiv_pos_site_id
 _symmetry_equiv_pos_as_xyz
  1  'x, y, z'
loop_
 _atom_site_type_symbol
 _atom_site_label
 _atom_site_symmetry_multiplicity
 _atom_site_fract_x
 _atom_site_fract_y
 _atom_site_fract_z
 _atom_site_occupancy
  Ce  Ce0  1  0.000000  0.628482  0.349939  1
  Dy  Dy1  1  0.000000  0.371826  0.651240  1
  Dy  Dy2  1  0.000000  0.127944  0.148504  1
  Dy  Dy3  1  0.000000  0.871868  0.850175  1
  B  B4  1  0.500000  0.788468  0.185200  1
  B  B5  1  0.500000  0.211195  0.814252  1
  B  B6  1  0.500000  0.286572  0.313671  1
  B  B7  1  0.500000  0.712554  0.686859  1
  B  B8  1  0.500000  0.863136  0.029970  1
  B  B9  1  0.500000  0.136299  0.969063  1
  B  B10  1  0.500000  0.363425  0.470401  1
  B  B11  1  0.500000  0.637030  0.531401  1
  B  B12  1  0.500000  0.889328  0.454575  1
  B  B13  1  0.500000  0.112866  0.547929  1
  B  B14  1  0.500000  0.386652  0.045553  1
  B  B15  1  0.500000  0.612472  0.952973  1
  B  B16  1  0.500000  0.975564  0.308680  1
  B  B17  1  0.500000  0.025319  0.692107  1
  B  B18  1  0.500000  0.473408  0.190002  1
  B  B19  1  0.500000  0.525603  0.808618  1
  Os  Os20  1  0.000000  0.640705  0.093085  1
  Os  Os21  1  0.000000  0.359641  0.906350  1
  Os  Os22  1  0.000000  0.140718  0.405910  1
  Os  Os23  1  0.000000  0.858926  0.593542  1
