# generated using pymatgen
data_RbTe28
_symmetry_space_group_name_H-M   'P 1'
_cell_length_a   8.18235266
_cell_length_b   13.09275037
_cell_length_c   13.49587904
_cell_angle_alpha   119.81784089
_cell_angle_beta   106.48346755
_cell_angle_gamma   90.91043882
_symmetry_Int_Tables_number   1
_chemical_formula_structural   RbTe28
_chemical_formula_sum   'Rb1 Te28'
_cell_volume   1181.23789319
_cell_formula_units_Z   1
loop_
 _symmetry_equiv_pos_site_id
 _symmetry_equiv_pos_as_xyz
  1  'x, y, z'
loop_
 _atom_site_type_symbol
 _atom_site_label
 _atom_site_symmetry_multiplicity
 _atom_site_fract_x
 _atom_site_fract_y
 _atom_site_fract_z
 _atom_site_occupancy
  Rb  Rb0  1  0.500000  0.000000  0.000000  1
  Te  Te1  1  0.100728  0.135606  0.457806  1
  Te  Te2  1  0.597510  0.134732  0.456163  1
  Te  Te3  1  0.286604  0.328698  0.846034  1
  Te  Te4  1  0.789282  0.326795  0.845582  1
  Te  Te5  1  0.204011  0.525958  0.668808  1
  Te  Te6  1  0.703946  0.523041  0.667710  1
  Te  Te7  1  0.402490  0.865268  0.543837  1
  Te  Te8  1  0.899272  0.864394  0.542194  1
  Te  Te9  1  0.210718  0.673205  0.154418  1
  Te  Te10  1  0.713396  0.671302  0.153966  1
  Te  Te11  1  0.296054  0.476959  0.332290  1
  Te  Te12  1  0.795989  0.474042  0.331192  1
  Te  Te13  1  0.733198  0.015949  0.711228  1
  Te  Te14  1  0.236677  0.009511  0.714805  1
  Te  Te15  1  0.881125  0.642804  0.979377  1
  Te  Te16  1  0.385740  0.654876  0.986983  1
  Te  Te17  1  0.551315  0.323382  0.341992  1
  Te  Te18  1  0.055157  0.331961  0.351844  1
  Te  Te19  1  0.763323  0.990489  0.285195  1
  Te  Te20  1  0.266802  0.984051  0.288772  1
  Te  Te21  1  0.614260  0.345124  0.013017  1
  Te  Te22  1  0.118875  0.357196  0.020623  1
  Te  Te23  1  0.944843  0.668039  0.648156  1
  Te  Te24  1  0.448685  0.676618  0.658008  1
  Te  Te25  1  0.944992  0.326610  0.655468  1
  Te  Te26  1  0.444631  0.322397  0.655684  1
  Te  Te27  1  0.555369  0.677603  0.344316  1
  Te  Te28  1  0.055008  0.673390  0.344532  1
