# generated using pymatgen
data_LaTh2(GaPt)3
_symmetry_space_group_name_H-M   'P 1'
_cell_length_a   7.38945700
_cell_length_b   7.38621034
_cell_length_c   4.13721600
_cell_angle_alpha   90.00000000
_cell_angle_beta   90.00000000
_cell_angle_gamma   120.01454597
_symmetry_Int_Tables_number   1
_chemical_formula_structural   LaTh2(GaPt)3
_chemical_formula_sum   'La1 Th2 Ga3 Pt3'
_cell_volume   195.52817620
_cell_formula_units_Z   1
loop_
 _symmetry_equiv_pos_site_id
 _symmetry_equiv_pos_as_xyz
  1  'x, y, z'
loop_
 _atom_site_type_symbol
 _atom_site_label
 _atom_site_symmetry_multiplicity
 _atom_site_fract_x
 _atom_site_fract_y
 _atom_site_fract_z
 _atom_site_occupancy
  La  La0  1  0.584856  0.000000  0.500000  1
  Th  Th1  1  0.415160  0.416115  0.500000  1
  Th  Th2  1  0.999044  0.583885  0.500000  1
  Ga  Ga3  1  0.242228  0.000000  0.000000  1
  Ga  Ga4  1  0.996761  0.236300  0.000000  1
  Ga  Ga5  1  0.760461  0.763700  0.000000  1
  Pt  Pt6  1  0.668819  0.346724  0.000000  1
  Pt  Pt7  1  0.322093  0.653276  0.000000  1
  Pt  Pt8  1  0.010578  0.000000  0.500000  1
