# generated using pymatgen
data_Ho6Er10Cd4OsPt3
_symmetry_space_group_name_H-M   'P 1'
_cell_length_a   9.64799946
_cell_length_b   9.64800001
_cell_length_c   9.64799900
_cell_angle_alpha   59.45210331
_cell_angle_beta   59.45209914
_cell_angle_gamma   59.45210192
_symmetry_Int_Tables_number   1
_chemical_formula_structural   Ho6Er10Cd4OsPt3
_chemical_formula_sum   'Ho6 Er10 Cd4 Os1 Pt3'
_cell_volume   627.11851550
_cell_formula_units_Z   1
loop_
 _symmetry_equiv_pos_site_id
 _symmetry_equiv_pos_as_xyz
  1  'x, y, z'
loop_
 _atom_site_type_symbol
 _atom_site_label
 _atom_site_symmetry_multiplicity
 _atom_site_fract_x
 _atom_site_fract_y
 _atom_site_fract_z
 _atom_site_occupancy
  Ho  Ho0  1  0.185671  0.815494  0.815494  1
  Ho  Ho1  1  0.807883  0.188171  0.188171  1
  Ho  Ho2  1  0.815494  0.185671  0.815494  1
  Ho  Ho3  1  0.188171  0.807883  0.188171  1
  Ho  Ho4  1  0.815494  0.815494  0.185671  1
  Ho  Ho5  1  0.188171  0.188171  0.807883  1
  Er  Er6  1  0.601552  0.601552  0.601552  1
  Er  Er7  1  0.600580  0.600580  0.197074  1
  Er  Er8  1  0.600580  0.197074  0.600580  1
  Er  Er9  1  0.197074  0.600580  0.600580  1
  Er  Er10  1  0.064237  0.438720  0.438720  1
  Er  Er11  1  0.438272  0.060056  0.060056  1
  Er  Er12  1  0.438720  0.064237  0.438720  1
  Er  Er13  1  0.060056  0.438272  0.060056  1
  Er  Er14  1  0.438720  0.438720  0.064237  1
  Er  Er15  1  0.060056  0.060056  0.438272  1
  Cd  Cd16  1  0.830473  0.830473  0.830473  1
  Cd  Cd17  1  0.831079  0.831079  0.504263  1
  Cd  Cd18  1  0.831079  0.504263  0.831079  1
  Cd  Cd19  1  0.504263  0.831079  0.831079  1
  Os  Os20  1  0.393286  0.393286  0.393286  1
  Pt  Pt21  1  0.393347  0.393347  0.822397  1
  Pt  Pt22  1  0.393347  0.822397  0.393347  1
  Pt  Pt23  1  0.822397  0.393347  0.393347  1
