# generated using pymatgen
data_Lu2Ta2TiSi4
_symmetry_space_group_name_H-M   'P 1'
_cell_length_a   6.98358961
_cell_length_b   6.97960540
_cell_length_c   12.83973718
_cell_angle_alpha   89.98752818
_cell_angle_beta   90.06469902
_cell_angle_gamma   90.00543343
_symmetry_Int_Tables_number   1
_chemical_formula_structural   Lu2Ta2TiSi4
_chemical_formula_sum   'Lu8 Ta8 Ti4 Si16'
_cell_volume   625.84303688
_cell_formula_units_Z   4
loop_
 _symmetry_equiv_pos_site_id
 _symmetry_equiv_pos_as_xyz
  1  'x, y, z'
loop_
 _atom_site_type_symbol
 _atom_site_label
 _atom_site_symmetry_multiplicity
 _atom_site_fract_x
 _atom_site_fract_y
 _atom_site_fract_z
 _atom_site_occupancy
  Lu  Lu0  1  0.341586  0.002706  0.466795  1
  Lu  Lu1  1  0.498314  0.841572  0.717506  1
  Lu  Lu2  1  0.500885  0.157369  0.217586  1
  Lu  Lu3  1  0.841956  0.498912  0.282749  1
  Lu  Lu4  1  0.157256  0.501403  0.782411  1
  Lu  Lu5  1  0.658258  0.997372  0.967516  1
  Lu  Lu6  1  0.002535  0.341186  0.532629  1
  Lu  Lu7  1  0.997322  0.659944  0.032608  1
  Ta  Ta8  1  0.329280  0.328996  0.999953  1
  Ta  Ta9  1  0.173528  0.826090  0.250390  1
  Ta  Ta10  1  0.826894  0.173568  0.749971  1
  Ta  Ta11  1  0.151293  0.007716  0.874159  1
  Ta  Ta12  1  0.494253  0.651554  0.123375  1
  Ta  Ta13  1  0.505613  0.348410  0.624457  1
  Ta  Ta14  1  0.651069  0.493799  0.876166  1
  Ta  Ta15  1  0.349148  0.506156  0.375814  1
  Ti  Ti16  1  0.669231  0.668712  0.499875  1
  Ti  Ti17  1  0.849004  0.992696  0.374006  1
  Ti  Ti18  1  0.007346  0.151677  0.125667  1
  Ti  Ti19  1  0.992891  0.847749  0.626103  1
  Si  Si20  1  0.202989  0.133688  0.680640  1
  Si  Si21  1  0.363295  0.705650  0.930514  1
  Si  Si22  1  0.638109  0.294856  0.431432  1
  Si  Si23  1  0.706470  0.361979  0.069946  1
  Si  Si24  1  0.295110  0.638154  0.568260  1
  Si  Si25  1  0.798473  0.866166  0.182926  1
  Si  Si26  1  0.133151  0.202073  0.318123  1
  Si  Si27  1  0.863126  0.797248  0.817553  1
  Si  Si28  1  0.294763  0.954779  0.065037  1
  Si  Si29  1  0.548786  0.796640  0.315606  1
  Si  Si30  1  0.454156  0.203195  0.813474  1
  Si  Si31  1  0.796960  0.548210  0.683953  1
  Si  Si32  1  0.202271  0.452520  0.185856  1
  Si  Si33  1  0.706615  0.044168  0.562855  1
  Si  Si34  1  0.954013  0.296843  0.937117  1
  Si  Si35  1  0.044050  0.706250  0.436976  1
