# generated using pymatgen
data_La4TlSn11
_symmetry_space_group_name_H-M   'P 1'
_cell_length_a   9.85436600
_cell_length_b   6.74302376
_cell_length_c   6.74305299
_cell_angle_alpha   89.98117876
_cell_angle_beta   90.00000000
_cell_angle_gamma   90.00000000
_symmetry_Int_Tables_number   1
_chemical_formula_structural   La4TlSn11
_chemical_formula_sum   'La4 Tl1 Sn11'
_cell_volume   448.06387169
_cell_formula_units_Z   1
loop_
 _symmetry_equiv_pos_site_id
 _symmetry_equiv_pos_as_xyz
  1  'x, y, z'
loop_
 _atom_site_type_symbol
 _atom_site_label
 _atom_site_symmetry_multiplicity
 _atom_site_fract_x
 _atom_site_fract_y
 _atom_site_fract_z
 _atom_site_occupancy
  La  La0  1  0.250000  0.007625  0.001912  1
  La  La1  1  0.250000  0.496318  0.503833  1
  La  La2  1  0.750000  0.996051  0.999098  1
  La  La3  1  0.750000  0.505623  0.498176  1
  Tl  Tl4  1  0.750000  0.494953  0.997269  1
  Sn  Sn5  1  0.998519  0.241277  0.740988  1
  Sn  Sn6  1  0.501403  0.252301  0.249433  1
  Sn  Sn7  1  0.497594  0.754024  0.253457  1
  Sn  Sn8  1  0.001810  0.747588  0.753919  1
  Sn  Sn9  1  0.002406  0.754024  0.253457  1
  Sn  Sn10  1  0.498190  0.747588  0.753919  1
  Sn  Sn11  1  0.501481  0.241277  0.740988  1
  Sn  Sn12  1  0.998597  0.252301  0.249433  1
  Sn  Sn13  1  0.250000  0.996519  0.501554  1
  Sn  Sn14  1  0.250000  0.507270  0.003536  1
  Sn  Sn15  1  0.750000  0.005260  0.499025  1
