# generated using pymatgen
data_DyHo5(SiIr)4
_symmetry_space_group_name_H-M   'P 1'
_cell_length_a   5.56054998
_cell_length_b   5.56055026
_cell_length_c   13.21619157
_cell_angle_alpha   89.96880460
_cell_angle_beta   90.03119582
_cell_angle_gamma   136.88260820
_symmetry_Int_Tables_number   1
_chemical_formula_structural   DyHo5(SiIr)4
_chemical_formula_sum   'Dy1 Ho5 Si4 Ir4'
_cell_volume   279.30412663
_cell_formula_units_Z   1
loop_
 _symmetry_equiv_pos_site_id
 _symmetry_equiv_pos_as_xyz
  1  'x, y, z'
loop_
 _atom_site_type_symbol
 _atom_site_label
 _atom_site_symmetry_multiplicity
 _atom_site_fract_x
 _atom_site_fract_y
 _atom_site_fract_z
 _atom_site_occupancy
  Dy  Dy0  1  0.774076  0.225924  0.604262  1
  Ho  Ho1  1  0.517826  0.482174  0.250023  1
  Ho  Ho2  1  0.226046  0.773954  0.395615  1
  Ho  Ho3  1  0.774009  0.225991  0.895646  1
  Ho  Ho4  1  0.482203  0.517797  0.750089  1
  Ho  Ho5  1  0.226031  0.773969  0.104345  1
  Si  Si6  1  0.061788  0.938212  0.590138  1
  Si  Si7  1  0.061733  0.938267  0.909817  1
  Si  Si8  1  0.938357  0.061643  0.409661  1
  Si  Si9  1  0.938222  0.061778  0.090230  1
  Ir  Ir10  1  0.811604  0.188396  0.250020  1
  Ir  Ir11  1  0.188221  0.811779  0.750235  1
  Ir  Ir12  1  0.499955  0.500045  0.000039  1
  Ir  Ir13  1  0.499929  0.500071  0.499879  1
