# generated using pymatgen
data_TbYAsCl2
_symmetry_space_group_name_H-M   'P 1'
_cell_length_a   4.03437200
_cell_length_b   4.03437095
_cell_length_c   10.00981400
_cell_angle_alpha   90.00000000
_cell_angle_beta   90.00000000
_cell_angle_gamma   119.99999225
_symmetry_Int_Tables_number   1
_chemical_formula_structural   TbYAsCl2
_chemical_formula_sum   'Tb1 Y1 As1 Cl2'
_cell_volume   141.09396617
_cell_formula_units_Z   1
loop_
 _symmetry_equiv_pos_site_id
 _symmetry_equiv_pos_as_xyz
  1  'x, y, z'
loop_
 _atom_site_type_symbol
 _atom_site_label
 _atom_site_symmetry_multiplicity
 _atom_site_fract_x
 _atom_site_fract_y
 _atom_site_fract_z
 _atom_site_occupancy
  Tb  Tb0  1  0.666665  0.333333  0.160471  1
  Y  Y1  1  0.333333  0.666666  0.839699  1
  As  As2  1  0.000000  0.000000  0.999724  1
  Cl  Cl3  1  0.333333  0.666666  0.321543  1
  Cl  Cl4  1  0.666665  0.333333  0.678563  1
