# generated using pymatgen
data_V11Si3TcP
_symmetry_space_group_name_H-M   'P 1'
_cell_length_a   4.71637400
_cell_length_b   4.68582900
_cell_length_c   9.35995700
_cell_angle_alpha   90.00000000
_cell_angle_beta   90.00000000
_cell_angle_gamma   90.00000000
_symmetry_Int_Tables_number   1
_chemical_formula_structural   V11Si3TcP
_chemical_formula_sum   'V11 Si3 Tc1 P1'
_cell_volume   206.85619221
_cell_formula_units_Z   1
loop_
 _symmetry_equiv_pos_site_id
 _symmetry_equiv_pos_as_xyz
  1  'x, y, z'
loop_
 _atom_site_type_symbol
 _atom_site_label
 _atom_site_symmetry_multiplicity
 _atom_site_fract_x
 _atom_site_fract_y
 _atom_site_fract_z
 _atom_site_occupancy
  V  V0  1  0.000594  0.500000  0.124390  1
  V  V1  1  0.999280  0.500000  0.623751  1
  V  V2  1  0.499929  0.253438  0.753073  1
  V  V3  1  0.499929  0.253438  0.246927  1
  V  V4  1  0.747006  0.000000  0.000000  1
  V  V5  1  0.000594  0.500000  0.875610  1
  V  V6  1  0.999280  0.500000  0.376249  1
  V  V7  1  0.499929  0.746562  0.753073  1
  V  V8  1  0.499929  0.746562  0.246927  1
  V  V9  1  0.254794  0.000000  0.000000  1
  V  V10  1  0.250399  0.000000  0.500000  1
  Si  Si11  1  0.494914  0.500000  0.500000  1
  Si  Si12  1  0.003081  0.000000  0.752046  1
  Si  Si13  1  0.003081  0.000000  0.247954  1
  Tc  Tc14  1  0.748905  0.000000  0.500000  1
  P  P15  1  0.498354  0.500000  0.000000  1
