# generated using pymatgen
data_V3W5
_symmetry_space_group_name_H-M   'P 1'
_cell_length_a   4.40455415
_cell_length_b   4.37908988
_cell_length_c   9.87701740
_cell_angle_alpha   116.22311600
_cell_angle_beta   131.76509039
_cell_angle_gamma   60.11706557
_symmetry_Int_Tables_number   1
_chemical_formula_structural   V3W5
_chemical_formula_sum   'V3 W5'
_cell_volume   121.40808214
_cell_formula_units_Z   1
loop_
 _symmetry_equiv_pos_site_id
 _symmetry_equiv_pos_as_xyz
  1  'x, y, z'
loop_
 _atom_site_type_symbol
 _atom_site_label
 _atom_site_symmetry_multiplicity
 _atom_site_fract_x
 _atom_site_fract_y
 _atom_site_fract_z
 _atom_site_occupancy
  V  V0  1  0.294937  0.735369  0.522598  1
  V  V1  1  0.793361  0.608858  0.145672  1
  V  V2  1  0.290157  0.483691  0.768561  1
  W  W3  1  0.795892  0.359496  0.397612  1
  W  W4  1  0.293324  0.233723  0.020412  1
  W  W5  1  0.292956  0.984256  0.270825  1
  W  W6  1  0.792390  0.109644  0.645535  1
  W  W7  1  0.789848  0.858968  0.893574  1
