# generated using pymatgen
data_YTm7(CoAg)2
_symmetry_space_group_name_H-M   'P 1'
_cell_length_a   9.27448511
_cell_length_b   9.27448529
_cell_length_c   9.27444600
_cell_angle_alpha   60.00014015
_cell_angle_beta   60.00013949
_cell_angle_gamma   59.99972812
_symmetry_Int_Tables_number   1
_chemical_formula_structural   YTm7(CoAg)2
_chemical_formula_sum   'Y2 Tm14 Co4 Ag4'
_cell_volume   564.09549284
_cell_formula_units_Z   2
loop_
 _symmetry_equiv_pos_site_id
 _symmetry_equiv_pos_as_xyz
  1  'x, y, z'
loop_
 _atom_site_type_symbol
 _atom_site_label
 _atom_site_symmetry_multiplicity
 _atom_site_fract_x
 _atom_site_fract_y
 _atom_site_fract_z
 _atom_site_occupancy
  Y  Y0  1  0.562732  0.562732  0.937268  1
  Y  Y1  1  0.937268  0.937268  0.562732  1
  Tm  Tm2  1  0.347545  0.347545  0.348480  1
  Tm  Tm3  1  0.347545  0.347545  0.956431  1
  Tm  Tm4  1  0.348480  0.956431  0.347545  1
  Tm  Tm5  1  0.956431  0.348480  0.347545  1
  Tm  Tm6  1  0.811569  0.188431  0.188431  1
  Tm  Tm7  1  0.188431  0.811569  0.811569  1
  Tm  Tm8  1  0.188431  0.811569  0.188431  1
  Tm  Tm9  1  0.811569  0.188431  0.811569  1
  Tm  Tm10  1  0.188576  0.188576  0.811424  1
  Tm  Tm11  1  0.811424  0.811424  0.188576  1
  Tm  Tm12  1  0.938104  0.561896  0.561896  1
  Tm  Tm13  1  0.561896  0.938104  0.938104  1
  Tm  Tm14  1  0.561896  0.938104  0.561896  1
  Tm  Tm15  1  0.938104  0.561896  0.938104  1
  Co  Co16  1  0.141467  0.141467  0.140827  1
  Co  Co17  1  0.141467  0.141467  0.576238  1
  Co  Co18  1  0.140827  0.576238  0.141467  1
  Co  Co19  1  0.576238  0.140827  0.141467  1
  Ag  Ag20  1  0.581265  0.581265  0.580386  1
  Ag  Ag21  1  0.581265  0.581265  0.257085  1
  Ag  Ag22  1  0.580386  0.257085  0.581265  1
  Ag  Ag23  1  0.257085  0.580386  0.581265  1
