# generated using pymatgen
data_NdEu9Si5Sn
_symmetry_space_group_name_H-M   'P 1'
_cell_length_a   9.47220807
_cell_length_b   9.49178985
_cell_length_c   9.48047700
_cell_angle_alpha   130.75884206
_cell_angle_beta   130.74386660
_cell_angle_gamma   72.32357928
_symmetry_Int_Tables_number   1
_chemical_formula_structural   NdEu9Si5Sn
_chemical_formula_sum   'Nd1 Eu9 Si5 Sn1'
_cell_volume   477.89077864
_cell_formula_units_Z   1
loop_
 _symmetry_equiv_pos_site_id
 _symmetry_equiv_pos_as_xyz
  1  'x, y, z'
loop_
 _atom_site_type_symbol
 _atom_site_label
 _atom_site_symmetry_multiplicity
 _atom_site_fract_x
 _atom_site_fract_y
 _atom_site_fract_z
 _atom_site_occupancy
  Nd  Nd0  1  0.829115  0.308627  0.863092  1
  Eu  Eu1  1  0.193430  0.673734  0.148153  1
  Eu  Eu2  1  0.456497  0.976121  0.147235  1
  Eu  Eu3  1  0.310955  0.454857  0.482465  1
  Eu  Eu4  1  0.042703  0.191632  0.518549  1
  Eu  Eu5  1  0.524945  0.045075  0.852555  1
  Eu  Eu6  1  0.672202  0.523094  0.478150  1
  Eu  Eu7  1  0.973890  0.827656  0.517949  1
  Eu  Eu8  1  0.990880  0.983095  0.001169  1
  Eu  Eu9  1  0.507293  0.515359  0.000568  1
  Si  Si10  1  0.108221  0.607754  0.714274  1
  Si  Si11  1  0.887787  0.387871  0.271293  1
  Si  Si12  1  0.616211  0.896027  0.507274  1
  Si  Si13  1  0.395706  0.115239  0.505966  1
  Si  Si14  1  0.239631  0.251421  0.995168  1
  Sn  Sn15  1  0.750534  0.742440  0.996141  1
