# generated using pymatgen
data_SrHgPd
_symmetry_space_group_name_H-M   'P 1'
_cell_length_a   7.85226100
_cell_length_b   7.85226118
_cell_length_c   4.23739600
_cell_angle_alpha   90.00000000
_cell_angle_beta   90.00000000
_cell_angle_gamma   119.99999503
_symmetry_Int_Tables_number   1
_chemical_formula_structural   SrHgPd
_chemical_formula_sum   'Sr3 Hg3 Pd3'
_cell_volume   226.26593207
_cell_formula_units_Z   3
loop_
 _symmetry_equiv_pos_site_id
 _symmetry_equiv_pos_as_xyz
  1  'x, y, z'
loop_
 _atom_site_type_symbol
 _atom_site_label
 _atom_site_symmetry_multiplicity
 _atom_site_fract_x
 _atom_site_fract_y
 _atom_site_fract_z
 _atom_site_occupancy
  Sr  Sr0  1  0.596541  0.000000  0.000000  1
  Sr  Sr1  1  0.000000  0.596541  0.000000  1
  Sr  Sr2  1  0.403459  0.403459  0.000000  1
  Hg  Hg3  1  0.256193  0.000000  0.500000  1
  Hg  Hg4  1  0.000000  0.256193  0.500000  1
  Hg  Hg5  1  0.743807  0.743807  0.500000  1
  Pd  Pd6  1  0.000000  0.000000  0.000000  1
  Pd  Pd7  1  0.333333  0.666667  0.500000  1
  Pd  Pd8  1  0.666667  0.333333  0.500000  1
