# generated using pymatgen
data_Dy8Ta12Si15Sn
_symmetry_space_group_name_H-M   'P 1'
_cell_length_a   6.89564978
_cell_length_b   7.10789582
_cell_length_c   13.40430900
_cell_angle_alpha   90.00000000
_cell_angle_beta   90.00000000
_cell_angle_gamma   89.91787351
_symmetry_Int_Tables_number   1
_chemical_formula_structural   Dy8Ta12Si15Sn
_chemical_formula_sum   'Dy8 Ta12 Si15 Sn1'
_cell_volume   656.99223147
_cell_formula_units_Z   1
loop_
 _symmetry_equiv_pos_site_id
 _symmetry_equiv_pos_as_xyz
  1  'x, y, z'
loop_
 _atom_site_type_symbol
 _atom_site_label
 _atom_site_symmetry_multiplicity
 _atom_site_fract_x
 _atom_site_fract_y
 _atom_site_fract_z
 _atom_site_occupancy
  Dy  Dy0  1  0.503441  0.328346  0.096498  1
  Dy  Dy1  1  0.002768  0.172376  0.403122  1
  Dy  Dy2  1  0.490800  0.670291  0.591794  1
  Dy  Dy3  1  0.004825  0.837098  0.910999  1
  Dy  Dy4  1  0.490800  0.670291  0.908206  1
  Dy  Dy5  1  0.004825  0.837098  0.589001  1
  Dy  Dy6  1  0.503441  0.328346  0.403502  1
  Dy  Dy7  1  0.002768  0.172376  0.096878  1
  Ta  Ta8  1  0.660578  0.018770  0.750000  1
  Ta  Ta9  1  0.172226  0.484683  0.750000  1
  Ta  Ta10  1  0.337308  0.989009  0.250000  1
  Ta  Ta11  1  0.836709  0.509789  0.250000  1
  Ta  Ta12  1  0.837852  0.316386  0.622719  1
  Ta  Ta13  1  0.336203  0.173871  0.875620  1
  Ta  Ta14  1  0.162676  0.675318  0.125468  1
  Ta  Ta15  1  0.662278  0.824208  0.374271  1
  Ta  Ta16  1  0.162676  0.675318  0.374532  1
  Ta  Ta17  1  0.662278  0.824208  0.125729  1
  Ta  Ta18  1  0.837852  0.316386  0.877281  1
  Ta  Ta19  1  0.336203  0.173871  0.624380  1
  Si  Si20  1  0.297669  0.873108  0.750000  1
  Si  Si21  1  0.203931  0.374320  0.250000  1
  Si  Si22  1  0.703284  0.125481  0.250000  1
  Si  Si23  1  0.537730  0.370979  0.750000  1
  Si  Si24  1  0.042155  0.123349  0.750000  1
  Si  Si25  1  0.458272  0.622804  0.250000  1
  Si  Si26  1  0.957690  0.875712  0.250000  1
  Si  Si27  1  0.662947  0.034271  0.539936  1
  Si  Si28  1  0.161340  0.462446  0.959158  1
  Si  Si29  1  0.336084  0.964375  0.042956  1
  Si  Si30  1  0.835656  0.536231  0.458731  1
  Si  Si31  1  0.336084  0.964375  0.457044  1
  Si  Si32  1  0.835656  0.536231  0.041269  1
  Si  Si33  1  0.662947  0.034271  0.960064  1
  Si  Si34  1  0.161340  0.462446  0.540842  1
  Sn  Sn35  1  0.798711  0.641560  0.750000  1
