# generated using pymatgen
data_HoErNb2(Fe4P3)2
_symmetry_space_group_name_H-M   'P 1'
_cell_length_a   3.68309200
_cell_length_b   10.48171800
_cell_length_c   12.30991300
_cell_angle_alpha   90.00000000
_cell_angle_beta   90.00000000
_cell_angle_gamma   90.00000000
_symmetry_Int_Tables_number   1
_chemical_formula_structural   HoErNb2(Fe4P3)2
_chemical_formula_sum   'Ho2 Er2 Nb4 Fe16 P12'
_cell_volume   475.22581273
_cell_formula_units_Z   2
loop_
 _symmetry_equiv_pos_site_id
 _symmetry_equiv_pos_as_xyz
  1  'x, y, z'
loop_
 _atom_site_type_symbol
 _atom_site_label
 _atom_site_symmetry_multiplicity
 _atom_site_fract_x
 _atom_site_fract_y
 _atom_site_fract_z
 _atom_site_occupancy
  Ho  Ho0  1  0.250000  0.584605  0.712866  1
  Ho  Ho1  1  0.250000  0.915395  0.212866  1
  Er  Er2  1  0.750000  0.415078  0.287054  1
  Er  Er3  1  0.750000  0.084922  0.787054  1
  Nb  Nb4  1  0.250000  0.705091  0.991050  1
  Nb  Nb5  1  0.250000  0.794909  0.491050  1
  Nb  Nb6  1  0.750000  0.294950  0.008823  1
  Nb  Nb7  1  0.750000  0.205050  0.508823  1
  Fe  Fe8  1  0.250000  0.417027  0.492305  1
  Fe  Fe9  1  0.250000  0.082974  0.992305  1
  Fe  Fe10  1  0.750000  0.582651  0.507026  1
  Fe  Fe11  1  0.750000  0.917349  0.007026  1
  Fe  Fe12  1  0.250000  0.216641  0.172883  1
  Fe  Fe13  1  0.250000  0.283359  0.672883  1
  Fe  Fe14  1  0.750000  0.784017  0.827207  1
  Fe  Fe15  1  0.750000  0.715983  0.327207  1
  Fe  Fe16  1  0.250000  0.879900  0.699491  1
  Fe  Fe17  1  0.250000  0.620100  0.199491  1
  Fe  Fe18  1  0.750000  0.120926  0.300710  1
  Fe  Fe19  1  0.750000  0.379074  0.800710  1
  Fe  Fe20  1  0.250000  0.463560  0.933516  1
  Fe  Fe21  1  0.250000  0.036440  0.433516  1
  Fe  Fe22  1  0.750000  0.535961  0.066868  1
  Fe  Fe23  1  0.750000  0.964039  0.566868  1
  P  P24  1  0.250000  0.426979  0.113265  1
  P  P25  1  0.250000  0.073021  0.613265  1
  P  P26  1  0.750000  0.572645  0.887176  1
  P  P27  1  0.750000  0.927355  0.387176  1
  P  P28  1  0.250000  0.271786  0.856702  1
  P  P29  1  0.250000  0.228214  0.356702  1
  P  P30  1  0.750000  0.727611  0.143160  1
  P  P31  1  0.750000  0.772389  0.643160  1
  P  P32  1  0.250000  0.593367  0.377920  1
  P  P33  1  0.250000  0.906633  0.877920  1
  P  P34  1  0.750000  0.405971  0.621978  1
  P  P35  1  0.750000  0.094029  0.121978  1
