# generated using pymatgen
data_Tb3Dy5CdHgPt2
_symmetry_space_group_name_H-M   'P 1'
_cell_length_a   9.68655199
_cell_length_b   9.68655252
_cell_length_c   9.67953000
_cell_angle_alpha   60.02397912
_cell_angle_beta   60.02397732
_cell_angle_gamma   60.07464562
_symmetry_Int_Tables_number   1
_chemical_formula_structural   Tb3Dy5CdHgPt2
_chemical_formula_sum   'Tb6 Dy10 Cd2 Hg2 Pt4'
_cell_volume   642.80553771
_cell_formula_units_Z   2
loop_
 _symmetry_equiv_pos_site_id
 _symmetry_equiv_pos_as_xyz
  1  'x, y, z'
loop_
 _atom_site_type_symbol
 _atom_site_label
 _atom_site_symmetry_multiplicity
 _atom_site_fract_x
 _atom_site_fract_y
 _atom_site_fract_z
 _atom_site_occupancy
  Tb  Tb0  1  0.935520  0.563410  0.564804  1
  Tb  Tb1  1  0.563410  0.935520  0.936267  1
  Tb  Tb2  1  0.563410  0.935520  0.564804  1
  Tb  Tb3  1  0.935520  0.563410  0.936267  1
  Tb  Tb4  1  0.564016  0.564016  0.935984  1
  Tb  Tb5  1  0.935882  0.935882  0.564118  1
  Dy  Dy6  1  0.352554  0.352554  0.350660  1
  Dy  Dy7  1  0.352554  0.352554  0.944231  1
  Dy  Dy8  1  0.355150  0.938510  0.353170  1
  Dy  Dy9  1  0.938510  0.355150  0.353170  1
  Dy  Dy10  1  0.810720  0.189022  0.190524  1
  Dy  Dy11  1  0.189022  0.810720  0.809734  1
  Dy  Dy12  1  0.189022  0.810720  0.190524  1
  Dy  Dy13  1  0.810720  0.189022  0.809734  1
  Dy  Dy14  1  0.189656  0.189656  0.810344  1
  Dy  Dy15  1  0.809757  0.809757  0.190243  1
  Cd  Cd16  1  0.580406  0.255646  0.581973  1
  Cd  Cd17  1  0.255646  0.580406  0.581973  1
  Hg  Hg18  1  0.584828  0.584828  0.587619  1
  Hg  Hg19  1  0.584828  0.584828  0.242723  1
  Pt  Pt20  1  0.143256  0.143256  0.145267  1
  Pt  Pt21  1  0.143256  0.143256  0.568222  1
  Pt  Pt22  1  0.142072  0.570282  0.143824  1
  Pt  Pt23  1  0.570282  0.142072  0.143824  1
