# generated using pymatgen
data_Zr6TiNb(Ir2N)2
_symmetry_space_group_name_H-M   'P 1'
_cell_length_a   8.69836809
_cell_length_b   8.69836814
_cell_length_c   8.71503700
_cell_angle_alpha   59.93658455
_cell_angle_beta   59.93658437
_cell_angle_gamma   59.92634008
_symmetry_Int_Tables_number   1
_chemical_formula_structural   Zr6TiNb(Ir2N)2
_chemical_formula_sum   'Zr12 Ti2 Nb2 Ir8 N4'
_cell_volume   465.55497416
_cell_formula_units_Z   2
loop_
 _symmetry_equiv_pos_site_id
 _symmetry_equiv_pos_as_xyz
  1  'x, y, z'
loop_
 _atom_site_type_symbol
 _atom_site_label
 _atom_site_symmetry_multiplicity
 _atom_site_fract_x
 _atom_site_fract_y
 _atom_site_fract_z
 _atom_site_occupancy
  Zr  Zr0  1  0.811113  0.811113  0.188887  1
  Zr  Zr1  1  0.188689  0.188689  0.811311  1
  Zr  Zr2  1  0.811663  0.187319  0.811329  1
  Zr  Zr3  1  0.187319  0.811663  0.189688  1
  Zr  Zr4  1  0.187319  0.811663  0.811329  1
  Zr  Zr5  1  0.811663  0.187319  0.189688  1
  Zr  Zr6  1  0.438887  0.438887  0.061113  1
  Zr  Zr7  1  0.061311  0.061311  0.438689  1
  Zr  Zr8  1  0.438337  0.062681  0.438671  1
  Zr  Zr9  1  0.062681  0.438337  0.060312  1
  Zr  Zr10  1  0.062681  0.438337  0.438671  1
  Zr  Zr11  1  0.438337  0.062681  0.060312  1
  Ti  Ti12  1  0.125000  0.625000  0.625000  1
  Ti  Ti13  1  0.625000  0.125000  0.625000  1
  Nb  Nb14  1  0.625000  0.625000  0.125000  1
  Nb  Nb15  1  0.625000  0.625000  0.625000  1
  Ir  Ir16  1  0.751523  0.410866  0.418805  1
  Ir  Ir17  1  0.410866  0.751523  0.418805  1
  Ir  Ir18  1  0.413074  0.413074  0.752915  1
  Ir  Ir19  1  0.413074  0.413074  0.420936  1
  Ir  Ir20  1  0.498477  0.839134  0.831195  1
  Ir  Ir21  1  0.839134  0.498477  0.831195  1
  Ir  Ir22  1  0.836926  0.836926  0.497085  1
  Ir  Ir23  1  0.836926  0.836926  0.829064  1
  N  N24  1  0.625000  0.125000  0.125000  1
  N  N25  1  0.125000  0.625000  0.125000  1
  N  N26  1  0.125000  0.125000  0.625000  1
  N  N27  1  0.125000  0.125000  0.125000  1
