# generated using pymatgen
data_Dy7YSc12Si15Bi
_symmetry_space_group_name_H-M   'P 1'
_cell_length_a   7.16419703
_cell_length_b   7.41368534
_cell_length_c   14.06627401
_cell_angle_alpha   90.07425188
_cell_angle_beta   88.84102884
_cell_angle_gamma   90.17360204
_symmetry_Int_Tables_number   1
_chemical_formula_structural   Dy7YSc12Si15Bi
_chemical_formula_sum   'Dy7 Y1 Sc12 Si15 Bi1'
_cell_volume   746.94661543
_cell_formula_units_Z   1
loop_
 _symmetry_equiv_pos_site_id
 _symmetry_equiv_pos_as_xyz
  1  'x, y, z'
loop_
 _atom_site_type_symbol
 _atom_site_label
 _atom_site_symmetry_multiplicity
 _atom_site_fract_x
 _atom_site_fract_y
 _atom_site_fract_z
 _atom_site_occupancy
  Dy  Dy0  1  0.987533  0.824792  0.903891  1
  Dy  Dy1  1  0.488224  0.675696  0.903757  1
  Dy  Dy2  1  0.991234  0.831451  0.598534  1
  Dy  Dy3  1  0.512300  0.324421  0.097485  1
  Dy  Dy4  1  0.001291  0.169740  0.398806  1
  Dy  Dy5  1  0.512399  0.318270  0.397543  1
  Dy  Dy6  1  0.510367  0.685903  0.601295  1
  Y  Y7  1  0.012721  0.176510  0.096752  1
  Sc  Sc8  1  0.163147  0.501043  0.756340  1
  Sc  Sc9  1  0.836323  0.498896  0.251284  1
  Sc  Sc10  1  0.336545  0.001685  0.249915  1
  Sc  Sc11  1  0.665301  0.998899  0.751446  1
  Sc  Sc12  1  0.347134  0.156139  0.632127  1
  Sc  Sc13  1  0.660572  0.826964  0.372292  1
  Sc  Sc14  1  0.156629  0.683500  0.369256  1
  Sc  Sc15  1  0.668158  0.823007  0.123892  1
  Sc  Sc16  1  0.824703  0.325840  0.625808  1
  Sc  Sc17  1  0.329999  0.175364  0.875359  1
  Sc  Sc18  1  0.830849  0.323570  0.875609  1
  Sc  Sc19  1  0.169187  0.676497  0.124816  1
  Si  Si20  1  0.034933  0.119874  0.751035  1
  Si  Si21  1  0.962149  0.884587  0.246193  1
  Si  Si22  1  0.462242  0.616909  0.247509  1
  Si  Si23  1  0.534667  0.383691  0.752974  1
  Si  Si24  1  0.288165  0.867550  0.752975  1
  Si  Si25  1  0.711844  0.125977  0.246594  1
  Si  Si26  1  0.210870  0.374184  0.249025  1
  Si  Si27  1  0.792612  0.627918  0.751697  1
  Si  Si28  1  0.814311  0.541300  0.456434  1
  Si  Si29  1  0.333265  0.963708  0.460045  1
  Si  Si30  1  0.844084  0.534537  0.039780  1
  Si  Si31  1  0.667973  0.038548  0.538503  1
  Si  Si32  1  0.155064  0.465407  0.961258  1
  Si  Si33  1  0.654847  0.034636  0.960196  1
  Si  Si34  1  0.343826  0.965975  0.040034  1
  Bi  Bi35  1  0.184531  0.457013  0.539541  1
