# generated using pymatgen
data_Tb7Lu3(SiPb3)2
_symmetry_space_group_name_H-M   'P 1'
_cell_length_a   9.30905300
_cell_length_b   9.30905292
_cell_length_c   6.52879700
_cell_angle_alpha   90.00000000
_cell_angle_beta   90.00000000
_cell_angle_gamma   120.00000384
_symmetry_Int_Tables_number   1
_chemical_formula_structural   Tb7Lu3(SiPb3)2
_chemical_formula_sum   'Tb7 Lu3 Si2 Pb6'
_cell_volume   489.97597093
_cell_formula_units_Z   1
loop_
 _symmetry_equiv_pos_site_id
 _symmetry_equiv_pos_as_xyz
  1  'x, y, z'
loop_
 _atom_site_type_symbol
 _atom_site_label
 _atom_site_symmetry_multiplicity
 _atom_site_fract_x
 _atom_site_fract_y
 _atom_site_fract_z
 _atom_site_occupancy
  Tb  Tb0  1  0.249452  0.000268  0.749805  1
  Tb  Tb1  1  0.750816  0.000268  0.250195  1
  Tb  Tb2  1  0.999732  0.249184  0.749805  1
  Tb  Tb3  1  0.999732  0.750548  0.250195  1
  Tb  Tb4  1  0.750816  0.750548  0.749805  1
  Tb  Tb5  1  0.249452  0.249184  0.250195  1
  Tb  Tb6  1  0.333333  0.666667  0.500000  1
  Lu  Lu7  1  0.666667  0.333333  0.500000  1
  Lu  Lu8  1  0.666667  0.333333  0.000000  1
  Lu  Lu9  1  0.333333  0.666667  0.000000  1
  Si  Si10  1  0.000000  0.000000  0.500000  1
  Si  Si11  1  0.000000  0.000000  0.000000  1
  Pb  Pb12  1  0.605300  0.001266  0.750592  1
  Pb  Pb13  1  0.395965  0.001266  0.249408  1
  Pb  Pb14  1  0.998734  0.604035  0.750592  1
  Pb  Pb15  1  0.998734  0.394700  0.249408  1
  Pb  Pb16  1  0.395965  0.394700  0.750592  1
  Pb  Pb17  1  0.605300  0.604035  0.249408  1
