# generated using pymatgen
data_Tb7Tm13Si15Pt
_symmetry_space_group_name_H-M   'P 1'
_cell_length_a   7.33226988
_cell_length_b   7.69225799
_cell_length_c   14.42917100
_cell_angle_alpha   89.96206479
_cell_angle_beta   89.97192360
_cell_angle_gamma   90.05311901
_symmetry_Int_Tables_number   1
_chemical_formula_structural   Tb7Tm13Si15Pt
_chemical_formula_sum   'Tb7 Tm13 Si15 Pt1'
_cell_volume   813.82931532
_cell_formula_units_Z   1
loop_
 _symmetry_equiv_pos_site_id
 _symmetry_equiv_pos_as_xyz
  1  'x, y, z'
loop_
 _atom_site_type_symbol
 _atom_site_label
 _atom_site_symmetry_multiplicity
 _atom_site_fract_x
 _atom_site_fract_y
 _atom_site_fract_z
 _atom_site_occupancy
  Tb  Tb0  1  0.021754  0.820511  0.904383  1
  Tb  Tb1  1  0.477021  0.317119  0.097433  1
  Tb  Tb2  1  0.976338  0.180285  0.403182  1
  Tb  Tb3  1  0.477260  0.317284  0.403319  1
  Tb  Tb4  1  0.977094  0.180256  0.097088  1
  Tb  Tb5  1  0.520245  0.679147  0.905719  1
  Tb  Tb6  1  0.022143  0.820315  0.595202  1
  Tm  Tm7  1  0.675954  0.181203  0.624285  1
  Tm  Tm8  1  0.187305  0.325355  0.874926  1
  Tm  Tm9  1  0.319803  0.820476  0.124213  1
  Tm  Tm10  1  0.818343  0.675378  0.375569  1
  Tm  Tm11  1  0.320138  0.819853  0.376194  1
  Tm  Tm12  1  0.818593  0.675848  0.124448  1
  Tm  Tm13  1  0.675604  0.181265  0.875367  1
  Tm  Tm14  1  0.187706  0.325653  0.624353  1
  Tm  Tm15  1  0.521274  0.679613  0.595576  1
  Tm  Tm16  1  0.843309  0.510569  0.749722  1
  Tm  Tm17  1  0.351291  0.985412  0.749750  1
  Tm  Tm18  1  0.150828  0.487667  0.250018  1
  Tm  Tm19  1  0.651712  0.010467  0.250117  1
  Si  Si20  1  0.650331  0.966365  0.461350  1
  Si  Si21  1  0.149398  0.530061  0.039655  1
  Si  Si22  1  0.348048  0.028283  0.960720  1
  Si  Si23  1  0.850289  0.471900  0.539884  1
  Si  Si24  1  0.349115  0.025941  0.539970  1
  Si  Si25  1  0.851940  0.470420  0.960335  1
  Si  Si26  1  0.650460  0.968181  0.039118  1
  Si  Si27  1  0.148468  0.529589  0.459973  1
  Si  Si28  1  0.977687  0.106852  0.749656  1
  Si  Si29  1  0.521331  0.606651  0.250174  1
  Si  Si30  1  0.022098  0.891143  0.250145  1
  Si  Si31  1  0.734717  0.876623  0.749536  1
  Si  Si32  1  0.224948  0.632425  0.749408  1
  Si  Si33  1  0.272413  0.128189  0.250317  1
  Si  Si34  1  0.772889  0.369642  0.250086  1
  Pt  Pt35  1  0.482149  0.404059  0.748805  1
