# generated using pymatgen
data_Li9Rh7O16
_symmetry_space_group_name_H-M   'P 1'
_cell_length_a   6.65995254
_cell_length_b   6.65995209
_cell_length_c   8.50051950
_cell_angle_alpha   92.27111616
_cell_angle_beta   92.27111323
_cell_angle_gamma   54.79924691
_symmetry_Int_Tables_number   1
_chemical_formula_structural   Li9Rh7O16
_chemical_formula_sum   'Li9 Rh7 O16'
_cell_volume   307.78659285
_cell_formula_units_Z   1
loop_
 _symmetry_equiv_pos_site_id
 _symmetry_equiv_pos_as_xyz
  1  'x, y, z'
loop_
 _atom_site_type_symbol
 _atom_site_label
 _atom_site_symmetry_multiplicity
 _atom_site_fract_x
 _atom_site_fract_y
 _atom_site_fract_z
 _atom_site_occupancy
  Li  Li0  1  0.249592  0.249592  0.999471  1
  Li  Li1  1  0.863415  0.383280  0.240769  1
  Li  Li2  1  0.616720  0.136585  0.759231  1
  Li  Li3  1  0.000000  0.000000  0.500000  1
  Li  Li4  1  0.383280  0.863415  0.240769  1
  Li  Li5  1  0.750408  0.750408  0.000529  1
  Li  Li6  1  0.136585  0.616720  0.759231  1
  Li  Li7  1  0.500000  0.500000  0.500000  1
  Li  Li8  1  0.500000  0.500000  0.000000  1
  Rh  Rh9  1  0.000000  0.000000  0.000000  1
  Rh  Rh10  1  0.625166  0.130666  0.246795  1
  Rh  Rh11  1  0.250094  0.250094  0.500630  1
  Rh  Rh12  1  0.869334  0.374834  0.753205  1
  Rh  Rh13  1  0.130666  0.625166  0.246795  1
  Rh  Rh14  1  0.749906  0.749906  0.499370  1
  Rh  Rh15  1  0.374834  0.869334  0.753205  1
  O  O16  1  0.883042  0.358502  0.992020  1
  O  O17  1  0.492953  0.492953  0.253389  1
  O  O18  1  0.240971  0.240971  0.745122  1
  O  O19  1  0.618068  0.117959  0.491141  1
  O  O20  1  0.995970  0.995970  0.243755  1
  O  O21  1  0.358502  0.883042  0.992020  1
  O  O22  1  0.740895  0.740895  0.743537  1
  O  O23  1  0.117959  0.618068  0.491141  1
  O  O24  1  0.641498  0.116958  0.007980  1
  O  O25  1  0.259105  0.259105  0.256463  1
  O  O26  1  0.004030  0.004030  0.756245  1
  O  O27  1  0.381932  0.882041  0.508859  1
  O  O28  1  0.759029  0.759029  0.254878  1
  O  O29  1  0.116958  0.641498  0.007980  1
  O  O30  1  0.507047  0.507047  0.746611  1
  O  O31  1  0.882041  0.381932  0.508859  1
