# generated using pymatgen
data_Er4ZrPd15
_symmetry_space_group_name_H-M   'P 1'
_cell_length_a   4.09389500
_cell_length_b   4.09389500
_cell_length_c   20.46003100
_cell_angle_alpha   90.00000000
_cell_angle_beta   90.00000000
_cell_angle_gamma   90.00000000
_symmetry_Int_Tables_number   1
_chemical_formula_structural   Er4ZrPd15
_chemical_formula_sum   'Er4 Zr1 Pd15'
_cell_volume   342.90963406
_cell_formula_units_Z   1
loop_
 _symmetry_equiv_pos_site_id
 _symmetry_equiv_pos_as_xyz
  1  'x, y, z'
loop_
 _atom_site_type_symbol
 _atom_site_label
 _atom_site_symmetry_multiplicity
 _atom_site_fract_x
 _atom_site_fract_y
 _atom_site_fract_z
 _atom_site_occupancy
  Er  Er0  1  0.000000  0.000000  0.198175  1
  Er  Er1  1  0.000000  0.000000  0.398699  1
  Er  Er2  1  0.000000  0.000000  0.601301  1
  Er  Er3  1  0.000000  0.000000  0.801825  1
  Zr  Zr4  1  0.000000  0.000000  0.000000  1
  Pd  Pd5  1  0.500000  0.500000  0.000000  1
  Pd  Pd6  1  0.500000  0.500000  0.196886  1
  Pd  Pd7  1  0.500000  0.500000  0.399094  1
  Pd  Pd8  1  0.500000  0.500000  0.600906  1
  Pd  Pd9  1  0.500000  0.500000  0.803114  1
  Pd  Pd10  1  0.500000  0.000000  0.095420  1
  Pd  Pd11  1  0.500000  0.000000  0.297766  1
  Pd  Pd12  1  0.500000  0.000000  0.500000  1
  Pd  Pd13  1  0.500000  0.000000  0.702234  1
  Pd  Pd14  1  0.500000  0.000000  0.904580  1
  Pd  Pd15  1  0.000000  0.500000  0.095420  1
  Pd  Pd16  1  0.000000  0.500000  0.297766  1
  Pd  Pd17  1  0.000000  0.500000  0.500000  1
  Pd  Pd18  1  0.000000  0.500000  0.702234  1
  Pd  Pd19  1  0.000000  0.500000  0.904580  1
