# generated using pymatgen
data_Dy11Er5(TmSn4)4
_symmetry_space_group_name_H-M   'P 1'
_cell_length_a   7.99217204
_cell_length_b   8.12738837
_cell_length_c   15.37580574
_cell_angle_alpha   90.01274204
_cell_angle_beta   89.99494193
_cell_angle_gamma   90.02217214
_symmetry_Int_Tables_number   1
_chemical_formula_structural   Dy11Er5(TmSn4)4
_chemical_formula_sum   'Dy11 Er5 Tm4 Sn16'
_cell_volume   998.74283284
_cell_formula_units_Z   1
loop_
 _symmetry_equiv_pos_site_id
 _symmetry_equiv_pos_as_xyz
  1  'x, y, z'
loop_
 _atom_site_type_symbol
 _atom_site_label
 _atom_site_symmetry_multiplicity
 _atom_site_fract_x
 _atom_site_fract_y
 _atom_site_fract_z
 _atom_site_occupancy
  Dy  Dy0  1  0.132247  0.336761  0.377283  1
  Dy  Dy1  1  0.368090  0.836877  0.622339  1
  Dy  Dy2  1  0.867565  0.663357  0.878296  1
  Dy  Dy3  1  0.521150  0.320350  0.903512  1
  Dy  Dy4  1  0.021330  0.179223  0.597200  1
  Dy  Dy5  1  0.478767  0.679258  0.402576  1
  Dy  Dy6  1  0.978733  0.821025  0.097241  1
  Dy  Dy7  1  0.479554  0.679210  0.096842  1
  Dy  Dy8  1  0.979211  0.821229  0.402823  1
  Dy  Dy9  1  0.520484  0.320968  0.596902  1
  Dy  Dy10  1  0.020929  0.179112  0.903049  1
  Er  Er11  1  0.366558  0.837237  0.877224  1
  Er  Er12  1  0.866558  0.662730  0.622759  1
  Er  Er13  1  0.633324  0.162610  0.377094  1
  Er  Er14  1  0.133194  0.337570  0.122430  1
  Er  Er15  1  0.632458  0.162573  0.122957  1
  Tm  Tm16  1  0.198201  0.503408  0.750442  1
  Tm  Tm17  1  0.698450  0.996625  0.749874  1
  Tm  Tm18  1  0.801418  0.496387  0.250124  1
  Tm  Tm19  1  0.301641  0.003695  0.249340  1
  Sn  Sn20  1  0.294138  0.037724  0.041450  1
  Sn  Sn21  1  0.792009  0.462954  0.458511  1
  Sn  Sn22  1  0.708068  0.963012  0.541439  1
  Sn  Sn23  1  0.208040  0.537136  0.958535  1
  Sn  Sn24  1  0.704249  0.963956  0.958535  1
  Sn  Sn25  1  0.204558  0.536760  0.542401  1
  Sn  Sn26  1  0.295180  0.036863  0.457414  1
  Sn  Sn27  1  0.794094  0.461373  0.042657  1
  Sn  Sn28  1  0.564272  0.618868  0.750270  1
  Sn  Sn29  1  0.064365  0.880831  0.750011  1
  Sn  Sn30  1  0.436260  0.380266  0.249537  1
  Sn  Sn31  1  0.935253  0.119245  0.249291  1
  Sn  Sn32  1  0.330500  0.148752  0.750348  1
  Sn  Sn33  1  0.830446  0.351634  0.749843  1
  Sn  Sn34  1  0.669263  0.851667  0.249843  1
  Sn  Sn35  1  0.169443  0.648753  0.249609  1
