# generated using pymatgen
data_Y6Al24Os5Pd3
_symmetry_space_group_name_H-M   'P 1'
_cell_length_a   8.84736001
_cell_length_b   8.85766137
_cell_length_c   9.55031543
_cell_angle_alpha   89.90395879
_cell_angle_beta   89.74054524
_cell_angle_gamma   119.52441186
_symmetry_Int_Tables_number   1
_chemical_formula_structural   Y6Al24Os5Pd3
_chemical_formula_sum   'Y6 Al24 Os5 Pd3'
_cell_volume   651.22893663
_cell_formula_units_Z   1
loop_
 _symmetry_equiv_pos_site_id
 _symmetry_equiv_pos_as_xyz
  1  'x, y, z'
loop_
 _atom_site_type_symbol
 _atom_site_label
 _atom_site_symmetry_multiplicity
 _atom_site_fract_x
 _atom_site_fract_y
 _atom_site_fract_z
 _atom_site_occupancy
  Y  Y0  1  0.186438  0.381741  0.252239  1
  Y  Y1  1  0.813562  0.618259  0.747761  1
  Y  Y2  1  0.615745  0.815547  0.252941  1
  Y  Y3  1  0.384255  0.184453  0.747059  1
  Y  Y4  1  0.195058  0.809963  0.251104  1
  Y  Y5  1  0.804942  0.190037  0.748896  1
  Al  Al6  1  0.336067  0.671071  0.028275  1
  Al  Al7  1  0.663933  0.328929  0.971725  1
  Al  Al8  1  0.669996  0.332164  0.524885  1
  Al  Al9  1  0.330004  0.667836  0.475115  1
  Al  Al10  1  0.156973  0.324394  0.577661  1
  Al  Al11  1  0.843027  0.675606  0.422339  1
  Al  Al12  1  0.675145  0.841885  0.577400  1
  Al  Al13  1  0.837224  0.677828  0.080466  1
  Al  Al14  1  0.324855  0.158115  0.422600  1
  Al  Al15  1  0.162776  0.322172  0.919534  1
  Al  Al16  1  0.164110  0.835072  0.574819  1
  Al  Al17  1  0.325166  0.158496  0.076408  1
  Al  Al18  1  0.835890  0.164928  0.425181  1
  Al  Al19  1  0.674834  0.841504  0.923592  1
  Al  Al20  1  0.831801  0.158970  0.076870  1
  Al  Al21  1  0.168199  0.841030  0.923130  1
  Al  Al22  1  0.561311  0.124810  0.249223  1
  Al  Al23  1  0.438689  0.875190  0.750777  1
  Al  Al24  1  0.874904  0.438401  0.252682  1
  Al  Al25  1  0.125096  0.561599  0.747318  1
  Al  Al26  1  0.561887  0.438578  0.249325  1
  Al  Al27  1  0.438113  0.561422  0.750675  1
  Al  Al28  1  0.998827  0.001687  0.250289  1
  Al  Al29  1  0.001173  0.998313  0.749711  1
  Os  Os30  1  0.500000  0.000000  0.000000  1
  Os  Os31  1  0.500000  0.000000  0.500000  1
  Os  Os32  1  0.000000  0.500000  0.500000  1
  Os  Os33  1  0.000000  0.000000  0.000000  1
  Os  Os34  1  0.000000  0.000000  0.500000  1
  Pd  Pd35  1  0.000000  0.500000  0.000000  1
  Pd  Pd36  1  0.500000  0.500000  0.000000  1
  Pd  Pd37  1  0.500000  0.500000  0.500000  1
