# generated using pymatgen
data_Pa4ZnGe5Os7
_symmetry_space_group_name_H-M   'P 1'
_cell_length_a   7.28356622
_cell_length_b   7.28356644
_cell_length_c   7.28356614
_cell_angle_alpha   109.73210836
_cell_angle_beta   109.73210608
_cell_angle_gamma   108.95069088
_symmetry_Int_Tables_number   1
_chemical_formula_structural   Pa4ZnGe5Os7
_chemical_formula_sum   'Pa4 Zn1 Ge5 Os7'
_cell_volume   297.42914312
_cell_formula_units_Z   1
loop_
 _symmetry_equiv_pos_site_id
 _symmetry_equiv_pos_as_xyz
  1  'x, y, z'
loop_
 _atom_site_type_symbol
 _atom_site_label
 _atom_site_symmetry_multiplicity
 _atom_site_fract_x
 _atom_site_fract_y
 _atom_site_fract_z
 _atom_site_occupancy
  Pa  Pa0  1  0.996125  0.996125  0.500340  1
  Pa  Pa1  1  0.996125  0.495785  0.000000  1
  Pa  Pa2  1  0.495785  0.996125  0.000000  1
  Pa  Pa3  1  0.495785  0.495785  0.499660  1
  Zn  Zn4  1  0.697422  0.697422  0.000000  1
  Ge  Ge5  1  0.307031  0.997239  0.309792  1
  Ge  Ge6  1  0.997239  0.307031  0.309792  1
  Ge  Ge7  1  0.318398  0.318398  0.000000  1
  Ge  Ge8  1  0.687447  0.997239  0.690208  1
  Ge  Ge9  1  0.997239  0.687447  0.690208  1
  Os  Os10  1  0.748523  0.248523  0.500000  1
  Os  Os11  1  0.749935  0.499997  0.249938  1
  Os  Os12  1  0.499997  0.250058  0.750062  1
  Os  Os13  1  0.250058  0.499997  0.750062  1
  Os  Os14  1  0.248523  0.748523  0.500000  1
  Os  Os15  1  0.499997  0.749935  0.249938  1
  Os  Os16  1  0.014370  0.014370  0.000000  1
