# generated using pymatgen
data_Th5P12Ru19
_symmetry_space_group_name_H-M   'P 1'
_cell_length_a   12.68722100
_cell_length_b   12.68722015
_cell_length_c   4.01666000
_cell_angle_alpha   90.00000000
_cell_angle_beta   90.00000000
_cell_angle_gamma   119.99999960
_symmetry_Int_Tables_number   1
_chemical_formula_structural   Th5P12Ru19
_chemical_formula_sum   'Th5 P12 Ru19'
_cell_volume   559.92348775
_cell_formula_units_Z   1
loop_
 _symmetry_equiv_pos_site_id
 _symmetry_equiv_pos_as_xyz
  1  'x, y, z'
loop_
 _atom_site_type_symbol
 _atom_site_label
 _atom_site_symmetry_multiplicity
 _atom_site_fract_x
 _atom_site_fract_y
 _atom_site_fract_z
 _atom_site_occupancy
  Th  Th0  1  0.187348  0.187348  0.500000  1
  Th  Th1  1  0.812652  0.000000  0.500000  1
  Th  Th2  1  0.000000  0.812652  0.500000  1
  Th  Th3  1  0.333333  0.666667  0.000000  1
  Th  Th4  1  0.666667  0.333333  0.000000  1
  P  P5  1  0.813248  0.813248  0.000000  1
  P  P6  1  0.186752  0.000000  0.000000  1
  P  P7  1  0.000000  0.186752  0.000000  1
  P  P8  1  0.170297  0.475720  0.500000  1
  P  P9  1  0.524280  0.694577  0.500000  1
  P  P10  1  0.305423  0.829703  0.500000  1
  P  P11  1  0.694577  0.524280  0.500000  1
  P  P12  1  0.829703  0.305423  0.500000  1
  P  P13  1  0.475720  0.170297  0.500000  1
  P  P14  1  0.375214  0.375214  0.000000  1
  P  P15  1  0.624786  0.000000  0.000000  1
  P  P16  1  0.000000  0.624786  0.000000  1
  Ru  Ru17  1  0.554895  0.554895  0.000000  1
  Ru  Ru18  1  0.445105  0.000000  0.000000  1
  Ru  Ru19  1  0.000000  0.445105  0.000000  1
  Ru  Ru20  1  0.715888  0.715888  0.500000  1
  Ru  Ru21  1  0.284112  0.000000  0.500000  1
  Ru  Ru22  1  0.000000  0.284112  0.500000  1
  Ru  Ru23  1  0.183620  0.376765  0.000000  1
  Ru  Ru24  1  0.623235  0.806855  0.000000  1
  Ru  Ru25  1  0.193145  0.816380  0.000000  1
  Ru  Ru26  1  0.806855  0.623235  0.000000  1
  Ru  Ru27  1  0.816380  0.193145  0.000000  1
  Ru  Ru28  1  0.376765  0.183620  0.000000  1
  Ru  Ru29  1  0.366668  0.492661  0.500000  1
  Ru  Ru30  1  0.507339  0.874008  0.500000  1
  Ru  Ru31  1  0.125992  0.633332  0.500000  1
  Ru  Ru32  1  0.874008  0.507339  0.500000  1
  Ru  Ru33  1  0.633332  0.125992  0.500000  1
  Ru  Ru34  1  0.492661  0.366668  0.500000  1
  Ru  Ru35  1  0.000000  0.000000  0.000000  1
