# generated using pymatgen
data_Ta8Cd2Pb4O25
_symmetry_space_group_name_H-M   'P 1'
_cell_length_a   7.54241762
_cell_length_b   7.54241742
_cell_length_c   10.60621606
_cell_angle_alpha   89.87895336
_cell_angle_beta   89.87895443
_cell_angle_gamma   89.94004791
_symmetry_Int_Tables_number   1
_chemical_formula_structural   Ta8Cd2Pb4O25
_chemical_formula_sum   'Ta8 Cd2 Pb4 O25'
_cell_volume   603.36405675
_cell_formula_units_Z   1
loop_
 _symmetry_equiv_pos_site_id
 _symmetry_equiv_pos_as_xyz
  1  'x, y, z'
loop_
 _atom_site_type_symbol
 _atom_site_label
 _atom_site_symmetry_multiplicity
 _atom_site_fract_x
 _atom_site_fract_y
 _atom_site_fract_z
 _atom_site_occupancy
  Ta  Ta0  1  0.748344  0.003150  0.126639  1
  Ta  Ta1  1  0.501682  0.252999  0.377274  1
  Ta  Ta2  1  0.246420  0.003533  0.126132  1
  Ta  Ta3  1  0.240659  0.504815  0.620526  1
  Ta  Ta4  1  0.996850  0.251656  0.873361  1
  Ta  Ta5  1  0.996467  0.753580  0.873868  1
  Ta  Ta6  1  0.747001  0.498318  0.622726  1
  Ta  Ta7  1  0.495185  0.759341  0.379474  1
  Cd  Cd8  1  0.089931  0.109646  0.425544  1
  Cd  Cd9  1  0.890354  0.910069  0.574456  1
  Pb  Pb10  1  0.744902  0.508978  0.130956  1
  Pb  Pb11  1  0.491022  0.255098  0.869044  1
  Pb  Pb12  1  0.492544  0.751475  0.860665  1
  Pb  Pb13  1  0.248525  0.507456  0.139335  1
  O  O14  1  0.305808  0.317700  0.499160  1
  O  O15  1  0.993172  0.007824  0.181237  1
  O  O16  1  0.992176  0.006828  0.818763  1
  O  O17  1  0.804346  0.325197  0.754507  1
  O  O18  1  0.800847  0.199153  0.000000  1
  O  O19  1  0.797954  0.812141  0.998462  1
  O  O20  1  0.675549  0.324451  0.500000  1
  O  O21  1  0.495855  0.507549  0.699159  1
  O  O22  1  0.491344  0.012166  0.058814  1
  O  O23  1  0.492451  0.504145  0.300841  1
  O  O24  1  0.493070  0.506930  0.000000  1
  O  O25  1  0.291007  0.192532  0.257672  1
  O  O26  1  0.308768  0.815728  0.246922  1
  O  O27  1  0.315631  0.684369  0.500000  1
  O  O28  1  0.187859  0.202046  0.001538  1
  O  O29  1  0.185472  0.322349  0.755300  1
  O  O30  1  0.184716  0.815284  0.000000  1
  O  O31  1  0.994267  0.506414  0.569016  1
  O  O32  1  0.987834  0.508656  0.941186  1
  O  O33  1  0.807468  0.708993  0.742328  1
  O  O34  1  0.674803  0.195654  0.245493  1
  O  O35  1  0.677651  0.814528  0.244700  1
  O  O36  1  0.682300  0.694192  0.500840  1
  O  O37  1  0.493586  0.005733  0.430984  1
  O  O38  1  0.184272  0.691232  0.753078  1
