# generated using pymatgen
data_Th7TiSnSe17
_symmetry_space_group_name_H-M   'P 1'
_cell_length_a   8.43595484
_cell_length_b   8.45455653
_cell_length_c   11.21875877
_cell_angle_alpha   80.74973928
_cell_angle_beta   80.43751091
_cell_angle_gamma   65.39135112
_symmetry_Int_Tables_number   1
_chemical_formula_structural   Th7TiSnSe17
_chemical_formula_sum   'Th7 Ti1 Sn1 Se17'
_cell_volume   713.61260656
_cell_formula_units_Z   1
loop_
 _symmetry_equiv_pos_site_id
 _symmetry_equiv_pos_as_xyz
  1  'x, y, z'
loop_
 _atom_site_type_symbol
 _atom_site_label
 _atom_site_symmetry_multiplicity
 _atom_site_fract_x
 _atom_site_fract_y
 _atom_site_fract_z
 _atom_site_occupancy
  Th  Th0  1  0.300999  0.818259  0.297272  1
  Th  Th1  1  0.184267  0.695875  0.702030  1
  Th  Th2  1  0.700166  0.185520  0.700091  1
  Th  Th3  1  0.205282  0.202026  0.540543  1
  Th  Th4  1  0.795787  0.792430  0.459044  1
  Th  Th5  1  0.680793  0.681295  0.981922  1
  Th  Th6  1  0.317482  0.320544  0.020857  1
  Ti  Ti7  1  0.000423  0.004709  0.006001  1
  Sn  Sn8  1  0.801540  0.319800  0.284844  1
  Se  Se9  1  0.826995  0.429275  0.541581  1
  Se  Se10  1  0.433255  0.817480  0.534511  1
  Se  Se11  1  0.180089  0.564685  0.465515  1
  Se  Se12  1  0.571749  0.168819  0.474139  1
  Se  Se13  1  0.942362  0.321117  0.021230  1
  Se  Se14  1  0.320967  0.944827  0.023606  1
  Se  Se15  1  0.054766  0.679369  0.972584  1
  Se  Se16  1  0.679521  0.058543  0.972776  1
  Se  Se17  1  0.226479  0.198697  0.275325  1
  Se  Se18  1  0.788381  0.789383  0.725853  1
  Se  Se19  1  0.062186  0.053693  0.776715  1
  Se  Se20  1  0.941699  0.939740  0.224976  1
  Se  Se21  1  0.302612  0.302735  0.755460  1
  Se  Se22  1  0.689113  0.710730  0.242633  1
  Se  Se23  1  0.518819  0.520116  0.833120  1
  Se  Se24  1  0.467655  0.493975  0.159602  1
  Se  Se25  1  0.006615  0.986357  0.507771  1
