# generated using pymatgen
data_Ho8NbPdPt23
_symmetry_space_group_name_H-M   'P 1'
_cell_length_a   8.33929300
_cell_length_b   8.33929300
_cell_length_c   8.34934900
_cell_angle_alpha   90.00000000
_cell_angle_beta   90.00000000
_cell_angle_gamma   90.00000000
_symmetry_Int_Tables_number   1
_chemical_formula_structural   Ho8NbPdPt23
_chemical_formula_sum   'Ho8 Nb1 Pd1 Pt23'
_cell_volume   580.64552161
_cell_formula_units_Z   1
loop_
 _symmetry_equiv_pos_site_id
 _symmetry_equiv_pos_as_xyz
  1  'x, y, z'
loop_
 _atom_site_type_symbol
 _atom_site_label
 _atom_site_symmetry_multiplicity
 _atom_site_fract_x
 _atom_site_fract_y
 _atom_site_fract_z
 _atom_site_occupancy
  Ho  Ho0  1  0.251544  0.251544  0.251593  1
  Ho  Ho1  1  0.748305  0.748305  0.748417  1
  Ho  Ho2  1  0.748456  0.748456  0.251593  1
  Ho  Ho3  1  0.748305  0.251695  0.748417  1
  Ho  Ho4  1  0.251695  0.251695  0.748417  1
  Ho  Ho5  1  0.251544  0.748456  0.251593  1
  Ho  Ho6  1  0.251695  0.748305  0.748417  1
  Ho  Ho7  1  0.748456  0.251544  0.251593  1
  Nb  Nb8  1  0.000000  0.000000  0.000374  1
  Pd  Pd9  1  0.500000  0.500000  0.744498  1
  Pt  Pt10  1  0.265909  0.500000  0.000132  1
  Pt  Pt11  1  0.734091  0.500000  0.000132  1
  Pt  Pt12  1  0.000000  0.265702  0.500051  1
  Pt  Pt13  1  0.500000  0.265909  0.000132  1
  Pt  Pt14  1  0.000000  0.734298  0.500051  1
  Pt  Pt15  1  0.500000  0.734091  0.000132  1
  Pt  Pt16  1  0.500000  0.000000  0.265308  1
  Pt  Pt17  1  0.265702  0.000000  0.500051  1
  Pt  Pt18  1  0.500000  0.000000  0.734375  1
  Pt  Pt19  1  0.734298  0.000000  0.500051  1
  Pt  Pt20  1  0.000000  0.500000  0.265308  1
  Pt  Pt21  1  0.000000  0.500000  0.734375  1
  Pt  Pt22  1  0.255716  0.500000  0.499876  1
  Pt  Pt23  1  0.744284  0.500000  0.499876  1
  Pt  Pt24  1  0.500000  0.255716  0.499876  1
  Pt  Pt25  1  0.500000  0.744284  0.499876  1
  Pt  Pt26  1  0.500000  0.500000  0.255383  1
  Pt  Pt27  1  0.307784  0.000000  0.999872  1
  Pt  Pt28  1  0.692216  0.000000  0.999872  1
  Pt  Pt29  1  0.000000  0.307784  0.999872  1
  Pt  Pt30  1  0.000000  0.692216  0.999872  1
  Pt  Pt31  1  0.000000  0.000000  0.307626  1
  Pt  Pt32  1  0.000000  0.000000  0.692991  1
