# generated using pymatgen
data_Ru(BrF)2
_symmetry_space_group_name_H-M   'P 1'
_cell_length_a   5.55664340
_cell_length_b   5.55664530
_cell_length_c   3.73007301
_cell_angle_alpha   87.89632424
_cell_angle_beta   87.89632097
_cell_angle_gamma   92.59658719
_symmetry_Int_Tables_number   1
_chemical_formula_structural   Ru(BrF)2
_chemical_formula_sum   'Ru1 Br2 F2'
_cell_volume   114.89008963
_cell_formula_units_Z   1
loop_
 _symmetry_equiv_pos_site_id
 _symmetry_equiv_pos_as_xyz
  1  'x, y, z'
loop_
 _atom_site_type_symbol
 _atom_site_label
 _atom_site_symmetry_multiplicity
 _atom_site_fract_x
 _atom_site_fract_y
 _atom_site_fract_z
 _atom_site_occupancy
  Ru  Ru0  1  0.000000  0.000000  0.000000  1
  Br  Br1  1  0.222037  0.222037  0.475427  1
  Br  Br2  1  0.777963  0.777963  0.524573  1
  F  F3  1  0.763957  0.236043  0.000000  1
  F  F4  1  0.236043  0.763957  0.000000  1
