# generated using pymatgen
data_LaNd5OsCl10
_symmetry_space_group_name_H-M   'P 1'
_cell_length_a   7.38065488
_cell_length_b   8.99379056
_cell_length_c   9.30951200
_cell_angle_alpha   108.44382454
_cell_angle_beta   97.26555713
_cell_angle_gamma   105.40474556
_symmetry_Int_Tables_number   1
_chemical_formula_structural   LaNd5OsCl10
_chemical_formula_sum   'La1 Nd5 Os1 Cl10'
_cell_volume   549.98745568
_cell_formula_units_Z   1
loop_
 _symmetry_equiv_pos_site_id
 _symmetry_equiv_pos_as_xyz
  1  'x, y, z'
loop_
 _atom_site_type_symbol
 _atom_site_label
 _atom_site_symmetry_multiplicity
 _atom_site_fract_x
 _atom_site_fract_y
 _atom_site_fract_z
 _atom_site_occupancy
  La  La0  1  0.534367  0.202057  0.409165  1
  Nd  Nd1  1  0.464258  0.796199  0.590597  1
  Nd  Nd2  1  0.118826  0.349726  0.303867  1
  Nd  Nd3  1  0.882081  0.652719  0.696881  1
  Nd  Nd4  1  0.637614  0.555172  0.242698  1
  Nd  Nd5  1  0.364053  0.444921  0.757747  1
  Os  Os6  1  0.502457  0.491919  0.498023  1
  Cl  Cl7  1  0.144399  0.041864  0.225762  1
  Cl  Cl8  1  0.843940  0.956580  0.769695  1
  Cl  Cl9  1  0.252886  0.418344  0.051161  1
  Cl  Cl10  1  0.748535  0.583669  0.949707  1
  Cl  Cl11  1  0.704949  0.249445  0.150599  1
  Cl  Cl12  1  0.299431  0.754108  0.844388  1
  Cl  Cl13  1  0.049215  0.673862  0.421053  1
  Cl  Cl14  1  0.957575  0.330593  0.582223  1
  Cl  Cl15  1  0.410885  0.133007  0.676224  1
  Cl  Cl16  1  0.584528  0.865813  0.330210  1
