# generated using pymatgen
data_EuZn9Cu2
_symmetry_space_group_name_H-M   'P 1'
_cell_length_a   8.24943168
_cell_length_b   8.24943192
_cell_length_c   8.24943070
_cell_angle_alpha   99.66690177
_cell_angle_beta   99.66689963
_cell_angle_gamma   131.61792415
_symmetry_Int_Tables_number   1
_chemical_formula_structural   EuZn9Cu2
_chemical_formula_sum   'Eu2 Zn18 Cu4'
_cell_volume   382.84088342
_cell_formula_units_Z   2
loop_
 _symmetry_equiv_pos_site_id
 _symmetry_equiv_pos_as_xyz
  1  'x, y, z'
loop_
 _atom_site_type_symbol
 _atom_site_label
 _atom_site_symmetry_multiplicity
 _atom_site_fract_x
 _atom_site_fract_y
 _atom_site_fract_z
 _atom_site_occupancy
  Eu  Eu0  1  0.000000  0.000000  0.000000  1
  Eu  Eu1  1  0.250000  0.750000  0.500000  1
  Zn  Zn2  1  0.750000  0.250000  0.500000  1
  Zn  Zn3  1  0.500000  0.500000  0.000000  1
  Zn  Zn4  1  0.187049  0.513293  0.082258  1
  Zn  Zn5  1  0.187049  0.104791  0.673757  1
  Zn  Zn6  1  0.763293  0.937049  0.582258  1
  Zn  Zn7  1  0.763293  0.181035  0.826243  1
  Zn  Zn8  1  0.431035  0.513293  0.326243  1
  Zn  Zn9  1  0.431035  0.104791  0.917742  1
  Zn  Zn10  1  0.354791  0.937049  0.173757  1
  Zn  Zn11  1  0.354791  0.181035  0.417742  1
  Zn  Zn12  1  0.062951  0.236707  0.417742  1
  Zn  Zn13  1  0.062951  0.645209  0.826243  1
  Zn  Zn14  1  0.486707  0.812951  0.917742  1
  Zn  Zn15  1  0.486707  0.568965  0.673757  1
  Zn  Zn16  1  0.818965  0.236707  0.173757  1
  Zn  Zn17  1  0.818965  0.645209  0.582258  1
  Zn  Zn18  1  0.895209  0.812951  0.326243  1
  Zn  Zn19  1  0.895209  0.568965  0.082258  1
  Cu  Cu20  1  0.125000  0.375000  0.750000  1
  Cu  Cu21  1  0.625000  0.875000  0.250000  1
  Cu  Cu22  1  0.625000  0.375000  0.750000  1
  Cu  Cu23  1  0.625000  0.375000  0.250000  1
