# generated using pymatgen
data_SiB12Se
_symmetry_space_group_name_H-M   'P 1'
_cell_length_a   5.32295112
_cell_length_b   5.32295218
_cell_length_c   5.32295151
_cell_angle_alpha   70.42505372
_cell_angle_beta   70.42504922
_cell_angle_gamma   70.42506227
_symmetry_Int_Tables_number   1
_chemical_formula_structural   SiB12Se
_chemical_formula_sum   'Si1 B12 Se1'
_cell_volume   129.60503582
_cell_formula_units_Z   1
loop_
 _symmetry_equiv_pos_site_id
 _symmetry_equiv_pos_as_xyz
  1  'x, y, z'
loop_
 _atom_site_type_symbol
 _atom_site_label
 _atom_site_symmetry_multiplicity
 _atom_site_fract_x
 _atom_site_fract_y
 _atom_site_fract_z
 _atom_site_occupancy
  Si  Si0  1  0.608080  0.608080  0.608080  1
  B  B1  1  0.014215  0.014215  0.325463  1
  B  B2  1  0.325463  0.014215  0.014215  1
  B  B3  1  0.275897  0.818126  0.818126  1
  B  B4  1  0.818126  0.818126  0.275897  1
  B  B5  1  0.818126  0.275897  0.818126  1
  B  B6  1  0.174010  0.731237  0.174010  1
  B  B7  1  0.731237  0.174010  0.174010  1
  B  B8  1  0.174010  0.174010  0.731237  1
  B  B9  1  0.675001  0.983864  0.983864  1
  B  B10  1  0.983864  0.983864  0.675001  1
  B  B11  1  0.983864  0.675001  0.983864  1
  B  B12  1  0.014215  0.325463  0.014215  1
  Se  Se13  1  0.403895  0.403895  0.403895  1
