# generated using pymatgen
data_Lu3Cd3AgAu2
_symmetry_space_group_name_H-M   'P 1'
_cell_length_a   7.75856900
_cell_length_b   7.75857025
_cell_length_c   3.82580600
_cell_angle_alpha   90.00000000
_cell_angle_beta   90.00000000
_cell_angle_gamma   119.99999896
_symmetry_Int_Tables_number   1
_chemical_formula_structural   Lu3Cd3AgAu2
_chemical_formula_sum   'Lu3 Cd3 Ag1 Au2'
_cell_volume   199.44212994
_cell_formula_units_Z   1
loop_
 _symmetry_equiv_pos_site_id
 _symmetry_equiv_pos_as_xyz
  1  'x, y, z'
loop_
 _atom_site_type_symbol
 _atom_site_label
 _atom_site_symmetry_multiplicity
 _atom_site_fract_x
 _atom_site_fract_y
 _atom_site_fract_z
 _atom_site_occupancy
  Lu  Lu0  1  0.592099  0.000000  0.000000  1
  Lu  Lu1  1  0.000000  0.592099  0.000000  1
  Lu  Lu2  1  0.407901  0.407901  0.000000  1
  Cd  Cd3  1  0.260558  0.000000  0.500000  1
  Cd  Cd4  1  0.000000  0.260558  0.500000  1
  Cd  Cd5  1  0.739442  0.739442  0.500000  1
  Ag  Ag6  1  0.000000  0.000000  0.000000  1
  Au  Au7  1  0.333333  0.666667  0.500000  1
  Au  Au8  1  0.666667  0.333333  0.500000  1
