# generated using pymatgen
data_Rb4MgZn3(SiAs2)4
_symmetry_space_group_name_H-M   'P 1'
_cell_length_a   8.46976786
_cell_length_b   8.32351912
_cell_length_c   8.49933677
_cell_angle_alpha   71.44131697
_cell_angle_beta   76.16127572
_cell_angle_gamma   73.24312050
_symmetry_Int_Tables_number   1
_chemical_formula_structural   Rb4MgZn3(SiAs2)4
_chemical_formula_sum   'Rb4 Mg1 Zn3 Si4 As8'
_cell_volume   536.68793221
_cell_formula_units_Z   1
loop_
 _symmetry_equiv_pos_site_id
 _symmetry_equiv_pos_as_xyz
  1  'x, y, z'
loop_
 _atom_site_type_symbol
 _atom_site_label
 _atom_site_symmetry_multiplicity
 _atom_site_fract_x
 _atom_site_fract_y
 _atom_site_fract_z
 _atom_site_occupancy
  Rb  Rb0  1  0.453288  0.765876  0.320180  1
  Rb  Rb1  1  0.544733  0.233191  0.680899  1
  Rb  Rb2  1  0.441727  0.798906  0.816820  1
  Rb  Rb3  1  0.559062  0.201751  0.183707  1
  Mg  Mg4  1  0.993747  0.893923  0.683772  1
  Zn  Zn5  1  0.004150  0.107918  0.312174  1
  Zn  Zn6  1  0.962655  0.811281  0.173894  1
  Zn  Zn7  1  0.038786  0.191688  0.824340  1
  Si  Si8  1  0.963696  0.586502  0.594158  1
  Si  Si9  1  0.039166  0.413709  0.403258  1
  Si  Si10  1  0.142542  0.447334  0.978725  1
  Si  Si11  1  0.855365  0.552945  0.022375  1
  As  As12  1  0.824366  0.876546  0.452431  1
  As  As13  1  0.181062  0.129391  0.542630  1
  As  As14  1  0.793214  0.400759  0.314160  1
  As  As15  1  0.213615  0.586772  0.686510  1
  As  As16  1  0.777208  0.864043  0.968837  1
  As  As17  1  0.211690  0.134349  0.043861  1
  As  As18  1  0.781477  0.443474  0.824227  1
  As  As19  1  0.218450  0.559642  0.173043  1
