# generated using pymatgen
data_Li3ZnInPt3
_symmetry_space_group_name_H-M   'P 1'
_cell_length_a   6.98839932
_cell_length_b   6.98839995
_cell_length_c   6.98839833
_cell_angle_alpha   62.15896811
_cell_angle_beta   62.15897480
_cell_angle_gamma   62.15898458
_symmetry_Int_Tables_number   1
_chemical_formula_structural   Li3ZnInPt3
_chemical_formula_sum   'Li6 Zn2 In2 Pt6'
_cell_volume   252.97454386
_cell_formula_units_Z   2
loop_
 _symmetry_equiv_pos_site_id
 _symmetry_equiv_pos_as_xyz
  1  'x, y, z'
loop_
 _atom_site_type_symbol
 _atom_site_label
 _atom_site_symmetry_multiplicity
 _atom_site_fract_x
 _atom_site_fract_y
 _atom_site_fract_z
 _atom_site_occupancy
  Li  Li0  1  0.579987  0.827072  0.329964  1
  Li  Li1  1  0.329964  0.579987  0.827072  1
  Li  Li2  1  0.827072  0.329964  0.579987  1
  Li  Li3  1  0.670036  0.172928  0.420013  1
  Li  Li4  1  0.172928  0.420013  0.670036  1
  Li  Li5  1  0.420013  0.670036  0.172928  1
  Zn  Zn6  1  0.915670  0.915670  0.915670  1
  Zn  Zn7  1  0.084330  0.084330  0.084330  1
  In  In8  1  0.266535  0.266535  0.266535  1
  In  In9  1  0.733465  0.733465  0.733465  1
  Pt  Pt10  1  0.882252  0.500000  0.117748  1
  Pt  Pt11  1  0.117748  0.882252  0.500000  1
  Pt  Pt12  1  0.500000  0.117748  0.882252  1
  Pt  Pt13  1  0.307538  0.000000  0.692462  1
  Pt  Pt14  1  0.692462  0.307538  0.000000  1
  Pt  Pt15  1  0.000000  0.692462  0.307538  1
