# generated using pymatgen
data_Ta10Al2Si3P
_symmetry_space_group_name_H-M   'P 1'
_cell_length_a   7.57717260
_cell_length_b   7.57717155
_cell_length_c   7.57111016
_cell_angle_alpha   128.11176510
_cell_angle_beta   128.11174470
_cell_angle_gamma   76.50226526
_symmetry_Int_Tables_number   1
_chemical_formula_structural   Ta10Al2Si3P
_chemical_formula_sum   'Ta10 Al2 Si3 P1'
_cell_volume   261.34635487
_cell_formula_units_Z   1
loop_
 _symmetry_equiv_pos_site_id
 _symmetry_equiv_pos_as_xyz
  1  'x, y, z'
loop_
 _atom_site_type_symbol
 _atom_site_label
 _atom_site_symmetry_multiplicity
 _atom_site_fract_x
 _atom_site_fract_y
 _atom_site_fract_z
 _atom_site_occupancy
  Ta  Ta0  1  0.017475  0.188309  0.500000  1
  Ta  Ta1  1  0.688866  0.514092  0.500000  1
  Ta  Ta2  1  0.513997  0.016068  0.824366  1
  Ta  Ta3  1  0.189630  0.691702  0.175634  1
  Ta  Ta4  1  0.985908  0.811134  0.500000  1
  Ta  Ta5  1  0.311691  0.482525  0.500000  1
  Ta  Ta6  1  0.483932  0.986003  0.175634  1
  Ta  Ta7  1  0.808298  0.310370  0.824366  1
  Ta  Ta8  1  0.001617  0.001053  0.002670  1
  Ta  Ta9  1  0.498947  0.498383  0.997330  1
  Al  Al10  1  0.748911  0.751089  0.000000  1
  Al  Al11  1  0.248911  0.251089  0.000000  1
  Si  Si12  1  0.633814  0.866186  0.500000  1
  Si  Si13  1  0.869420  0.370119  0.239539  1
  Si  Si14  1  0.129881  0.630580  0.760461  1
  P  P15  1  0.368702  0.131298  0.500000  1
