# generated using pymatgen
data_Cs2CdSi2SnAs4
_symmetry_space_group_name_H-M   'P 1'
_cell_length_a   8.77431962
_cell_length_b   9.07102040
_cell_length_c   8.58964044
_cell_angle_alpha   84.92257067
_cell_angle_beta   78.09997343
_cell_angle_gamma   72.28257765
_symmetry_Int_Tables_number   1
_chemical_formula_structural   Cs2CdSi2SnAs4
_chemical_formula_sum   'Cs4 Cd2 Si4 Sn2 As8'
_cell_volume   637.00085510
_cell_formula_units_Z   2
loop_
 _symmetry_equiv_pos_site_id
 _symmetry_equiv_pos_as_xyz
  1  'x, y, z'
loop_
 _atom_site_type_symbol
 _atom_site_label
 _atom_site_symmetry_multiplicity
 _atom_site_fract_x
 _atom_site_fract_y
 _atom_site_fract_z
 _atom_site_occupancy
  Cs  Cs0  1  0.440157  0.761122  0.384834  1
  Cs  Cs1  1  0.559843  0.238878  0.615166  1
  Cs  Cs2  1  0.421932  0.792154  0.870130  1
  Cs  Cs3  1  0.578068  0.207846  0.129870  1
  Cd  Cd4  1  0.961292  0.826132  0.247098  1
  Cd  Cd5  1  0.038708  0.173868  0.752902  1
  Si  Si6  1  0.943113  0.572656  0.617781  1
  Si  Si7  1  0.056887  0.427344  0.382219  1
  Si  Si8  1  0.140766  0.466244  0.970295  1
  Si  Si9  1  0.859234  0.533756  0.029705  1
  Sn  Sn10  1  0.943542  0.883463  0.783396  1
  Sn  Sn11  1  0.056458  0.116537  0.216604  1
  As  As12  1  0.791211  0.829016  0.554766  1
  As  As13  1  0.208789  0.170984  0.445234  1
  As  As14  1  0.823454  0.400787  0.284718  1
  As  As15  1  0.176546  0.599213  0.715282  1
  As  As16  1  0.755870  0.806719  0.052531  1
  As  As17  1  0.244130  0.193281  0.947469  1
  As  As18  1  0.783581  0.441808  0.810884  1
  As  As19  1  0.216419  0.558192  0.189116  1
