# generated using pymatgen
data_K7Sr(NpS5)2
_symmetry_space_group_name_H-M   'P 1'
_cell_length_a   7.42878754
_cell_length_b   11.11692674
_cell_length_c   7.18887000
_cell_angle_alpha   102.01473252
_cell_angle_beta   100.47554332
_cell_angle_gamma   109.93379551
_symmetry_Int_Tables_number   1
_chemical_formula_structural   K7Sr(NpS5)2
_chemical_formula_sum   'K7 Sr1 Np2 S10'
_cell_volume   524.86393007
_cell_formula_units_Z   1
loop_
 _symmetry_equiv_pos_site_id
 _symmetry_equiv_pos_as_xyz
  1  'x, y, z'
loop_
 _atom_site_type_symbol
 _atom_site_label
 _atom_site_symmetry_multiplicity
 _atom_site_fract_x
 _atom_site_fract_y
 _atom_site_fract_z
 _atom_site_occupancy
  K  K0  1  0.000319  0.500154  0.000111  1
  K  K1  1  0.420321  0.905048  0.207650  1
  K  K2  1  0.593769  0.593372  0.293622  1
  K  K3  1  0.795586  0.303493  0.423526  1
  K  K4  1  0.204507  0.696651  0.576358  1
  K  K5  1  0.406213  0.406632  0.706392  1
  K  K6  1  0.579783  0.095096  0.792493  1
  Sr  Sr7  1  0.999989  0.999985  0.500002  1
  Np  Np8  1  0.191274  0.196346  0.100369  1
  Np  Np9  1  0.808589  0.803494  0.899562  1
  S  S10  1  0.528119  0.315875  0.059780  1
  S  S11  1  0.838328  0.039633  0.126610  1
  S  S12  1  0.983845  0.765521  0.209543  1
  S  S13  1  0.180729  0.404131  0.311426  1
  S  S14  1  0.360081  0.151012  0.406282  1
  S  S15  1  0.639885  0.849021  0.593658  1
  S  S16  1  0.819341  0.595645  0.688345  1
  S  S17  1  0.016209  0.234479  0.790576  1
  S  S18  1  0.161641  0.960352  0.873391  1
  S  S19  1  0.471476  0.684056  0.940303  1
