# generated using pymatgen
data_Er4Ni2As6Ru5
_symmetry_space_group_name_H-M   'P 1'
_cell_length_a   7.18955761
_cell_length_b   7.18955651
_cell_length_c   7.14105567
_cell_angle_alpha   109.63889859
_cell_angle_beta   109.63889385
_cell_angle_gamma   109.41162765
_symmetry_Int_Tables_number   1
_chemical_formula_structural   Er4Ni2As6Ru5
_chemical_formula_sum   'Er4 Ni2 As6 Ru5'
_cell_volume   283.17586756
_cell_formula_units_Z   1
loop_
 _symmetry_equiv_pos_site_id
 _symmetry_equiv_pos_as_xyz
  1  'x, y, z'
loop_
 _atom_site_type_symbol
 _atom_site_label
 _atom_site_symmetry_multiplicity
 _atom_site_fract_x
 _atom_site_fract_y
 _atom_site_fract_z
 _atom_site_occupancy
  Er  Er0  1  0.002541  0.002541  0.503434  1
  Er  Er1  1  0.499312  0.999312  0.998624  1
  Er  Er2  1  0.999312  0.499312  0.998624  1
  Er  Er3  1  0.500893  0.500893  0.503434  1
  Ni  Ni4  1  0.749522  0.499614  0.249136  1
  Ni  Ni5  1  0.499614  0.749522  0.249136  1
  As  As6  1  0.316301  0.001309  0.317610  1
  As  As7  1  0.001309  0.316301  0.317610  1
  As  As8  1  0.998734  0.680454  0.679187  1
  As  As9  1  0.322498  0.322498  0.005239  1
  As  As10  1  0.682741  0.682741  0.005239  1
  As  As11  1  0.680454  0.998734  0.679187  1
  Ru  Ru12  1  0.501655  0.251556  0.753211  1
  Ru  Ru13  1  0.747433  0.247433  0.494867  1
  Ru  Ru14  1  0.247433  0.747433  0.494867  1
  Ru  Ru15  1  0.251556  0.501655  0.753211  1
  Ru  Ru16  1  0.998691  0.998691  0.997382  1
