# generated using pymatgen
data_PmMnGe2Pt
_symmetry_space_group_name_H-M   'P 1'
_cell_length_a   6.06736535
_cell_length_b   6.06736578
_cell_length_c   6.06736416
_cell_angle_alpha   139.35592959
_cell_angle_beta   139.35593497
_cell_angle_gamma   58.83253629
_symmetry_Int_Tables_number   1
_chemical_formula_structural   PmMnGe2Pt
_chemical_formula_sum   'Pm1 Mn1 Ge2 Pt1'
_cell_volume   93.86765040
_cell_formula_units_Z   1
loop_
 _symmetry_equiv_pos_site_id
 _symmetry_equiv_pos_as_xyz
  1  'x, y, z'
loop_
 _atom_site_type_symbol
 _atom_site_label
 _atom_site_symmetry_multiplicity
 _atom_site_fract_x
 _atom_site_fract_y
 _atom_site_fract_z
 _atom_site_occupancy
  Pm  Pm0  1  0.000000  0.000000  0.000000  1
  Mn  Mn1  1  0.750000  0.250000  0.500000  1
  Ge  Ge2  1  0.381876  0.381876  0.000000  1
  Ge  Ge3  1  0.618123  0.618123  0.000000  1
  Pt  Pt4  1  0.250000  0.750000  0.500000  1
