# generated using pymatgen
data_Ce7UH24
_symmetry_space_group_name_H-M   'P 1'
_cell_length_a   6.81287600
_cell_length_b   6.81287600
_cell_length_c   6.81287600
_cell_angle_alpha   90.00000000
_cell_angle_beta   90.00000000
_cell_angle_gamma   90.00000000
_symmetry_Int_Tables_number   1
_chemical_formula_structural   Ce7UH24
_chemical_formula_sum   'Ce7 U1 H24'
_cell_volume   316.22154300
_cell_formula_units_Z   1
loop_
 _symmetry_equiv_pos_site_id
 _symmetry_equiv_pos_as_xyz
  1  'x, y, z'
loop_
 _atom_site_type_symbol
 _atom_site_label
 _atom_site_symmetry_multiplicity
 _atom_site_fract_x
 _atom_site_fract_y
 _atom_site_fract_z
 _atom_site_occupancy
  Ce  Ce0  1  0.000000  0.000000  0.000000  1
  Ce  Ce1  1  0.250805  0.000000  0.500000  1
  Ce  Ce2  1  0.749195  0.000000  0.500000  1
  Ce  Ce3  1  0.000000  0.500000  0.250805  1
  Ce  Ce4  1  0.000000  0.500000  0.749195  1
  Ce  Ce5  1  0.500000  0.749195  0.000000  1
  Ce  Ce6  1  0.500000  0.250805  0.000000  1
  U  U7  1  0.500000  0.500000  0.500000  1
  H  H8  1  0.000000  0.154846  0.306748  1
  H  H9  1  0.500000  0.204904  0.651531  1
  H  H10  1  0.500000  0.795096  0.348469  1
  H  H11  1  0.795096  0.651531  0.500000  1
  H  H12  1  0.204904  0.651531  0.500000  1
  H  H13  1  0.348469  0.500000  0.795096  1
  H  H14  1  0.651531  0.500000  0.795096  1
  H  H15  1  0.306748  0.000000  0.154846  1
  H  H16  1  0.154846  0.306748  0.000000  1
  H  H17  1  0.845154  0.693252  0.000000  1
  H  H18  1  0.306748  0.000000  0.845154  1
  H  H19  1  0.845154  0.306748  0.000000  1
  H  H20  1  0.693252  0.000000  0.154846  1
  H  H21  1  0.693252  0.000000  0.845154  1
  H  H22  1  0.154846  0.693252  0.000000  1
  H  H23  1  0.000000  0.845154  0.693252  1
  H  H24  1  0.000000  0.154846  0.693252  1
  H  H25  1  0.000000  0.845154  0.306748  1
  H  H26  1  0.651531  0.500000  0.204904  1
  H  H27  1  0.348469  0.500000  0.204904  1
  H  H28  1  0.795096  0.348469  0.500000  1
  H  H29  1  0.204904  0.348469  0.500000  1
  H  H30  1  0.500000  0.795096  0.651531  1
  H  H31  1  0.500000  0.204904  0.348469  1
