# generated using pymatgen
data_Er9Pa(Sn3C)2
_symmetry_space_group_name_H-M   'P 1'
_cell_length_a   8.90551426
_cell_length_b   8.90551407
_cell_length_c   6.48571900
_cell_angle_alpha   90.00000000
_cell_angle_beta   90.00000000
_cell_angle_gamma   120.44866845
_symmetry_Int_Tables_number   1
_chemical_formula_structural   Er9Pa(Sn3C)2
_chemical_formula_sum   'Er9 Pa1 Sn6 C2'
_cell_volume   443.43040596
_cell_formula_units_Z   1
loop_
 _symmetry_equiv_pos_site_id
 _symmetry_equiv_pos_as_xyz
  1  'x, y, z'
loop_
 _atom_site_type_symbol
 _atom_site_label
 _atom_site_symmetry_multiplicity
 _atom_site_fract_x
 _atom_site_fract_y
 _atom_site_fract_z
 _atom_site_occupancy
  Er  Er0  1  0.666756  0.333720  0.500482  1
  Er  Er1  1  0.333720  0.666756  0.500482  1
  Er  Er2  1  0.333720  0.666756  0.999518  1
  Er  Er3  1  0.666756  0.333720  0.999518  1
  Er  Er4  1  0.221969  0.002368  0.250000  1
  Er  Er5  1  0.002368  0.221969  0.250000  1
  Er  Er6  1  0.214666  0.214666  0.750000  1
  Er  Er7  1  0.784236  0.000132  0.750000  1
  Er  Er8  1  0.000132  0.784236  0.750000  1
  Pa  Pa9  1  0.796428  0.796428  0.250000  1
  Sn  Sn10  1  0.407953  0.407953  0.250000  1
  Sn  Sn11  1  0.593839  0.001683  0.250000  1
  Sn  Sn12  1  0.001683  0.593839  0.250000  1
  Sn  Sn13  1  0.593535  0.593535  0.750000  1
  Sn  Sn14  1  0.404144  0.000012  0.750000  1
  Sn  Sn15  1  0.000012  0.404144  0.750000  1
  C  C16  1  0.989042  0.989042  0.492595  1
  C  C17  1  0.989042  0.989042  0.007405  1
