# generated using pymatgen
data_Tb6NdSn23Ir6
_symmetry_space_group_name_H-M   'P 1'
_cell_length_a   9.89197000
_cell_length_b   9.89197023
_cell_length_c   10.15277200
_cell_angle_alpha   90.00000000
_cell_angle_beta   90.00000000
_cell_angle_gamma   120.00000592
_symmetry_Int_Tables_number   1
_chemical_formula_structural   Tb6NdSn23Ir6
_chemical_formula_sum   'Tb6 Nd1 Sn23 Ir6'
_cell_volume   860.36122715
_cell_formula_units_Z   1
loop_
 _symmetry_equiv_pos_site_id
 _symmetry_equiv_pos_as_xyz
  1  'x, y, z'
loop_
 _atom_site_type_symbol
 _atom_site_label
 _atom_site_symmetry_multiplicity
 _atom_site_fract_x
 _atom_site_fract_y
 _atom_site_fract_z
 _atom_site_occupancy
  Tb  Tb0  1  0.479407  0.520593  0.307090  1
  Tb  Tb1  1  0.520593  0.479407  0.692910  1
  Tb  Tb2  1  0.479407  0.958813  0.307090  1
  Tb  Tb3  1  0.520593  0.041187  0.692910  1
  Tb  Tb4  1  0.041187  0.520593  0.307090  1
  Tb  Tb5  1  0.958813  0.479407  0.692910  1
  Nd  Nd6  1  0.000000  0.000000  0.000000  1
  Sn  Sn7  1  0.352887  0.000000  0.000000  1
  Sn  Sn8  1  0.647113  0.000000  0.000000  1
  Sn  Sn9  1  0.000000  0.352887  0.000000  1
  Sn  Sn10  1  0.000000  0.647113  0.000000  1
  Sn  Sn11  1  0.647113  0.647113  0.000000  1
  Sn  Sn12  1  0.352887  0.352887  0.000000  1
  Sn  Sn13  1  0.333333  0.666667  0.824178  1
  Sn  Sn14  1  0.666667  0.333333  0.175822  1
  Sn  Sn15  1  0.000000  0.000000  0.500000  1
  Sn  Sn16  1  0.778203  0.221797  0.455424  1
  Sn  Sn17  1  0.221797  0.778203  0.544576  1
  Sn  Sn18  1  0.778203  0.556406  0.455424  1
  Sn  Sn19  1  0.221797  0.443594  0.544576  1
  Sn  Sn20  1  0.443594  0.221797  0.455424  1
  Sn  Sn21  1  0.556406  0.778203  0.544576  1
  Sn  Sn22  1  0.333333  0.666667  0.119838  1
  Sn  Sn23  1  0.666667  0.333333  0.880162  1
  Sn  Sn24  1  0.118913  0.881087  0.283800  1
  Sn  Sn25  1  0.881087  0.118913  0.716200  1
  Sn  Sn26  1  0.118913  0.237828  0.283800  1
  Sn  Sn27  1  0.881087  0.762172  0.716200  1
  Sn  Sn28  1  0.762172  0.881087  0.283800  1
  Sn  Sn29  1  0.237828  0.118913  0.716200  1
  Ir  Ir30  1  0.830858  0.169142  0.198613  1
  Ir  Ir31  1  0.169142  0.830858  0.801387  1
  Ir  Ir32  1  0.830858  0.661715  0.198613  1
  Ir  Ir33  1  0.169142  0.338285  0.801387  1
  Ir  Ir34  1  0.338285  0.169142  0.198613  1
  Ir  Ir35  1  0.661715  0.830858  0.801387  1
