# generated using pymatgen
data_Th10InBi5Pb2
_symmetry_space_group_name_H-M   'P 1'
_cell_length_a   9.81654190
_cell_length_b   9.81045253
_cell_length_c   6.63233674
_cell_angle_alpha   90.05417974
_cell_angle_beta   89.97292748
_cell_angle_gamma   119.97947716
_symmetry_Int_Tables_number   1
_chemical_formula_structural   Th10InBi5Pb2
_chemical_formula_sum   'Th10 In1 Bi5 Pb2'
_cell_volume   553.26646482
_cell_formula_units_Z   1
loop_
 _symmetry_equiv_pos_site_id
 _symmetry_equiv_pos_as_xyz
  1  'x, y, z'
loop_
 _atom_site_type_symbol
 _atom_site_label
 _atom_site_symmetry_multiplicity
 _atom_site_fract_x
 _atom_site_fract_y
 _atom_site_fract_z
 _atom_site_occupancy
  Th  Th0  1  0.667132  0.333543  0.500429  1
  Th  Th1  1  0.332868  0.666412  0.500429  1
  Th  Th2  1  0.332639  0.666081  0.999547  1
  Th  Th3  1  0.667361  0.333441  0.999547  1
  Th  Th4  1  0.717185  0.717805  0.252243  1
  Th  Th5  1  0.282815  0.000620  0.252243  1
  Th  Th6  1  0.000000  0.283120  0.252337  1
  Th  Th7  1  0.282500  0.283052  0.747921  1
  Th  Th8  1  0.717500  0.000551  0.747921  1
  Th  Th9  1  0.000000  0.717213  0.747285  1
  In  In10  1  0.000000  0.999889  0.500273  1
  Bi  Bi11  1  0.378389  0.378904  0.250306  1
  Bi  Bi12  1  0.621611  0.000515  0.250306  1
  Bi  Bi13  1  0.000000  0.620580  0.250506  1
  Bi  Bi14  1  0.621260  0.620936  0.749594  1
  Bi  Bi15  1  0.378740  0.999677  0.749594  1
  Pb  Pb16  1  0.000000  0.999663  0.999777  1
  Pb  Pb17  1  0.000000  0.377997  0.749742  1
