# generated using pymatgen
data_Nd12ZnGe11Pt12
_symmetry_space_group_name_H-M   'P 1'
_cell_length_a   4.49016500
_cell_length_b   7.63712903
_cell_length_c   22.12143900
_cell_angle_alpha   89.99534859
_cell_angle_beta   90.00000000
_cell_angle_gamma   90.00000000
_symmetry_Int_Tables_number   1
_chemical_formula_structural   Nd12ZnGe11Pt12
_chemical_formula_sum   'Nd12 Zn1 Ge11 Pt12'
_cell_volume   758.58770786
_cell_formula_units_Z   1
loop_
 _symmetry_equiv_pos_site_id
 _symmetry_equiv_pos_as_xyz
  1  'x, y, z'
loop_
 _atom_site_type_symbol
 _atom_site_label
 _atom_site_symmetry_multiplicity
 _atom_site_fract_x
 _atom_site_fract_y
 _atom_site_fract_z
 _atom_site_occupancy
  Nd  Nd0  1  0.250000  0.707429  0.333145  1
  Nd  Nd1  1  0.750000  0.293547  0.666761  1
  Nd  Nd2  1  0.750000  0.208094  0.166213  1
  Nd  Nd3  1  0.250000  0.789077  0.833383  1
  Nd  Nd4  1  0.250000  0.791837  0.166433  1
  Nd  Nd5  1  0.750000  0.210057  0.834538  1
  Nd  Nd6  1  0.750000  0.292064  0.333218  1
  Nd  Nd7  1  0.250000  0.705701  0.666951  1
  Nd  Nd8  1  0.250000  0.706954  0.001592  1
  Nd  Nd9  1  0.750000  0.290848  0.997270  1
  Nd  Nd10  1  0.750000  0.209730  0.498412  1
  Nd  Nd11  1  0.250000  0.789599  0.502248  1
  Zn  Zn12  1  0.250000  0.411017  0.896467  1
  Ge  Ge13  1  0.250000  0.089010  0.068684  1
  Ge  Ge14  1  0.750000  0.916231  0.934564  1
  Ge  Ge15  1  0.750000  0.588443  0.432275  1
  Ge  Ge16  1  0.250000  0.412263  0.565837  1
  Ge  Ge17  1  0.250000  0.086862  0.268443  1
  Ge  Ge18  1  0.750000  0.913666  0.730681  1
  Ge  Ge19  1  0.750000  0.586867  0.231024  1
  Ge  Ge20  1  0.250000  0.410570  0.768128  1
  Ge  Ge21  1  0.250000  0.087694  0.396662  1
  Ge  Ge22  1  0.750000  0.912820  0.603361  1
  Ge  Ge23  1  0.750000  0.588035  0.103437  1
  Pt  Pt24  1  0.250000  0.419977  0.236844  1
  Pt  Pt25  1  0.750000  0.582920  0.763286  1
  Pt  Pt26  1  0.750000  0.919989  0.263163  1
  Pt  Pt27  1  0.250000  0.078661  0.736755  1
  Pt  Pt28  1  0.250000  0.416220  0.434976  1
  Pt  Pt29  1  0.750000  0.583094  0.566439  1
  Pt  Pt30  1  0.750000  0.915439  0.064296  1
  Pt  Pt31  1  0.250000  0.077628  0.933085  1
  Pt  Pt32  1  0.250000  0.419960  0.094078  1
  Pt  Pt33  1  0.750000  0.587604  0.906826  1
  Pt  Pt34  1  0.750000  0.919392  0.405495  1
  Pt  Pt35  1  0.250000  0.080705  0.595029  1
