# generated using pymatgen
data_Hf6Al16Ni5Rh2
_symmetry_space_group_name_H-M   'P 1'
_cell_length_a   8.55763139
_cell_length_b   8.56187170
_cell_length_c   8.56187149
_cell_angle_alpha   59.69251953
_cell_angle_beta   60.01638254
_cell_angle_gamma   60.01638058
_symmetry_Int_Tables_number   1
_chemical_formula_structural   Hf6Al16Ni5Rh2
_chemical_formula_sum   'Hf6 Al16 Ni5 Rh2'
_cell_volume   442.65320571
_cell_formula_units_Z   1
loop_
 _symmetry_equiv_pos_site_id
 _symmetry_equiv_pos_as_xyz
  1  'x, y, z'
loop_
 _atom_site_type_symbol
 _atom_site_label
 _atom_site_symmetry_multiplicity
 _atom_site_fract_x
 _atom_site_fract_y
 _atom_site_fract_z
 _atom_site_occupancy
  Hf  Hf0  1  0.689759  0.310240  0.310240  1
  Hf  Hf1  1  0.310240  0.689759  0.689759  1
  Hf  Hf2  1  0.314134  0.686887  0.313112  1
  Hf  Hf3  1  0.314134  0.313112  0.686887  1
  Hf  Hf4  1  0.685865  0.313112  0.686887  1
  Hf  Hf5  1  0.685865  0.686887  0.313112  1
  Al  Al6  1  0.339937  0.332677  0.332677  1
  Al  Al7  1  0.334604  0.335126  0.995665  1
  Al  Al8  1  0.994708  0.332677  0.332677  1
  Al  Al9  1  0.334604  0.995665  0.335126  1
  Al  Al10  1  0.660063  0.667323  0.667323  1
  Al  Al11  1  0.665396  0.664874  0.004335  1
  Al  Al12  1  0.665396  0.004335  0.664874  1
  Al  Al13  1  0.005292  0.667323  0.667323  1
  Al  Al14  1  0.121057  0.119735  0.119735  1
  Al  Al15  1  0.121273  0.119271  0.638182  1
  Al  Al16  1  0.639474  0.119735  0.119735  1
  Al  Al17  1  0.121273  0.638182  0.119271  1
  Al  Al18  1  0.878942  0.880264  0.880264  1
  Al  Al19  1  0.878726  0.880728  0.361821  1
  Al  Al20  1  0.878726  0.361821  0.880728  1
  Al  Al21  1  0.360529  0.880264  0.880264  1
  Ni  Ni22  1  0.500000  0.000000  0.000000  1
  Ni  Ni23  1  0.000000  0.500000  0.000000  1
  Ni  Ni24  1  0.000000  0.000000  0.500000  1
  Ni  Ni25  1  0.500000  0.000000  0.500000  1
  Ni  Ni26  1  0.500000  0.500000  0.000000  1
  Rh  Rh27  1  0.000000  0.000000  0.000000  1
  Rh  Rh28  1  0.000000  0.500000  0.500000  1
