# generated using pymatgen
data_Nd7TmSi13Ge
_symmetry_space_group_name_H-M   'P 1'
_cell_length_a   7.52353606
_cell_length_b   7.52183854
_cell_length_c   11.75305000
_cell_angle_alpha   90.00866082
_cell_angle_beta   89.95755098
_cell_angle_gamma   134.31963348
_symmetry_Int_Tables_number   1
_chemical_formula_structural   Nd7TmSi13Ge
_chemical_formula_sum   'Nd7 Tm1 Si13 Ge1'
_cell_volume   475.85841437
_cell_formula_units_Z   1
loop_
 _symmetry_equiv_pos_site_id
 _symmetry_equiv_pos_as_xyz
  1  'x, y, z'
loop_
 _atom_site_type_symbol
 _atom_site_label
 _atom_site_symmetry_multiplicity
 _atom_site_fract_x
 _atom_site_fract_y
 _atom_site_fract_z
 _atom_site_occupancy
  Nd  Nd0  1  0.500285  0.994155  0.375580  1
  Nd  Nd1  1  0.994959  0.499023  0.623815  1
  Nd  Nd2  1  0.501368  0.004329  0.877778  1
  Nd  Nd3  1  0.005151  0.500472  0.122553  1
  Nd  Nd4  1  0.996659  0.002300  0.249639  1
  Nd  Nd5  1  0.001530  0.997072  0.750496  1
  Nd  Nd6  1  0.504921  0.504321  0.497368  1
  Tm  Tm7  1  0.494174  0.494481  0.003259  1
  Si  Si8  1  0.910312  0.080723  0.995179  1
  Si  Si9  1  0.076522  0.906317  0.004680  1
  Si  Si10  1  0.092871  0.920484  0.495567  1
  Si  Si11  1  0.918858  0.090504  0.504524  1
  Si  Si12  1  0.572136  0.907521  0.126176  1
  Si  Si13  1  0.910701  0.571650  0.874512  1
  Si  Si14  1  0.426250  0.088492  0.627600  1
  Si  Si15  1  0.092204  0.426109  0.371056  1
  Si  Si16  1  0.432831  0.114203  0.131914  1
  Si  Si17  1  0.121645  0.436246  0.866021  1
  Si  Si18  1  0.566195  0.885469  0.635707  1
  Si  Si19  1  0.891629  0.568090  0.365894  1
  Si  Si20  1  0.429119  0.568492  0.246165  1
  Ge  Ge21  1  0.559676  0.439546  0.754519  1
