# generated using pymatgen
data_CaY3Ir8
_symmetry_space_group_name_H-M   'P 1'
_cell_length_a   5.36590800
_cell_length_b   5.36590731
_cell_length_c   8.73424500
_cell_angle_alpha   90.00000000
_cell_angle_beta   90.00000000
_cell_angle_gamma   119.99997960
_symmetry_Int_Tables_number   1
_chemical_formula_structural   CaY3Ir8
_chemical_formula_sum   'Ca1 Y3 Ir8'
_cell_volume   217.79227911
_cell_formula_units_Z   1
loop_
 _symmetry_equiv_pos_site_id
 _symmetry_equiv_pos_as_xyz
  1  'x, y, z'
loop_
 _atom_site_type_symbol
 _atom_site_label
 _atom_site_symmetry_multiplicity
 _atom_site_fract_x
 _atom_site_fract_y
 _atom_site_fract_z
 _atom_site_occupancy
  Ca  Ca0  1  0.333333  0.666667  0.436071  1
  Y  Y1  1  0.333333  0.666667  0.073921  1
  Y  Y2  1  0.666667  0.333333  0.562431  1
  Y  Y3  1  0.666667  0.333333  0.930630  1
  Ir  Ir4  1  0.000000  0.000000  0.999497  1
  Ir  Ir5  1  0.000000  0.000000  0.499073  1
  Ir  Ir6  1  0.830392  0.660785  0.248283  1
  Ir  Ir7  1  0.169534  0.830466  0.751176  1
  Ir  Ir8  1  0.660932  0.830466  0.751176  1
  Ir  Ir9  1  0.339215  0.169608  0.248283  1
  Ir  Ir10  1  0.830392  0.169608  0.248283  1
  Ir  Ir11  1  0.169534  0.339068  0.751176  1
