# generated using pymatgen
data_Y7FeSn23Rh5
_symmetry_space_group_name_H-M   'P 1'
_cell_length_a   9.85876400
_cell_length_b   9.85826651
_cell_length_c   10.07220391
_cell_angle_alpha   89.90055284
_cell_angle_beta   90.00000000
_cell_angle_gamma   120.00166934
_symmetry_Int_Tables_number   1
_chemical_formula_structural   Y7FeSn23Rh5
_chemical_formula_sum   'Y7 Fe1 Sn23 Rh5'
_cell_volume   847.75427511
_cell_formula_units_Z   1
loop_
 _symmetry_equiv_pos_site_id
 _symmetry_equiv_pos_as_xyz
  1  'x, y, z'
loop_
 _atom_site_type_symbol
 _atom_site_label
 _atom_site_symmetry_multiplicity
 _atom_site_fract_x
 _atom_site_fract_y
 _atom_site_fract_z
 _atom_site_occupancy
  Y  Y0  1  0.001328  0.002655  0.999007  1
  Y  Y1  1  0.041668  0.521417  0.307304  1
  Y  Y2  1  0.478350  0.956701  0.307498  1
  Y  Y3  1  0.479748  0.521417  0.307304  1
  Y  Y4  1  0.956199  0.478825  0.692002  1
  Y  Y5  1  0.520950  0.041901  0.692781  1
  Y  Y6  1  0.522626  0.478825  0.692002  1
  Fe  Fe7  1  0.831482  0.662965  0.198384  1
  Sn  Sn8  1  0.000560  0.001120  0.500655  1
  Sn  Sn9  1  0.110617  0.876402  0.276202  1
  Sn  Sn10  1  0.765783  0.876402  0.276202  1
  Sn  Sn11  1  0.119702  0.239406  0.282449  1
  Sn  Sn12  1  0.880505  0.118264  0.718346  1
  Sn  Sn13  1  0.237760  0.118264  0.718346  1
  Sn  Sn14  1  0.880241  0.760480  0.717897  1
  Sn  Sn15  1  0.351308  0.999743  0.000232  1
  Sn  Sn16  1  0.656564  0.650639  0.005086  1
  Sn  Sn17  1  0.999796  0.352719  0.000308  1
  Sn  Sn18  1  0.352923  0.352719  0.000308  1
  Sn  Sn19  1  0.994076  0.650639  0.005086  1
  Sn  Sn20  1  0.648435  0.999743  0.000232  1
  Sn  Sn21  1  0.780829  0.561656  0.448698  1
  Sn  Sn22  1  0.777891  0.221907  0.454565  1
  Sn  Sn23  1  0.444016  0.221907  0.454565  1
  Sn  Sn24  1  0.222169  0.444337  0.545892  1
  Sn  Sn25  1  0.221679  0.778491  0.544971  1
  Sn  Sn26  1  0.556811  0.778491  0.544971  1
  Sn  Sn27  1  0.669393  0.338783  0.181717  1
  Sn  Sn28  1  0.333205  0.666411  0.820236  1
  Sn  Sn29  1  0.666123  0.332245  0.879899  1
  Sn  Sn30  1  0.333015  0.666031  0.119992  1
  Rh  Rh31  1  0.166791  0.830098  0.803457  1
  Rh  Rh32  1  0.663307  0.830098  0.803457  1
  Rh  Rh33  1  0.167864  0.335728  0.802351  1
  Rh  Rh34  1  0.831071  0.166287  0.198798  1
  Rh  Rh35  1  0.335217  0.166287  0.198798  1
