# generated using pymatgen
data_Y2Ho2TcB12Ru
_symmetry_space_group_name_H-M   'P 1'
_cell_length_a   3.66983600
_cell_length_b   9.14795715
_cell_length_c   11.54143800
_cell_angle_alpha   89.85605933
_cell_angle_beta   90.00000000
_cell_angle_gamma   90.00000000
_symmetry_Int_Tables_number   1
_chemical_formula_structural   Y2Ho2TcB12Ru
_chemical_formula_sum   'Y4 Ho4 Tc2 B24 Ru2'
_cell_volume   387.46219151
_cell_formula_units_Z   2
loop_
 _symmetry_equiv_pos_site_id
 _symmetry_equiv_pos_as_xyz
  1  'x, y, z'
loop_
 _atom_site_type_symbol
 _atom_site_label
 _atom_site_symmetry_multiplicity
 _atom_site_fract_x
 _atom_site_fract_y
 _atom_site_fract_z
 _atom_site_occupancy
  Y  Y0  1  0.000000  0.324832  0.415534  1
  Y  Y1  1  0.000000  0.675168  0.584466  1
  Y  Y2  1  0.000000  0.821163  0.087397  1
  Y  Y3  1  0.000000  0.178837  0.912603  1
  Ho  Ho4  1  0.000000  0.942031  0.370469  1
  Ho  Ho5  1  0.000000  0.057969  0.629531  1
  Ho  Ho6  1  0.000000  0.443051  0.130176  1
  Ho  Ho7  1  0.000000  0.556949  0.869824  1
  Tc  Tc8  1  0.000000  0.638818  0.319916  1
  Tc  Tc9  1  0.000000  0.361182  0.680084  1
  B  B10  1  0.500000  0.553255  0.432740  1
  B  B11  1  0.500000  0.446745  0.567260  1
  B  B12  1  0.500000  0.053979  0.067292  1
  B  B13  1  0.500000  0.946021  0.932708  1
  B  B14  1  0.500000  0.748668  0.418641  1
  B  B15  1  0.500000  0.251332  0.581359  1
  B  B16  1  0.500000  0.248666  0.081457  1
  B  B17  1  0.500000  0.751334  0.918543  1
  B  B18  1  0.500000  0.791483  0.265476  1
  B  B19  1  0.500000  0.208517  0.734524  1
  B  B20  1  0.500000  0.290577  0.234008  1
  B  B21  1  0.500000  0.709423  0.765992  1
  B  B22  1  0.500000  0.631053  0.185292  1
  B  B23  1  0.500000  0.368947  0.814708  1
  B  B24  1  0.500000  0.130754  0.313898  1
  B  B25  1  0.500000  0.869246  0.686102  1
  B  B26  1  0.500000  0.983367  0.212072  1
  B  B27  1  0.500000  0.016633  0.787928  1
  B  B28  1  0.500000  0.482800  0.287446  1
  B  B29  1  0.500000  0.517200  0.712554  1
  B  B30  1  0.500000  0.603236  0.028411  1
  B  B31  1  0.500000  0.396764  0.971589  1
  B  B32  1  0.500000  0.103307  0.471236  1
  B  B33  1  0.500000  0.896693  0.528764  1
  Ru  Ru34  1  0.000000  0.137968  0.178773  1
  Ru  Ru35  1  0.000000  0.862032  0.821227  1
