# generated using pymatgen
data_Ba7SrTa3SbO18
_symmetry_space_group_name_H-M   'P 1'
_cell_length_a   6.17361600
_cell_length_b   6.17361612
_cell_length_c   16.08352000
_cell_angle_alpha   90.00000000
_cell_angle_beta   90.00000000
_cell_angle_gamma   119.99997938
_symmetry_Int_Tables_number   1
_chemical_formula_structural   Ba7SrTa3SbO18
_chemical_formula_sum   'Ba7 Sr1 Ta3 Sb1 O18'
_cell_volume   530.87351491
_cell_formula_units_Z   1
loop_
 _symmetry_equiv_pos_site_id
 _symmetry_equiv_pos_as_xyz
  1  'x, y, z'
loop_
 _atom_site_type_symbol
 _atom_site_label
 _atom_site_symmetry_multiplicity
 _atom_site_fract_x
 _atom_site_fract_y
 _atom_site_fract_z
 _atom_site_occupancy
  Ba  Ba0  1  0.000000  0.000000  0.741224  1
  Ba  Ba1  1  0.000000  0.000000  0.264807  1
  Ba  Ba2  1  0.666667  0.333333  0.603008  1
  Ba  Ba3  1  0.333333  0.666667  0.145984  1
  Ba  Ba4  1  0.333333  0.666667  0.401775  1
  Ba  Ba5  1  0.666667  0.333333  0.854856  1
  Ba  Ba6  1  0.000000  0.000000  0.998841  1
  Sr  Sr7  1  0.000000  0.000000  0.499601  1
  Ta  Ta8  1  0.333333  0.666667  0.835030  1
  Ta  Ta9  1  0.333333  0.666667  0.649270  1
  Ta  Ta10  1  0.666667  0.333333  0.161623  1
  Sb  Sb11  1  0.666667  0.333333  0.347205  1
  O  O12  1  0.529046  0.952112  0.740309  1
  O  O13  1  0.047888  0.576935  0.740309  1
  O  O14  1  0.423065  0.470954  0.740309  1
  O  O15  1  0.474262  0.048320  0.259680  1
  O  O16  1  0.951680  0.425941  0.259680  1
  O  O17  1  0.574059  0.525738  0.259680  1
  O  O18  1  0.114720  0.359446  0.592491  1
  O  O19  1  0.640554  0.755274  0.592491  1
  O  O20  1  0.244726  0.885280  0.592491  1
  O  O21  1  0.896592  0.640384  0.110741  1
  O  O22  1  0.359616  0.256207  0.110741  1
  O  O23  1  0.743793  0.103408  0.110741  1
  O  O24  1  0.883027  0.644687  0.408014  1
  O  O25  1  0.355313  0.238341  0.408014  1
  O  O26  1  0.761659  0.116973  0.408014  1
  O  O27  1  0.106045  0.357916  0.887691  1
  O  O28  1  0.642084  0.748130  0.887691  1
  O  O29  1  0.251870  0.893955  0.887691  1
