# generated using pymatgen
data_Ho7ErB24IrRu3
_symmetry_space_group_name_H-M   'P 1'
_cell_length_a   3.64574700
_cell_length_b   9.13118070
_cell_length_c   11.47792003
_cell_angle_alpha   90.04812728
_cell_angle_beta   90.00000000
_cell_angle_gamma   90.00000000
_symmetry_Int_Tables_number   1
_chemical_formula_structural   Ho7ErB24IrRu3
_chemical_formula_sum   'Ho7 Er1 B24 Ir1 Ru3'
_cell_volume   382.09953210
_cell_formula_units_Z   1
loop_
 _symmetry_equiv_pos_site_id
 _symmetry_equiv_pos_as_xyz
  1  'x, y, z'
loop_
 _atom_site_type_symbol
 _atom_site_label
 _atom_site_symmetry_multiplicity
 _atom_site_fract_x
 _atom_site_fract_y
 _atom_site_fract_z
 _atom_site_occupancy
  Ho  Ho0  1  0.000000  0.319177  0.414423  1
  Ho  Ho1  1  0.000000  0.678910  0.589093  1
  Ho  Ho2  1  0.000000  0.823454  0.084096  1
  Ho  Ho3  1  0.000000  0.178645  0.913025  1
  Ho  Ho4  1  0.000000  0.945409  0.373016  1
  Ho  Ho5  1  0.000000  0.056118  0.627023  1
  Ho  Ho6  1  0.000000  0.441947  0.125670  1
  Er  Er7  1  0.000000  0.556089  0.873205  1
  B  B8  1  0.500000  0.553471  0.433809  1
  B  B9  1  0.500000  0.446136  0.566981  1
  B  B10  1  0.500000  0.054008  0.066769  1
  B  B11  1  0.500000  0.946343  0.932827  1
  B  B12  1  0.500000  0.749231  0.421202  1
  B  B13  1  0.500000  0.251693  0.579985  1
  B  B14  1  0.500000  0.247813  0.079759  1
  B  B15  1  0.500000  0.752015  0.920028  1
  B  B16  1  0.500000  0.791846  0.265504  1
  B  B17  1  0.500000  0.209145  0.733782  1
  B  B18  1  0.500000  0.291123  0.234185  1
  B  B19  1  0.500000  0.708664  0.766385  1
  B  B20  1  0.500000  0.631937  0.183796  1
  B  B21  1  0.500000  0.368704  0.814808  1
  B  B22  1  0.500000  0.131648  0.314973  1
  B  B23  1  0.500000  0.868146  0.685438  1
  B  B24  1  0.500000  0.983070  0.212741  1
  B  B25  1  0.500000  0.016945  0.786997  1
  B  B26  1  0.500000  0.481879  0.287053  1
  B  B27  1  0.500000  0.517107  0.713274  1
  B  B28  1  0.500000  0.609486  0.030211  1
  B  B29  1  0.500000  0.390802  0.969682  1
  B  B30  1  0.500000  0.108962  0.469942  1
  B  B31  1  0.500000  0.890284  0.529854  1
  Ir  Ir32  1  0.000000  0.637155  0.321773  1
  Ru  Ru33  1  0.000000  0.362805  0.678512  1
  Ru  Ru34  1  0.000000  0.137816  0.179038  1
  Ru  Ru35  1  0.000000  0.862014  0.821146  1
