# generated using pymatgen
data_Hf18Ta6Re2SiGe
_symmetry_space_group_name_H-M   'P 1'
_cell_length_a   8.72795100
_cell_length_b   8.72795050
_cell_length_c   8.83656300
_cell_angle_alpha   90.00000000
_cell_angle_beta   90.00000000
_cell_angle_gamma   119.99999811
_symmetry_Int_Tables_number   1
_chemical_formula_structural   Hf18Ta6Re2SiGe
_chemical_formula_sum   'Hf18 Ta6 Re2 Si1 Ge1'
_cell_volume   582.95977913
_cell_formula_units_Z   1
loop_
 _symmetry_equiv_pos_site_id
 _symmetry_equiv_pos_as_xyz
  1  'x, y, z'
loop_
 _atom_site_type_symbol
 _atom_site_label
 _atom_site_symmetry_multiplicity
 _atom_site_fract_x
 _atom_site_fract_y
 _atom_site_fract_z
 _atom_site_occupancy
  Hf  Hf0  1  0.197982  0.802018  0.451903  1
  Hf  Hf1  1  0.197982  0.395965  0.451903  1
  Hf  Hf2  1  0.604035  0.802018  0.451903  1
  Hf  Hf3  1  0.803313  0.196687  0.546925  1
  Hf  Hf4  1  0.803313  0.606624  0.546925  1
  Hf  Hf5  1  0.393376  0.196687  0.546925  1
  Hf  Hf6  1  0.803313  0.196687  0.953075  1
  Hf  Hf7  1  0.803313  0.606624  0.953075  1
  Hf  Hf8  1  0.393376  0.196687  0.953075  1
  Hf  Hf9  1  0.197982  0.802018  0.048097  1
  Hf  Hf10  1  0.197982  0.395965  0.048097  1
  Hf  Hf11  1  0.604035  0.802018  0.048097  1
  Hf  Hf12  1  0.535974  0.464026  0.250000  1
  Hf  Hf13  1  0.535974  0.071947  0.250000  1
  Hf  Hf14  1  0.928053  0.464026  0.250000  1
  Hf  Hf15  1  0.462617  0.537383  0.750000  1
  Hf  Hf16  1  0.462617  0.925235  0.750000  1
  Hf  Hf17  1  0.074765  0.537383  0.750000  1
  Ta  Ta18  1  0.889133  0.110867  0.250000  1
  Ta  Ta19  1  0.889133  0.778267  0.250000  1
  Ta  Ta20  1  0.221733  0.110867  0.250000  1
  Ta  Ta21  1  0.111013  0.888987  0.750000  1
  Ta  Ta22  1  0.111013  0.222024  0.750000  1
  Ta  Ta23  1  0.777976  0.888987  0.750000  1
  Re  Re24  1  0.000000  0.000000  0.499865  1
  Re  Re25  1  0.000000  0.000000  0.000135  1
  Si  Si26  1  0.333333  0.666667  0.250000  1
  Ge  Ge27  1  0.666667  0.333333  0.750000  1
