# generated using pymatgen
data_Ti5GaPb2
_symmetry_space_group_name_H-M   'P 1'
_cell_length_a   5.20147624
_cell_length_b   8.02070622
_cell_length_c   8.02070620
_cell_angle_alpha   83.96477401
_cell_angle_beta   71.07968744
_cell_angle_gamma   71.07968350
_symmetry_Int_Tables_number   1
_chemical_formula_structural   Ti5GaPb2
_chemical_formula_sum   'Ti10 Ga2 Pb4'
_cell_volume   299.43804553
_cell_formula_units_Z   2
loop_
 _symmetry_equiv_pos_site_id
 _symmetry_equiv_pos_as_xyz
  1  'x, y, z'
loop_
 _atom_site_type_symbol
 _atom_site_label
 _atom_site_symmetry_multiplicity
 _atom_site_fract_x
 _atom_site_fract_y
 _atom_site_fract_z
 _atom_site_occupancy
  Ti  Ti0  1  0.712769  0.859140  0.715323  1
  Ti  Ti1  1  0.287231  0.140860  0.284677  1
  Ti  Ti2  1  0.787231  0.284677  0.140860  1
  Ti  Ti3  1  0.212769  0.715323  0.859140  1
  Ti  Ti4  1  0.571908  0.715323  0.140860  1
  Ti  Ti5  1  0.428092  0.284677  0.859140  1
  Ti  Ti6  1  0.071908  0.140860  0.715323  1
  Ti  Ti7  1  0.928092  0.859140  0.284677  1
  Ti  Ti8  1  0.750000  0.500000  0.500000  1
  Ti  Ti9  1  0.250000  0.500000  0.500000  1
  Ga  Ga10  1  0.250000  0.000000  0.000000  1
  Ga  Ga11  1  0.750000  0.000000  0.000000  1
  Pb  Pb12  1  0.166271  0.500000  0.167458  1
  Pb  Pb13  1  0.833729  0.500000  0.832542  1
  Pb  Pb14  1  0.333729  0.832542  0.500000  1
  Pb  Pb15  1  0.666271  0.167458  0.500000  1
