# generated using pymatgen
data_LaPr15(HoIr3)4
_symmetry_space_group_name_H-M   'P 1'
_cell_length_a   11.27633817
_cell_length_b   11.28323788
_cell_length_c   6.57693937
_cell_angle_alpha   89.99142592
_cell_angle_beta   89.92651296
_cell_angle_gamma   89.93434969
_symmetry_Int_Tables_number   1
_chemical_formula_structural   LaPr15(HoIr3)4
_chemical_formula_sum   'La1 Pr15 Ho4 Ir12'
_cell_volume   836.80646584
_cell_formula_units_Z   1
loop_
 _symmetry_equiv_pos_site_id
 _symmetry_equiv_pos_as_xyz
  1  'x, y, z'
loop_
 _atom_site_type_symbol
 _atom_site_label
 _atom_site_symmetry_multiplicity
 _atom_site_fract_x
 _atom_site_fract_y
 _atom_site_fract_z
 _atom_site_occupancy
  La  La0  1  0.288699  0.087807  0.383196  1
  Pr  Pr1  1  0.288754  0.911728  0.881988  1
  Pr  Pr2  1  0.711108  0.087709  0.882177  1
  Pr  Pr3  1  0.711333  0.912293  0.382085  1
  Pr  Pr4  1  0.587569  0.788794  0.882044  1
  Pr  Pr5  1  0.588372  0.211542  0.381938  1
  Pr  Pr6  1  0.412454  0.788151  0.381850  1
  Pr  Pr7  1  0.412783  0.211552  0.882133  1
  Pr  Pr8  1  0.211174  0.412700  0.618335  1
  Pr  Pr9  1  0.211264  0.587613  0.117885  1
  Pr  Pr10  1  0.788771  0.412387  0.117883  1
  Pr  Pr11  1  0.788792  0.587587  0.617870  1
  Pr  Pr12  1  0.912332  0.711252  0.118015  1
  Pr  Pr13  1  0.912146  0.288810  0.617616  1
  Pr  Pr14  1  0.087660  0.711210  0.618106  1
  Pr  Pr15  1  0.087373  0.289086  0.117392  1
  Ho  Ho16  1  0.999432  0.999692  0.500247  1
  Ho  Ho17  1  0.999824  0.000058  0.999759  1
  Ho  Ho18  1  0.500008  0.499954  0.000113  1
  Ho  Ho19  1  0.500185  0.500008  0.500151  1
  Ir  Ir20  1  0.852428  0.147520  0.249890  1
  Ir  Ir21  1  0.852409  0.852520  0.750074  1
  Ir  Ir22  1  0.148277  0.147293  0.748701  1
  Ir  Ir23  1  0.147570  0.852388  0.249894  1
  Ir  Ir24  1  0.647604  0.352555  0.750051  1
  Ir  Ir25  1  0.647462  0.647671  0.249863  1
  Ir  Ir26  1  0.352414  0.352365  0.250224  1
  Ir  Ir27  1  0.352506  0.647532  0.750033  1
  Ir  Ir28  1  0.499383  0.000266  0.118410  1
  Ir  Ir29  1  0.499873  0.999984  0.617404  1
  Ir  Ir30  1  0.000087  0.499867  0.882419  1
  Ir  Ir31  1  0.999955  0.500104  0.382251  1
