# generated using pymatgen
data_Li2CoNi11AsP6
_symmetry_space_group_name_H-M   'P 1'
_cell_length_a   9.10433653
_cell_length_b   9.03111924
_cell_length_c   3.52690600
_cell_angle_alpha   90.00000000
_cell_angle_beta   90.00000000
_cell_angle_gamma   120.15853953
_symmetry_Int_Tables_number   1
_chemical_formula_structural   Li2CoNi11AsP6
_chemical_formula_sum   'Li2 Co1 Ni11 As1 P6'
_cell_volume   250.73696773
_cell_formula_units_Z   1
loop_
 _symmetry_equiv_pos_site_id
 _symmetry_equiv_pos_as_xyz
  1  'x, y, z'
loop_
 _atom_site_type_symbol
 _atom_site_label
 _atom_site_symmetry_multiplicity
 _atom_site_fract_x
 _atom_site_fract_y
 _atom_site_fract_z
 _atom_site_occupancy
  Li  Li0  1  0.001701  0.000150  0.000000  1
  Li  Li1  1  0.319821  0.653621  0.500000  1
  Co  Co2  1  0.825609  0.608066  0.000000  1
  Ni  Ni3  1  0.276666  0.896606  0.000000  1
  Ni  Ni4  1  0.607130  0.701177  0.000000  1
  Ni  Ni5  1  0.104838  0.395589  0.000000  1
  Ni  Ni6  1  0.789809  0.179547  0.000000  1
  Ni  Ni7  1  0.389349  0.216021  0.000000  1
  Ni  Ni8  1  0.731453  0.951781  0.500000  1
  Ni  Ni9  1  0.233036  0.283472  0.500000  1
  Ni  Ni10  1  0.047512  0.767393  0.500000  1
  Ni  Ni11  1  0.548417  0.135741  0.500000  1
  Ni  Ni12  1  0.573757  0.458630  0.500000  1
  Ni  Ni13  1  0.892538  0.427330  0.500000  1
  As  As14  1  0.535998  0.912312  0.000000  1
  P  P15  1  0.372683  0.456867  0.000000  1
  P  P16  1  0.077447  0.623296  0.000000  1
  P  P17  1  0.962843  0.214319  0.500000  1
  P  P18  1  0.253779  0.041453  0.500000  1
  P  P19  1  0.786985  0.739956  0.500000  1
  P  P20  1  0.668632  0.336672  0.000000  1
