# generated using pymatgen
data_Tb3GaHg2Pt3
_symmetry_space_group_name_H-M   'P 1'
_cell_length_a   7.68795279
_cell_length_b   7.61600633
_cell_length_c   3.79877300
_cell_angle_alpha   90.00000000
_cell_angle_beta   90.00000000
_cell_angle_gamma   119.69092058
_symmetry_Int_Tables_number   1
_chemical_formula_structural   Tb3GaHg2Pt3
_chemical_formula_sum   'Tb3 Ga1 Hg2 Pt3'
_cell_volume   193.22182314
_cell_formula_units_Z   1
loop_
 _symmetry_equiv_pos_site_id
 _symmetry_equiv_pos_as_xyz
  1  'x, y, z'
loop_
 _atom_site_type_symbol
 _atom_site_label
 _atom_site_symmetry_multiplicity
 _atom_site_fract_x
 _atom_site_fract_y
 _atom_site_fract_z
 _atom_site_occupancy
  Tb  Tb0  1  0.400288  0.400425  0.500000  1
  Tb  Tb1  1  0.599712  0.000137  0.500000  1
  Tb  Tb2  1  0.000000  0.590729  0.500000  1
  Ga  Ga3  1  0.000000  0.263391  0.000000  1
  Hg  Hg4  1  0.739870  0.736347  0.000000  1
  Hg  Hg5  1  0.260130  0.996477  0.000000  1
  Pt  Pt6  1  0.680801  0.326967  0.000000  1
  Pt  Pt7  1  0.319199  0.646167  0.000000  1
  Pt  Pt8  1  0.000000  0.039361  0.500000  1
