# generated using pymatgen
data_Y5Zr3Ge2(As5Rh8)2
_symmetry_space_group_name_H-M   'P 1'
_cell_length_a   13.37181268
_cell_length_b   13.37280099
_cell_length_c   4.00936400
_cell_angle_alpha   90.00000000
_cell_angle_beta   90.00000000
_cell_angle_gamma   120.07014298
_symmetry_Int_Tables_number   1
_chemical_formula_structural   Y5Zr3Ge2(As5Rh8)2
_chemical_formula_sum   'Y5 Zr3 Ge2 As10 Rh16'
_cell_volume   620.45656948
_cell_formula_units_Z   1
loop_
 _symmetry_equiv_pos_site_id
 _symmetry_equiv_pos_as_xyz
  1  'x, y, z'
loop_
 _atom_site_type_symbol
 _atom_site_label
 _atom_site_symmetry_multiplicity
 _atom_site_fract_x
 _atom_site_fract_y
 _atom_site_fract_z
 _atom_site_occupancy
  Y  Y0  1  0.188150  0.188200  0.500000  1
  Y  Y1  1  0.811765  0.999478  0.500000  1
  Y  Y2  1  0.000878  0.812972  0.500000  1
  Y  Y3  1  0.333385  0.666656  0.000000  1
  Y  Y4  1  0.666739  0.333431  0.000000  1
  Zr  Zr5  1  0.558697  0.558552  0.000000  1
  Zr  Zr6  1  0.441870  0.001158  0.000000  1
  Zr  Zr7  1  0.999973  0.441029  0.000000  1
  Ge  Ge8  1  0.173081  0.485862  0.500000  1
  Ge  Ge9  1  0.513540  0.685957  0.500000  1
  As  As10  1  0.823465  0.824128  0.000000  1
  As  As11  1  0.175963  0.000484  0.000000  1
  As  As12  1  0.999865  0.176342  0.000000  1
  As  As13  1  0.314483  0.827555  0.500000  1
  As  As14  1  0.685508  0.514037  0.500000  1
  As  As15  1  0.828828  0.314857  0.500000  1
  As  As16  1  0.486280  0.171741  0.500000  1
  As  As17  1  0.353150  0.354963  0.000000  1
  As  As18  1  0.645078  0.998521  0.000000  1
  As  As19  1  0.000206  0.646194  0.000000  1
  Rh  Rh20  1  0.719251  0.717937  0.500000  1
  Rh  Rh21  1  0.281616  0.999995  0.500000  1
  Rh  Rh22  1  0.998083  0.280817  0.500000  1
  Rh  Rh23  1  0.175937  0.373963  0.000000  1
  Rh  Rh24  1  0.625183  0.801635  0.000000  1
  Rh  Rh25  1  0.197161  0.823900  0.000000  1
  Rh  Rh26  1  0.803138  0.625650  0.000000  1
  Rh  Rh27  1  0.822040  0.196089  0.000000  1
  Rh  Rh28  1  0.373372  0.176929  0.000000  1
  Rh  Rh29  1  0.356692  0.479422  0.500000  1
  Rh  Rh30  1  0.519429  0.875875  0.500000  1
  Rh  Rh31  1  0.125518  0.644475  0.500000  1
  Rh  Rh32  1  0.873495  0.518131  0.500000  1
  Rh  Rh33  1  0.644287  0.127696  0.500000  1
  Rh  Rh34  1  0.483686  0.355203  0.500000  1
  Rh  Rh35  1  0.000209  0.000166  0.000000  1
