# generated using pymatgen
data_Tb4Zr3AlIr4
_symmetry_space_group_name_H-M   'P 1'
_cell_length_a   4.47807300
_cell_length_b   7.12975823
_cell_length_c   8.23128040
_cell_angle_alpha   93.61865797
_cell_angle_beta   90.00000000
_cell_angle_gamma   90.00000000
_symmetry_Int_Tables_number   1
_chemical_formula_structural   Tb4Zr3AlIr4
_chemical_formula_sum   'Tb4 Zr3 Al1 Ir4'
_cell_volume   262.28087260
_cell_formula_units_Z   1
loop_
 _symmetry_equiv_pos_site_id
 _symmetry_equiv_pos_as_xyz
  1  'x, y, z'
loop_
 _atom_site_type_symbol
 _atom_site_label
 _atom_site_symmetry_multiplicity
 _atom_site_fract_x
 _atom_site_fract_y
 _atom_site_fract_z
 _atom_site_occupancy
  Tb  Tb0  1  0.250000  0.983514  0.315287  1
  Tb  Tb1  1  0.250000  0.461328  0.167723  1
  Tb  Tb2  1  0.750000  0.032828  0.686757  1
  Tb  Tb3  1  0.750000  0.506734  0.836455  1
  Zr  Zr4  1  0.250000  0.367267  0.572585  1
  Zr  Zr5  1  0.250000  0.859729  0.936192  1
  Zr  Zr6  1  0.750000  0.640739  0.425361  1
  Al  Al7  1  0.750000  0.139500  0.071158  1
  Ir  Ir8  1  0.250000  0.227870  0.882361  1
  Ir  Ir9  1  0.250000  0.740893  0.598973  1
  Ir  Ir10  1  0.750000  0.772439  0.112298  1
  Ir  Ir11  1  0.750000  0.267161  0.394850  1
