# generated using pymatgen
data_Ho4ThCo2
_symmetry_space_group_name_H-M   'P 1'
_cell_length_a   8.65635140
_cell_length_b   8.65635215
_cell_length_c   6.86610407
_cell_angle_alpha   84.28917785
_cell_angle_beta   84.28917874
_cell_angle_gamma   42.48434916
_symmetry_Int_Tables_number   1
_chemical_formula_structural   Ho4ThCo2
_chemical_formula_sum   'Ho8 Th2 Co4'
_cell_volume   345.49738867
_cell_formula_units_Z   2
loop_
 _symmetry_equiv_pos_site_id
 _symmetry_equiv_pos_as_xyz
  1  'x, y, z'
loop_
 _atom_site_type_symbol
 _atom_site_label
 _atom_site_symmetry_multiplicity
 _atom_site_fract_x
 _atom_site_fract_y
 _atom_site_fract_z
 _atom_site_occupancy
  Ho  Ho0  1  0.987000  0.203266  0.587588  1
  Ho  Ho1  1  0.796734  0.013000  0.912412  1
  Ho  Ho2  1  0.355576  0.213725  0.319909  1
  Ho  Ho3  1  0.786275  0.644424  0.180091  1
  Ho  Ho4  1  0.644542  0.782021  0.683770  1
  Ho  Ho5  1  0.217979  0.355458  0.816230  1
  Ho  Ho6  1  0.572144  0.427856  0.250000  1
  Ho  Ho7  1  0.426709  0.573291  0.750000  1
  Th  Th8  1  0.002979  0.802423  0.408219  1
  Th  Th9  1  0.197577  0.997021  0.091781  1
  Co  Co10  1  0.172616  0.610611  0.086498  1
  Co  Co11  1  0.389389  0.827384  0.413502  1
  Co  Co12  1  0.836689  0.386210  0.930156  1
  Co  Co13  1  0.613790  0.163311  0.569844  1
