# generated using pymatgen
data_Dy8Ho2Ir3Os
_symmetry_space_group_name_H-M   'P 1'
_cell_length_a   6.48161660
_cell_length_b   7.25228764
_cell_length_c   8.46456898
_cell_angle_alpha   96.47919903
_cell_angle_beta   112.24594958
_cell_angle_gamma   89.96311990
_symmetry_Int_Tables_number   1
_chemical_formula_structural   Dy8Ho2Ir3Os
_chemical_formula_sum   'Dy8 Ho2 Ir3 Os1'
_cell_volume   365.53871609
_cell_formula_units_Z   1
loop_
 _symmetry_equiv_pos_site_id
 _symmetry_equiv_pos_as_xyz
  1  'x, y, z'
loop_
 _atom_site_type_symbol
 _atom_site_label
 _atom_site_symmetry_multiplicity
 _atom_site_fract_x
 _atom_site_fract_y
 _atom_site_fract_z
 _atom_site_occupancy
  Dy  Dy0  1  0.971642  0.916511  0.183092  1
  Dy  Dy1  1  0.790303  0.582637  0.821455  1
  Dy  Dy2  1  0.028559  0.082887  0.818197  1
  Dy  Dy3  1  0.210328  0.417920  0.183131  1
  Dy  Dy4  1  0.656104  0.816934  0.439660  1
  Dy  Dy5  1  0.211007  0.681773  0.557579  1
  Dy  Dy6  1  0.345933  0.181942  0.559539  1
  Dy  Dy7  1  0.786035  0.318815  0.439380  1
  Ho  Ho8  1  0.427234  0.749634  0.000394  1
  Ho  Ho9  1  0.574732  0.251416  0.000593  1
  Ir  Ir10  1  0.606191  0.927092  0.779826  1
  Ir  Ir11  1  0.173485  0.425570  0.780618  1
  Ir  Ir12  1  0.392859  0.073520  0.219612  1
  Os  Os13  1  0.825588  0.573350  0.216922  1
