# generated using pymatgen
data_Y4CdPd4Au
_symmetry_space_group_name_H-M   'P 1'
_cell_length_a   7.65308800
_cell_length_b   7.65308800
_cell_length_c   3.76837100
_cell_angle_alpha   90.00000000
_cell_angle_beta   90.00000000
_cell_angle_gamma   90.00000000
_symmetry_Int_Tables_number   1
_chemical_formula_structural   Y4CdPd4Au
_chemical_formula_sum   'Y4 Cd1 Pd4 Au1'
_cell_volume   220.71256975
_cell_formula_units_Z   1
loop_
 _symmetry_equiv_pos_site_id
 _symmetry_equiv_pos_as_xyz
  1  'x, y, z'
loop_
 _atom_site_type_symbol
 _atom_site_label
 _atom_site_symmetry_multiplicity
 _atom_site_fract_x
 _atom_site_fract_y
 _atom_site_fract_z
 _atom_site_occupancy
  Y  Y0  1  0.310834  0.156163  0.500000  1
  Y  Y1  1  0.843837  0.310834  0.500000  1
  Y  Y2  1  0.156163  0.689166  0.500000  1
  Y  Y3  1  0.689166  0.843837  0.500000  1
  Cd  Cd4  1  0.500001  0.500001  0.000000  1
  Pd  Pd5  1  0.617232  0.141108  0.000000  1
  Pd  Pd6  1  0.141108  0.382768  0.000000  1
  Pd  Pd7  1  0.858892  0.617232  0.000000  1
  Pd  Pd8  1  0.382768  0.858892  0.000000  1
  Au  Au9  1  0.000000  0.000000  0.000000  1
