# generated using pymatgen
data_Dy2Al2IrPt
_symmetry_space_group_name_H-M   'P 1'
_cell_length_a   4.37520600
_cell_length_b   6.81842600
_cell_length_c   7.83784900
_cell_angle_alpha   89.99949789
_cell_angle_beta   89.99696040
_cell_angle_gamma   90.00110459
_symmetry_Int_Tables_number   1
_chemical_formula_structural   Dy2Al2IrPt
_chemical_formula_sum   'Dy4 Al4 Ir2 Pt2'
_cell_volume   233.81885501
_cell_formula_units_Z   2
loop_
 _symmetry_equiv_pos_site_id
 _symmetry_equiv_pos_as_xyz
  1  'x, y, z'
loop_
 _atom_site_type_symbol
 _atom_site_label
 _atom_site_symmetry_multiplicity
 _atom_site_fract_x
 _atom_site_fract_y
 _atom_site_fract_z
 _atom_site_occupancy
  Dy  Dy0  1  0.250005  0.468903  0.184155  1
  Dy  Dy1  1  0.749995  0.531097  0.815845  1
  Dy  Dy2  1  0.749990  0.026805  0.678340  1
  Dy  Dy3  1  0.250010  0.973195  0.321660  1
  Al  Al4  1  0.249982  0.854234  0.935974  1
  Al  Al5  1  0.750018  0.145766  0.064026  1
  Al  Al6  1  0.749981  0.641514  0.438252  1
  Al  Al7  1  0.250019  0.358486  0.561748  1
  Ir  Ir8  1  0.250001  0.731227  0.618377  1
  Ir  Ir9  1  0.749999  0.268773  0.381623  1
  Pt  Pt10  1  0.750002  0.771966  0.117559  1
  Pt  Pt11  1  0.249998  0.228034  0.882441  1
