# generated using pymatgen
data_Y3Tm(MoN3)4
_symmetry_space_group_name_H-M   'P 1'
_cell_length_a   7.33316672
_cell_length_b   7.33316661
_cell_length_c   6.27434194
_cell_angle_alpha   73.47752477
_cell_angle_beta   73.47752264
_cell_angle_gamma   81.38810842
_symmetry_Int_Tables_number   1
_chemical_formula_structural   Y3Tm(MoN3)4
_chemical_formula_sum   'Y3 Tm1 Mo4 N12'
_cell_volume   309.24442901
_cell_formula_units_Z   1
loop_
 _symmetry_equiv_pos_site_id
 _symmetry_equiv_pos_as_xyz
  1  'x, y, z'
loop_
 _atom_site_type_symbol
 _atom_site_label
 _atom_site_symmetry_multiplicity
 _atom_site_fract_x
 _atom_site_fract_y
 _atom_site_fract_z
 _atom_site_occupancy
  Y  Y0  1  0.706936  0.293064  0.250000  1
  Y  Y1  1  0.086956  0.913044  0.250000  1
  Y  Y2  1  0.292986  0.707014  0.750000  1
  Tm  Tm3  1  0.912089  0.087911  0.750000  1
  Mo  Mo4  1  0.800470  0.619067  0.772926  1
  Mo  Mo5  1  0.199648  0.379552  0.228287  1
  Mo  Mo6  1  0.620448  0.800352  0.271713  1
  Mo  Mo7  1  0.380933  0.199530  0.727074  1
  N  N8  1  0.216906  0.002029  0.843956  1
  N  N9  1  0.367206  0.346173  0.430779  1
  N  N10  1  0.634710  0.654388  0.568201  1
  N  N11  1  0.625866  0.112113  0.664030  1
  N  N12  1  0.997971  0.783094  0.656044  1
  N  N13  1  0.781701  0.000344  0.148923  1
  N  N14  1  0.111830  0.623638  0.161654  1
  N  N15  1  0.887887  0.374134  0.835970  1
  N  N16  1  0.999656  0.218299  0.351077  1
  N  N17  1  0.345612  0.365290  0.931799  1
  N  N18  1  0.653827  0.632794  0.069221  1
  N  N19  1  0.376362  0.888170  0.338346  1
