# generated using pymatgen
data_Zr2TiCrRe2
_symmetry_space_group_name_H-M   'P 1'
_cell_length_a   5.21778098
_cell_length_b   5.29652282
_cell_length_c   8.73285700
_cell_angle_alpha   90.00000000
_cell_angle_beta   90.00000000
_cell_angle_gamma   120.50047960
_symmetry_Int_Tables_number   1
_chemical_formula_structural   Zr2TiCrRe2
_chemical_formula_sum   'Zr4 Ti2 Cr2 Re4'
_cell_volume   207.94634363
_cell_formula_units_Z   2
loop_
 _symmetry_equiv_pos_site_id
 _symmetry_equiv_pos_as_xyz
  1  'x, y, z'
loop_
 _atom_site_type_symbol
 _atom_site_label
 _atom_site_symmetry_multiplicity
 _atom_site_fract_x
 _atom_site_fract_y
 _atom_site_fract_z
 _atom_site_occupancy
  Zr  Zr0  1  0.332163  0.666082  0.435935  1
  Zr  Zr1  1  0.667837  0.333918  0.935935  1
  Zr  Zr2  1  0.667837  0.333918  0.564065  1
  Zr  Zr3  1  0.332163  0.666082  0.064065  1
  Ti  Ti4  1  0.000000  0.000000  0.500000  1
  Ti  Ti5  1  0.000000  0.000000  0.000000  1
  Cr  Cr6  1  0.668356  0.834179  0.750000  1
  Cr  Cr7  1  0.331644  0.165821  0.250000  1
  Re  Re8  1  0.823691  0.167331  0.250000  1
  Re  Re9  1  0.176309  0.343640  0.750000  1
  Re  Re10  1  0.176309  0.832669  0.750000  1
  Re  Re11  1  0.823691  0.656360  0.250000  1
