# generated using pymatgen
data_Tb2Al20Ru3Rh
_symmetry_space_group_name_H-M   'P 1'
_cell_length_a   6.85307604
_cell_length_b   6.86022117
_cell_length_c   9.15131246
_cell_angle_alpha   90.14479127
_cell_angle_beta   90.14373685
_cell_angle_gamma   96.80623307
_symmetry_Int_Tables_number   1
_chemical_formula_structural   Tb2Al20Ru3Rh
_chemical_formula_sum   'Tb2 Al20 Ru3 Rh1'
_cell_volume   427.20119113
_cell_formula_units_Z   1
loop_
 _symmetry_equiv_pos_site_id
 _symmetry_equiv_pos_as_xyz
  1  'x, y, z'
loop_
 _atom_site_type_symbol
 _atom_site_label
 _atom_site_symmetry_multiplicity
 _atom_site_fract_x
 _atom_site_fract_y
 _atom_site_fract_z
 _atom_site_occupancy
  Tb  Tb0  1  0.872045  0.126347  0.750496  1
  Tb  Tb1  1  0.127955  0.873653  0.249504  1
  Al  Al2  1  0.621072  0.376150  0.550870  1
  Al  Al3  1  0.378928  0.623850  0.449130  1
  Al  Al4  1  0.377254  0.623330  0.049840  1
  Al  Al5  1  0.622746  0.376670  0.950160  1
  Al  Al6  1  0.227541  0.225988  0.499296  1
  Al  Al7  1  0.772459  0.774012  0.500704  1
  Al  Al8  1  0.773455  0.773961  0.999938  1
  Al  Al9  1  0.226545  0.226039  0.000062  1
  Al  Al10  1  0.843733  0.156750  0.099961  1
  Al  Al11  1  0.156267  0.843250  0.900039  1
  Al  Al12  1  0.157605  0.844413  0.601284  1
  Al  Al13  1  0.842395  0.155587  0.398716  1
  Al  Al14  1  0.858577  0.587312  0.750712  1
  Al  Al15  1  0.141423  0.412688  0.249288  1
  Al  Al16  1  0.413004  0.140513  0.750522  1
  Al  Al17  1  0.586996  0.859487  0.249478  1
  Al  Al18  1  0.222843  0.480703  0.752091  1
  Al  Al19  1  0.777157  0.519297  0.247909  1
  Al  Al20  1  0.519187  0.778836  0.749800  1
  Al  Al21  1  0.480813  0.221164  0.250200  1
  Ru  Ru22  1  0.000000  0.500000  0.000000  1
  Ru  Ru23  1  0.500000  0.000000  0.000000  1
  Ru  Ru24  1  0.500000  0.000000  0.500000  1
  Rh  Rh25  1  0.000000  0.500000  0.500000  1
