# generated using pymatgen
data_Mg2ZnPd4Au
_symmetry_space_group_name_H-M   'P 1'
_cell_length_a   4.17236200
_cell_length_b   5.53484274
_cell_length_c   10.93830243
_cell_angle_alpha   88.39536146
_cell_angle_beta   90.00000000
_cell_angle_gamma   90.00000000
_symmetry_Int_Tables_number   1
_chemical_formula_structural   Mg2ZnPd4Au
_chemical_formula_sum   'Mg4 Zn2 Pd8 Au2'
_cell_volume   252.50318036
_cell_formula_units_Z   2
loop_
 _symmetry_equiv_pos_site_id
 _symmetry_equiv_pos_as_xyz
  1  'x, y, z'
loop_
 _atom_site_type_symbol
 _atom_site_label
 _atom_site_symmetry_multiplicity
 _atom_site_fract_x
 _atom_site_fract_y
 _atom_site_fract_z
 _atom_site_occupancy
  Mg  Mg0  1  0.500000  0.172077  0.135297  1
  Mg  Mg1  1  0.500000  0.827923  0.864703  1
  Mg  Mg2  1  0.500000  0.309956  0.634263  1
  Mg  Mg3  1  0.500000  0.690044  0.365737  1
  Zn  Zn4  1  0.000000  0.000000  0.500000  1
  Zn  Zn5  1  0.000000  0.500000  0.000000  1
  Pd  Pd6  1  0.500000  0.192198  0.390114  1
  Pd  Pd7  1  0.500000  0.807802  0.609886  1
  Pd  Pd8  1  0.500000  0.313556  0.890029  1
  Pd  Pd9  1  0.500000  0.686444  0.109971  1
  Pd  Pd10  1  0.000000  0.074403  0.741709  1
  Pd  Pd11  1  0.000000  0.925597  0.258291  1
  Pd  Pd12  1  0.000000  0.000000  0.000000  1
  Pd  Pd13  1  0.000000  0.500000  0.500000  1
  Au  Au14  1  0.000000  0.427373  0.244530  1
  Au  Au15  1  0.000000  0.572627  0.755470  1
