# generated using pymatgen
data_Ba2LaPr3Sc4O14
_symmetry_space_group_name_H-M   'P 1'
_cell_length_a   5.86585815
_cell_length_b   5.86585815
_cell_length_c   20.64745600
_cell_angle_alpha   90.00000000
_cell_angle_beta   90.00000000
_cell_angle_gamma   89.97411567
_symmetry_Int_Tables_number   1
_chemical_formula_structural   Ba2LaPr3Sc4O14
_chemical_formula_sum   'Ba4 La2 Pr6 Sc8 O28'
_cell_volume   710.44361913
_cell_formula_units_Z   2
loop_
 _symmetry_equiv_pos_site_id
 _symmetry_equiv_pos_as_xyz
  1  'x, y, z'
loop_
 _atom_site_type_symbol
 _atom_site_label
 _atom_site_symmetry_multiplicity
 _atom_site_fract_x
 _atom_site_fract_y
 _atom_site_fract_z
 _atom_site_occupancy
  Ba  Ba0  1  0.259602  0.259602  0.000052  1
  Ba  Ba1  1  0.740398  0.740398  0.000052  1
  Ba  Ba2  1  0.759730  0.240271  0.500125  1
  Ba  Ba3  1  0.240271  0.759730  0.500125  1
  La  La4  1  0.272504  0.272504  0.184552  1
  La  La5  1  0.727495  0.727495  0.184552  1
  Pr  Pr6  1  0.774054  0.225946  0.316435  1
  Pr  Pr7  1  0.225946  0.774054  0.316435  1
  Pr  Pr8  1  0.774034  0.225966  0.684100  1
  Pr  Pr9  1  0.225966  0.774034  0.684100  1
  Pr  Pr10  1  0.274040  0.274040  0.816006  1
  Pr  Pr11  1  0.725959  0.725959  0.816006  1
  Sc  Sc12  1  0.757144  0.242856  0.100401  1
  Sc  Sc13  1  0.242856  0.757144  0.100401  1
  Sc  Sc14  1  0.257244  0.257244  0.399235  1
  Sc  Sc15  1  0.742756  0.742756  0.399235  1
  Sc  Sc16  1  0.257276  0.257276  0.600945  1
  Sc  Sc17  1  0.742724  0.742724  0.600945  1
  Sc  Sc18  1  0.757283  0.242717  0.899099  1
  Sc  Sc19  1  0.242717  0.757283  0.899099  1
  O  O20  1  0.784524  0.215474  0.999818  1
  O  O21  1  0.215474  0.784524  0.999818  1
  O  O22  1  0.499999  0.499999  0.093888  1
  O  O23  1  0.499999  0.000000  0.111414  1
  O  O24  1  0.000000  0.499999  0.111414  1
  O  O25  1  0.000000  0.000000  0.127150  1
  O  O26  1  0.690559  0.309442  0.209298  1
  O  O27  1  0.309442  0.690559  0.209298  1
  O  O28  1  0.188165  0.188165  0.291546  1
  O  O29  1  0.811835  0.811835  0.291546  1
  O  O30  1  0.499999  0.499999  0.371936  1
  O  O31  1  0.499999  0.000000  0.387548  1
  O  O32  1  0.000000  0.499999  0.387548  1
  O  O33  1  0.000000  0.000000  0.406196  1
  O  O34  1  0.284557  0.284557  0.500017  1
  O  O35  1  0.715443  0.715443  0.500017  1
  O  O36  1  0.000000  0.000000  0.594001  1
  O  O37  1  0.499999  0.000000  0.612490  1
  O  O38  1  0.000000  0.499999  0.612490  1
  O  O39  1  0.499999  0.499999  0.628015  1
  O  O40  1  0.188498  0.188498  0.709000  1
  O  O41  1  0.811502  0.811502  0.709000  1
  O  O42  1  0.688516  0.311485  0.790954  1
  O  O43  1  0.311485  0.688516  0.790954  1
  O  O44  1  0.000000  0.000000  0.871926  1
  O  O45  1  0.499999  0.000000  0.887450  1
  O  O46  1  0.000000  0.499999  0.887450  1
  O  O47  1  0.499999  0.499999  0.905914  1
