# generated using pymatgen
data_YThTiCo16
_symmetry_space_group_name_H-M   'P 1'
_cell_length_a   6.31423604
_cell_length_b   6.31423587
_cell_length_c   6.31423516
_cell_angle_alpha   82.98563321
_cell_angle_beta   82.98563262
_cell_angle_gamma   82.98564449
_symmetry_Int_Tables_number   1
_chemical_formula_structural   YThTiCo16
_chemical_formula_sum   'Y1 Th1 Ti1 Co16'
_cell_volume   246.51870008
_cell_formula_units_Z   1
loop_
 _symmetry_equiv_pos_site_id
 _symmetry_equiv_pos_as_xyz
  1  'x, y, z'
loop_
 _atom_site_type_symbol
 _atom_site_label
 _atom_site_symmetry_multiplicity
 _atom_site_fract_x
 _atom_site_fract_y
 _atom_site_fract_z
 _atom_site_occupancy
  Y  Y0  1  0.349061  0.349061  0.349061  1
  Th  Th1  1  0.653906  0.653906  0.653906  1
  Ti  Ti2  1  0.092486  0.092486  0.092486  1
  Co  Co3  1  0.290582  0.710803  0.998220  1
  Co  Co4  1  0.710803  0.998220  0.290582  1
  Co  Co5  1  0.998220  0.290582  0.710803  1
  Co  Co6  1  0.290582  0.998220  0.710803  1
  Co  Co7  1  0.998220  0.710803  0.290582  1
  Co  Co8  1  0.710803  0.290582  0.998220  1
  Co  Co9  1  0.002898  0.002898  0.503704  1
  Co  Co10  1  0.002898  0.503704  0.002898  1
  Co  Co11  1  0.503704  0.002898  0.002898  1
  Co  Co12  1  0.346431  0.346431  0.847525  1
  Co  Co13  1  0.346431  0.847525  0.346431  1
  Co  Co14  1  0.847525  0.346431  0.346431  1
  Co  Co15  1  0.655400  0.655400  0.144856  1
  Co  Co16  1  0.655400  0.144856  0.655400  1
  Co  Co17  1  0.144856  0.655400  0.655400  1
  Co  Co18  1  0.899794  0.899794  0.899794  1
