# generated using pymatgen
data_Ce2HgC2
_symmetry_space_group_name_H-M   'P 1'
_cell_length_a   4.10057749
_cell_length_b   6.57667587
_cell_length_c   8.12947290
_cell_angle_alpha   101.14302177
_cell_angle_beta   104.60799664
_cell_angle_gamma   90.00000072
_symmetry_Int_Tables_number   1
_chemical_formula_structural   Ce2HgC2
_chemical_formula_sum   'Ce4 Hg2 C4'
_cell_volume   207.87598551
_cell_formula_units_Z   2
loop_
 _symmetry_equiv_pos_site_id
 _symmetry_equiv_pos_as_xyz
  1  'x, y, z'
loop_
 _atom_site_type_symbol
 _atom_site_label
 _atom_site_symmetry_multiplicity
 _atom_site_fract_x
 _atom_site_fract_y
 _atom_site_fract_z
 _atom_site_occupancy
  Ce  Ce0  1  0.832429  0.144676  0.314983  1
  Ce  Ce1  1  0.482554  0.644675  0.314984  1
  Ce  Ce2  1  0.167571  0.855324  0.685017  1
  Ce  Ce3  1  0.517446  0.355325  0.685018  1
  Hg  Hg4  1  0.854109  0.750001  0.000000  1
  Hg  Hg5  1  0.145894  0.250001  0.000001  1
  C  C6  1  0.097126  0.526392  0.448402  1
  C  C7  1  0.351276  0.026392  0.448402  1
  C  C8  1  0.648724  0.973608  0.551598  1
  C  C9  1  0.902874  0.473608  0.551599  1
