# generated using pymatgen
data_BaTcP2Ru
_symmetry_space_group_name_H-M   'P 1'
_cell_length_a   6.67498384
_cell_length_b   6.67498388
_cell_length_c   6.67498387
_cell_angle_alpha   143.88446767
_cell_angle_beta   143.88446387
_cell_angle_gamma   52.00009678
_symmetry_Int_Tables_number   1
_chemical_formula_structural   BaTcP2Ru
_chemical_formula_sum   'Ba1 Tc1 P2 Ru1'
_cell_volume   102.73679359
_cell_formula_units_Z   1
loop_
 _symmetry_equiv_pos_site_id
 _symmetry_equiv_pos_as_xyz
  1  'x, y, z'
loop_
 _atom_site_type_symbol
 _atom_site_label
 _atom_site_symmetry_multiplicity
 _atom_site_fract_x
 _atom_site_fract_y
 _atom_site_fract_z
 _atom_site_occupancy
  Ba  Ba0  1  0.000000  0.000000  0.000000  1
  Tc  Tc1  1  0.750000  0.250000  0.500000  1
  P  P2  1  0.341678  0.341678  0.000000  1
  P  P3  1  0.658322  0.658322  0.000000  1
  Ru  Ru4  1  0.250000  0.750000  0.500000  1
