# generated using pymatgen
data_HoEr2Tm9Rh4
_symmetry_space_group_name_H-M   'P 1'
_cell_length_a   6.26131302
_cell_length_b   7.11019653
_cell_length_c   9.25167000
_cell_angle_alpha   90.00000000
_cell_angle_beta   90.00000000
_cell_angle_gamma   89.97325786
_symmetry_Int_Tables_number   1
_chemical_formula_structural   HoEr2Tm9Rh4
_chemical_formula_sum   'Ho1 Er2 Tm9 Rh4'
_cell_volume   411.87658864
_cell_formula_units_Z   1
loop_
 _symmetry_equiv_pos_site_id
 _symmetry_equiv_pos_as_xyz
  1  'x, y, z'
loop_
 _atom_site_type_symbol
 _atom_site_label
 _atom_site_symmetry_multiplicity
 _atom_site_fract_x
 _atom_site_fract_y
 _atom_site_fract_z
 _atom_site_occupancy
  Ho  Ho0  1  0.631823  0.466467  0.750000  1
  Er  Er1  1  0.368257  0.533665  0.250000  1
  Er  Er2  1  0.131873  0.033498  0.250000  1
  Tm  Tm3  1  0.673429  0.178460  0.062986  1
  Tm  Tm4  1  0.172828  0.321184  0.936928  1
  Tm  Tm5  1  0.827085  0.678939  0.436954  1
  Tm  Tm6  1  0.326454  0.821509  0.563164  1
  Tm  Tm7  1  0.326454  0.821509  0.936836  1
  Tm  Tm8  1  0.827085  0.678939  0.063046  1
  Tm  Tm9  1  0.172828  0.321184  0.563072  1
  Tm  Tm10  1  0.673429  0.178460  0.437014  1
  Tm  Tm11  1  0.868080  0.966106  0.750000  1
  Rh  Rh12  1  0.051783  0.616011  0.750000  1
  Rh  Rh13  1  0.551953  0.884781  0.250000  1
  Rh  Rh14  1  0.448557  0.114650  0.750000  1
  Rh  Rh15  1  0.948079  0.384636  0.250000  1
