# generated using pymatgen
data_Zr6Sc4Al12Ir3Pt4
_symmetry_space_group_name_H-M   'P 1'
_cell_length_a   8.94336140
_cell_length_b   8.94336235
_cell_length_c   8.94175807
_cell_angle_alpha   59.99406655
_cell_angle_beta   59.99406439
_cell_angle_gamma   60.00000201
_symmetry_Int_Tables_number   1
_chemical_formula_structural   Zr6Sc4Al12Ir3Pt4
_chemical_formula_sum   'Zr6 Sc4 Al12 Ir3 Pt4'
_cell_volume   505.67393673
_cell_formula_units_Z   1
loop_
 _symmetry_equiv_pos_site_id
 _symmetry_equiv_pos_as_xyz
  1  'x, y, z'
loop_
 _atom_site_type_symbol
 _atom_site_label
 _atom_site_symmetry_multiplicity
 _atom_site_fract_x
 _atom_site_fract_y
 _atom_site_fract_z
 _atom_site_occupancy
  Zr  Zr0  1  0.683265  0.683265  0.315130  1
  Zr  Zr1  1  0.318341  0.683265  0.315130  1
  Zr  Zr2  1  0.683265  0.318341  0.315130  1
  Zr  Zr3  1  0.316500  0.316500  0.685628  1
  Zr  Zr4  1  0.681373  0.316500  0.685628  1
  Zr  Zr5  1  0.316500  0.681373  0.685628  1
  Sc  Sc6  1  0.880423  0.880423  0.358731  1
  Sc  Sc7  1  0.878160  0.360018  0.883662  1
  Sc  Sc8  1  0.360018  0.878160  0.883662  1
  Sc  Sc9  1  0.878160  0.878160  0.883662  1
  Al  Al10  1  0.121418  0.121418  0.635745  1
  Al  Al11  1  0.124639  0.633701  0.117022  1
  Al  Al12  1  0.633701  0.124639  0.117022  1
  Al  Al13  1  0.124639  0.124639  0.117022  1
  Al  Al14  1  0.662781  0.662781  0.011656  1
  Al  Al15  1  0.660420  0.014571  0.664589  1
  Al  Al16  1  0.014571  0.660420  0.664589  1
  Al  Al17  1  0.660420  0.660420  0.664589  1
  Al  Al18  1  0.336404  0.336404  0.990787  1
  Al  Al19  1  0.338231  0.988516  0.335022  1
  Al  Al20  1  0.988516  0.338231  0.335022  1
  Al  Al21  1  0.338231  0.338231  0.335022  1
  Ir  Ir22  1  0.498874  0.498874  0.001396  1
  Ir  Ir23  1  0.000856  0.498874  0.001396  1
  Ir  Ir24  1  0.498874  0.000856  0.001396  1
  Pt  Pt25  1  0.999912  0.999912  0.000264  1
  Pt  Pt26  1  0.001274  0.001274  0.498491  1
  Pt  Pt27  1  0.498962  0.001274  0.498491  1
  Pt  Pt28  1  0.001274  0.498962  0.498491  1
