# generated using pymatgen
data_Ca12Al8Si11Bi
_symmetry_space_group_name_H-M   'P 1'
_cell_length_a   4.36597300
_cell_length_b   11.27461732
_cell_length_c   14.82101878
_cell_angle_alpha   90.36421332
_cell_angle_beta   90.00000000
_cell_angle_gamma   90.00000000
_symmetry_Int_Tables_number   1
_chemical_formula_structural   Ca12Al8Si11Bi
_chemical_formula_sum   'Ca12 Al8 Si11 Bi1'
_cell_volume   729.54509010
_cell_formula_units_Z   1
loop_
 _symmetry_equiv_pos_site_id
 _symmetry_equiv_pos_as_xyz
  1  'x, y, z'
loop_
 _atom_site_type_symbol
 _atom_site_label
 _atom_site_symmetry_multiplicity
 _atom_site_fract_x
 _atom_site_fract_y
 _atom_site_fract_z
 _atom_site_occupancy
  Ca  Ca0  1  0.250000  0.894352  0.565504  1
  Ca  Ca1  1  0.750000  0.103740  0.432381  1
  Ca  Ca2  1  0.250000  0.397824  0.931287  1
  Ca  Ca3  1  0.750000  0.604285  0.068431  1
  Ca  Ca4  1  0.250000  0.609924  0.436489  1
  Ca  Ca5  1  0.750000  0.395610  0.558062  1
  Ca  Ca6  1  0.250000  0.093116  0.078233  1
  Ca  Ca7  1  0.750000  0.884453  0.937484  1
  Ca  Ca8  1  0.750000  0.379110  0.302203  1
  Ca  Ca9  1  0.250000  0.623749  0.700345  1
  Ca  Ca10  1  0.750000  0.875937  0.205085  1
  Ca  Ca11  1  0.250000  0.115143  0.782274  1
  Al  Al12  1  0.750000  0.862954  0.709355  1
  Al  Al13  1  0.250000  0.140215  0.294906  1
  Al  Al14  1  0.750000  0.389637  0.776458  1
  Al  Al15  1  0.250000  0.640545  0.210809  1
  Al  Al16  1  0.250000  0.683247  0.911453  1
  Al  Al17  1  0.750000  0.319473  0.101505  1
  Al  Al18  1  0.250000  0.183706  0.584307  1
  Al  Al19  1  0.750000  0.818152  0.411415  1
  Si  Si20  1  0.250000  0.926006  0.363077  1
  Si  Si21  1  0.750000  0.072573  0.631674  1
  Si  Si22  1  0.250000  0.428976  0.136892  1
  Si  Si23  1  0.750000  0.577493  0.866575  1
  Si  Si24  1  0.250000  0.856710  0.796947  1
  Si  Si25  1  0.750000  0.141662  0.209030  1
  Si  Si26  1  0.250000  0.358490  0.699333  1
  Si  Si27  1  0.750000  0.641765  0.297782  1
  Si  Si28  1  0.250000  0.298503  0.434160  1
  Si  Si29  1  0.750000  0.702772  0.565056  1
  Si  Si30  1  0.250000  0.797202  0.067687  1
  Bi  Bi31  1  0.750000  0.182681  0.933799  1
