# generated using pymatgen
data_Dy5ErNiBr10
_symmetry_space_group_name_H-M   'P 1'
_cell_length_a   7.29332705
_cell_length_b   9.12855761
_cell_length_c   9.16622170
_cell_angle_alpha   107.65124350
_cell_angle_beta   96.47944795
_cell_angle_gamma   104.69279414
_symmetry_Int_Tables_number   1
_chemical_formula_structural   Dy5ErNiBr10
_chemical_formula_sum   'Dy5 Er1 Ni1 Br10'
_cell_volume   550.46844664
_cell_formula_units_Z   1
loop_
 _symmetry_equiv_pos_site_id
 _symmetry_equiv_pos_as_xyz
  1  'x, y, z'
loop_
 _atom_site_type_symbol
 _atom_site_label
 _atom_site_symmetry_multiplicity
 _atom_site_fract_x
 _atom_site_fract_y
 _atom_site_fract_z
 _atom_site_occupancy
  Dy  Dy0  1  0.123121  0.045267  0.756727  1
  Dy  Dy1  1  0.875324  0.953743  0.242816  1
  Dy  Dy2  1  0.964681  0.291672  0.090205  1
  Dy  Dy3  1  0.034230  0.707745  0.908967  1
  Dy  Dy4  1  0.350529  0.129544  0.173029  1
  Er  Er5  1  0.652340  0.871778  0.828616  1
  Ni  Ni6  1  0.000210  0.000397  0.001176  1
  Br  Br7  1  0.546047  0.179114  0.911633  1
  Br  Br8  1  0.454148  0.819162  0.086003  1
  Br  Br9  1  0.342660  0.450085  0.271863  1
  Br  Br10  1  0.655600  0.552600  0.726696  1
  Br  Br11  1  0.248681  0.079406  0.456153  1
  Br  Br12  1  0.749062  0.918691  0.544593  1
  Br  Br13  1  0.773537  0.253266  0.345113  1
  Br  Br14  1  0.231638  0.748397  0.657554  1
  Br  Br15  1  0.087217  0.371331  0.825089  1
  Br  Br16  1  0.910975  0.627802  0.173767  1
