# generated using pymatgen
data_Ce3Mn2Al3
_symmetry_space_group_name_H-M   'P 1'
_cell_length_a   8.19651940
_cell_length_b   8.19651972
_cell_length_c   4.71827801
_cell_angle_alpha   100.88671633
_cell_angle_beta   100.88671457
_cell_angle_gamma   32.04139944
_symmetry_Int_Tables_number   1
_chemical_formula_structural   Ce3Mn2Al3
_chemical_formula_sum   'Ce3 Mn2 Al3'
_cell_volume   164.89341954
_cell_formula_units_Z   1
loop_
 _symmetry_equiv_pos_site_id
 _symmetry_equiv_pos_as_xyz
  1  'x, y, z'
loop_
 _atom_site_type_symbol
 _atom_site_label
 _atom_site_symmetry_multiplicity
 _atom_site_fract_x
 _atom_site_fract_y
 _atom_site_fract_z
 _atom_site_occupancy
  Ce  Ce0  1  0.000000  0.000000  0.000000  1
  Ce  Ce1  1  0.833989  0.833989  0.408097  1
  Ce  Ce2  1  0.166011  0.166011  0.591905  1
  Mn  Mn3  1  0.210091  0.210091  0.055103  1
  Mn  Mn4  1  0.789910  0.789910  0.944898  1
  Al  Al5  1  0.634886  0.634886  0.062116  1
  Al  Al6  1  0.500000  0.500000  0.500000  1
  Al  Al7  1  0.365114  0.365114  0.937883  1
