# generated using pymatgen
data_LuCo4TcGe2P
_symmetry_space_group_name_H-M   'P 1'
_cell_length_a   3.76022900
_cell_length_b   10.59161100
_cell_length_c   12.07759500
_cell_angle_alpha   90.00000000
_cell_angle_beta   90.00000000
_cell_angle_gamma   90.00000000
_symmetry_Int_Tables_number   1
_chemical_formula_structural   LuCo4TcGe2P
_chemical_formula_sum   'Lu4 Co16 Tc4 Ge8 P4'
_cell_volume   481.01296104
_cell_formula_units_Z   4
loop_
 _symmetry_equiv_pos_site_id
 _symmetry_equiv_pos_as_xyz
  1  'x, y, z'
loop_
 _atom_site_type_symbol
 _atom_site_label
 _atom_site_symmetry_multiplicity
 _atom_site_fract_x
 _atom_site_fract_y
 _atom_site_fract_z
 _atom_site_occupancy
  Lu  Lu0  1  0.250000  0.572329  0.700078  1
  Lu  Lu1  1  0.250000  0.927671  0.200078  1
  Lu  Lu2  1  0.750000  0.427671  0.299922  1
  Lu  Lu3  1  0.750000  0.072329  0.799922  1
  Co  Co4  1  0.250000  0.414277  0.487727  1
  Co  Co5  1  0.250000  0.085723  0.987727  1
  Co  Co6  1  0.750000  0.585723  0.512273  1
  Co  Co7  1  0.750000  0.914277  0.012273  1
  Co  Co8  1  0.250000  0.203579  0.167579  1
  Co  Co9  1  0.250000  0.296421  0.667579  1
  Co  Co10  1  0.750000  0.796421  0.832421  1
  Co  Co11  1  0.750000  0.703579  0.332421  1
  Co  Co12  1  0.250000  0.887481  0.707578  1
  Co  Co13  1  0.250000  0.612519  0.207578  1
  Co  Co14  1  0.750000  0.112519  0.292422  1
  Co  Co15  1  0.750000  0.387481  0.792422  1
  Co  Co16  1  0.250000  0.466962  0.931617  1
  Co  Co17  1  0.250000  0.033038  0.431617  1
  Co  Co18  1  0.750000  0.533038  0.068383  1
  Co  Co19  1  0.750000  0.966962  0.568383  1
  Tc  Tc20  1  0.250000  0.709903  0.991408  1
  Tc  Tc21  1  0.250000  0.790097  0.491408  1
  Tc  Tc22  1  0.750000  0.290097  0.008592  1
  Tc  Tc23  1  0.750000  0.209903  0.508592  1
  Ge  Ge24  1  0.250000  0.413445  0.117871  1
  Ge  Ge25  1  0.250000  0.086555  0.617871  1
  Ge  Ge26  1  0.750000  0.586555  0.882129  1
  Ge  Ge27  1  0.750000  0.913445  0.382129  1
  Ge  Ge28  1  0.250000  0.264365  0.860845  1
  Ge  Ge29  1  0.250000  0.235635  0.360845  1
  Ge  Ge30  1  0.750000  0.735635  0.139155  1
  Ge  Ge31  1  0.750000  0.764365  0.639155  1
  P  P32  1  0.250000  0.598772  0.394287  1
  P  P33  1  0.250000  0.901228  0.894287  1
  P  P34  1  0.750000  0.401228  0.605713  1
  P  P35  1  0.750000  0.098772  0.105713  1
