# generated using pymatgen
data_La16Hg4RuRh3
_symmetry_space_group_name_H-M   'P 1'
_cell_length_a   10.10008058
_cell_length_b   10.06024545
_cell_length_c   10.06847702
_cell_angle_alpha   59.97021623
_cell_angle_beta   60.10386081
_cell_angle_gamma   60.07929974
_symmetry_Int_Tables_number   1
_chemical_formula_structural   La16Hg4RuRh3
_chemical_formula_sum   'La16 Hg4 Ru1 Rh3'
_cell_volume   724.24219074
_cell_formula_units_Z   1
loop_
 _symmetry_equiv_pos_site_id
 _symmetry_equiv_pos_as_xyz
  1  'x, y, z'
loop_
 _atom_site_type_symbol
 _atom_site_label
 _atom_site_symmetry_multiplicity
 _atom_site_fract_x
 _atom_site_fract_y
 _atom_site_fract_z
 _atom_site_occupancy
  La  La0  1  0.900423  0.902933  0.902418  1
  La  La1  1  0.443334  0.437216  0.059708  1
  La  La2  1  0.058955  0.058423  0.441309  1
  La  La3  1  0.443336  0.059923  0.059641  1
  La  La4  1  0.309961  0.688895  0.312086  1
  La  La5  1  0.687580  0.690451  0.310999  1
  La  La6  1  0.688050  0.310122  0.311061  1
  La  La7  1  0.297593  0.901130  0.900668  1
  La  La8  1  0.900256  0.295395  0.902146  1
  La  La9  1  0.309901  0.688916  0.689011  1
  La  La10  1  0.900355  0.902985  0.294253  1
  La  La11  1  0.059050  0.441306  0.058190  1
  La  La12  1  0.309963  0.311278  0.689369  1
  La  La13  1  0.059142  0.441362  0.441398  1
  La  La14  1  0.443396  0.059901  0.437094  1
  La  La15  1  0.688046  0.310139  0.690751  1
  Hg  Hg16  1  0.667350  0.667667  0.997155  1
  Hg  Hg17  1  0.997717  0.667284  0.667533  1
  Hg  Hg18  1  0.667111  0.997693  0.667609  1
  Hg  Hg19  1  0.667305  0.667674  0.667846  1
  Ru  Ru20  1  0.669905  0.109958  0.110064  1
  Rh  Rh21  1  0.110481  0.108794  0.671686  1
  Rh  Rh22  1  0.110500  0.108760  0.109036  1
  Rh  Rh23  1  0.110290  0.671794  0.108971  1
