# generated using pymatgen
data_Sm5HoCoBr10
_symmetry_space_group_name_H-M   'P 1'
_cell_length_a   7.48672630
_cell_length_b   9.27964973
_cell_length_c   9.46188236
_cell_angle_alpha   108.40543618
_cell_angle_beta   96.79066964
_cell_angle_gamma   105.23307585
_symmetry_Int_Tables_number   1
_chemical_formula_structural   Sm5HoCoBr10
_chemical_formula_sum   'Sm5 Ho1 Co1 Br10'
_cell_volume   587.10212764
_cell_formula_units_Z   1
loop_
 _symmetry_equiv_pos_site_id
 _symmetry_equiv_pos_as_xyz
  1  'x, y, z'
loop_
 _atom_site_type_symbol
 _atom_site_label
 _atom_site_symmetry_multiplicity
 _atom_site_fract_x
 _atom_site_fract_y
 _atom_site_fract_z
 _atom_site_occupancy
  Sm  Sm0  1  0.028933  0.713562  0.409894  1
  Sm  Sm1  1  0.968147  0.285357  0.588064  1
  Sm  Sm2  1  0.872981  0.951613  0.743347  1
  Sm  Sm3  1  0.122775  0.045888  0.254919  1
  Sm  Sm4  1  0.359736  0.134830  0.679097  1
  Ho  Ho5  1  0.647169  0.868710  0.325285  1
  Co  Co6  1  0.999569  0.999623  0.500132  1
  Br  Br7  1  0.453140  0.820432  0.577483  1
  Br  Br8  1  0.548266  0.173495  0.414897  1
  Br  Br9  1  0.914025  0.629672  0.670043  1
  Br  Br10  1  0.085006  0.369340  0.328555  1
  Br  Br11  1  0.248875  0.083306  0.954256  1
  Br  Br12  1  0.744250  0.913078  0.049372  1
  Br  Br13  1  0.349863  0.454430  0.770331  1
  Br  Br14  1  0.644785  0.552970  0.228576  1
  Br  Br15  1  0.788710  0.256829  0.847148  1
  Br  Br16  1  0.223773  0.746865  0.158601  1
