# generated using pymatgen
data_Nd5(SiHg)2
_symmetry_space_group_name_H-M   'P 1'
_cell_length_a   9.07773365
_cell_length_b   9.07773392
_cell_length_c   7.83622200
_cell_angle_alpha   90.00000000
_cell_angle_beta   90.00000000
_cell_angle_gamma   128.83190983
_symmetry_Int_Tables_number   1
_chemical_formula_structural   Nd5(SiHg)2
_chemical_formula_sum   'Nd10 Si4 Hg4'
_cell_volume   503.02882014
_cell_formula_units_Z   2
loop_
 _symmetry_equiv_pos_site_id
 _symmetry_equiv_pos_as_xyz
  1  'x, y, z'
loop_
 _atom_site_type_symbol
 _atom_site_label
 _atom_site_symmetry_multiplicity
 _atom_site_fract_x
 _atom_site_fract_y
 _atom_site_fract_z
 _atom_site_occupancy
  Nd  Nd0  1  0.059317  0.314738  0.321396  1
  Nd  Nd1  1  0.940683  0.685262  0.678604  1
  Nd  Nd2  1  0.440683  0.185262  0.821396  1
  Nd  Nd3  1  0.814738  0.559317  0.178604  1
  Nd  Nd4  1  0.559317  0.814738  0.178604  1
  Nd  Nd5  1  0.185262  0.440683  0.821396  1
  Nd  Nd6  1  0.685262  0.940683  0.678604  1
  Nd  Nd7  1  0.314738  0.059317  0.321396  1
  Nd  Nd8  1  0.000000  0.000000  0.000000  1
  Nd  Nd9  1  0.500000  0.500000  0.500000  1
  Si  Si10  1  0.387639  0.387639  0.114397  1
  Si  Si11  1  0.612361  0.612361  0.885603  1
  Si  Si12  1  0.112361  0.112361  0.614397  1
  Si  Si13  1  0.887639  0.887639  0.385603  1
  Hg  Hg14  1  0.781691  0.218309  0.000000  1
  Hg  Hg15  1  0.218309  0.781691  0.000000  1
  Hg  Hg16  1  0.718309  0.281691  0.500000  1
  Hg  Hg17  1  0.281691  0.718309  0.500000  1
