# generated using pymatgen
data_Lu4TiAl5Tc2
_symmetry_space_group_name_H-M   'P 1'
_cell_length_a   5.48415982
_cell_length_b   5.53150053
_cell_length_c   8.79084200
_cell_angle_alpha   90.00000000
_cell_angle_beta   90.00000000
_cell_angle_gamma   120.28595069
_symmetry_Int_Tables_number   1
_chemical_formula_structural   Lu4TiAl5Tc2
_chemical_formula_sum   'Lu4 Ti1 Al5 Tc2'
_cell_volume   230.27964576
_cell_formula_units_Z   1
loop_
 _symmetry_equiv_pos_site_id
 _symmetry_equiv_pos_as_xyz
  1  'x, y, z'
loop_
 _atom_site_type_symbol
 _atom_site_label
 _atom_site_symmetry_multiplicity
 _atom_site_fract_x
 _atom_site_fract_y
 _atom_site_fract_z
 _atom_site_occupancy
  Lu  Lu0  1  0.332134  0.666067  0.443122  1
  Lu  Lu1  1  0.670123  0.335062  0.552789  1
  Lu  Lu2  1  0.670123  0.335062  0.947211  1
  Lu  Lu3  1  0.332134  0.666067  0.056878  1
  Ti  Ti4  1  0.697723  0.848862  0.750000  1
  Al  Al5  1  0.826256  0.160576  0.250000  1
  Al  Al6  1  0.826256  0.665681  0.250000  1
  Al  Al7  1  0.315022  0.157510  0.250000  1
  Al  Al8  1  0.188004  0.849026  0.750000  1
  Al  Al9  1  0.188004  0.338979  0.750000  1
  Tc  Tc10  1  0.977110  0.988555  0.503541  1
  Tc  Tc11  1  0.977110  0.988555  0.996459  1
