# generated using pymatgen
data_Y2Er8In8PdAu3
_symmetry_space_group_name_H-M   'P 1'
_cell_length_a   3.63529200
_cell_length_b   8.16822524
_cell_length_c   18.29578682
_cell_angle_alpha   89.95867394
_cell_angle_beta   90.00000000
_cell_angle_gamma   90.00000000
_symmetry_Int_Tables_number   1
_chemical_formula_structural   Y2Er8In8PdAu3
_chemical_formula_sum   'Y2 Er8 In8 Pd1 Au3'
_cell_volume   543.27282800
_cell_formula_units_Z   1
loop_
 _symmetry_equiv_pos_site_id
 _symmetry_equiv_pos_as_xyz
  1  'x, y, z'
loop_
 _atom_site_type_symbol
 _atom_site_label
 _atom_site_symmetry_multiplicity
 _atom_site_fract_x
 _atom_site_fract_y
 _atom_site_fract_z
 _atom_site_occupancy
  Y  Y0  1  0.000000  0.500254  0.499299  1
  Y  Y1  1  0.000000  0.000232  0.000560  1
  Er  Er2  1  0.000000  0.747133  0.282973  1
  Er  Er3  1  0.000000  0.263176  0.716927  1
  Er  Er4  1  0.000000  0.763334  0.782390  1
  Er  Er5  1  0.000000  0.231737  0.219667  1
  Er  Er6  1  0.000000  0.618781  0.081213  1
  Er  Er7  1  0.000000  0.381144  0.920400  1
  Er  Er8  1  0.000000  0.880281  0.579343  1
  Er  Er9  1  0.000000  0.115076  0.416501  1
  In  In10  1  0.500000  0.709619  0.933915  1
  In  In11  1  0.500000  0.290067  0.067595  1
  In  In12  1  0.500000  0.792164  0.432147  1
  In  In13  1  0.500000  0.208887  0.564877  1
  In  In14  1  0.500000  0.581018  0.646880  1
  In  In15  1  0.500000  0.416141  0.352027  1
  In  In16  1  0.500000  0.921396  0.149003  1
  In  In17  1  0.500000  0.081705  0.852823  1
  Pd  Pd18  1  0.500000  0.026214  0.303952  1
  Au  Au19  1  0.500000  0.526854  0.197914  1
  Au  Au20  1  0.500000  0.472347  0.803477  1
  Au  Au21  1  0.500000  0.972438  0.696117  1
