# generated using pymatgen
data_Sm3Np(B4W)4
_symmetry_space_group_name_H-M   'P 1'
_cell_length_a   3.66815900
_cell_length_b   6.07068918
_cell_length_c   11.75070355
_cell_angle_alpha   89.97909663
_cell_angle_beta   90.00000000
_cell_angle_gamma   90.00000000
_symmetry_Int_Tables_number   1
_chemical_formula_structural   Sm3Np(B4W)4
_chemical_formula_sum   'Sm3 Np1 B16 W4'
_cell_volume   261.66762403
_cell_formula_units_Z   1
loop_
 _symmetry_equiv_pos_site_id
 _symmetry_equiv_pos_as_xyz
  1  'x, y, z'
loop_
 _atom_site_type_symbol
 _atom_site_label
 _atom_site_symmetry_multiplicity
 _atom_site_fract_x
 _atom_site_fract_y
 _atom_site_fract_z
 _atom_site_occupancy
  Sm  Sm0  1  0.000000  0.625895  0.349866  1
  Sm  Sm1  1  0.000000  0.374400  0.649881  1
  Sm  Sm2  1  0.000000  0.126185  0.150583  1
  Np  Np3  1  0.000000  0.875755  0.849569  1
  B  B4  1  0.500000  0.784498  0.185353  1
  B  B5  1  0.500000  0.210978  0.814667  1
  B  B6  1  0.500000  0.284929  0.314436  1
  B  B7  1  0.500000  0.715640  0.688208  1
  B  B8  1  0.500000  0.864858  0.030233  1
  B  B9  1  0.500000  0.133544  0.965988  1
  B  B10  1  0.500000  0.364532  0.468128  1
  B  B11  1  0.500000  0.635700  0.532869  1
  B  B12  1  0.500000  0.886493  0.453928  1
  B  B13  1  0.500000  0.112348  0.547042  1
  B  B14  1  0.500000  0.387713  0.045605  1
  B  B15  1  0.500000  0.616257  0.951537  1
  B  B16  1  0.500000  0.975453  0.308396  1
  B  B17  1  0.500000  0.021918  0.694097  1
  B  B18  1  0.500000  0.475809  0.191154  1
  B  B19  1  0.500000  0.528061  0.808008  1
  W  W20  1  0.000000  0.631031  0.082603  1
  W  W21  1  0.000000  0.367641  0.913779  1
  W  W22  1  0.000000  0.129653  0.416851  1
  W  W23  1  0.000000  0.870709  0.587222  1
