# generated using pymatgen
data_Ho8Er8In4Ru3Rh
_symmetry_space_group_name_H-M   'P 1'
_cell_length_a   9.60366068
_cell_length_b   9.59739595
_cell_length_c   9.59996182
_cell_angle_alpha   59.83520687
_cell_angle_beta   59.80801722
_cell_angle_gamma   59.83031242
_symmetry_Int_Tables_number   1
_chemical_formula_structural   Ho8Er8In4Ru3Rh
_chemical_formula_sum   'Ho8 Er8 In4 Ru3 Rh1'
_cell_volume   623.17693556
_cell_formula_units_Z   1
loop_
 _symmetry_equiv_pos_site_id
 _symmetry_equiv_pos_as_xyz
  1  'x, y, z'
loop_
 _atom_site_type_symbol
 _atom_site_label
 _atom_site_symmetry_multiplicity
 _atom_site_fract_x
 _atom_site_fract_y
 _atom_site_fract_z
 _atom_site_occupancy
  Ho  Ho0  1  0.191715  0.191880  0.811108  1
  Ho  Ho1  1  0.439802  0.059914  0.059837  1
  Ho  Ho2  1  0.440916  0.059912  0.440252  1
  Ho  Ho3  1  0.059904  0.440050  0.060075  1
  Ho  Ho4  1  0.650728  0.044860  0.650762  1
  Ho  Ho5  1  0.193317  0.808605  0.809239  1
  Ho  Ho6  1  0.059864  0.060157  0.439586  1
  Ho  Ho7  1  0.811056  0.191728  0.191757  1
  Er  Er8  1  0.808933  0.808767  0.193408  1
  Er  Er9  1  0.650516  0.650847  0.044911  1
  Er  Er10  1  0.651217  0.650840  0.650853  1
  Er  Er11  1  0.059172  0.441566  0.440856  1
  Er  Er12  1  0.044721  0.650676  0.650419  1
  Er  Er13  1  0.808575  0.193511  0.809024  1
  Er  Er14  1  0.441223  0.441353  0.059168  1
  Er  Er15  1  0.191969  0.810446  0.192220  1
  In  In16  1  0.417395  0.747615  0.417255  1
  In  In17  1  0.417349  0.417483  0.747734  1
  In  In18  1  0.747964  0.417486  0.417196  1
  In  In19  1  0.417126  0.417651  0.417500  1
  Ru  Ru20  1  0.857754  0.421066  0.857714  1
  Ru  Ru21  1  0.858721  0.857256  0.420604  1
  Ru  Ru22  1  0.420647  0.857327  0.858793  1
  Rh  Rh23  1  0.859414  0.859001  0.859730  1
