# generated using pymatgen
data_LiSmB14
_symmetry_space_group_name_H-M   'P 1'
_cell_length_a   7.31025996
_cell_length_b   7.31025919
_cell_length_c   7.31026020
_cell_angle_alpha   132.55376850
_cell_angle_beta   110.89831790
_cell_angle_gamma   88.10934400
_symmetry_Int_Tables_number   1
_chemical_formula_structural   LiSmB14
_chemical_formula_sum   'Li2 Sm2 B28'
_cell_volume   256.24105492
_cell_formula_units_Z   2
loop_
 _symmetry_equiv_pos_site_id
 _symmetry_equiv_pos_as_xyz
  1  'x, y, z'
loop_
 _atom_site_type_symbol
 _atom_site_label
 _atom_site_symmetry_multiplicity
 _atom_site_fract_x
 _atom_site_fract_y
 _atom_site_fract_z
 _atom_site_occupancy
  Li  Li0  1  0.000000  0.000000  0.500000  1
  Li  Li1  1  0.000000  0.500000  0.000000  1
  Sm  Sm2  1  0.620077  0.250000  0.370077  1
  Sm  Sm3  1  0.379923  0.750000  0.629923  1
  B  B4  1  0.638507  0.665493  0.973015  1
  B  B5  1  0.361493  0.334507  0.026985  1
  B  B6  1  0.192478  0.165493  0.026985  1
  B  B7  1  0.807522  0.834507  0.973015  1
  B  B8  1  0.778161  0.147704  0.630457  1
  B  B9  1  0.221839  0.852296  0.369543  1
  B  B10  1  0.017247  0.647704  0.369543  1
  B  B11  1  0.982753  0.352296  0.630457  1
  B  B12  1  0.916596  0.088868  0.827728  1
  B  B13  1  0.083404  0.911132  0.172272  1
  B  B14  1  0.761139  0.588868  0.172272  1
  B  B15  1  0.238861  0.411132  0.827728  1
  B  B16  1  0.397934  0.399080  0.682154  1
  B  B17  1  0.602066  0.284220  0.001146  1
  B  B18  1  0.216926  0.899080  0.001146  1
  B  B19  1  0.783074  0.784220  0.682154  1
  B  B20  1  0.602066  0.600920  0.317846  1
  B  B21  1  0.397934  0.715780  0.998854  1
  B  B22  1  0.783074  0.100920  0.998854  1
  B  B23  1  0.216926  0.215780  0.317846  1
  B  B24  1  0.032425  0.829557  0.703024  1
  B  B25  1  0.967575  0.670601  0.797132  1
  B  B26  1  0.626532  0.329557  0.797132  1
  B  B27  1  0.373468  0.170601  0.703024  1
  B  B28  1  0.967575  0.170443  0.296976  1
  B  B29  1  0.032425  0.329399  0.202868  1
  B  B30  1  0.373468  0.670443  0.202868  1
  B  B31  1  0.626532  0.829399  0.296976  1
