# generated using pymatgen
data_Dy3TmHf3PtF28
_symmetry_space_group_name_H-M   'P 1'
_cell_length_a   5.65576267
_cell_length_b   8.98755923
_cell_length_c   12.07495691
_cell_angle_alpha   62.48117419
_cell_angle_beta   89.93843283
_cell_angle_gamma   89.95532308
_symmetry_Int_Tables_number   1
_chemical_formula_structural   Dy3TmHf3PtF28
_chemical_formula_sum   'Dy3 Tm1 Hf3 Pt1 F28'
_cell_volume   544.34328507
_cell_formula_units_Z   1
loop_
 _symmetry_equiv_pos_site_id
 _symmetry_equiv_pos_as_xyz
  1  'x, y, z'
loop_
 _atom_site_type_symbol
 _atom_site_label
 _atom_site_symmetry_multiplicity
 _atom_site_fract_x
 _atom_site_fract_y
 _atom_site_fract_z
 _atom_site_occupancy
  Dy  Dy0  1  0.257402  0.183355  0.731992  1
  Dy  Dy1  1  0.240881  0.184150  0.238513  1
  Dy  Dy2  1  0.743249  0.813020  0.267342  1
  Tm  Tm3  1  0.757908  0.814928  0.765727  1
  Hf  Hf4  1  0.755991  0.274828  0.955653  1
  Hf  Hf5  1  0.256775  0.725525  0.546221  1
  Hf  Hf6  1  0.244529  0.725487  0.043659  1
  Pt  Pt7  1  0.741023  0.271307  0.456344  1
  F  F8  1  0.464010  0.710437  0.919033  1
  F  F9  1  0.936016  0.294987  0.582338  1
  F  F10  1  0.535657  0.289821  0.079754  1
  F  F11  1  0.040442  0.711554  0.420835  1
  F  F12  1  0.446188  0.279533  0.541414  1
  F  F13  1  0.950935  0.723887  0.948500  1
  F  F14  1  0.549863  0.718752  0.453685  1
  F  F15  1  0.047749  0.277666  0.050580  1
  F  F16  1  0.771940  0.525851  0.859257  1
  F  F17  1  0.268000  0.474508  0.640000  1
  F  F18  1  0.224413  0.475437  0.141815  1
  F  F19  1  0.730525  0.517941  0.357940  1
  F  F20  1  0.758505  0.024660  0.057729  1
  F  F21  1  0.261342  0.975475  0.445166  1
  F  F22  1  0.242718  0.975616  0.940758  1
  F  F23  1  0.743257  0.024304  0.550088  1
  F  F24  1  0.982798  0.733292  0.649252  1
  F  F25  1  0.486059  0.267146  0.850813  1
  F  F26  1  0.028179  0.272393  0.363834  1
  F  F27  1  0.518054  0.732072  0.146235  1
  F  F28  1  0.038531  0.748338  0.171291  1
  F  F29  1  0.551723  0.256420  0.324263  1
  F  F30  1  0.967066  0.253755  0.828399  1
  F  F31  1  0.468510  0.746568  0.673451  1
  F  F32  1  0.421634  0.971067  0.235187  1
  F  F33  1  0.920843  0.028886  0.268791  1
  F  F34  1  0.576355  0.025614  0.763006  1
  F  F35  1  0.070928  0.971420  0.731137  1
