# generated using pymatgen
data_Ti12Be9Cu3N4
_symmetry_space_group_name_H-M   'P 1'
_cell_length_a   7.70437074
_cell_length_b   7.70436965
_cell_length_c   7.71055824
_cell_angle_alpha   60.02654468
_cell_angle_beta   60.02654787
_cell_angle_gamma   59.99999248
_symmetry_Int_Tables_number   1
_chemical_formula_structural   Ti12Be9Cu3N4
_chemical_formula_sum   'Ti12 Be9 Cu3 N4'
_cell_volume   323.75704499
_cell_formula_units_Z   1
loop_
 _symmetry_equiv_pos_site_id
 _symmetry_equiv_pos_as_xyz
  1  'x, y, z'
loop_
 _atom_site_type_symbol
 _atom_site_label
 _atom_site_symmetry_multiplicity
 _atom_site_fract_x
 _atom_site_fract_y
 _atom_site_fract_z
 _atom_site_occupancy
  Ti  Ti0  1  0.943181  0.557241  0.556398  1
  Ti  Ti1  1  0.692759  0.306819  0.693602  1
  Ti  Ti2  1  0.942396  0.558106  0.941392  1
  Ti  Ti3  1  0.558106  0.942396  0.941392  1
  Ti  Ti4  1  0.307604  0.691894  0.308608  1
  Ti  Ti5  1  0.557241  0.943181  0.556398  1
  Ti  Ti6  1  0.691894  0.691894  0.308608  1
  Ti  Ti7  1  0.943181  0.943181  0.556398  1
  Ti  Ti8  1  0.306819  0.306819  0.693602  1
  Ti  Ti9  1  0.691894  0.307604  0.308608  1
  Ti  Ti10  1  0.558106  0.558106  0.941392  1
  Ti  Ti11  1  0.306819  0.692759  0.693602  1
  Be  Be12  1  0.224072  0.927125  0.921679  1
  Be  Be13  1  0.322875  0.322875  0.328321  1
  Be  Be14  1  0.324682  0.324682  0.025954  1
  Be  Be15  1  0.927125  0.224072  0.921679  1
  Be  Be16  1  0.927125  0.927125  0.921679  1
  Be  Be17  1  0.025928  0.322875  0.328321  1
  Be  Be18  1  0.925318  0.925318  0.224046  1
  Be  Be19  1  0.322875  0.025928  0.328321  1
  Be  Be20  1  0.125000  0.125000  0.625000  1
  Cu  Cu21  1  0.125000  0.625000  0.125000  1
  Cu  Cu22  1  0.625000  0.125000  0.125000  1
  Cu  Cu23  1  0.125000  0.125000  0.125000  1
  N  N24  1  0.625000  0.125000  0.625000  1
  N  N25  1  0.625000  0.625000  0.125000  1
  N  N26  1  0.125000  0.625000  0.625000  1
  N  N27  1  0.625000  0.625000  0.625000  1
