# generated using pymatgen
data_Nd4Ho2CoBr10
_symmetry_space_group_name_H-M   'P 1'
_cell_length_a   7.45867672
_cell_length_b   9.32472324
_cell_length_c   9.48485799
_cell_angle_alpha   108.27596919
_cell_angle_beta   95.78222310
_cell_angle_gamma   104.94940476
_symmetry_Int_Tables_number   1
_chemical_formula_structural   Nd4Ho2CoBr10
_chemical_formula_sum   'Nd4 Ho2 Co1 Br10'
_cell_volume   593.21489055
_cell_formula_units_Z   1
loop_
 _symmetry_equiv_pos_site_id
 _symmetry_equiv_pos_as_xyz
  1  'x, y, z'
loop_
 _atom_site_type_symbol
 _atom_site_label
 _atom_site_symmetry_multiplicity
 _atom_site_fract_x
 _atom_site_fract_y
 _atom_site_fract_z
 _atom_site_occupancy
  Nd  Nd0  1  0.466188  0.786350  0.589868  1
  Nd  Nd1  1  0.533812  0.213650  0.410132  1
  Nd  Nd2  1  0.370068  0.451084  0.746704  1
  Nd  Nd3  1  0.629932  0.548916  0.253296  1
  Ho  Ho4  1  0.849619  0.628644  0.671682  1
  Ho  Ho5  1  0.150381  0.371356  0.328318  1
  Co  Co6  1  0.500000  0.500000  0.500000  1
  Br  Br7  1  0.411968  0.128227  0.673059  1
  Br  Br8  1  0.588032  0.871773  0.326941  1
  Br  Br9  1  0.047335  0.674343  0.419197  1
  Br  Br10  1  0.952665  0.325657  0.580803  1
  Br  Br11  1  0.261642  0.750001  0.841370  1
  Br  Br12  1  0.738358  0.249999  0.158630  1
  Br  Br13  1  0.245439  0.415668  0.055247  1
  Br  Br14  1  0.754561  0.584332  0.944753  1
  Br  Br15  1  0.852592  0.941349  0.769430  1
  Br  Br16  1  0.147408  0.058651  0.230570  1
