# generated using pymatgen
data_Y18Sc2Cd5HgRu2
_symmetry_space_group_name_H-M   'P 1'
_cell_length_a   9.57273552
_cell_length_b   9.57273467
_cell_length_c   9.78471600
_cell_angle_alpha   90.00000000
_cell_angle_beta   90.00000000
_cell_angle_gamma   120.09830704
_symmetry_Int_Tables_number   1
_chemical_formula_structural   Y18Sc2Cd5HgRu2
_chemical_formula_sum   'Y18 Sc2 Cd5 Hg1 Ru2'
_cell_volume   775.74658175
_cell_formula_units_Z   1
loop_
 _symmetry_equiv_pos_site_id
 _symmetry_equiv_pos_as_xyz
  1  'x, y, z'
loop_
 _atom_site_type_symbol
 _atom_site_label
 _atom_site_symmetry_multiplicity
 _atom_site_fract_x
 _atom_site_fract_y
 _atom_site_fract_z
 _atom_site_occupancy
  Y  Y0  1  0.208068  0.791932  0.440730  1
  Y  Y1  1  0.208020  0.415956  0.440503  1
  Y  Y2  1  0.584044  0.791980  0.440503  1
  Y  Y3  1  0.792080  0.207920  0.559137  1
  Y  Y4  1  0.791810  0.583619  0.558953  1
  Y  Y5  1  0.416381  0.208190  0.558953  1
  Y  Y6  1  0.792080  0.207920  0.940863  1
  Y  Y7  1  0.791810  0.583619  0.941047  1
  Y  Y8  1  0.416381  0.208190  0.941047  1
  Y  Y9  1  0.208068  0.791932  0.059270  1
  Y  Y10  1  0.208020  0.415956  0.059497  1
  Y  Y11  1  0.584044  0.791980  0.059497  1
  Y  Y12  1  0.540974  0.459026  0.250000  1
  Y  Y13  1  0.543540  0.082342  0.250000  1
  Y  Y14  1  0.917658  0.456460  0.250000  1
  Y  Y15  1  0.458922  0.541078  0.750000  1
  Y  Y16  1  0.459244  0.917913  0.750000  1
  Y  Y17  1  0.082087  0.540756  0.750000  1
  Sc  Sc18  1  0.998794  0.001206  0.498086  1
  Sc  Sc19  1  0.998794  0.001206  0.001914  1
  Cd  Cd20  1  0.889667  0.777444  0.250000  1
  Cd  Cd21  1  0.222556  0.110333  0.250000  1
  Cd  Cd22  1  0.110701  0.889299  0.750000  1
  Cd  Cd23  1  0.110033  0.221157  0.750000  1
  Cd  Cd24  1  0.778843  0.889967  0.750000  1
  Hg  Hg25  1  0.886946  0.113054  0.250000  1
  Ru  Ru26  1  0.333683  0.666317  0.250000  1
  Ru  Ru27  1  0.666753  0.333247  0.750000  1
