# generated using pymatgen
data_Ac4Pb3Au10
_symmetry_space_group_name_H-M   'P 1'
_cell_length_a   9.28746009
_cell_length_b   9.28749490
_cell_length_c   10.66671800
_cell_angle_alpha   90.00000000
_cell_angle_beta   90.00000000
_cell_angle_gamma   109.38612157
_symmetry_Int_Tables_number   1
_chemical_formula_structural   Ac4Pb3Au10
_chemical_formula_sum   'Ac8 Pb6 Au20'
_cell_volume   867.91584790
_cell_formula_units_Z   2
loop_
 _symmetry_equiv_pos_site_id
 _symmetry_equiv_pos_as_xyz
  1  'x, y, z'
loop_
 _atom_site_type_symbol
 _atom_site_label
 _atom_site_symmetry_multiplicity
 _atom_site_fract_x
 _atom_site_fract_y
 _atom_site_fract_z
 _atom_site_occupancy
  Ac  Ac0  1  0.707121  0.292879  0.000000  1
  Ac  Ac1  1  0.207121  0.792879  0.500000  1
  Ac  Ac2  1  0.799248  0.799248  0.296632  1
  Ac  Ac3  1  0.299248  0.299248  0.203368  1
  Ac  Ac4  1  0.792879  0.207121  0.500000  1
  Ac  Ac5  1  0.292879  0.707121  0.000000  1
  Ac  Ac6  1  0.700752  0.700752  0.796632  1
  Ac  Ac7  1  0.200752  0.200752  0.703368  1
  Pb  Pb8  1  0.507675  0.007676  0.250001  1
  Pb  Pb9  1  0.992325  0.492324  0.750001  1
  Pb  Pb10  1  0.000000  0.000000  0.000000  1
  Pb  Pb11  1  0.007675  0.507676  0.249999  1
  Pb  Pb12  1  0.492325  0.992324  0.749999  1
  Pb  Pb13  1  0.500000  0.500000  0.500000  1
  Au  Au14  1  0.156428  0.418283  0.470402  1
  Au  Au15  1  0.907121  0.907119  0.592270  1
  Au  Au16  1  0.581717  0.843573  0.529598  1
  Au  Au17  1  0.900091  0.166776  0.210136  1
  Au  Au18  1  0.400091  0.666776  0.289864  1
  Au  Au19  1  0.666777  0.400091  0.289864  1
  Au  Au20  1  0.407121  0.407119  0.907730  1
  Au  Au21  1  0.918283  0.656427  0.029598  1
  Au  Au22  1  0.333223  0.599909  0.710136  1
  Au  Au23  1  0.343572  0.081717  0.970402  1
  Au  Au24  1  0.592879  0.592881  0.092270  1
  Au  Au25  1  0.656428  0.918283  0.029598  1
  Au  Au26  1  0.092879  0.092881  0.407730  1
  Au  Au27  1  0.599909  0.333224  0.710136  1
  Au  Au28  1  0.099909  0.833224  0.789864  1
  Au  Au29  1  0.081717  0.343573  0.970402  1
  Au  Au30  1  0.843572  0.581717  0.529598  1
  Au  Au31  1  0.166777  0.900091  0.210136  1
  Au  Au32  1  0.418283  0.156427  0.470402  1
  Au  Au33  1  0.833223  0.099909  0.789864  1
