# generated using pymatgen
data_Tb5(CoO6)2
_symmetry_space_group_name_H-M   'P 1'
_cell_length_a   6.77607612
_cell_length_b   6.77607703
_cell_length_c   7.23725415
_cell_angle_alpha   74.57708485
_cell_angle_beta   74.57707947
_cell_angle_gamma   50.50163247
_symmetry_Int_Tables_number   1
_chemical_formula_structural   Tb5(CoO6)2
_chemical_formula_sum   'Tb5 Co2 O12'
_cell_volume   245.08174915
_cell_formula_units_Z   1
loop_
 _symmetry_equiv_pos_site_id
 _symmetry_equiv_pos_as_xyz
  1  'x, y, z'
loop_
 _atom_site_type_symbol
 _atom_site_label
 _atom_site_symmetry_multiplicity
 _atom_site_fract_x
 _atom_site_fract_y
 _atom_site_fract_z
 _atom_site_occupancy
  Tb  Tb0  1  0.692555  0.692555  0.664094  1
  Tb  Tb1  1  0.693770  0.693770  0.144368  1
  Tb  Tb2  1  0.000000  0.000000  0.000000  1
  Tb  Tb3  1  0.306230  0.306230  0.855632  1
  Tb  Tb4  1  0.307445  0.307445  0.335906  1
  Co  Co5  1  0.243865  0.756135  0.500000  1
  Co  Co6  1  0.756135  0.243865  0.500000  1
  O  O7  1  0.401850  0.903376  0.923517  1
  O  O8  1  0.583682  0.099765  0.578571  1
  O  O9  1  0.900235  0.416318  0.421429  1
  O  O10  1  0.096624  0.598150  0.076483  1
  O  O11  1  0.000094  0.000094  0.330215  1
  O  O12  1  0.500160  0.500160  0.673260  1
  O  O13  1  0.903376  0.401850  0.923517  1
  O  O14  1  0.099765  0.583682  0.578571  1
  O  O15  1  0.416318  0.900235  0.421429  1
  O  O16  1  0.598150  0.096624  0.076483  1
  O  O17  1  0.499840  0.499840  0.326740  1
  O  O18  1  0.999906  0.999906  0.669785  1
