# generated using pymatgen
data_Dy4Ho2Al15Si9Os8
_symmetry_space_group_name_H-M   'P 1'
_cell_length_a   8.69742803
_cell_length_b   8.69630039
_cell_length_c   9.36629300
_cell_angle_alpha   90.00000000
_cell_angle_beta   90.00000000
_cell_angle_gamma   120.05750179
_symmetry_Int_Tables_number   1
_chemical_formula_structural   Dy4Ho2Al15Si9Os8
_chemical_formula_sum   'Dy4 Ho2 Al15 Si9 Os8'
_cell_volume   613.15717439
_cell_formula_units_Z   1
loop_
 _symmetry_equiv_pos_site_id
 _symmetry_equiv_pos_as_xyz
  1  'x, y, z'
loop_
 _atom_site_type_symbol
 _atom_site_label
 _atom_site_symmetry_multiplicity
 _atom_site_fract_x
 _atom_site_fract_y
 _atom_site_fract_z
 _atom_site_occupancy
  Dy  Dy0  1  0.612872  0.807260  0.250000  1
  Dy  Dy1  1  0.385896  0.191433  0.750000  1
  Dy  Dy2  1  0.194074  0.805878  0.250000  1
  Dy  Dy3  1  0.806548  0.193494  0.750000  1
  Ho  Ho4  1  0.193021  0.387656  0.250000  1
  Ho  Ho5  1  0.808445  0.613687  0.750000  1
  Al  Al6  1  0.165769  0.329304  0.577346  1
  Al  Al7  1  0.835927  0.671029  0.420963  1
  Al  Al8  1  0.670944  0.834317  0.577629  1
  Al  Al9  1  0.835927  0.671029  0.079037  1
  Al  Al10  1  0.328726  0.163964  0.420649  1
  Al  Al11  1  0.165769  0.329304  0.922654  1
  Al  Al12  1  0.164264  0.835687  0.578002  1
  Al  Al13  1  0.328726  0.163964  0.079351  1
  Al  Al14  1  0.835328  0.164794  0.421463  1
  Al  Al15  1  0.670944  0.834317  0.922371  1
  Al  Al16  1  0.835328  0.164794  0.078537  1
  Al  Al17  1  0.164264  0.835687  0.921998  1
  Al  Al18  1  0.435894  0.564610  0.750000  1
  Al  Al19  1  0.000494  0.999772  0.250000  1
  Al  Al20  1  0.999862  0.999910  0.750000  1
  Si  Si21  1  0.334262  0.665358  0.040449  1
  Si  Si22  1  0.666121  0.334239  0.958448  1
  Si  Si23  1  0.666121  0.334239  0.541552  1
  Si  Si24  1  0.334262  0.665358  0.459551  1
  Si  Si25  1  0.561987  0.125156  0.250000  1
  Si  Si26  1  0.435596  0.874800  0.750000  1
  Si  Si27  1  0.875369  0.437843  0.250000  1
  Si  Si28  1  0.124754  0.564581  0.750000  1
  Si  Si29  1  0.562434  0.436711  0.250000  1
  Os  Os30  1  0.500122  0.000789  0.000614  1
  Os  Os31  1  0.999198  0.499882  0.000596  1
  Os  Os32  1  0.500122  0.000789  0.499386  1
  Os  Os33  1  0.500879  0.499069  0.006658  1
  Os  Os34  1  0.999198  0.499882  0.499404  1
  Os  Os35  1  0.500879  0.499069  0.493342  1
  Os  Os36  1  0.999838  0.000172  0.999915  1
  Os  Os37  1  0.999838  0.000172  0.500085  1
