# generated using pymatgen
data_Zr2V(Fe3P2)3
_symmetry_space_group_name_H-M   'P 1'
_cell_length_a   3.61488200
_cell_length_b   10.14762900
_cell_length_c   11.69902500
_cell_angle_alpha   90.00000000
_cell_angle_beta   90.00000000
_cell_angle_gamma   90.00000000
_symmetry_Int_Tables_number   1
_chemical_formula_structural   Zr2V(Fe3P2)3
_chemical_formula_sum   'Zr4 V2 Fe18 P12'
_cell_volume   429.14926713
_cell_formula_units_Z   2
loop_
 _symmetry_equiv_pos_site_id
 _symmetry_equiv_pos_as_xyz
  1  'x, y, z'
loop_
 _atom_site_type_symbol
 _atom_site_label
 _atom_site_symmetry_multiplicity
 _atom_site_fract_x
 _atom_site_fract_y
 _atom_site_fract_z
 _atom_site_occupancy
  Zr  Zr0  1  0.250000  0.576060  0.703999  1
  Zr  Zr1  1  0.250000  0.923940  0.203999  1
  Zr  Zr2  1  0.750000  0.419016  0.296204  1
  Zr  Zr3  1  0.750000  0.080984  0.796204  1
  V  V4  1  0.250000  0.702266  0.990685  1
  V  V5  1  0.250000  0.797734  0.490685  1
  Fe  Fe6  1  0.750000  0.294724  0.008802  1
  Fe  Fe7  1  0.750000  0.205276  0.508802  1
  Fe  Fe8  1  0.250000  0.400904  0.488129  1
  Fe  Fe9  1  0.250000  0.099096  0.988129  1
  Fe  Fe10  1  0.750000  0.589262  0.512082  1
  Fe  Fe11  1  0.750000  0.910738  0.012082  1
  Fe  Fe12  1  0.250000  0.225744  0.174322  1
  Fe  Fe13  1  0.250000  0.274256  0.674322  1
  Fe  Fe14  1  0.750000  0.781498  0.823824  1
  Fe  Fe15  1  0.750000  0.718502  0.323824  1
  Fe  Fe16  1  0.250000  0.875823  0.702139  1
  Fe  Fe17  1  0.250000  0.624177  0.202139  1
  Fe  Fe18  1  0.750000  0.120308  0.299531  1
  Fe  Fe19  1  0.750000  0.379692  0.799531  1
  Fe  Fe20  1  0.250000  0.461872  0.933494  1
  Fe  Fe21  1  0.250000  0.038128  0.433494  1
  Fe  Fe22  1  0.750000  0.535589  0.067994  1
  Fe  Fe23  1  0.750000  0.964411  0.567994  1
  P  P24  1  0.250000  0.423802  0.115861  1
  P  P25  1  0.250000  0.076198  0.615861  1
  P  P26  1  0.750000  0.576375  0.882940  1
  P  P27  1  0.750000  0.923625  0.382940  1
  P  P28  1  0.250000  0.264880  0.865534  1
  P  P29  1  0.250000  0.235120  0.365534  1
  P  P30  1  0.750000  0.739327  0.133112  1
  P  P31  1  0.750000  0.760673  0.633112  1
  P  P32  1  0.250000  0.591888  0.393067  1
  P  P33  1  0.250000  0.908112  0.893067  1
  P  P34  1  0.750000  0.393989  0.608279  1
  P  P35  1  0.750000  0.106011  0.108279  1
