# generated using pymatgen
data_Na(VSe2)6
_symmetry_space_group_name_H-M   'P 1'
_cell_length_a   5.80673679
_cell_length_b   5.80673750
_cell_length_c   15.29884359
_cell_angle_alpha   86.20876185
_cell_angle_beta   86.20876023
_cell_angle_gamma   120.00746657
_symmetry_Int_Tables_number   1
_chemical_formula_structural   Na(VSe2)6
_chemical_formula_sum   'Na1 V6 Se12'
_cell_volume   442.78094492
_cell_formula_units_Z   1
loop_
 _symmetry_equiv_pos_site_id
 _symmetry_equiv_pos_as_xyz
  1  'x, y, z'
loop_
 _atom_site_type_symbol
 _atom_site_label
 _atom_site_symmetry_multiplicity
 _atom_site_fract_x
 _atom_site_fract_y
 _atom_site_fract_z
 _atom_site_occupancy
  Na  Na0  1  0.000000  0.000000  0.000000  1
  V  V1  1  0.086419  0.086419  0.741573  1
  V  V2  1  0.420165  0.753433  0.741086  1
  V  V3  1  0.753433  0.420165  0.741086  1
  V  V4  1  0.246567  0.579835  0.258914  1
  V  V5  1  0.579835  0.246567  0.258914  1
  V  V6  1  0.913581  0.913581  0.258427  1
  Se  Se7  1  0.286172  0.286172  0.153578  1
  Se  Se8  1  0.614085  0.949631  0.153771  1
  Se  Se9  1  0.949631  0.614085  0.153771  1
  Se  Se10  1  0.050369  0.385915  0.846229  1
  Se  Se11  1  0.385915  0.050369  0.846229  1
  Se  Se12  1  0.713828  0.713828  0.846422  1
  Se  Se13  1  0.210448  0.210448  0.363256  1
  Se  Se14  1  0.544096  0.876735  0.363223  1
  Se  Se15  1  0.876735  0.544096  0.363223  1
  Se  Se16  1  0.123265  0.455904  0.636777  1
  Se  Se17  1  0.455904  0.123265  0.636777  1
  Se  Se18  1  0.789552  0.789552  0.636744  1
