# generated using pymatgen
data_NdSm3Ge4(BO5)4
_symmetry_space_group_name_H-M   'P 1'
_cell_length_a   10.10847503
_cell_length_b   7.63035662
_cell_length_c   4.96404994
_cell_angle_alpha   90.04613260
_cell_angle_beta   91.76970188
_cell_angle_gamma   89.99136510
_symmetry_Int_Tables_number   1
_chemical_formula_structural   NdSm3Ge4(BO5)4
_chemical_formula_sum   'Nd1 Sm3 Ge4 B4 O20'
_cell_volume   382.70072206
_cell_formula_units_Z   1
loop_
 _symmetry_equiv_pos_site_id
 _symmetry_equiv_pos_as_xyz
  1  'x, y, z'
loop_
 _atom_site_type_symbol
 _atom_site_label
 _atom_site_symmetry_multiplicity
 _atom_site_fract_x
 _atom_site_fract_y
 _atom_site_fract_z
 _atom_site_occupancy
  Nd  Nd0  1  0.178906  0.391589  0.007636  1
  Sm  Sm1  1  0.678192  0.106989  0.008968  1
  Sm  Sm2  1  0.821297  0.607363  0.991447  1
  Sm  Sm3  1  0.322571  0.891674  0.993474  1
  Ge  Ge4  1  0.576867  0.767121  0.472864  1
  Ge  Ge5  1  0.922523  0.267034  0.527266  1
  Ge  Ge6  1  0.424594  0.231958  0.526477  1
  Ge  Ge7  1  0.075503  0.733713  0.473408  1
  B  B8  1  0.170217  0.092472  0.453305  1
  B  B9  1  0.330791  0.596938  0.545860  1
  B  B10  1  0.829416  0.905340  0.549546  1
  B  B11  1  0.669990  0.405201  0.450815  1
  O  O12  1  0.846709  0.081861  0.676489  1
  O  O13  1  0.652168  0.581315  0.323444  1
  O  O14  1  0.150885  0.918135  0.322095  1
  O  O15  1  0.348125  0.419228  0.668744  1
  O  O16  1  0.474964  0.086999  0.778208  1
  O  O17  1  0.023894  0.586478  0.225359  1
  O  O18  1  0.526037  0.914645  0.224864  1
  O  O19  1  0.972430  0.415311  0.775132  1
  O  O20  1  0.296532  0.157695  0.291741  1
  O  O21  1  0.204760  0.662238  0.707741  1
  O  O22  1  0.704060  0.838729  0.711644  1
  O  O23  1  0.795728  0.338631  0.287977  1
  O  O24  1  0.064170  0.211796  0.340598  1
  O  O25  1  0.436884  0.712981  0.665555  1
  O  O26  1  0.935824  0.788476  0.666474  1
  O  O27  1  0.564206  0.287146  0.333880  1
  O  O28  1  0.192480  0.097412  0.733685  1
  O  O29  1  0.310174  0.606051  0.265153  1
  O  O30  1  0.807682  0.898644  0.268778  1
  O  O31  1  0.691418  0.398832  0.731381  1
