# generated using pymatgen
data_AcMnTeO6
_symmetry_space_group_name_H-M   'P 1'
_cell_length_a   5.27664202
_cell_length_b   9.13899629
_cell_length_c   10.78324200
_cell_angle_alpha   89.99450803
_cell_angle_beta   90.00517945
_cell_angle_gamma   90.01333545
_symmetry_Int_Tables_number   1
_chemical_formula_structural   AcMnTeO6
_chemical_formula_sum   'Ac4 Mn4 Te4 O24'
_cell_volume   520.00254486
_cell_formula_units_Z   4
loop_
 _symmetry_equiv_pos_site_id
 _symmetry_equiv_pos_as_xyz
  1  'x, y, z'
loop_
 _atom_site_type_symbol
 _atom_site_label
 _atom_site_symmetry_multiplicity
 _atom_site_fract_x
 _atom_site_fract_y
 _atom_site_fract_z
 _atom_site_occupancy
  Ac  Ac0  1  0.000000  0.000000  0.500000  1
  Ac  Ac1  1  0.500000  0.500000  0.500000  1
  Ac  Ac2  1  0.000000  0.000000  0.000000  1
  Ac  Ac3  1  0.500000  0.500000  0.000000  1
  Mn  Mn4  1  0.502836  0.830524  0.750015  1
  Mn  Mn5  1  0.497164  0.169476  0.249985  1
  Mn  Mn6  1  0.002836  0.330524  0.750015  1
  Mn  Mn7  1  0.997164  0.669476  0.249985  1
  Te  Te8  1  0.501625  0.166095  0.750041  1
  Te  Te9  1  0.001625  0.666095  0.750041  1
  Te  Te10  1  0.998375  0.333905  0.249959  1
  Te  Te11  1  0.498375  0.833905  0.249959  1
  O  O12  1  0.631640  0.016739  0.642556  1
  O  O13  1  0.131640  0.516739  0.642556  1
  O  O14  1  0.688577  0.314300  0.652435  1
  O  O15  1  0.188577  0.814300  0.652435  1
  O  O16  1  0.200449  0.190733  0.644739  1
  O  O17  1  0.700449  0.690733  0.644739  1
  O  O18  1  0.191502  0.189893  0.149511  1
  O  O19  1  0.691502  0.689893  0.149511  1
  O  O20  1  0.133727  0.495519  0.151711  1
  O  O21  1  0.633727  0.995519  0.151711  1
  O  O22  1  0.715297  0.317707  0.138315  1
  O  O23  1  0.215297  0.817707  0.138315  1
  O  O24  1  0.868360  0.483261  0.357444  1
  O  O25  1  0.368360  0.983261  0.357444  1
  O  O26  1  0.811423  0.185700  0.347565  1
  O  O27  1  0.311423  0.685700  0.347565  1
  O  O28  1  0.299551  0.309267  0.355261  1
  O  O29  1  0.799551  0.809267  0.355261  1
  O  O30  1  0.308498  0.310107  0.850489  1
  O  O31  1  0.808498  0.810107  0.850489  1
  O  O32  1  0.366273  0.004481  0.848289  1
  O  O33  1  0.866273  0.504481  0.848289  1
  O  O34  1  0.784703  0.182293  0.861685  1
  O  O35  1  0.284703  0.682293  0.861685  1
