# generated using pymatgen
data_LaNp3(Si5Pt3)2
_symmetry_space_group_name_H-M   'P 1'
_cell_length_a   8.22741699
_cell_length_b   8.23138470
_cell_length_c   8.23138449
_cell_angle_alpha   136.48397598
_cell_angle_beta   105.05357162
_cell_angle_gamma   90.87256558
_symmetry_Int_Tables_number   1
_chemical_formula_structural   LaNp3(Si5Pt3)2
_chemical_formula_sum   'La1 Np3 Si10 Pt6'
_cell_volume   352.86788226
_cell_formula_units_Z   1
loop_
 _symmetry_equiv_pos_site_id
 _symmetry_equiv_pos_as_xyz
  1  'x, y, z'
loop_
 _atom_site_type_symbol
 _atom_site_label
 _atom_site_symmetry_multiplicity
 _atom_site_fract_x
 _atom_site_fract_y
 _atom_site_fract_z
 _atom_site_occupancy
  La  La0  1  0.639002  0.371343  0.267659  1
  Np  Np1  1  0.360900  0.629447  0.731453  1
  Np  Np2  1  0.100332  0.869334  0.230999  1
  Np  Np3  1  0.899071  0.130415  0.768655  1
  Si  Si4  1  0.458381  0.108663  0.349718  1
  Si  Si5  1  0.537384  0.887538  0.649846  1
  Si  Si6  1  0.766844  0.616951  0.149893  1
  Si  Si7  1  0.236203  0.387553  0.848650  1
  Si  Si8  1  0.269396  0.520630  0.249188  1
  Si  Si9  1  0.727976  0.478294  0.751380  1
  Si  Si10  1  0.727976  0.976595  0.249681  1
  Si  Si11  1  0.269396  0.020208  0.748766  1
  Si  Si12  1  0.003458  0.249897  0.250018  1
  Si  Si13  1  0.003458  0.753440  0.753562  1
  Pt  Pt14  1  0.499672  0.251109  0.752103  1
  Pt  Pt15  1  0.499672  0.747569  0.248563  1
  Pt  Pt16  1  0.249064  0.137231  0.111833  1
  Pt  Pt17  1  0.753212  0.863342  0.889871  1
  Pt  Pt18  1  0.025397  0.637307  0.388088  1
  Pt  Pt19  1  0.973205  0.363132  0.610074  1
