# generated using pymatgen
data_Ba5Na2Ca4Tc4PbN16
_symmetry_space_group_name_H-M   'P 1'
_cell_length_a   10.55870294
_cell_length_b   10.27410928
_cell_length_c   7.85893900
_cell_angle_alpha   71.32031013
_cell_angle_beta   65.92832292
_cell_angle_gamma   44.29920186
_symmetry_Int_Tables_number   1
_chemical_formula_structural   Ba5Na2Ca4Tc4PbN16
_chemical_formula_sum   'Ba5 Na2 Ca4 Tc4 Pb1 N16'
_cell_volume   543.10552170
_cell_formula_units_Z   1
loop_
 _symmetry_equiv_pos_site_id
 _symmetry_equiv_pos_as_xyz
  1  'x, y, z'
loop_
 _atom_site_type_symbol
 _atom_site_label
 _atom_site_symmetry_multiplicity
 _atom_site_fract_x
 _atom_site_fract_y
 _atom_site_fract_z
 _atom_site_occupancy
  Ba  Ba0  1  0.130211  0.094207  0.887125  1
  Ba  Ba1  1  0.149853  0.117687  0.366949  1
  Ba  Ba2  1  0.365512  0.366949  0.117687  1
  Ba  Ba3  1  0.673005  0.326995  0.326995  1
  Ba  Ba4  1  0.888457  0.887125  0.094207  1
  Na  Na5  1  0.960435  0.539565  0.539565  1
  Na  Na6  1  0.306325  0.693675  0.693675  1
  Ca  Ca7  1  0.320058  0.362393  0.654763  1
  Ca  Ca8  1  0.890608  0.900846  0.599001  1
  Ca  Ca9  1  0.662786  0.654763  0.362393  1
  Ca  Ca10  1  0.609546  0.599001  0.900846  1
  Tc  Tc11  1  0.494759  0.017040  0.480299  1
  Tc  Tc12  1  0.007902  0.480299  0.017040  1
  Tc  Tc13  1  0.757762  0.253428  0.751233  1
  Tc  Tc14  1  0.237577  0.751233  0.253428  1
  Pb  Pb15  1  0.552594  0.947406  0.947406  1
  N  N16  1  0.998753  0.639118  0.820988  1
  N  N17  1  0.700435  0.287576  0.993646  1
  N  N18  1  0.636771  0.065474  0.458982  1
  N  N19  1  0.541140  0.820988  0.639118  1
  N  N20  1  0.199767  0.599403  0.405593  1
  N  N21  1  0.795239  0.405593  0.599403  1
  N  N22  1  0.982131  0.009609  0.706564  1
  N  N23  1  0.538726  0.964718  0.247445  1
  N  N24  1  0.410810  0.718172  0.309221  1
  N  N25  1  0.970923  0.557473  0.223408  1
  N  N26  1  0.301698  0.706564  0.009609  1
  N  N27  1  0.838773  0.458982  0.065474  1
  N  N28  1  0.249109  0.247445  0.964718  1
  N  N29  1  0.561798  0.309221  0.718172  1
  N  N30  1  0.248196  0.223408  0.557473  1
  N  N31  1  0.018344  0.993646  0.287576  1
