# generated using pymatgen
data_La6Nd10Cd4Ir3Pt
_symmetry_space_group_name_H-M   'P 1'
_cell_length_a   10.01136181
_cell_length_b   10.04378609
_cell_length_c   10.04378593
_cell_angle_alpha   59.91242348
_cell_angle_beta   60.34318879
_cell_angle_gamma   60.34319595
_symmetry_Int_Tables_number   1
_chemical_formula_structural   La6Nd10Cd4Ir3Pt
_chemical_formula_sum   'La6 Nd10 Cd4 Ir3 Pt1'
_cell_volume   717.32394180
_cell_formula_units_Z   1
loop_
 _symmetry_equiv_pos_site_id
 _symmetry_equiv_pos_as_xyz
  1  'x, y, z'
loop_
 _atom_site_type_symbol
 _atom_site_label
 _atom_site_symmetry_multiplicity
 _atom_site_fract_x
 _atom_site_fract_y
 _atom_site_fract_z
 _atom_site_occupancy
  La  La0  1  0.345474  0.347708  0.347708  1
  La  La1  1  0.352102  0.350117  0.952391  1
  La  La2  1  0.352102  0.952391  0.350117  1
  La  La3  1  0.953060  0.351539  0.351539  1
  La  La4  1  0.806360  0.188991  0.188991  1
  La  La5  1  0.186932  0.811571  0.811571  1
  Nd  Nd6  1  0.190826  0.805782  0.191020  1
  Nd  Nd7  1  0.809067  0.189471  0.809104  1
  Nd  Nd8  1  0.190826  0.191020  0.805782  1
  Nd  Nd9  1  0.809067  0.809104  0.189471  1
  Nd  Nd10  1  0.938147  0.563769  0.563769  1
  Nd  Nd11  1  0.563754  0.936862  0.936862  1
  Nd  Nd12  1  0.563110  0.938733  0.563361  1
  Nd  Nd13  1  0.937358  0.563593  0.937284  1
  Nd  Nd14  1  0.563110  0.563361  0.938733  1
  Nd  Nd15  1  0.937358  0.937284  0.563593  1
  Cd  Cd16  1  0.581511  0.579843  0.579843  1
  Cd  Cd17  1  0.579828  0.581309  0.258811  1
  Cd  Cd18  1  0.579828  0.258811  0.581309  1
  Cd  Cd19  1  0.258764  0.579806  0.579806  1
  Ir  Ir20  1  0.142812  0.139031  0.574445  1
  Ir  Ir21  1  0.142812  0.574445  0.139031  1
  Ir  Ir22  1  0.574770  0.142800  0.142800  1
  Pt  Pt23  1  0.141019  0.142655  0.142655  1
