# generated using pymatgen
data_PaSi3Ir
_symmetry_space_group_name_H-M   'P 1'
_cell_length_a   5.66328062
_cell_length_b   5.66327969
_cell_length_c   5.66328126
_cell_angle_alpha   136.32013298
_cell_angle_beta   136.32012835
_cell_angle_gamma   63.48579824
_symmetry_Int_Tables_number   1
_chemical_formula_structural   PaSi3Ir
_chemical_formula_sum   'Pa1 Si3 Ir1'
_cell_volume   85.51002231
_cell_formula_units_Z   1
loop_
 _symmetry_equiv_pos_site_id
 _symmetry_equiv_pos_as_xyz
  1  'x, y, z'
loop_
 _atom_site_type_symbol
 _atom_site_label
 _atom_site_symmetry_multiplicity
 _atom_site_fract_x
 _atom_site_fract_y
 _atom_site_fract_z
 _atom_site_occupancy
  Pa  Pa0  1  0.001549  0.001549  0.000000  1
  Si  Si1  1  0.412710  0.412710  0.000000  1
  Si  Si2  1  0.268734  0.768734  0.500000  1
  Si  Si3  1  0.768734  0.268734  0.500000  1
  Ir  Ir4  1  0.657272  0.657272  0.000000  1
