# generated using pymatgen
data_Er16CdHg3(IrRh)2
_symmetry_space_group_name_H-M   'P 1'
_cell_length_a   9.55501752
_cell_length_b   9.54856404
_cell_length_c   9.51144527
_cell_angle_alpha   59.81554057
_cell_angle_beta   59.81780139
_cell_angle_gamma   60.00106027
_symmetry_Int_Tables_number   1
_chemical_formula_structural   Er16CdHg3(IrRh)2
_chemical_formula_sum   'Er16 Cd1 Hg3 Ir2 Rh2'
_cell_volume   611.92122367
_cell_formula_units_Z   1
loop_
 _symmetry_equiv_pos_site_id
 _symmetry_equiv_pos_as_xyz
  1  'x, y, z'
loop_
 _atom_site_type_symbol
 _atom_site_label
 _atom_site_symmetry_multiplicity
 _atom_site_fract_x
 _atom_site_fract_y
 _atom_site_fract_z
 _atom_site_occupancy
  Er  Er0  1  0.600083  0.599654  0.600183  1
  Er  Er1  1  0.601927  0.601263  0.199598  1
  Er  Er2  1  0.602414  0.198373  0.600927  1
  Er  Er3  1  0.194686  0.603301  0.602373  1
  Er  Er4  1  0.058946  0.440441  0.439665  1
  Er  Er5  1  0.437028  0.059891  0.060808  1
  Er  Er6  1  0.439150  0.060032  0.439303  1
  Er  Er7  1  0.058703  0.438765  0.059840  1
  Er  Er8  1  0.439174  0.439889  0.059412  1
  Er  Er9  1  0.058765  0.059212  0.438457  1
  Er  Er10  1  0.188229  0.814080  0.811123  1
  Er  Er11  1  0.811852  0.187025  0.187205  1
  Er  Er12  1  0.813236  0.188715  0.811386  1
  Er  Er13  1  0.186611  0.811940  0.187998  1
  Er  Er14  1  0.810947  0.811682  0.189846  1
  Er  Er15  1  0.186184  0.187626  0.812489  1
  Cd  Cd16  1  0.508787  0.830333  0.830644  1
  Hg  Hg17  1  0.833634  0.834783  0.834194  1
  Hg  Hg18  1  0.834608  0.836008  0.493434  1
  Hg  Hg19  1  0.834588  0.493124  0.835910  1
  Ir  Ir20  1  0.392212  0.823875  0.394673  1
  Ir  Ir21  1  0.823993  0.392965  0.393990  1
  Rh  Rh22  1  0.391874  0.393465  0.392844  1
  Rh  Rh23  1  0.392368  0.393554  0.823696  1
