# generated using pymatgen
data_Zr12AsP7
_symmetry_space_group_name_H-M   'P 1'
_cell_length_a   10.31972503
_cell_length_b   3.70647100
_cell_length_c   9.96661486
_cell_angle_alpha   90.00000000
_cell_angle_beta   90.11312144
_cell_angle_gamma   90.00000000
_symmetry_Int_Tables_number   1
_chemical_formula_structural   Zr12AsP7
_chemical_formula_sum   'Zr12 As1 P7'
_cell_volume   381.21989866
_cell_formula_units_Z   1
loop_
 _symmetry_equiv_pos_site_id
 _symmetry_equiv_pos_as_xyz
  1  'x, y, z'
loop_
 _atom_site_type_symbol
 _atom_site_label
 _atom_site_symmetry_multiplicity
 _atom_site_fract_x
 _atom_site_fract_y
 _atom_site_fract_z
 _atom_site_occupancy
  Zr  Zr0  1  0.621037  0.250001  0.065343  1
  Zr  Zr1  1  0.950740  0.250001  0.127983  1
  Zr  Zr2  1  0.219172  0.750001  0.208234  1
  Zr  Zr3  1  0.717367  0.750001  0.298121  1
  Zr  Zr4  1  0.454027  0.250001  0.373711  1
  Zr  Zr5  1  0.120845  0.250001  0.435596  1
  Zr  Zr6  1  0.878102  0.750001  0.564711  1
  Zr  Zr7  1  0.546358  0.750001  0.626046  1
  Zr  Zr8  1  0.283479  0.250001  0.701140  1
  Zr  Zr9  1  0.782026  0.250001  0.797367  1
  Zr  Zr10  1  0.040417  0.750001  0.869982  1
  Zr  Zr11  1  0.385024  0.750001  0.933584  1
  As  As12  1  0.194520  0.250001  0.000022  1
  P  P13  1  0.805730  0.750001  0.000076  1
  P  P14  1  0.476259  0.750001  0.181668  1
  P  P15  1  0.975492  0.750001  0.319324  1
  P  P16  1  0.693051  0.250001  0.500207  1
  P  P17  1  0.307123  0.750001  0.499663  1
  P  P18  1  0.023751  0.250001  0.680088  1
  P  P19  1  0.525481  0.250001  0.817134  1
