# generated using pymatgen
data_Ho16MgIn3RuPt3
_symmetry_space_group_name_H-M   'P 1'
_cell_length_a   9.71516275
_cell_length_b   9.63064967
_cell_length_c   9.63064900
_cell_angle_alpha   59.99999200
_cell_angle_beta   60.28734087
_cell_angle_gamma   60.28734958
_symmetry_Int_Tables_number   1
_chemical_formula_structural   Ho16MgIn3RuPt3
_chemical_formula_sum   'Ho16 Mg1 In3 Ru1 Pt3'
_cell_volume   639.90991870
_cell_formula_units_Z   1
loop_
 _symmetry_equiv_pos_site_id
 _symmetry_equiv_pos_as_xyz
  1  'x, y, z'
loop_
 _atom_site_type_symbol
 _atom_site_label
 _atom_site_symmetry_multiplicity
 _atom_site_fract_x
 _atom_site_fract_y
 _atom_site_fract_z
 _atom_site_occupancy
  Ho  Ho0  1  0.353547  0.346512  0.346512  1
  Ho  Ho1  1  0.353547  0.346512  0.953429  1
  Ho  Ho2  1  0.353547  0.953429  0.346512  1
  Ho  Ho3  1  0.943275  0.352242  0.352242  1
  Ho  Ho4  1  0.804833  0.190104  0.190104  1
  Ho  Ho5  1  0.188233  0.811378  0.811378  1
  Ho  Ho6  1  0.188233  0.811378  0.189010  1
  Ho  Ho7  1  0.804833  0.190104  0.814959  1
  Ho  Ho8  1  0.188233  0.189010  0.811378  1
  Ho  Ho9  1  0.804833  0.814959  0.190104  1
  Ho  Ho10  1  0.936650  0.564187  0.564187  1
  Ho  Ho11  1  0.567129  0.936768  0.936768  1
  Ho  Ho12  1  0.567129  0.936768  0.559335  1
  Ho  Ho13  1  0.936650  0.564187  0.934976  1
  Ho  Ho14  1  0.567129  0.559335  0.936768  1
  Ho  Ho15  1  0.936650  0.934976  0.564187  1
  Mg  Mg16  1  0.265947  0.578018  0.578018  1
  In  In17  1  0.583092  0.583245  0.583245  1
  In  In18  1  0.583092  0.583245  0.250420  1
  In  In19  1  0.583092  0.250420  0.583245  1
  Ru  Ru20  1  0.574948  0.141684  0.141684  1
  Pt  Pt21  1  0.138459  0.144044  0.144044  1
  Pt  Pt22  1  0.138459  0.144044  0.573451  1
  Pt  Pt23  1  0.138459  0.573451  0.144044  1
