# generated using pymatgen
data_Li3Tb4ZrPt4
_symmetry_space_group_name_H-M   'P 1'
_cell_length_a   4.10171700
_cell_length_b   7.12543104
_cell_length_c   8.65244653
_cell_angle_alpha   87.66161403
_cell_angle_beta   90.00000000
_cell_angle_gamma   90.00000000
_symmetry_Int_Tables_number   1
_chemical_formula_structural   Li3Tb4ZrPt4
_chemical_formula_sum   'Li3 Tb4 Zr1 Pt4'
_cell_volume   252.67016468
_cell_formula_units_Z   1
loop_
 _symmetry_equiv_pos_site_id
 _symmetry_equiv_pos_as_xyz
  1  'x, y, z'
loop_
 _atom_site_type_symbol
 _atom_site_label
 _atom_site_symmetry_multiplicity
 _atom_site_fract_x
 _atom_site_fract_y
 _atom_site_fract_z
 _atom_site_occupancy
  Li  Li0  1  0.750000  0.629133  0.439456  1
  Li  Li1  1  0.250000  0.374515  0.554725  1
  Li  Li2  1  0.750000  0.141702  0.069867  1
  Tb  Tb3  1  0.750000  0.525598  0.808675  1
  Tb  Tb4  1  0.250000  0.962169  0.327058  1
  Tb  Tb5  1  0.250000  0.451914  0.181981  1
  Tb  Tb6  1  0.750000  0.050265  0.668065  1
  Zr  Zr7  1  0.250000  0.872458  0.945369  1
  Pt  Pt8  1  0.250000  0.756753  0.636396  1
  Pt  Pt9  1  0.250000  0.243746  0.878198  1
  Pt  Pt10  1  0.750000  0.740736  0.114754  1
  Pt  Pt11  1  0.750000  0.251010  0.375455  1
