# generated using pymatgen
data_Ho16Cd4Ru3Pt
_symmetry_space_group_name_H-M   'P 1'
_cell_length_a   9.61505019
_cell_length_b   9.61505029
_cell_length_c   9.61505062
_cell_angle_alpha   59.65462791
_cell_angle_beta   59.65462581
_cell_angle_gamma   59.65463266
_symmetry_Int_Tables_number   1
_chemical_formula_structural   Ho16Cd4Ru3Pt
_chemical_formula_sum   'Ho16 Cd4 Ru3 Pt1'
_cell_volume   623.61740715
_cell_formula_units_Z   1
loop_
 _symmetry_equiv_pos_site_id
 _symmetry_equiv_pos_as_xyz
  1  'x, y, z'
loop_
 _atom_site_type_symbol
 _atom_site_label
 _atom_site_symmetry_multiplicity
 _atom_site_fract_x
 _atom_site_fract_y
 _atom_site_fract_z
 _atom_site_occupancy
  Ho  Ho0  1  0.597608  0.597608  0.597608  1
  Ho  Ho1  1  0.601824  0.601824  0.202853  1
  Ho  Ho2  1  0.601824  0.202853  0.601824  1
  Ho  Ho3  1  0.202853  0.601824  0.601824  1
  Ho  Ho4  1  0.055238  0.439720  0.439720  1
  Ho  Ho5  1  0.437121  0.060637  0.060637  1
  Ho  Ho6  1  0.439720  0.055238  0.439720  1
  Ho  Ho7  1  0.060637  0.437121  0.060637  1
  Ho  Ho8  1  0.439720  0.439720  0.055238  1
  Ho  Ho9  1  0.060637  0.060637  0.437121  1
  Ho  Ho10  1  0.188507  0.811695  0.811695  1
  Ho  Ho11  1  0.814802  0.187490  0.187490  1
  Ho  Ho12  1  0.811695  0.188507  0.811695  1
  Ho  Ho13  1  0.187490  0.814802  0.187490  1
  Ho  Ho14  1  0.811695  0.811695  0.188507  1
  Ho  Ho15  1  0.187490  0.187490  0.814802  1
  Cd  Cd16  1  0.830727  0.830727  0.830727  1
  Cd  Cd17  1  0.830309  0.830309  0.507435  1
  Cd  Cd18  1  0.830309  0.507435  0.830309  1
  Cd  Cd19  1  0.507435  0.830309  0.830309  1
  Ru  Ru20  1  0.391105  0.391105  0.828155  1
  Ru  Ru21  1  0.391105  0.828155  0.391105  1
  Ru  Ru22  1  0.828155  0.391105  0.391105  1
  Pt  Pt23  1  0.391994  0.391994  0.391994  1
