# generated using pymatgen
data_TbScWO6
_symmetry_space_group_name_H-M   'P 1'
_cell_length_a   5.33121500
_cell_length_b   7.56246010
_cell_length_c   11.20421444
_cell_angle_alpha   77.63646071
_cell_angle_beta   90.00000000
_cell_angle_gamma   90.00000000
_symmetry_Int_Tables_number   1
_chemical_formula_structural   TbScWO6
_chemical_formula_sum   'Tb4 Sc4 W4 O24'
_cell_volume   441.24544793
_cell_formula_units_Z   4
loop_
 _symmetry_equiv_pos_site_id
 _symmetry_equiv_pos_as_xyz
  1  'x, y, z'
loop_
 _atom_site_type_symbol
 _atom_site_label
 _atom_site_symmetry_multiplicity
 _atom_site_fract_x
 _atom_site_fract_y
 _atom_site_fract_z
 _atom_site_occupancy
  Tb  Tb0  1  0.762883  0.000000  0.750000  1
  Tb  Tb1  1  0.237117  0.000000  0.250000  1
  Tb  Tb2  1  0.689146  0.500000  0.750000  1
  Tb  Tb3  1  0.310854  0.500000  0.250000  1
  Sc  Sc4  1  0.194880  0.780453  0.590134  1
  Sc  Sc5  1  0.805120  0.780453  0.090134  1
  Sc  Sc6  1  0.194880  0.219547  0.909866  1
  Sc  Sc7  1  0.805120  0.219547  0.409866  1
  W  W8  1  0.265591  0.731173  0.889525  1
  W  W9  1  0.734409  0.731173  0.389525  1
  W  W10  1  0.265591  0.268827  0.610475  1
  W  W11  1  0.734409  0.268827  0.110475  1
  O  O12  1  0.084093  0.959554  0.891952  1
  O  O13  1  0.569585  0.832567  0.938075  1
  O  O14  1  0.915907  0.959554  0.391952  1
  O  O15  1  0.460597  0.792192  0.725199  1
  O  O16  1  0.430415  0.832567  0.438075  1
  O  O17  1  0.988563  0.712533  0.773304  1
  O  O18  1  0.539403  0.792192  0.225199  1
  O  O19  1  0.862881  0.649139  0.550409  1
  O  O20  1  0.358435  0.489966  0.886600  1
  O  O21  1  0.011437  0.712533  0.273304  1
  O  O22  1  0.358435  0.510034  0.613400  1
  O  O23  1  0.862881  0.350861  0.949591  1
  O  O24  1  0.137119  0.649139  0.050409  1
  O  O25  1  0.641565  0.489966  0.386600  1
  O  O26  1  0.988563  0.287467  0.726696  1
  O  O27  1  0.641565  0.510034  0.113400  1
  O  O28  1  0.137119  0.350861  0.449591  1
  O  O29  1  0.460597  0.207808  0.774801  1
  O  O30  1  0.011437  0.287467  0.226696  1
  O  O31  1  0.569585  0.167433  0.561925  1
  O  O32  1  0.539403  0.207808  0.274801  1
  O  O33  1  0.084093  0.040446  0.608048  1
  O  O34  1  0.430415  0.167433  0.061925  1
  O  O35  1  0.915907  0.040446  0.108048  1
