# generated using pymatgen
data_Er6TcB14Ru
_symmetry_space_group_name_H-M   'P 1'
_cell_length_a   7.99235807
_cell_length_b   7.99235809
_cell_length_c   9.27585800
_cell_angle_alpha   90.00000000
_cell_angle_beta   90.00000000
_cell_angle_gamma   154.66187624
_symmetry_Int_Tables_number   1
_chemical_formula_structural   Er6TcB14Ru
_chemical_formula_sum   'Er6 Tc1 B14 Ru1'
_cell_volume   253.57501461
_cell_formula_units_Z   1
loop_
 _symmetry_equiv_pos_site_id
 _symmetry_equiv_pos_as_xyz
  1  'x, y, z'
loop_
 _atom_site_type_symbol
 _atom_site_label
 _atom_site_symmetry_multiplicity
 _atom_site_fract_x
 _atom_site_fract_y
 _atom_site_fract_z
 _atom_site_occupancy
  Er  Er0  1  0.756544  0.243456  0.250000  1
  Er  Er1  1  0.243127  0.756873  0.750000  1
  Er  Er2  1  0.894538  0.105462  0.561001  1
  Er  Er3  1  0.105509  0.894491  0.440581  1
  Er  Er4  1  0.105509  0.894491  0.059419  1
  Er  Er5  1  0.894538  0.105462  0.938999  1
  Tc  Tc6  1  0.052729  0.947271  0.750000  1
  B  B7  1  0.544132  0.455868  0.250000  1
  B  B8  1  0.455140  0.544860  0.750000  1
  B  B9  1  0.520089  0.479911  0.904767  1
  B  B10  1  0.479787  0.520213  0.095839  1
  B  B11  1  0.479787  0.520213  0.404161  1
  B  B12  1  0.520089  0.479911  0.595233  1
  B  B13  1  0.632252  0.367748  0.849180  1
  B  B14  1  0.368251  0.631749  0.151107  1
  B  B15  1  0.727682  0.272318  0.966473  1
  B  B16  1  0.272941  0.727059  0.034853  1
  B  B17  1  0.272941  0.727059  0.465147  1
  B  B18  1  0.727682  0.272318  0.533527  1
  B  B19  1  0.632252  0.367748  0.650820  1
  B  B20  1  0.368251  0.631749  0.348893  1
  Ru  Ru21  1  0.946230  0.053770  0.250000  1
