# generated using pymatgen
data_LiNdNi4P3
_symmetry_space_group_name_H-M   'P 1'
_cell_length_a   3.81094000
_cell_length_b   10.52035000
_cell_length_c   12.09456800
_cell_angle_alpha   90.00000000
_cell_angle_beta   90.00000000
_cell_angle_gamma   90.00000000
_symmetry_Int_Tables_number   1
_chemical_formula_structural   LiNdNi4P3
_chemical_formula_sum   'Li4 Nd4 Ni16 P12'
_cell_volume   484.90053177
_cell_formula_units_Z   4
loop_
 _symmetry_equiv_pos_site_id
 _symmetry_equiv_pos_as_xyz
  1  'x, y, z'
loop_
 _atom_site_type_symbol
 _atom_site_label
 _atom_site_symmetry_multiplicity
 _atom_site_fract_x
 _atom_site_fract_y
 _atom_site_fract_z
 _atom_site_occupancy
  Li  Li0  1  0.250000  0.697637  0.994027  1
  Li  Li1  1  0.250000  0.802363  0.494027  1
  Li  Li2  1  0.750000  0.302363  0.005973  1
  Li  Li3  1  0.750000  0.197637  0.505973  1
  Nd  Nd4  1  0.250000  0.582898  0.703251  1
  Nd  Nd5  1  0.250000  0.917102  0.203251  1
  Nd  Nd6  1  0.750000  0.417102  0.296749  1
  Nd  Nd7  1  0.750000  0.082898  0.796749  1
  Ni  Ni8  1  0.250000  0.404897  0.489973  1
  Ni  Ni9  1  0.250000  0.095103  0.989973  1
  Ni  Ni10  1  0.750000  0.595103  0.510027  1
  Ni  Ni11  1  0.750000  0.904897  0.010027  1
  Ni  Ni12  1  0.250000  0.221121  0.170875  1
  Ni  Ni13  1  0.250000  0.278879  0.670875  1
  Ni  Ni14  1  0.750000  0.778879  0.829125  1
  Ni  Ni15  1  0.750000  0.721121  0.329125  1
  Ni  Ni16  1  0.250000  0.879846  0.704055  1
  Ni  Ni17  1  0.250000  0.620154  0.204055  1
  Ni  Ni18  1  0.750000  0.120154  0.295945  1
  Ni  Ni19  1  0.750000  0.379846  0.795945  1
  Ni  Ni20  1  0.250000  0.467432  0.931082  1
  Ni  Ni21  1  0.250000  0.032568  0.431082  1
  Ni  Ni22  1  0.750000  0.532568  0.068918  1
  Ni  Ni23  1  0.750000  0.967432  0.568918  1
  P  P24  1  0.250000  0.424584  0.112518  1
  P  P25  1  0.250000  0.075416  0.612518  1
  P  P26  1  0.750000  0.575416  0.887482  1
  P  P27  1  0.750000  0.924584  0.387482  1
  P  P28  1  0.250000  0.277007  0.858378  1
  P  P29  1  0.250000  0.222993  0.358378  1
  P  P30  1  0.750000  0.722993  0.141622  1
  P  P31  1  0.750000  0.777007  0.641622  1
  P  P32  1  0.250000  0.601531  0.396392  1
  P  P33  1  0.250000  0.898469  0.896392  1
  P  P34  1  0.750000  0.398469  0.603608  1
  P  P35  1  0.750000  0.101531  0.103608  1
