# generated using pymatgen
data_YEr2(GaIr2)3
_symmetry_space_group_name_H-M   'P 1'
_cell_length_a   5.56275000
_cell_length_b   5.56264988
_cell_length_c   15.78752100
_cell_angle_alpha   90.00000000
_cell_angle_beta   90.00000000
_cell_angle_gamma   119.99911641
_symmetry_Int_Tables_number   1
_chemical_formula_structural   YEr2(GaIr2)3
_chemical_formula_sum   'Y2 Er4 Ga6 Ir12'
_cell_volume   423.07728408
_cell_formula_units_Z   2
loop_
 _symmetry_equiv_pos_site_id
 _symmetry_equiv_pos_as_xyz
  1  'x, y, z'
loop_
 _atom_site_type_symbol
 _atom_site_label
 _atom_site_symmetry_multiplicity
 _atom_site_fract_x
 _atom_site_fract_y
 _atom_site_fract_z
 _atom_site_occupancy
  Y  Y0  1  0.333333  0.666668  0.750000  1
  Y  Y1  1  0.666667  0.333332  0.250000  1
  Er  Er2  1  0.333343  0.666669  0.539438  1
  Er  Er3  1  0.666657  0.333331  0.460562  1
  Er  Er4  1  0.666657  0.333331  0.039438  1
  Er  Er5  1  0.333343  0.666669  0.960562  1
  Ga  Ga6  1  0.000017  0.999998  0.250000  1
  Ga  Ga7  1  0.999983  0.000002  0.750000  1
  Ga  Ga8  1  0.333330  0.666667  0.250000  1
  Ga  Ga9  1  0.666670  0.333333  0.750000  1
  Ga  Ga10  1  0.000000  0.000000  0.000000  1
  Ga  Ga11  1  0.000000  0.000000  0.500000  1
  Ir  Ir12  1  0.169738  0.339478  0.124854  1
  Ir  Ir13  1  0.830262  0.660522  0.875146  1
  Ir  Ir14  1  0.660519  0.830259  0.124853  1
  Ir  Ir15  1  0.830262  0.660522  0.624854  1
  Ir  Ir16  1  0.339481  0.169741  0.875147  1
  Ir  Ir17  1  0.169738  0.339478  0.375146  1
  Ir  Ir18  1  0.169738  0.830262  0.124855  1
  Ir  Ir19  1  0.339481  0.169741  0.624853  1
  Ir  Ir20  1  0.830262  0.169738  0.875145  1
  Ir  Ir21  1  0.660519  0.830259  0.375147  1
  Ir  Ir22  1  0.830262  0.169738  0.624855  1
  Ir  Ir23  1  0.169738  0.830262  0.375145  1
