# generated using pymatgen
data_Ta3Be3Fe2Ru
_symmetry_space_group_name_H-M   'P 1'
_cell_length_a   6.34267800
_cell_length_b   6.31207655
_cell_length_c   3.11112300
_cell_angle_alpha   90.00000000
_cell_angle_beta   90.00000000
_cell_angle_gamma   120.16052421
_symmetry_Int_Tables_number   1
_chemical_formula_structural   Ta3Be3Fe2Ru
_chemical_formula_sum   'Ta3 Be3 Fe2 Ru1'
_cell_volume   107.69312186
_cell_formula_units_Z   1
loop_
 _symmetry_equiv_pos_site_id
 _symmetry_equiv_pos_as_xyz
  1  'x, y, z'
loop_
 _atom_site_type_symbol
 _atom_site_label
 _atom_site_symmetry_multiplicity
 _atom_site_fract_x
 _atom_site_fract_y
 _atom_site_fract_z
 _atom_site_occupancy
  Ta  Ta0  1  0.401151  0.000000  0.500000  1
  Ta  Ta1  1  0.001308  0.415057  0.500000  1
  Ta  Ta2  1  0.586251  0.584943  0.500000  1
  Be  Be3  1  0.331448  0.665259  0.000000  1
  Be  Be4  1  0.666192  0.334741  0.000000  1
  Be  Be5  1  0.007524  0.000000  0.500000  1
  Fe  Fe6  1  0.000769  0.747178  0.000000  1
  Fe  Fe7  1  0.253591  0.252822  0.000000  1
  Ru  Ru8  1  0.751767  0.000000  0.000000  1
