# generated using pymatgen
data_BaLa2(SiSe4)2
_symmetry_space_group_name_H-M   'P 1'
_cell_length_a   10.79513426
_cell_length_b   10.87042749
_cell_length_c   10.87042800
_cell_angle_alpha   51.64530888
_cell_angle_beta   51.58086303
_cell_angle_gamma   51.58086306
_symmetry_Int_Tables_number   1
_chemical_formula_structural   BaLa2(SiSe4)2
_chemical_formula_sum   'Ba2 La4 Si4 Se16'
_cell_volume   723.71512939
_cell_formula_units_Z   2
loop_
 _symmetry_equiv_pos_site_id
 _symmetry_equiv_pos_as_xyz
  1  'x, y, z'
loop_
 _atom_site_type_symbol
 _atom_site_label
 _atom_site_symmetry_multiplicity
 _atom_site_fract_x
 _atom_site_fract_y
 _atom_site_fract_z
 _atom_site_occupancy
  Ba  Ba0  1  0.597674  0.905434  0.250794  1
  Ba  Ba1  1  0.097674  0.750794  0.405434  1
  La  La2  1  0.246904  0.558540  0.939313  1
  La  La3  1  0.437450  0.060972  0.752025  1
  La  La4  1  0.746904  0.439313  0.058540  1
  La  La5  1  0.937450  0.252025  0.560972  1
  Si  Si6  1  0.846748  0.847167  0.827043  1
  Si  Si7  1  0.649539  0.651409  0.678699  1
  Si  Si8  1  0.346748  0.327043  0.347167  1
  Si  Si9  1  0.149539  0.178699  0.151409  1
  Se  Se10  1  0.207499  0.980306  0.389154  1
  Se  Se11  1  0.707499  0.889154  0.480306  1
  Se  Se12  1  0.447617  0.399004  0.420013  1
  Se  Se13  1  0.272279  0.102879  0.576442  1
  Se  Se14  1  0.947616  0.920014  0.899004  1
  Se  Se15  1  0.054335  0.602349  0.783739  1
  Se  Se16  1  0.572193  0.558300  0.603287  1
  Se  Se17  1  0.101756  0.531448  0.291268  1
  Se  Se18  1  0.424488  0.717698  0.912957  1
  Se  Se19  1  0.772279  0.076442  0.602879  1
  Se  Se20  1  0.601756  0.791268  0.031448  1
  Se  Se21  1  0.072193  0.103288  0.058300  1
  Se  Se22  1  0.891518  0.431708  0.728050  1
  Se  Se23  1  0.391518  0.228050  0.931708  1
  Se  Se24  1  0.554335  0.283739  0.102349  1
  Se  Se25  1  0.924488  0.412957  0.217698  1
