# generated using pymatgen
data_Hf3Sc9(TiCo2)4
_symmetry_space_group_name_H-M   'P 1'
_cell_length_a   8.37627955
_cell_length_b   8.35809576
_cell_length_c   8.37738100
_cell_angle_alpha   60.06741720
_cell_angle_beta   60.15917422
_cell_angle_gamma   60.08049975
_symmetry_Int_Tables_number   1
_chemical_formula_structural   Hf3Sc9(TiCo2)4
_chemical_formula_sum   'Hf3 Sc9 Ti4 Co8'
_cell_volume   415.67818671
_cell_formula_units_Z   1
loop_
 _symmetry_equiv_pos_site_id
 _symmetry_equiv_pos_as_xyz
  1  'x, y, z'
loop_
 _atom_site_type_symbol
 _atom_site_label
 _atom_site_symmetry_multiplicity
 _atom_site_fract_x
 _atom_site_fract_y
 _atom_site_fract_z
 _atom_site_occupancy
  Hf  Hf0  1  0.806866  0.808167  0.192541  1
  Hf  Hf1  1  0.192541  0.192425  0.806866  1
  Hf  Hf2  1  0.808871  0.191129  0.808871  1
  Sc  Sc3  1  0.189919  0.810081  0.189919  1
  Sc  Sc4  1  0.189511  0.810710  0.810194  1
  Sc  Sc5  1  0.810194  0.189586  0.189511  1
  Sc  Sc6  1  0.440063  0.440655  0.059694  1
  Sc  Sc7  1  0.059694  0.059587  0.440063  1
  Sc  Sc8  1  0.439996  0.060004  0.439996  1
  Sc  Sc9  1  0.059444  0.440556  0.059444  1
  Sc  Sc10  1  0.059689  0.440841  0.439704  1
  Sc  Sc11  1  0.439704  0.059767  0.059689  1
  Ti  Ti12  1  0.125610  0.626018  0.624122  1
  Ti  Ti13  1  0.626045  0.125155  0.623403  1
  Ti  Ti14  1  0.624122  0.624248  0.125610  1
  Ti  Ti15  1  0.623403  0.625397  0.626045  1
  Co  Co16  1  0.742367  0.421227  0.421485  1
  Co  Co17  1  0.424228  0.740761  0.417598  1
  Co  Co18  1  0.421485  0.414921  0.742367  1
  Co  Co19  1  0.417598  0.417413  0.424228  1
  Co  Co20  1  0.504773  0.836335  0.829349  1
  Co  Co21  1  0.835007  0.499974  0.829522  1
  Co  Co22  1  0.829349  0.829542  0.504773  1
  Co  Co23  1  0.829522  0.835497  0.835007  1
