# generated using pymatgen
data_AgRu(S8F3)2
_symmetry_space_group_name_H-M   'P 1'
_cell_length_a   9.85927154
_cell_length_b   9.85927189
_cell_length_c   15.96849400
_cell_angle_alpha   79.52892731
_cell_angle_beta   79.52892694
_cell_angle_gamma   48.17573759
_symmetry_Int_Tables_number   1
_chemical_formula_structural   AgRu(S8F3)2
_chemical_formula_sum   'Ag2 Ru2 S32 F12'
_cell_volume   1133.55331979
_cell_formula_units_Z   2
loop_
 _symmetry_equiv_pos_site_id
 _symmetry_equiv_pos_as_xyz
  1  'x, y, z'
loop_
 _atom_site_type_symbol
 _atom_site_label
 _atom_site_symmetry_multiplicity
 _atom_site_fract_x
 _atom_site_fract_y
 _atom_site_fract_z
 _atom_site_occupancy
  Ag  Ag0  1  0.167398  0.832602  0.750000  1
  Ag  Ag1  1  0.832602  0.167398  0.250000  1
  Ru  Ru2  1  0.500000  0.500000  0.000000  1
  Ru  Ru3  1  0.500000  0.500000  0.500000  1
  S  S4  1  0.085280  0.280369  0.580423  1
  S  S5  1  0.992326  0.713462  0.940103  1
  S  S6  1  0.303415  0.892918  0.170229  1
  S  S7  1  0.957258  0.363588  0.335544  1
  S  S8  1  0.107082  0.696585  0.329771  1
  S  S9  1  0.096208  0.065509  0.852777  1
  S  S10  1  0.517359  0.222211  0.257599  1
  S  S11  1  0.903792  0.934491  0.147223  1
  S  S12  1  0.222211  0.517359  0.757599  1
  S  S13  1  0.777789  0.482641  0.242401  1
  S  S14  1  0.892918  0.303415  0.670229  1
  S  S15  1  0.696585  0.107082  0.829771  1
  S  S16  1  0.065509  0.096208  0.352777  1
  S  S17  1  0.914720  0.719631  0.419577  1
  S  S18  1  0.007674  0.286538  0.059897  1
  S  S19  1  0.042742  0.636412  0.664456  1
  S  S20  1  0.713462  0.992326  0.440103  1
  S  S21  1  0.636412  0.042742  0.164456  1
  S  S22  1  0.676046  0.071225  0.711767  1
  S  S23  1  0.934491  0.903792  0.647223  1
  S  S24  1  0.071225  0.676046  0.211767  1
  S  S25  1  0.323954  0.928775  0.288233  1
  S  S26  1  0.286538  0.007674  0.559897  1
  S  S27  1  0.505542  0.895471  0.625698  1
  S  S28  1  0.895471  0.505542  0.125698  1
  S  S29  1  0.719631  0.914720  0.919577  1
  S  S30  1  0.482641  0.777789  0.742401  1
  S  S31  1  0.104529  0.494458  0.874302  1
  S  S32  1  0.494458  0.104529  0.374302  1
  S  S33  1  0.928775  0.323954  0.788233  1
  S  S34  1  0.363588  0.957258  0.835544  1
  S  S35  1  0.280369  0.085280  0.080423  1
  F  F36  1  0.254444  0.708847  0.478108  1
  F  F37  1  0.568856  0.642829  0.464502  1
  F  F38  1  0.745557  0.291153  0.521892  1
  F  F39  1  0.563898  0.449913  0.114358  1
  F  F40  1  0.357171  0.431144  0.035498  1
  F  F41  1  0.449913  0.563898  0.614358  1
  F  F42  1  0.436102  0.550087  0.885642  1
  F  F43  1  0.642829  0.568856  0.964502  1
  F  F44  1  0.708847  0.254443  0.978108  1
  F  F45  1  0.550087  0.436102  0.385642  1
  F  F46  1  0.291153  0.745556  0.021892  1
  F  F47  1  0.431144  0.357171  0.535498  1
