# generated using pymatgen
data_Y3Lu9Co5Sn
_symmetry_space_group_name_H-M   'P 1'
_cell_length_a   8.13354488
_cell_length_b   8.13068006
_cell_length_c   8.13067914
_cell_angle_alpha   106.66178493
_cell_angle_beta   111.03222705
_cell_angle_gamma   110.74038306
_symmetry_Int_Tables_number   1
_chemical_formula_structural   Y3Lu9Co5Sn
_chemical_formula_sum   'Y3 Lu9 Co5 Sn1'
_cell_volume   413.25157351
_cell_formula_units_Z   1
loop_
 _symmetry_equiv_pos_site_id
 _symmetry_equiv_pos_as_xyz
  1  'x, y, z'
loop_
 _atom_site_type_symbol
 _atom_site_label
 _atom_site_symmetry_multiplicity
 _atom_site_fract_x
 _atom_site_fract_y
 _atom_site_fract_z
 _atom_site_occupancy
  Y  Y0  1  0.476088  0.287521  0.188566  1
  Y  Y1  1  0.099881  0.287801  0.812080  1
  Y  Y2  1  0.900138  0.713496  0.186642  1
  Lu  Lu3  1  0.526696  0.713379  0.813319  1
  Lu  Lu4  1  0.307755  0.620991  0.315737  1
  Lu  Lu5  1  0.307755  0.992019  0.686765  1
  Lu  Lu6  1  0.692519  0.379915  0.686198  1
  Lu  Lu7  1  0.692519  0.006320  0.312603  1
  Lu  Lu8  1  0.194589  0.214472  0.407469  1
  Lu  Lu9  1  0.806062  0.787401  0.595856  1
  Lu  Lu10  1  0.194589  0.787120  0.980115  1
  Lu  Lu11  1  0.806062  0.210206  0.018663  1
  Co  Co12  1  0.499057  0.615547  0.111465  1
  Co  Co13  1  0.499057  0.387592  0.883510  1
  Co  Co14  1  0.374504  0.999635  0.374869  1
  Co  Co15  1  0.624654  0.998747  0.625907  1
  Co  Co16  1  0.998521  0.998022  0.000499  1
  Sn  Sn17  1  0.999552  0.499815  0.499737  1
