# generated using pymatgen
data_Dy9Y3Rh4
_symmetry_space_group_name_H-M   'P 1'
_cell_length_a   6.26894066
_cell_length_b   7.16985203
_cell_length_c   9.52715100
_cell_angle_alpha   90.00000000
_cell_angle_beta   90.00000000
_cell_angle_gamma   89.89450748
_symmetry_Int_Tables_number   1
_chemical_formula_structural   Dy9Y3Rh4
_chemical_formula_sum   'Dy9 Y3 Rh4'
_cell_volume   428.21972136
_cell_formula_units_Z   1
loop_
 _symmetry_equiv_pos_site_id
 _symmetry_equiv_pos_as_xyz
  1  'x, y, z'
loop_
 _atom_site_type_symbol
 _atom_site_label
 _atom_site_symmetry_multiplicity
 _atom_site_fract_x
 _atom_site_fract_y
 _atom_site_fract_z
 _atom_site_occupancy
  Dy  Dy0  1  0.330219  0.677469  0.062867  1
  Dy  Dy1  1  0.170082  0.177386  0.437139  1
  Dy  Dy2  1  0.669632  0.322393  0.563104  1
  Dy  Dy3  1  0.829938  0.822616  0.937035  1
  Dy  Dy4  1  0.669632  0.322393  0.936896  1
  Dy  Dy5  1  0.829938  0.822616  0.562965  1
  Dy  Dy6  1  0.330219  0.677469  0.437133  1
  Dy  Dy7  1  0.170082  0.177386  0.062861  1
  Dy  Dy8  1  0.366421  0.967708  0.750000  1
  Y  Y9  1  0.866785  0.531905  0.250000  1
  Y  Y10  1  0.633256  0.031844  0.250000  1
  Y  Y11  1  0.133338  0.468309  0.750000  1
  Rh  Rh12  1  0.062482  0.882739  0.250000  1
  Rh  Rh13  1  0.437362  0.382625  0.250000  1
  Rh  Rh14  1  0.938603  0.116832  0.750000  1
  Rh  Rh15  1  0.562010  0.618309  0.750000  1
