# generated using pymatgen
data_AcCu13
_symmetry_space_group_name_H-M   'P 1'
_cell_length_a   8.29267456
_cell_length_b   8.29267491
_cell_length_c   8.29267500
_cell_angle_alpha   119.99999639
_cell_angle_beta   119.99999775
_cell_angle_gamma   90.00000260
_symmetry_Int_Tables_number   1
_chemical_formula_structural   AcCu13
_chemical_formula_sum   'Ac2 Cu26'
_cell_volume   403.24495121
_cell_formula_units_Z   2
loop_
 _symmetry_equiv_pos_site_id
 _symmetry_equiv_pos_as_xyz
  1  'x, y, z'
loop_
 _atom_site_type_symbol
 _atom_site_label
 _atom_site_symmetry_multiplicity
 _atom_site_fract_x
 _atom_site_fract_y
 _atom_site_fract_z
 _atom_site_occupancy
  Ac  Ac0  1  0.749999  0.250002  0.500003  1
  Ac  Ac1  1  0.249999  0.749998  0.499996  1
  Cu  Cu2  1  0.000009  0.000001  0.000003  1
  Cu  Cu3  1  0.295431  0.063873  0.000004  1
  Cu  Cu4  1  0.563864  0.204550  0.000000  1
  Cu  Cu5  1  0.063860  0.295450  0.000001  1
  Cu  Cu6  1  0.795441  0.436131  0.999993  1
  Cu  Cu7  1  0.499995  0.499997  0.999997  1
  Cu  Cu8  1  0.204552  0.563861  0.000002  1
  Cu  Cu9  1  0.936139  0.704556  0.999996  1
  Cu  Cu10  1  0.436123  0.795451  0.999996  1
  Cu  Cu11  1  0.704566  0.936127  0.999993  1
  Cu  Cu12  1  0.936136  0.295431  0.231559  1
  Cu  Cu13  1  0.436126  0.436134  0.231576  1
  Cu  Cu14  1  0.795448  0.795442  0.231578  1
  Cu  Cu15  1  0.295444  0.936139  0.231587  1
  Cu  Cu16  1  0.063877  0.063870  0.359304  1
  Cu  Cu17  1  0.295442  0.295442  0.359302  1
  Cu  Cu18  1  0.795431  0.563869  0.359306  1
  Cu  Cu19  1  0.563863  0.795431  0.359308  1
  Cu  Cu20  1  0.436132  0.204567  0.640694  1
  Cu  Cu21  1  0.204566  0.436124  0.640692  1
  Cu  Cu22  1  0.704563  0.704560  0.640690  1
  Cu  Cu23  1  0.936132  0.936135  0.640706  1
  Cu  Cu24  1  0.704568  0.063869  0.768430  1
  Cu  Cu25  1  0.204563  0.204568  0.768440  1
  Cu  Cu26  1  0.563867  0.563857  0.768414  1
  Cu  Cu27  1  0.063864  0.704565  0.768435  1
