# generated using pymatgen
data_Tm9Lu(Al2Ru3)2
_symmetry_space_group_name_H-M   'P 1'
_cell_length_a   8.24534904
_cell_length_b   8.24534844
_cell_length_c   8.24534900
_cell_angle_alpha   109.46940948
_cell_angle_beta   109.46941302
_cell_angle_gamma   109.46940770
_symmetry_Int_Tables_number   1
_chemical_formula_structural   Tm9Lu(Al2Ru3)2
_chemical_formula_sum   'Tm9 Lu1 Al4 Ru6'
_cell_volume   431.55317876
_cell_formula_units_Z   1
loop_
 _symmetry_equiv_pos_site_id
 _symmetry_equiv_pos_as_xyz
  1  'x, y, z'
loop_
 _atom_site_type_symbol
 _atom_site_label
 _atom_site_symmetry_multiplicity
 _atom_site_fract_x
 _atom_site_fract_y
 _atom_site_fract_z
 _atom_site_occupancy
  Tm  Tm0  1  0.320186  0.570134  0.750007  1
  Tm  Tm1  1  0.750007  0.320186  0.570134  1
  Tm  Tm2  1  0.570134  0.750007  0.320186  1
  Tm  Tm3  1  0.713126  0.500066  0.999965  1
  Tm  Tm4  1  0.999965  0.713126  0.500066  1
  Tm  Tm5  1  0.500066  0.999965  0.713126  1
  Tm  Tm6  1  0.249916  0.179832  0.929866  1
  Tm  Tm7  1  0.929866  0.249916  0.179832  1
  Tm  Tm8  1  0.179832  0.929866  0.249916  1
  Lu  Lu9  1  0.787097  0.787097  0.787097  1
  Al  Al10  1  0.410046  0.410046  0.410046  1
  Al  Al11  1  0.090047  0.500002  0.999990  1
  Al  Al12  1  0.999990  0.090047  0.500002  1
  Al  Al13  1  0.500002  0.999990  0.090047  1
  Ru  Ru14  1  0.875387  0.125224  0.750026  1
  Ru  Ru15  1  0.750026  0.875387  0.125224  1
  Ru  Ru16  1  0.125224  0.750026  0.875387  1
  Ru  Ru17  1  0.249989  0.624567  0.374528  1
  Ru  Ru18  1  0.374528  0.249989  0.624567  1
  Ru  Ru19  1  0.624567  0.374528  0.249989  1
