# generated using pymatgen
data_Y3Al12CoIr3
_symmetry_space_group_name_H-M   'P 1'
_cell_length_a   8.77877600
_cell_length_b   8.77877597
_cell_length_c   9.44903100
_cell_angle_alpha   90.00000000
_cell_angle_beta   90.00000000
_cell_angle_gamma   120.00000010
_symmetry_Int_Tables_number   1
_chemical_formula_structural   Y3Al12CoIr3
_chemical_formula_sum   'Y6 Al24 Co2 Ir6'
_cell_volume   630.64628120
_cell_formula_units_Z   2
loop_
 _symmetry_equiv_pos_site_id
 _symmetry_equiv_pos_as_xyz
  1  'x, y, z'
loop_
 _atom_site_type_symbol
 _atom_site_label
 _atom_site_symmetry_multiplicity
 _atom_site_fract_x
 _atom_site_fract_y
 _atom_site_fract_z
 _atom_site_occupancy
  Y  Y0  1  0.193399  0.386798  0.250000  1
  Y  Y1  1  0.806601  0.613202  0.750000  1
  Y  Y2  1  0.613202  0.806601  0.250000  1
  Y  Y3  1  0.386798  0.193399  0.750000  1
  Y  Y4  1  0.193399  0.806601  0.250000  1
  Y  Y5  1  0.806601  0.193399  0.750000  1
  Al  Al6  1  0.333333  0.666667  0.025771  1
  Al  Al7  1  0.666667  0.333333  0.974229  1
  Al  Al8  1  0.666667  0.333333  0.525771  1
  Al  Al9  1  0.333333  0.666667  0.474229  1
  Al  Al10  1  0.160719  0.321438  0.575563  1
  Al  Al11  1  0.839281  0.678562  0.424437  1
  Al  Al12  1  0.678562  0.839281  0.575563  1
  Al  Al13  1  0.839281  0.678562  0.075563  1
  Al  Al14  1  0.321438  0.160719  0.424437  1
  Al  Al15  1  0.160719  0.321438  0.924437  1
  Al  Al16  1  0.160719  0.839281  0.575563  1
  Al  Al17  1  0.321438  0.160719  0.075563  1
  Al  Al18  1  0.839281  0.160719  0.424437  1
  Al  Al19  1  0.678562  0.839281  0.924437  1
  Al  Al20  1  0.839281  0.160719  0.075563  1
  Al  Al21  1  0.160719  0.839281  0.924437  1
  Al  Al22  1  0.562533  0.125067  0.250000  1
  Al  Al23  1  0.437467  0.874933  0.750000  1
  Al  Al24  1  0.874933  0.437467  0.250000  1
  Al  Al25  1  0.125067  0.562533  0.750000  1
  Al  Al26  1  0.562533  0.437467  0.250000  1
  Al  Al27  1  0.437467  0.562533  0.750000  1
  Al  Al28  1  0.000000  0.000000  0.250000  1
  Al  Al29  1  0.000000  0.000000  0.750000  1
  Co  Co30  1  0.000000  0.000000  0.000000  1
  Co  Co31  1  0.000000  0.000000  0.500000  1
  Ir  Ir32  1  0.500000  0.000000  0.000000  1
  Ir  Ir33  1  0.000000  0.500000  0.000000  1
  Ir  Ir34  1  0.500000  0.000000  0.500000  1
  Ir  Ir35  1  0.500000  0.500000  0.000000  1
  Ir  Ir36  1  0.000000  0.500000  0.500000  1
  Ir  Ir37  1  0.500000  0.500000  0.500000  1
