# generated using pymatgen
data_BaCd3Sn
_symmetry_space_group_name_H-M   'P 1'
_cell_length_a   7.04549002
_cell_length_b   7.04549031
_cell_length_c   7.04549020
_cell_angle_alpha   138.95923605
_cell_angle_beta   138.95924488
_cell_angle_gamma   59.43700847
_symmetry_Int_Tables_number   1
_chemical_formula_structural   BaCd3Sn
_chemical_formula_sum   'Ba1 Cd3 Sn1'
_cell_volume   149.28825921
_cell_formula_units_Z   1
loop_
 _symmetry_equiv_pos_site_id
 _symmetry_equiv_pos_as_xyz
  1  'x, y, z'
loop_
 _atom_site_type_symbol
 _atom_site_label
 _atom_site_symmetry_multiplicity
 _atom_site_fract_x
 _atom_site_fract_y
 _atom_site_fract_z
 _atom_site_occupancy
  Ba  Ba0  1  0.003641  0.003641  0.000000  1
  Cd  Cd1  1  0.380540  0.380540  0.000000  1
  Cd  Cd2  1  0.751235  0.251235  0.500000  1
  Cd  Cd3  1  0.251235  0.751235  0.500000  1
  Sn  Sn4  1  0.613349  0.613349  0.000000  1
