# generated using pymatgen
data_Er10HgSb5
_symmetry_space_group_name_H-M   'P 1'
_cell_length_a   8.88651500
_cell_length_b   8.86208437
_cell_length_c   6.35346300
_cell_angle_alpha   90.00000000
_cell_angle_beta   90.00000000
_cell_angle_gamma   120.09123108
_symmetry_Int_Tables_number   1
_chemical_formula_structural   Er10HgSb5
_chemical_formula_sum   'Er10 Hg1 Sb5'
_cell_volume   432.92085958
_cell_formula_units_Z   1
loop_
 _symmetry_equiv_pos_site_id
 _symmetry_equiv_pos_as_xyz
  1  'x, y, z'
loop_
 _atom_site_type_symbol
 _atom_site_label
 _atom_site_symmetry_multiplicity
 _atom_site_fract_x
 _atom_site_fract_y
 _atom_site_fract_z
 _atom_site_occupancy
  Er  Er0  1  0.007302  0.761925  0.750000  1
  Er  Er1  1  0.998624  0.242736  0.250000  1
  Er  Er2  1  0.755888  0.757264  0.250000  1
  Er  Er3  1  0.754696  0.000000  0.750000  1
  Er  Er4  1  0.245378  0.238075  0.750000  1
  Er  Er5  1  0.244718  0.000000  0.250000  1
  Er  Er6  1  0.334364  0.672393  0.498602  1
  Er  Er7  1  0.661972  0.327607  0.001398  1
  Er  Er8  1  0.661972  0.327607  0.498602  1
  Er  Er9  1  0.334364  0.672393  0.001398  1
  Hg  Hg10  1  0.392115  0.000000  0.750000  1
  Sb  Sb11  1  0.389347  0.391838  0.250000  1
  Sb  Sb12  1  0.997509  0.608162  0.250000  1
  Sb  Sb13  1  0.001166  0.390560  0.750000  1
  Sb  Sb14  1  0.610606  0.609440  0.750000  1
  Sb  Sb15  1  0.609979  0.000000  0.250000  1
