# generated using pymatgen
data_Li2Pr3Gd5Ir2
_symmetry_space_group_name_H-M   'P 1'
_cell_length_a   9.91628139
_cell_length_b   9.91628091
_cell_length_c   9.91628100
_cell_angle_alpha   60.00000305
_cell_angle_beta   60.00000465
_cell_angle_gamma   60.00000728
_symmetry_Int_Tables_number   1
_chemical_formula_structural   Li2Pr3Gd5Ir2
_chemical_formula_sum   'Li4 Pr6 Gd10 Ir4'
_cell_volume   689.49566460
_cell_formula_units_Z   2
loop_
 _symmetry_equiv_pos_site_id
 _symmetry_equiv_pos_as_xyz
  1  'x, y, z'
loop_
 _atom_site_type_symbol
 _atom_site_label
 _atom_site_symmetry_multiplicity
 _atom_site_fract_x
 _atom_site_fract_y
 _atom_site_fract_z
 _atom_site_occupancy
  Li  Li0  1  0.578036  0.578036  0.578036  1
  Li  Li1  1  0.578036  0.578036  0.265890  1
  Li  Li2  1  0.578036  0.265890  0.578036  1
  Li  Li3  1  0.265890  0.578036  0.578036  1
  Pr  Pr4  1  0.939753  0.560247  0.560247  1
  Pr  Pr5  1  0.560247  0.939753  0.939753  1
  Pr  Pr6  1  0.560247  0.939753  0.560247  1
  Pr  Pr7  1  0.939753  0.560247  0.939753  1
  Pr  Pr8  1  0.560247  0.560247  0.939753  1
  Pr  Pr9  1  0.939753  0.939753  0.560247  1
  Gd  Gd10  1  0.344032  0.344032  0.344032  1
  Gd  Gd11  1  0.344032  0.344032  0.967904  1
  Gd  Gd12  1  0.344032  0.967904  0.344032  1
  Gd  Gd13  1  0.967904  0.344032  0.344032  1
  Gd  Gd14  1  0.815175  0.184825  0.184825  1
  Gd  Gd15  1  0.184825  0.815175  0.815175  1
  Gd  Gd16  1  0.184825  0.815175  0.184825  1
  Gd  Gd17  1  0.815175  0.184825  0.815175  1
  Gd  Gd18  1  0.184825  0.184825  0.815175  1
  Gd  Gd19  1  0.815175  0.815175  0.184825  1
  Ir  Ir20  1  0.140983  0.140983  0.140983  1
  Ir  Ir21  1  0.140983  0.140983  0.577051  1
  Ir  Ir22  1  0.140983  0.577051  0.140983  1
  Ir  Ir23  1  0.577051  0.140983  0.140983  1
