# generated using pymatgen
data_Nd6Er10Cd4IrPd3
_symmetry_space_group_name_H-M   'P 1'
_cell_length_a   9.76796742
_cell_length_b   9.72665277
_cell_length_c   9.72665400
_cell_angle_alpha   59.99999582
_cell_angle_beta   60.13981172
_cell_angle_gamma   60.13981169
_symmetry_Int_Tables_number   1
_chemical_formula_structural   Nd6Er10Cd4IrPd3
_chemical_formula_sum   'Nd6 Er10 Cd4 Ir1 Pd3'
_cell_volume   654.83309353
_cell_formula_units_Z   1
loop_
 _symmetry_equiv_pos_site_id
 _symmetry_equiv_pos_as_xyz
  1  'x, y, z'
loop_
 _atom_site_type_symbol
 _atom_site_label
 _atom_site_symmetry_multiplicity
 _atom_site_fract_x
 _atom_site_fract_y
 _atom_site_fract_z
 _atom_site_occupancy
  Nd  Nd0  1  0.937453  0.563157  0.563157  1
  Nd  Nd1  1  0.565795  0.937127  0.937127  1
  Nd  Nd2  1  0.565795  0.937127  0.559952  1
  Nd  Nd3  1  0.937453  0.563157  0.936233  1
  Nd  Nd4  1  0.565795  0.559952  0.937127  1
  Nd  Nd5  1  0.937453  0.936233  0.563157  1
  Er  Er6  1  0.353143  0.347185  0.347185  1
  Er  Er7  1  0.353143  0.347185  0.952488  1
  Er  Er8  1  0.353143  0.952488  0.347185  1
  Er  Er9  1  0.941577  0.352807  0.352807  1
  Er  Er10  1  0.809047  0.186675  0.186675  1
  Er  Er11  1  0.189846  0.812055  0.812055  1
  Er  Er12  1  0.189846  0.812055  0.186042  1
  Er  Er13  1  0.809047  0.186675  0.817602  1
  Er  Er14  1  0.189846  0.186042  0.812055  1
  Er  Er15  1  0.809047  0.817602  0.186675  1
  Cd  Cd16  1  0.578780  0.580623  0.580623  1
  Cd  Cd17  1  0.578780  0.580623  0.259972  1
  Cd  Cd18  1  0.578780  0.259972  0.580623  1
  Cd  Cd19  1  0.261601  0.579466  0.579466  1
  Ir  Ir20  1  0.574461  0.141846  0.141846  1
  Pd  Pd21  1  0.140055  0.143550  0.143550  1
  Pd  Pd22  1  0.140055  0.143550  0.572845  1
  Pd  Pd23  1  0.140055  0.572845  0.143550  1
