# generated using pymatgen
data_NdY2TaO7
_symmetry_space_group_name_H-M   'P 1'
_cell_length_a   6.51639614
_cell_length_b   6.51639601
_cell_length_c   7.61923300
_cell_angle_alpha   90.00000000
_cell_angle_beta   90.00000000
_cell_angle_gamma   109.45689125
_symmetry_Int_Tables_number   1
_chemical_formula_structural   NdY2TaO7
_chemical_formula_sum   'Nd2 Y4 Ta2 O14'
_cell_volume   305.06214946
_cell_formula_units_Z   2
loop_
 _symmetry_equiv_pos_site_id
 _symmetry_equiv_pos_as_xyz
  1  'x, y, z'
loop_
 _atom_site_type_symbol
 _atom_site_label
 _atom_site_symmetry_multiplicity
 _atom_site_fract_x
 _atom_site_fract_y
 _atom_site_fract_z
 _atom_site_occupancy
  Nd  Nd0  1  0.500000  0.500000  0.500000  1
  Nd  Nd1  1  0.500000  0.500000  0.000000  1
  Y  Y2  1  0.533056  0.000397  0.750000  1
  Y  Y3  1  0.000397  0.533056  0.250000  1
  Y  Y4  1  0.466944  0.999603  0.250000  1
  Y  Y5  1  0.999603  0.466944  0.750000  1
  Ta  Ta6  1  0.000000  0.000000  0.500000  1
  Ta  Ta7  1  0.000000  0.000000  0.000000  1
  O  O8  1  0.680424  0.930645  0.468338  1
  O  O9  1  0.930645  0.680424  0.531662  1
  O  O10  1  0.680424  0.930645  0.031662  1
  O  O11  1  0.930645  0.680424  0.968338  1
  O  O12  1  0.319576  0.069355  0.531662  1
  O  O13  1  0.069355  0.319576  0.468338  1
  O  O14  1  0.319576  0.069355  0.968338  1
  O  O15  1  0.069355  0.319576  0.031662  1
  O  O16  1  0.937226  0.062774  0.750000  1
  O  O17  1  0.062774  0.937226  0.250000  1
  O  O18  1  0.364851  0.635149  0.750000  1
  O  O19  1  0.635149  0.364851  0.250000  1
  O  O20  1  0.642515  0.357485  0.750000  1
  O  O21  1  0.357485  0.642515  0.250000  1
