# generated using pymatgen
data_Ho6Al24FeRu2Rh5
_symmetry_space_group_name_H-M   'P 1'
_cell_length_a   8.81776640
_cell_length_b   8.81776767
_cell_length_c   9.46117009
_cell_angle_alpha   89.85081079
_cell_angle_beta   90.14919071
_cell_angle_gamma   120.21165283
_symmetry_Int_Tables_number   1
_chemical_formula_structural   Ho6Al24FeRu2Rh5
_chemical_formula_sum   'Ho6 Al24 Fe1 Ru2 Rh5'
_cell_volume   635.71222636
_cell_formula_units_Z   1
loop_
 _symmetry_equiv_pos_site_id
 _symmetry_equiv_pos_as_xyz
  1  'x, y, z'
loop_
 _atom_site_type_symbol
 _atom_site_label
 _atom_site_symmetry_multiplicity
 _atom_site_fract_x
 _atom_site_fract_y
 _atom_site_fract_z
 _atom_site_occupancy
  Ho  Ho0  1  0.194547  0.385905  0.251370  1
  Ho  Ho1  1  0.805453  0.614095  0.748630  1
  Ho  Ho2  1  0.614095  0.805453  0.251370  1
  Ho  Ho3  1  0.385905  0.194547  0.748630  1
  Ho  Ho4  1  0.192611  0.807389  0.250958  1
  Ho  Ho5  1  0.807389  0.192611  0.749042  1
  Al  Al6  1  0.333246  0.666754  0.026991  1
  Al  Al7  1  0.666754  0.333246  0.973009  1
  Al  Al8  1  0.665562  0.334438  0.525432  1
  Al  Al9  1  0.334438  0.665562  0.474568  1
  Al  Al10  1  0.163934  0.325229  0.576443  1
  Al  Al11  1  0.836066  0.674771  0.423557  1
  Al  Al12  1  0.674771  0.836066  0.576443  1
  Al  Al13  1  0.840426  0.680021  0.075191  1
  Al  Al14  1  0.325229  0.163934  0.423557  1
  Al  Al15  1  0.159574  0.319979  0.924809  1
  Al  Al16  1  0.161961  0.838039  0.576991  1
  Al  Al17  1  0.319979  0.159574  0.075191  1
  Al  Al18  1  0.838039  0.161961  0.423009  1
  Al  Al19  1  0.680021  0.840426  0.924809  1
  Al  Al20  1  0.840284  0.159716  0.075530  1
  Al  Al21  1  0.159716  0.840284  0.924470  1
  Al  Al22  1  0.562295  0.123676  0.249323  1
  Al  Al23  1  0.437705  0.876324  0.750677  1
  Al  Al24  1  0.876324  0.437705  0.249323  1
  Al  Al25  1  0.123676  0.562295  0.750677  1
  Al  Al26  1  0.562182  0.437818  0.250615  1
  Al  Al27  1  0.437818  0.562182  0.749385  1
  Al  Al28  1  0.000638  0.999362  0.244573  1
  Al  Al29  1  0.999362  0.000638  0.755427  1
  Fe  Fe30  1  0.000000  0.000000  0.000000  1
  Ru  Ru31  1  0.500000  0.500000  0.500000  1
  Ru  Ru32  1  0.000000  0.000000  0.500000  1
  Rh  Rh33  1  0.500000  0.000000  0.000000  1
  Rh  Rh34  1  0.000000  0.500000  0.000000  1
  Rh  Rh35  1  0.500000  0.000000  0.500000  1
  Rh  Rh36  1  0.500000  0.500000  0.000000  1
  Rh  Rh37  1  0.000000  0.500000  0.500000  1
