# generated using pymatgen
data_Ca10TcSnN10
_symmetry_space_group_name_H-M   'P 1'
_cell_length_a   6.96273673
_cell_length_b   6.96273598
_cell_length_c   8.95939114
_cell_angle_alpha   80.34694953
_cell_angle_beta   80.34694065
_cell_angle_gamma   59.85540410
_symmetry_Int_Tables_number   1
_chemical_formula_structural   Ca10TcSnN10
_chemical_formula_sum   'Ca10 Tc1 Sn1 N10'
_cell_volume   368.51012547
_cell_formula_units_Z   1
loop_
 _symmetry_equiv_pos_site_id
 _symmetry_equiv_pos_as_xyz
  1  'x, y, z'
loop_
 _atom_site_type_symbol
 _atom_site_label
 _atom_site_symmetry_multiplicity
 _atom_site_fract_x
 _atom_site_fract_y
 _atom_site_fract_z
 _atom_site_occupancy
  Ca  Ca0  1  0.877456  0.353214  0.828049  1
  Ca  Ca1  1  0.873945  0.873945  0.819010  1
  Ca  Ca2  1  0.738364  0.738364  0.531403  1
  Ca  Ca3  1  0.748544  0.251542  0.513514  1
  Ca  Ca4  1  0.630713  0.136749  0.149331  1
  Ca  Ca5  1  0.353214  0.877456  0.828049  1
  Ca  Ca6  1  0.251542  0.748544  0.513514  1
  Ca  Ca7  1  0.242066  0.242066  0.504054  1
  Ca  Ca8  1  0.139454  0.139454  0.158998  1
  Ca  Ca9  1  0.136749  0.630713  0.149331  1
  Tc  Tc10  1  0.631885  0.631885  0.228131  1
  Sn  Sn11  1  0.369803  0.369803  0.777421  1
  N  N12  1  0.904226  0.473550  0.315344  1
  N  N13  1  0.995233  0.995233  0.017084  1
  N  N14  1  0.675449  0.675449  0.023534  1
  N  N15  1  0.547624  0.547624  0.685023  1
  N  N16  1  0.473550  0.904226  0.315344  1
  N  N17  1  0.550021  0.066907  0.667641  1
  N  N18  1  0.475597  0.475597  0.297134  1
  N  N19  1  0.318343  0.318343  0.008984  1
  N  N20  1  0.061603  0.061603  0.647273  1
  N  N21  1  0.066907  0.550021  0.667641  1
