# generated using pymatgen
data_Tb2HoTh(Al8Pt3)3
_symmetry_space_group_name_H-M   'P 1'
_cell_length_a   7.56231690
_cell_length_b   7.58061308
_cell_length_c   13.18395401
_cell_angle_alpha   84.53389938
_cell_angle_beta   79.00011305
_cell_angle_gamma   59.91907051
_symmetry_Int_Tables_number   1
_chemical_formula_structural   Tb2HoTh(Al8Pt3)3
_chemical_formula_sum   'Tb2 Ho1 Th1 Al24 Pt9'
_cell_volume   641.98882535
_cell_formula_units_Z   1
loop_
 _symmetry_equiv_pos_site_id
 _symmetry_equiv_pos_as_xyz
  1  'x, y, z'
loop_
 _atom_site_type_symbol
 _atom_site_label
 _atom_site_symmetry_multiplicity
 _atom_site_fract_x
 _atom_site_fract_y
 _atom_site_fract_z
 _atom_site_occupancy
  Tb  Tb0  1  0.605690  0.831476  0.193472  1
  Tb  Tb1  1  0.733484  0.499049  0.807723  1
  Ho  Ho2  1  0.266151  0.501400  0.193624  1
  Th  Th3  1  0.394171  0.167798  0.807347  1
  Al  Al4  1  0.687078  0.830735  0.947276  1
  Al  Al5  1  0.315291  0.166360  0.058919  1
  Al  Al6  1  0.146861  0.832757  0.560098  1
  Al  Al7  1  0.854162  0.167675  0.437472  1
  Al  Al8  1  0.481160  0.166471  0.556477  1
  Al  Al9  1  0.520330  0.832479  0.440549  1
  Al  Al10  1  0.217523  0.165683  0.329119  1
  Al  Al11  1  0.787672  0.831003  0.666547  1
  Al  Al12  1  0.438073  0.510318  0.667246  1
  Al  Al13  1  0.562855  0.493484  0.328968  1
  Al  Al14  1  0.107285  0.159687  0.665497  1
  Al  Al15  1  0.890523  0.839888  0.330470  1
  Al  Al16  1  0.351320  0.502916  0.947182  1
  Al  Al17  1  0.645881  0.501448  0.056842  1
  Al  Al18  1  0.011643  0.166936  0.957100  1
  Al  Al19  1  0.983812  0.831308  0.049638  1
  Al  Al20  1  0.186004  0.500085  0.440636  1
  Al  Al21  1  0.813502  0.500248  0.558105  1
  Al  Al22  1  0.733738  0.164482  0.183571  1
  Al  Al23  1  0.264970  0.831950  0.816521  1
  Al  Al24  1  0.057644  0.635516  0.815334  1
  Al  Al25  1  0.938026  0.369582  0.184937  1
  Al  Al26  1  0.860141  0.041114  0.816265  1
  Al  Al27  1  0.144262  0.958025  0.184323  1
  Pt  Pt28  1  0.121423  0.490699  0.638567  1
  Pt  Pt29  1  0.880154  0.508139  0.361099  1
  Pt  Pt30  1  0.656572  0.171580  0.999929  1
  Pt  Pt31  1  0.342651  0.829597  0.000154  1
  Pt  Pt32  1  0.537515  0.167056  0.361032  1
  Pt  Pt33  1  0.462171  0.834241  0.638353  1
  Pt  Pt34  1  0.777878  0.174984  0.637243  1
  Pt  Pt35  1  0.221287  0.824896  0.362364  1
  Pt  Pt36  1  0.001093  0.498938  0.999999  1
