# generated using pymatgen
data_CaSmGa3Ru
_symmetry_space_group_name_H-M   'P 1'
_cell_length_a   5.56778700
_cell_length_b   5.56778813
_cell_length_c   8.78032400
_cell_angle_alpha   90.00000000
_cell_angle_beta   90.00000000
_cell_angle_gamma   119.99999923
_symmetry_Int_Tables_number   1
_chemical_formula_structural   CaSmGa3Ru
_chemical_formula_sum   'Ca2 Sm2 Ga6 Ru2'
_cell_volume   235.72545918
_cell_formula_units_Z   2
loop_
 _symmetry_equiv_pos_site_id
 _symmetry_equiv_pos_as_xyz
  1  'x, y, z'
loop_
 _atom_site_type_symbol
 _atom_site_label
 _atom_site_symmetry_multiplicity
 _atom_site_fract_x
 _atom_site_fract_y
 _atom_site_fract_z
 _atom_site_occupancy
  Ca  Ca0  1  0.333333  0.666666  0.553795  1
  Ca  Ca1  1  0.333333  0.666666  0.946206  1
  Sm  Sm2  1  0.666667  0.333334  0.049304  1
  Sm  Sm3  1  0.666667  0.333334  0.450696  1
  Ga  Ga4  1  0.161934  0.323867  0.250000  1
  Ga  Ga5  1  0.161933  0.838065  0.250000  1
  Ga  Ga6  1  0.676133  0.838065  0.250000  1
  Ga  Ga7  1  0.322730  0.161366  0.750000  1
  Ga  Ga8  1  0.838636  0.161366  0.750000  1
  Ga  Ga9  1  0.838635  0.677270  0.750000  1
  Ru  Ru10  1  0.000000  0.000000  0.997813  1
  Ru  Ru11  1  0.000000  0.000000  0.502187  1
