# generated using pymatgen
data_Ca3Y(Si4Tc3)2
_symmetry_space_group_name_H-M   'P 1'
_cell_length_a   6.81749349
_cell_length_b   6.70954033
_cell_length_c   6.79780986
_cell_angle_alpha   70.44742025
_cell_angle_beta   90.03430600
_cell_angle_gamma   89.85456190
_symmetry_Int_Tables_number   1
_chemical_formula_structural   Ca3Y(Si4Tc3)2
_chemical_formula_sum   'Ca3 Y1 Si8 Tc6'
_cell_volume   293.01497299
_cell_formula_units_Z   1
loop_
 _symmetry_equiv_pos_site_id
 _symmetry_equiv_pos_as_xyz
  1  'x, y, z'
loop_
 _atom_site_type_symbol
 _atom_site_label
 _atom_site_symmetry_multiplicity
 _atom_site_fract_x
 _atom_site_fract_y
 _atom_site_fract_z
 _atom_site_occupancy
  Ca  Ca0  1  0.165404  0.944325  0.184820  1
  Ca  Ca1  1  0.333332  0.442984  0.187192  1
  Ca  Ca2  1  0.835422  0.055848  0.815787  1
  Y  Y3  1  0.666848  0.558542  0.807838  1
  Si  Si4  1  0.547112  0.118712  0.104571  1
  Si  Si5  1  0.358428  0.633191  0.505625  1
  Si  Si6  1  0.863107  0.870839  0.489585  1
  Si  Si7  1  0.049563  0.380715  0.897688  1
  Si  Si8  1  0.138898  0.131879  0.508356  1
  Si  Si9  1  0.638394  0.364608  0.491617  1
  Si  Si10  1  0.952672  0.619236  0.103484  1
  Si  Si11  1  0.452467  0.880243  0.898253  1
  Tc  Tc12  1  0.840938  0.246465  0.241824  1
  Tc  Tc13  1  0.344227  0.256741  0.756402  1
  Tc  Tc14  1  0.157985  0.755731  0.757298  1
  Tc  Tc15  1  0.657165  0.742117  0.245030  1
  Tc  Tc16  1  0.500520  0.998227  0.501639  1
  Tc  Tc17  1  0.997519  0.499595  0.502992  1
