# generated using pymatgen
data_Pr16Hg4Os3Pd
_symmetry_space_group_name_H-M   'P 1'
_cell_length_a   9.97418259
_cell_length_b   10.06008058
_cell_length_c   10.06008000
_cell_angle_alpha   59.99999532
_cell_angle_beta   59.71470026
_cell_angle_gamma   59.71469919
_symmetry_Int_Tables_number   1
_chemical_formula_structural   Pr16Hg4Os3Pd
_chemical_formula_sum   'Pr16 Hg4 Os3 Pd1'
_cell_volume   710.68779778
_cell_formula_units_Z   1
loop_
 _symmetry_equiv_pos_site_id
 _symmetry_equiv_pos_as_xyz
  1  'x, y, z'
loop_
 _atom_site_type_symbol
 _atom_site_label
 _atom_site_symmetry_multiplicity
 _atom_site_fract_x
 _atom_site_fract_y
 _atom_site_fract_z
 _atom_site_occupancy
  Pr  Pr0  1  0.345679  0.351885  0.351885  1
  Pr  Pr1  1  0.345679  0.351885  0.950549  1
  Pr  Pr2  1  0.345679  0.950549  0.351885  1
  Pr  Pr3  1  0.958817  0.347061  0.347061  1
  Pr  Pr4  1  0.815285  0.191235  0.191235  1
  Pr  Pr5  1  0.189615  0.810389  0.810389  1
  Pr  Pr6  1  0.189615  0.810389  0.189607  1
  Pr  Pr7  1  0.815285  0.191235  0.802244  1
  Pr  Pr8  1  0.189615  0.189607  0.810389  1
  Pr  Pr9  1  0.815285  0.802244  0.191235  1
  Pr  Pr10  1  0.938459  0.560422  0.560422  1
  Pr  Pr11  1  0.556099  0.939480  0.939480  1
  Pr  Pr12  1  0.556099  0.939480  0.564941  1
  Pr  Pr13  1  0.938459  0.560422  0.940697  1
  Pr  Pr14  1  0.556099  0.564941  0.939480  1
  Pr  Pr15  1  0.938459  0.940697  0.560422  1
  Hg  Hg16  1  0.583175  0.584138  0.584138  1
  Hg  Hg17  1  0.583175  0.584138  0.248550  1
  Hg  Hg18  1  0.583175  0.248550  0.584138  1
  Hg  Hg19  1  0.249591  0.583470  0.583470  1
  Os  Os20  1  0.143669  0.138392  0.138392  1
  Os  Os21  1  0.143669  0.138392  0.579548  1
  Os  Os22  1  0.143669  0.579548  0.138392  1
  Pd  Pd23  1  0.575646  0.141451  0.141451  1
