# generated using pymatgen
data_La3PrTc4F28
_symmetry_space_group_name_H-M   'P 1'
_cell_length_a   5.81482301
_cell_length_b   9.31543816
_cell_length_c   12.48556168
_cell_angle_alpha   62.07996660
_cell_angle_beta   90.00260014
_cell_angle_gamma   90.00558673
_symmetry_Int_Tables_number   1
_chemical_formula_structural   La3PrTc4F28
_chemical_formula_sum   'La3 Pr1 Tc4 F28'
_cell_volume   597.59167994
_cell_formula_units_Z   1
loop_
 _symmetry_equiv_pos_site_id
 _symmetry_equiv_pos_as_xyz
  1  'x, y, z'
loop_
 _atom_site_type_symbol
 _atom_site_label
 _atom_site_symmetry_multiplicity
 _atom_site_fract_x
 _atom_site_fract_y
 _atom_site_fract_z
 _atom_site_occupancy
  La  La0  1  0.259030  0.187882  0.235125  1
  La  La1  1  0.241843  0.190169  0.734666  1
  La  La2  1  0.741622  0.809484  0.765352  1
  Pr  Pr3  1  0.758496  0.809408  0.265015  1
  Tc  Tc4  1  0.243928  0.726107  0.541862  1
  Tc  Tc5  1  0.744035  0.273032  0.957497  1
  Tc  Tc6  1  0.756100  0.275415  0.456113  1
  Tc  Tc7  1  0.256145  0.725939  0.044465  1
  F  F8  1  0.965683  0.716143  0.454748  1
  F  F9  1  0.465621  0.284652  0.042843  1
  F  F10  1  0.034312  0.285787  0.542478  1
  F  F11  1  0.533385  0.715064  0.957729  1
  F  F12  1  0.057169  0.709013  0.923995  1
  F  F13  1  0.557408  0.291860  0.576879  1
  F  F14  1  0.942524  0.290845  0.077428  1
  F  F15  1  0.444946  0.710025  0.421540  1
  F  F16  1  0.736274  0.510966  0.861625  1
  F  F17  1  0.235930  0.488332  0.637766  1
  F  F18  1  0.263578  0.488150  0.139487  1
  F  F19  1  0.763428  0.513905  0.360754  1
  F  F20  1  0.740587  0.035188  0.052105  1
  F  F21  1  0.240541  0.963409  0.449568  1
  F  F22  1  0.259389  0.963361  0.950337  1
  F  F23  1  0.759313  0.037903  0.549791  1
  F  F24  1  0.048219  0.742139  0.664954  1
  F  F25  1  0.549141  0.256886  0.834269  1
  F  F26  1  0.951234  0.258369  0.333526  1
  F  F27  1  0.453301  0.743254  0.166751  1
  F  F28  1  0.015380  0.267850  0.865595  1
  F  F29  1  0.514174  0.731516  0.634211  1
  F  F30  1  0.984913  0.732330  0.136456  1
  F  F31  1  0.484966  0.268986  0.364831  1
  F  F32  1  0.084747  0.968067  0.231574  1
  F  F33  1  0.586836  0.029071  0.268607  1
  F  F34  1  0.912708  0.030819  0.768562  1
  F  F35  1  0.413095  0.968672  0.731495  1
