# generated using pymatgen
data_Y10Er7(TmBi4)3
_symmetry_space_group_name_H-M   'P 1'
_cell_length_a   8.22821921
_cell_length_b   9.48244404
_cell_length_c   12.05042039
_cell_angle_alpha   89.99827572
_cell_angle_beta   90.02564966
_cell_angle_gamma   89.99772788
_symmetry_Int_Tables_number   1
_chemical_formula_structural   Y10Er7(TmBi4)3
_chemical_formula_sum   'Y10 Er7 Tm3 Bi12'
_cell_volume   940.21742433
_cell_formula_units_Z   1
loop_
 _symmetry_equiv_pos_site_id
 _symmetry_equiv_pos_as_xyz
  1  'x, y, z'
loop_
 _atom_site_type_symbol
 _atom_site_label
 _atom_site_symmetry_multiplicity
 _atom_site_fract_x
 _atom_site_fract_y
 _atom_site_fract_z
 _atom_site_occupancy
  Y  Y0  1  0.186126  0.749976  0.718624  1
  Y  Y1  1  0.686350  0.750053  0.781489  1
  Y  Y2  1  0.813655  0.249766  0.281191  1
  Y  Y3  1  0.313625  0.250247  0.218711  1
  Y  Y4  1  0.306966  0.062881  0.940656  1
  Y  Y5  1  0.807326  0.437185  0.559402  1
  Y  Y6  1  0.353929  0.750243  0.215892  1
  Y  Y7  1  0.853776  0.749768  0.284105  1
  Y  Y8  1  0.645910  0.249830  0.784506  1
  Y  Y9  1  0.145592  0.250167  0.715713  1
  Er  Er10  1  0.474308  0.249520  0.488751  1
  Er  Er11  1  0.306783  0.434840  0.940392  1
  Er  Er12  1  0.807225  0.065044  0.559592  1
  Er  Er13  1  0.693075  0.934804  0.059539  1
  Er  Er14  1  0.193130  0.565182  0.440460  1
  Er  Er15  1  0.693535  0.564949  0.059719  1
  Er  Er16  1  0.193452  0.935089  0.440274  1
  Tm  Tm17  1  0.024754  0.749931  0.988876  1
  Tm  Tm18  1  0.525047  0.750119  0.511021  1
  Tm  Tm19  1  0.974447  0.250314  0.011194  1
  Bi  Bi20  1  0.434093  0.003511  0.672599  1
  Bi  Bi21  1  0.934168  0.496269  0.827592  1
  Bi  Bi22  1  0.566195  0.504210  0.327206  1
  Bi  Bi23  1  0.066029  0.996160  0.172547  1
  Bi  Bi24  1  0.566314  0.995712  0.327395  1
  Bi  Bi25  1  0.066173  0.503953  0.172337  1
  Bi  Bi26  1  0.433615  0.496256  0.672654  1
  Bi  Bi27  1  0.933662  0.003972  0.827537  1
  Bi  Bi28  1  0.407551  0.748179  0.958169  1
  Bi  Bi29  1  0.907526  0.751828  0.541904  1
  Bi  Bi30  1  0.593095  0.250284  0.042473  1
  Bi  Bi31  1  0.092564  0.249757  0.457480  1
