# generated using pymatgen
data_La11Pr(GaRh)8
_symmetry_space_group_name_H-M   'P 1'
_cell_length_a   5.80652084
_cell_length_b   8.38135350
_cell_length_c   13.69359800
_cell_angle_alpha   90.00000000
_cell_angle_beta   90.00000000
_cell_angle_gamma   90.08986066
_symmetry_Int_Tables_number   1
_chemical_formula_structural   La11Pr(GaRh)8
_chemical_formula_sum   'La11 Pr1 Ga8 Rh8'
_cell_volume   666.41871895
_cell_formula_units_Z   1
loop_
 _symmetry_equiv_pos_site_id
 _symmetry_equiv_pos_as_xyz
  1  'x, y, z'
loop_
 _atom_site_type_symbol
 _atom_site_label
 _atom_site_symmetry_multiplicity
 _atom_site_fract_x
 _atom_site_fract_y
 _atom_site_fract_z
 _atom_site_occupancy
  La  La0  1  0.365846  0.734612  0.750000  1
  La  La1  1  0.366504  0.764904  0.250000  1
  La  La2  1  0.631851  0.235210  0.750000  1
  La  La3  1  0.155519  0.403207  0.095811  1
  La  La4  1  0.845483  0.597334  0.905025  1
  La  La5  1  0.845483  0.597334  0.594975  1
  La  La6  1  0.845362  0.903097  0.404082  1
  La  La7  1  0.155519  0.403207  0.404189  1
  La  La8  1  0.153542  0.097308  0.594996  1
  La  La9  1  0.153542  0.097308  0.905004  1
  La  La10  1  0.845362  0.903097  0.095918  1
  Pr  Pr11  1  0.637105  0.262611  0.250000  1
  Ga  Ga12  1  0.139153  0.114746  0.250000  1
  Ga  Ga13  1  0.863490  0.887462  0.750000  1
  Ga  Ga14  1  0.860751  0.610834  0.250000  1
  Ga  Ga15  1  0.135263  0.386890  0.750000  1
  Ga  Ga16  1  0.634197  0.249684  0.001316  1
  Ga  Ga17  1  0.366192  0.750098  0.000144  1
  Ga  Ga18  1  0.366192  0.750098  0.499856  1
  Ga  Ga19  1  0.634197  0.249684  0.498684  1
  Rh  Rh20  1  0.356027  0.028489  0.090594  1
  Rh  Rh21  1  0.644328  0.971595  0.909494  1
  Rh  Rh22  1  0.644328  0.971595  0.590506  1
  Rh  Rh23  1  0.642211  0.529941  0.409709  1
  Rh  Rh24  1  0.356027  0.028489  0.409406  1
  Rh  Rh25  1  0.357158  0.470612  0.591068  1
  Rh  Rh26  1  0.357158  0.470612  0.908932  1
  Rh  Rh27  1  0.642211  0.529941  0.090291  1
