# generated using pymatgen
data_YEr19(Ag3Ru)2
_symmetry_space_group_name_H-M   'P 1'
_cell_length_a   9.41655802
_cell_length_b   9.41757545
_cell_length_c   9.57816000
_cell_angle_alpha   90.00000000
_cell_angle_beta   90.00000000
_cell_angle_gamma   120.00357264
_symmetry_Int_Tables_number   1
_chemical_formula_structural   YEr19(Ag3Ru)2
_chemical_formula_sum   'Y1 Er19 Ag6 Ru2'
_cell_volume   735.57740130
_cell_formula_units_Z   1
loop_
 _symmetry_equiv_pos_site_id
 _symmetry_equiv_pos_as_xyz
  1  'x, y, z'
loop_
 _atom_site_type_symbol
 _atom_site_label
 _atom_site_symmetry_multiplicity
 _atom_site_fract_x
 _atom_site_fract_y
 _atom_site_fract_z
 _atom_site_occupancy
  Y  Y0  1  0.082894  0.541448  0.750000  1
  Er  Er1  1  0.000037  0.000018  0.499996  1
  Er  Er2  1  0.000037  0.000018  0.000004  1
  Er  Er3  1  0.208886  0.791475  0.441271  1
  Er  Er4  1  0.208886  0.417411  0.441271  1
  Er  Er5  1  0.582386  0.791193  0.441517  1
  Er  Er6  1  0.790984  0.208506  0.558336  1
  Er  Er7  1  0.790984  0.582478  0.558336  1
  Er  Er8  1  0.417509  0.208755  0.558567  1
  Er  Er9  1  0.790984  0.208506  0.941664  1
  Er  Er10  1  0.790984  0.582478  0.941664  1
  Er  Er11  1  0.417509  0.208755  0.941433  1
  Er  Er12  1  0.208886  0.791475  0.058729  1
  Er  Er13  1  0.208886  0.417411  0.058729  1
  Er  Er14  1  0.582386  0.791193  0.058483  1
  Er  Er15  1  0.541401  0.458662  0.250000  1
  Er  Er16  1  0.541401  0.082738  0.250000  1
  Er  Er17  1  0.917508  0.458753  0.250000  1
  Er  Er18  1  0.459087  0.541195  0.750000  1
  Er  Er19  1  0.459087  0.917893  0.750000  1
  Ag  Ag20  1  0.883748  0.116209  0.250000  1
  Ag  Ag21  1  0.883748  0.767542  0.250000  1
  Ag  Ag22  1  0.232356  0.116179  0.250000  1
  Ag  Ag23  1  0.116207  0.884383  0.750000  1
  Ag  Ag24  1  0.116207  0.231822  0.750000  1
  Ag  Ag25  1  0.767560  0.883779  0.750000  1
  Ru  Ru26  1  0.333232  0.666616  0.250000  1
  Ru  Ru27  1  0.666221  0.333110  0.750000  1
