# generated using pymatgen
data_LiMg3V2(NiSb)6
_symmetry_space_group_name_H-M   'P 1'
_cell_length_a   7.31194005
_cell_length_b   7.31131913
_cell_length_c   7.31550812
_cell_angle_alpha   119.86697735
_cell_angle_beta   99.60070570
_cell_angle_gamma   99.62154337
_symmetry_Int_Tables_number   1
_chemical_formula_structural   LiMg3V2(NiSb)6
_chemical_formula_sum   'Li1 Mg3 V2 Ni6 Sb6'
_cell_volume   319.75789829
_cell_formula_units_Z   1
loop_
 _symmetry_equiv_pos_site_id
 _symmetry_equiv_pos_as_xyz
  1  'x, y, z'
loop_
 _atom_site_type_symbol
 _atom_site_label
 _atom_site_symmetry_multiplicity
 _atom_site_fract_x
 _atom_site_fract_y
 _atom_site_fract_z
 _atom_site_occupancy
  Li  Li0  1  0.998898  0.500506  0.001226  1
  Mg  Mg1  1  0.498943  0.327765  0.166266  1
  Mg  Mg2  1  0.998750  0.164048  0.329766  1
  Mg  Mg3  1  0.499559  0.002594  0.501465  1
  V  V4  1  0.003223  0.835944  0.669309  1
  V  V5  1  0.502560  0.670215  0.834592  1
  Ni  Ni6  1  0.118872  0.184927  0.019811  1
  Ni  Ni7  1  0.618007  0.018564  0.186783  1
  Ni  Ni8  1  0.120160  0.875506  0.396280  1
  Ni  Ni9  1  0.636153  0.711528  0.560305  1
  Ni  Ni10  1  0.136994  0.560366  0.707586  1
  Ni  Ni11  1  0.615767  0.393180  0.872400  1
  Sb  Sb12  1  0.243236  0.907285  0.084547  1
  Sb  Sb13  1  0.752142  0.746727  0.253860  1
  Sb  Sb14  1  0.252426  0.579211  0.409346  1
  Sb  Sb15  1  0.758870  0.419001  0.587519  1
  Sb  Sb16  1  0.245831  0.261365  0.753994  1
  Sb  Sb17  1  0.749605  0.091273  0.914945  1
