# generated using pymatgen
data_La13Th(Ir2Rh)2
_symmetry_space_group_name_H-M   'P 1'
_cell_length_a   6.52454402
_cell_length_b   10.22645906
_cell_length_c   10.23037726
_cell_angle_alpha   119.98739061
_cell_angle_beta   90.00937965
_cell_angle_gamma   90.00035048
_symmetry_Int_Tables_number   1
_chemical_formula_structural   La13Th(Ir2Rh)2
_chemical_formula_sum   'La13 Th1 Ir4 Rh2'
_cell_volume   591.22513599
_cell_formula_units_Z   1
loop_
 _symmetry_equiv_pos_site_id
 _symmetry_equiv_pos_as_xyz
  1  'x, y, z'
loop_
 _atom_site_type_symbol
 _atom_site_label
 _atom_site_symmetry_multiplicity
 _atom_site_fract_x
 _atom_site_fract_y
 _atom_site_fract_z
 _atom_site_occupancy
  La  La0  1  0.973682  0.666923  0.333748  1
  La  La1  1  0.249647  0.125508  0.872717  1
  La  La2  1  0.249760  0.747170  0.872742  1
  La  La3  1  0.249831  0.126567  0.253191  1
  La  La4  1  0.747603  0.874325  0.125712  1
  La  La5  1  0.747718  0.251432  0.125745  1
  La  La6  1  0.748274  0.873927  0.747862  1
  La  La7  1  0.436532  0.538446  0.462330  1
  La  La8  1  0.436454  0.923893  0.462315  1
  La  La9  1  0.436666  0.537856  0.075747  1
  La  La10  1  0.941071  0.460589  0.540360  1
  La  La11  1  0.940920  0.079760  0.540308  1
  La  La12  1  0.940875  0.460162  0.920265  1
  Th  Th13  1  0.479077  0.333267  0.666548  1
  Ir  Ir14  1  0.189974  0.811347  0.622748  1
  Ir  Ir15  1  0.684482  0.192094  0.808822  1
  Ir  Ir16  1  0.684500  0.616734  0.808808  1
  Ir  Ir17  1  0.684203  0.191318  0.382593  1
  Rh  Rh18  1  0.190356  0.811214  0.188699  1
  Rh  Rh19  1  0.190371  0.377467  0.188739  1
