# generated using pymatgen
data_Ac2CuSbSe5
_symmetry_space_group_name_H-M   'P 1'
_cell_length_a   12.41115400
_cell_length_b   4.27683800
_cell_length_c   18.14678400
_cell_angle_alpha   90.00000000
_cell_angle_beta   90.00000000
_cell_angle_gamma   90.00000000
_symmetry_Int_Tables_number   1
_chemical_formula_structural   Ac2CuSbSe5
_chemical_formula_sum   'Ac8 Cu4 Sb4 Se20'
_cell_volume   963.24027830
_cell_formula_units_Z   4
loop_
 _symmetry_equiv_pos_site_id
 _symmetry_equiv_pos_as_xyz
  1  'x, y, z'
loop_
 _atom_site_type_symbol
 _atom_site_label
 _atom_site_symmetry_multiplicity
 _atom_site_fract_x
 _atom_site_fract_y
 _atom_site_fract_z
 _atom_site_occupancy
  Ac  Ac0  1  0.365639  0.750000  0.092504  1
  Ac  Ac1  1  0.017697  0.750000  0.174917  1
  Ac  Ac2  1  0.517696  0.750000  0.325083  1
  Ac  Ac3  1  0.865639  0.750000  0.407497  1
  Ac  Ac4  1  0.134361  0.250001  0.592503  1
  Ac  Ac5  1  0.482303  0.250001  0.674917  1
  Ac  Ac6  1  0.982303  0.250001  0.825083  1
  Ac  Ac7  1  0.634361  0.250001  0.907497  1
  Cu  Cu8  1  0.911596  0.750000  0.000415  1
  Cu  Cu9  1  0.411595  0.750000  0.499585  1
  Cu  Cu10  1  0.588405  0.250001  0.500415  1
  Cu  Cu11  1  0.088405  0.250001  0.999585  1
  Sb  Sb12  1  0.692091  0.250001  0.138368  1
  Sb  Sb13  1  0.192091  0.250001  0.361632  1
  Sb  Sb14  1  0.807909  0.750000  0.638368  1
  Sb  Sb15  1  0.307909  0.750000  0.861632  1
  Se  Se16  1  0.608394  0.750000  0.036761  1
  Se  Se17  1  0.900809  0.250001  0.069489  1
  Se  Se18  1  0.183237  0.250001  0.115528  1
  Se  Se19  1  0.480665  0.250001  0.198303  1
  Se  Se20  1  0.757105  0.750000  0.229708  1
  Se  Se21  1  0.257105  0.750000  0.270292  1
  Se  Se22  1  0.980665  0.250001  0.301697  1
  Se  Se23  1  0.683237  0.250001  0.384472  1
  Se  Se24  1  0.400809  0.250001  0.430511  1
  Se  Se25  1  0.108394  0.750000  0.463239  1
  Se  Se26  1  0.891606  0.250001  0.536761  1
  Se  Se27  1  0.599192  0.750000  0.569490  1
  Se  Se28  1  0.316763  0.750000  0.615528  1
  Se  Se29  1  0.019335  0.750000  0.698303  1
  Se  Se30  1  0.742895  0.250001  0.729708  1
  Se  Se31  1  0.242895  0.250001  0.770292  1
  Se  Se32  1  0.519335  0.750000  0.801697  1
  Se  Se33  1  0.816763  0.750000  0.884472  1
  Se  Se34  1  0.099192  0.750000  0.930510  1
  Se  Se35  1  0.391606  0.250001  0.963239  1
