# generated using pymatgen
data_ErCrFe(NiP)3
_symmetry_space_group_name_H-M   'P 1'
_cell_length_a   3.65704200
_cell_length_b   10.34789700
_cell_length_c   11.88483500
_cell_angle_alpha   90.00000000
_cell_angle_beta   90.00000000
_cell_angle_gamma   90.00000000
_symmetry_Int_Tables_number   1
_chemical_formula_structural   ErCrFe(NiP)3
_chemical_formula_sum   'Er4 Cr4 Fe4 Ni12 P12'
_cell_volume   449.75417344
_cell_formula_units_Z   4
loop_
 _symmetry_equiv_pos_site_id
 _symmetry_equiv_pos_as_xyz
  1  'x, y, z'
loop_
 _atom_site_type_symbol
 _atom_site_label
 _atom_site_symmetry_multiplicity
 _atom_site_fract_x
 _atom_site_fract_y
 _atom_site_fract_z
 _atom_site_occupancy
  Er  Er0  1  0.250000  0.581300  0.706029  1
  Er  Er1  1  0.250000  0.918700  0.206029  1
  Er  Er2  1  0.750000  0.418700  0.293971  1
  Er  Er3  1  0.750000  0.081300  0.793971  1
  Cr  Cr4  1  0.250000  0.705630  0.989327  1
  Cr  Cr5  1  0.250000  0.794370  0.489327  1
  Cr  Cr6  1  0.750000  0.294370  0.010673  1
  Cr  Cr7  1  0.750000  0.205630  0.510673  1
  Fe  Fe8  1  0.250000  0.465882  0.932692  1
  Fe  Fe9  1  0.250000  0.034118  0.432692  1
  Fe  Fe10  1  0.750000  0.534118  0.067308  1
  Fe  Fe11  1  0.750000  0.965882  0.567308  1
  Ni  Ni12  1  0.250000  0.407863  0.489476  1
  Ni  Ni13  1  0.250000  0.092138  0.989476  1
  Ni  Ni14  1  0.750000  0.592137  0.510524  1
  Ni  Ni15  1  0.750000  0.907863  0.010524  1
  Ni  Ni16  1  0.250000  0.223201  0.179232  1
  Ni  Ni17  1  0.250000  0.276799  0.679232  1
  Ni  Ni18  1  0.750000  0.776799  0.820768  1
  Ni  Ni19  1  0.750000  0.723201  0.320768  1
  Ni  Ni20  1  0.250000  0.881727  0.701173  1
  Ni  Ni21  1  0.250000  0.618273  0.201173  1
  Ni  Ni22  1  0.750000  0.118273  0.298827  1
  Ni  Ni23  1  0.750000  0.381727  0.798827  1
  P  P24  1  0.250000  0.421170  0.111199  1
  P  P25  1  0.250000  0.078830  0.611199  1
  P  P26  1  0.750000  0.578830  0.888801  1
  P  P27  1  0.750000  0.921170  0.388801  1
  P  P28  1  0.250000  0.266676  0.872211  1
  P  P29  1  0.250000  0.233324  0.372211  1
  P  P30  1  0.750000  0.733324  0.127789  1
  P  P31  1  0.750000  0.766676  0.627789  1
  P  P32  1  0.250000  0.602650  0.391702  1
  P  P33  1  0.250000  0.897350  0.891702  1
  P  P34  1  0.750000  0.397350  0.608298  1
  P  P35  1  0.750000  0.102650  0.108298  1
