# generated using pymatgen
data_CeDy8Th(Al2Ru3)2
_symmetry_space_group_name_H-M   'P 1'
_cell_length_a   8.44790347
_cell_length_b   8.43679432
_cell_length_c   8.33219978
_cell_angle_alpha   110.29388094
_cell_angle_beta   109.26153633
_cell_angle_gamma   109.61321673
_symmetry_Int_Tables_number   1
_chemical_formula_structural   CeDy8Th(Al2Ru3)2
_chemical_formula_sum   'Ce1 Dy8 Th1 Al4 Ru6'
_cell_volume   452.81774883
_cell_formula_units_Z   1
loop_
 _symmetry_equiv_pos_site_id
 _symmetry_equiv_pos_as_xyz
  1  'x, y, z'
loop_
 _atom_site_type_symbol
 _atom_site_label
 _atom_site_symmetry_multiplicity
 _atom_site_fract_x
 _atom_site_fract_y
 _atom_site_fract_z
 _atom_site_occupancy
  Ce  Ce0  1  0.193907  0.943173  0.250213  1
  Dy  Dy1  1  0.780297  0.785274  0.779931  1
  Dy  Dy2  1  0.315683  0.565348  0.750434  1
  Dy  Dy3  1  0.751803  0.317993  0.569020  1
  Dy  Dy4  1  0.568082  0.747599  0.314891  1
  Dy  Dy5  1  0.717082  0.502526  0.996879  1
  Dy  Dy6  1  0.000579  0.720163  0.504294  1
  Dy  Dy7  1  0.499998  0.993717  0.714007  1
  Dy  Dy8  1  0.253685  0.187769  0.932442  1
  Th  Th9  1  0.940098  0.251461  0.191804  1
  Al  Al10  1  0.417929  0.411527  0.408110  1
  Al  Al11  1  0.095397  0.498548  0.000488  1
  Al  Al12  1  0.994349  0.089488  0.502112  1
  Al  Al13  1  0.500130  0.004155  0.092799  1
  Ru  Ru14  1  0.872120  0.123624  0.751653  1
  Ru  Ru15  1  0.747106  0.887360  0.120630  1
  Ru  Ru16  1  0.127875  0.763796  0.907468  1
  Ru  Ru17  1  0.239276  0.607151  0.372210  1
  Ru  Ru18  1  0.354315  0.220846  0.591928  1
  Ru  Ru19  1  0.630287  0.378482  0.248690  1
