# generated using pymatgen
data_P2Pt(O3F)2
_symmetry_space_group_name_H-M   'P 1'
_cell_length_a   4.91327200
_cell_length_b   4.91327111
_cell_length_c   6.98998300
_cell_angle_alpha   90.00000000
_cell_angle_beta   90.00000000
_cell_angle_gamma   120.00000226
_symmetry_Int_Tables_number   1
_chemical_formula_structural   P2Pt(O3F)2
_chemical_formula_sum   'P2 Pt1 O6 F2'
_cell_volume   146.13299241
_cell_formula_units_Z   1
loop_
 _symmetry_equiv_pos_site_id
 _symmetry_equiv_pos_as_xyz
  1  'x, y, z'
loop_
 _atom_site_type_symbol
 _atom_site_label
 _atom_site_symmetry_multiplicity
 _atom_site_fract_x
 _atom_site_fract_y
 _atom_site_fract_z
 _atom_site_occupancy
  P  P0  1  0.333333  0.666666  0.225777  1
  P  P1  1  0.666667  0.333334  0.774223  1
  Pt  Pt2  1  0.000000  0.000000  0.000000  1
  O  O3  1  0.303489  0.349423  0.172372  1
  O  O4  1  0.045932  0.696511  0.172372  1
  O  O5  1  0.650578  0.954068  0.172372  1
  O  O6  1  0.349423  0.045932  0.827628  1
  O  O7  1  0.954068  0.303489  0.827628  1
  O  O8  1  0.696511  0.650577  0.827628  1
  F  F9  1  0.666667  0.333334  0.550825  1
  F  F10  1  0.333333  0.666666  0.449175  1
