# generated using pymatgen
data_Ce2AlGaCo2
_symmetry_space_group_name_H-M   'P 1'
_cell_length_a   5.92723798
_cell_length_b   5.92723691
_cell_length_c   4.71902829
_cell_angle_alpha   75.56363048
_cell_angle_beta   75.56363115
_cell_angle_gamma   43.67739530
_symmetry_Int_Tables_number   1
_chemical_formula_structural   Ce2AlGaCo2
_chemical_formula_sum   'Ce2 Al1 Ga1 Co2'
_cell_volume   110.28702779
_cell_formula_units_Z   1
loop_
 _symmetry_equiv_pos_site_id
 _symmetry_equiv_pos_as_xyz
  1  'x, y, z'
loop_
 _atom_site_type_symbol
 _atom_site_label
 _atom_site_symmetry_multiplicity
 _atom_site_fract_x
 _atom_site_fract_y
 _atom_site_fract_z
 _atom_site_occupancy
  Ce  Ce0  1  0.870353  0.870353  0.328777  1
  Ce  Ce1  1  0.131289  0.131289  0.667616  1
  Al  Al2  1  0.413565  0.413565  0.816288  1
  Ga  Ga3  1  0.583189  0.583189  0.186745  1
  Co  Co4  1  0.191371  0.191371  0.155258  1
  Co  Co5  1  0.810233  0.810233  0.845316  1
