# generated using pymatgen
data_YHf(Mn2P)4
_symmetry_space_group_name_H-M   'P 1'
_cell_length_a   3.67556300
_cell_length_b   6.92269509
_cell_length_c   6.92269466
_cell_angle_alpha   89.12624493
_cell_angle_beta   90.00000000
_cell_angle_gamma   90.00000000
_symmetry_Int_Tables_number   1
_chemical_formula_structural   YHf(Mn2P)4
_chemical_formula_sum   'Y1 Hf1 Mn8 P4'
_cell_volume   176.12611265
_cell_formula_units_Z   1
loop_
 _symmetry_equiv_pos_site_id
 _symmetry_equiv_pos_as_xyz
  1  'x, y, z'
loop_
 _atom_site_type_symbol
 _atom_site_label
 _atom_site_symmetry_multiplicity
 _atom_site_fract_x
 _atom_site_fract_y
 _atom_site_fract_z
 _atom_site_occupancy
  Y  Y0  1  0.000000  0.500000  0.500000  1
  Hf  Hf1  1  0.500000  0.000000  0.000000  1
  Mn  Mn2  1  0.500000  0.149951  0.587318  1
  Mn  Mn3  1  0.500000  0.850049  0.412682  1
  Mn  Mn4  1  0.000000  0.341698  0.080521  1
  Mn  Mn5  1  0.000000  0.658302  0.919479  1
  Mn  Mn6  1  0.500000  0.587318  0.149951  1
  Mn  Mn7  1  0.500000  0.412682  0.850049  1
  Mn  Mn8  1  0.000000  0.080521  0.341698  1
  Mn  Mn9  1  0.000000  0.919479  0.658302  1
  P  P10  1  0.500000  0.719548  0.719548  1
  P  P11  1  0.500000  0.280452  0.280452  1
  P  P12  1  0.000000  0.788576  0.211424  1
  P  P13  1  0.000000  0.211424  0.788576  1
