# generated using pymatgen
data_Tm5ScFe3Si6Ru
_symmetry_space_group_name_H-M   'P 1'
_cell_length_a   5.57869265
_cell_length_b   5.57869495
_cell_length_c   13.35805652
_cell_angle_alpha   89.88322629
_cell_angle_beta   90.11677488
_cell_angle_gamma   137.20410678
_symmetry_Int_Tables_number   1
_chemical_formula_structural   Tm5ScFe3Si6Ru
_chemical_formula_sum   'Tm5 Sc1 Fe3 Si6 Ru1'
_cell_volume   282.43961585
_cell_formula_units_Z   1
loop_
 _symmetry_equiv_pos_site_id
 _symmetry_equiv_pos_as_xyz
  1  'x, y, z'
loop_
 _atom_site_type_symbol
 _atom_site_label
 _atom_site_symmetry_multiplicity
 _atom_site_fract_x
 _atom_site_fract_y
 _atom_site_fract_z
 _atom_site_occupancy
  Tm  Tm0  1  0.363047  0.636953  0.750638  1
  Tm  Tm1  1  0.921054  0.078946  0.115504  1
  Tm  Tm2  1  0.078916  0.921084  0.891756  1
  Tm  Tm3  1  0.079950  0.920050  0.611757  1
  Tm  Tm4  1  0.924047  0.075953  0.380723  1
  Sc  Sc5  1  0.644591  0.355409  0.248919  1
  Fe  Fe6  1  0.212979  0.787021  0.415507  1
  Fe  Fe7  1  0.213012  0.786988  0.083940  1
  Fe  Fe8  1  0.784361  0.215639  0.922379  1
  Si  Si9  1  0.318846  0.681154  0.249355  1
  Si  Si10  1  0.671716  0.328284  0.755062  1
  Si  Si11  1  0.623203  0.376797  0.044583  1
  Si  Si12  1  0.375204  0.624796  0.963308  1
  Si  Si13  1  0.383291  0.616709  0.532516  1
  Si  Si14  1  0.619598  0.380402  0.452937  1
  Ru  Ru15  1  0.786185  0.213815  0.581113  1
