# generated using pymatgen
data_Er4Al4IrPd3
_symmetry_space_group_name_H-M   'P 1'
_cell_length_a   4.40522900
_cell_length_b   6.81269709
_cell_length_c   7.79716110
_cell_angle_alpha   89.98166546
_cell_angle_beta   89.99986893
_cell_angle_gamma   90.00122523
_symmetry_Int_Tables_number   1
_chemical_formula_structural   Er4Al4IrPd3
_chemical_formula_sum   'Er4 Al4 Ir1 Pd3'
_cell_volume   234.00441642
_cell_formula_units_Z   1
loop_
 _symmetry_equiv_pos_site_id
 _symmetry_equiv_pos_as_xyz
  1  'x, y, z'
loop_
 _atom_site_type_symbol
 _atom_site_label
 _atom_site_symmetry_multiplicity
 _atom_site_fract_x
 _atom_site_fract_y
 _atom_site_fract_z
 _atom_site_occupancy
  Er  Er0  1  0.249995  0.036036  0.323284  1
  Er  Er1  1  0.249988  0.532430  0.179315  1
  Er  Er2  1  0.749998  0.975915  0.678438  1
  Er  Er3  1  0.750001  0.462971  0.817894  1
  Al  Al4  1  0.250001  0.144788  0.936990  1
  Al  Al5  1  0.250002  0.638716  0.561133  1
  Al  Al6  1  0.750002  0.856713  0.059479  1
  Al  Al7  1  0.750002  0.355348  0.441896  1
  Ir  Ir8  1  0.250002  0.267450  0.621503  1
  Pd  Pd9  1  0.250013  0.770463  0.879839  1
  Pd  Pd10  1  0.750004  0.729740  0.378208  1
  Pd  Pd11  1  0.749993  0.229430  0.122022  1
