# generated using pymatgen
data_Mg2TaNb3(CoSb)6
_symmetry_space_group_name_H-M   'P 1'
_cell_length_a   7.33215315
_cell_length_b   7.33570944
_cell_length_c   7.33792908
_cell_angle_alpha   119.97757421
_cell_angle_beta   99.61467564
_cell_angle_gamma   99.59377168
_symmetry_Int_Tables_number   1
_chemical_formula_structural   Mg2TaNb3(CoSb)6
_chemical_formula_sum   'Mg2 Ta1 Nb3 Co6 Sb6'
_cell_volume   322.30058058
_cell_formula_units_Z   1
loop_
 _symmetry_equiv_pos_site_id
 _symmetry_equiv_pos_as_xyz
  1  'x, y, z'
loop_
 _atom_site_type_symbol
 _atom_site_label
 _atom_site_symmetry_multiplicity
 _atom_site_fract_x
 _atom_site_fract_y
 _atom_site_fract_z
 _atom_site_occupancy
  Mg  Mg0  1  0.004115  0.836870  0.667271  1
  Mg  Mg1  1  0.504083  0.667255  0.836861  1
  Ta  Ta2  1  0.498276  0.002180  0.500034  1
  Nb  Nb3  1  0.998210  0.500363  0.002236  1
  Nb  Nb4  1  0.498401  0.329712  0.163089  1
  Nb  Nb5  1  0.998266  0.163021  0.329552  1
  Co  Co6  1  0.368463  0.622666  0.139539  1
  Co  Co7  1  0.867593  0.441396  0.274639  1
  Co  Co8  1  0.368105  0.273979  0.441673  1
  Co  Co9  1  0.866832  0.138019  0.621107  1
  Co  Co10  1  0.388851  0.979893  0.793795  1
  Co  Co11  1  0.888616  0.794454  0.980036  1
  Sb  Sb12  1  0.254530  0.909444  0.072136  1
  Sb  Sb13  1  0.746955  0.749465  0.254524  1
  Sb  Sb14  1  0.248631  0.586908  0.428135  1
  Sb  Sb15  1  0.748439  0.428003  0.586680  1
  Sb  Sb16  1  0.247205  0.254360  0.749354  1
  Sb  Sb17  1  0.754429  0.072009  0.909334  1
