# generated using pymatgen
data_Tm3ScFeCo7P6
_symmetry_space_group_name_H-M   'P 1'
_cell_length_a   3.71620400
_cell_length_b   10.65490000
_cell_length_c   12.22106600
_cell_angle_alpha   90.00000000
_cell_angle_beta   90.00000000
_cell_angle_gamma   90.00000000
_symmetry_Int_Tables_number   1
_chemical_formula_structural   Tm3ScFeCo7P6
_chemical_formula_sum   'Tm6 Sc2 Fe2 Co14 P12'
_cell_volume   483.90266514
_cell_formula_units_Z   2
loop_
 _symmetry_equiv_pos_site_id
 _symmetry_equiv_pos_as_xyz
  1  'x, y, z'
loop_
 _atom_site_type_symbol
 _atom_site_label
 _atom_site_symmetry_multiplicity
 _atom_site_fract_x
 _atom_site_fract_y
 _atom_site_fract_z
 _atom_site_occupancy
  Tm  Tm0  1  0.000000  0.500000  0.529196  1
  Tm  Tm1  1  0.500000  0.000000  0.470804  1
  Tm  Tm2  1  0.500000  0.823709  0.205190  1
  Tm  Tm3  1  0.500000  0.176291  0.205190  1
  Tm  Tm4  1  0.000000  0.676291  0.794810  1
  Tm  Tm5  1  0.000000  0.323709  0.794810  1
  Sc  Sc6  1  0.500000  0.500000  0.157054  1
  Sc  Sc7  1  0.000000  0.000000  0.842946  1
  Fe  Fe8  1  0.000000  0.500000  0.987559  1
  Fe  Fe9  1  0.500000  0.000000  0.012441  1
  Co  Co10  1  0.500000  0.500000  0.704865  1
  Co  Co11  1  0.000000  0.000000  0.295135  1
  Co  Co12  1  0.500000  0.330144  0.994957  1
  Co  Co13  1  0.500000  0.669856  0.994957  1
  Co  Co14  1  0.000000  0.169856  0.005043  1
  Co  Co15  1  0.000000  0.830144  0.005043  1
  Co  Co16  1  0.500000  0.295844  0.433037  1
  Co  Co17  1  0.500000  0.704156  0.433037  1
  Co  Co18  1  0.000000  0.204156  0.566963  1
  Co  Co19  1  0.000000  0.795844  0.566963  1
  Co  Co20  1  0.500000  0.877635  0.701626  1
  Co  Co21  1  0.500000  0.122365  0.701626  1
  Co  Co22  1  0.000000  0.622365  0.298374  1
  Co  Co23  1  0.000000  0.377635  0.298374  1
  P  P24  1  0.500000  0.500000  0.887620  1
  P  P25  1  0.000000  0.000000  0.112380  1
  P  P26  1  0.500000  0.500000  0.361635  1
  P  P27  1  0.000000  0.000000  0.638365  1
  P  P28  1  0.500000  0.310315  0.616708  1
  P  P29  1  0.500000  0.689685  0.616708  1
  P  P30  1  0.000000  0.189685  0.383292  1
  P  P31  1  0.000000  0.810315  0.383292  1
  P  P32  1  0.500000  0.839574  0.893277  1
  P  P33  1  0.500000  0.160426  0.893277  1
  P  P34  1  0.000000  0.660426  0.106723  1
  P  P35  1  0.000000  0.339574  0.106723  1
