# generated using pymatgen
data_Er3GeP2Ru3
_symmetry_space_group_name_H-M   'P 1'
_cell_length_a   6.86498500
_cell_length_b   6.86498390
_cell_length_c   3.80767000
_cell_angle_alpha   90.00000000
_cell_angle_beta   90.00000000
_cell_angle_gamma   119.99999085
_symmetry_Int_Tables_number   1
_chemical_formula_structural   Er3GeP2Ru3
_chemical_formula_sum   'Er3 Ge1 P2 Ru3'
_cell_volume   155.40646779
_cell_formula_units_Z   1
loop_
 _symmetry_equiv_pos_site_id
 _symmetry_equiv_pos_as_xyz
  1  'x, y, z'
loop_
 _atom_site_type_symbol
 _atom_site_label
 _atom_site_symmetry_multiplicity
 _atom_site_fract_x
 _atom_site_fract_y
 _atom_site_fract_z
 _atom_site_occupancy
  Er  Er0  1  0.414344  0.414344  0.500000  1
  Er  Er1  1  0.585656  0.000000  0.500000  1
  Er  Er2  1  0.000000  0.585656  0.500000  1
  Ge  Ge3  1  0.000000  0.000000  0.500000  1
  P  P4  1  0.666667  0.333333  0.000000  1
  P  P5  1  0.333333  0.666667  0.000000  1
  Ru  Ru6  1  0.000000  0.246332  0.000000  1
  Ru  Ru7  1  0.246332  0.000000  0.000000  1
  Ru  Ru8  1  0.753668  0.753668  0.000000  1
