# generated using pymatgen
data_Tm3ZnCd3Hg2
_symmetry_space_group_name_H-M   'P 1'
_cell_length_a   3.81007200
_cell_length_b   7.92147784
_cell_length_c   7.92147800
_cell_angle_alpha   120.00000066
_cell_angle_beta   90.00000000
_cell_angle_gamma   90.00000000
_symmetry_Int_Tables_number   1
_chemical_formula_structural   Tm3ZnCd3Hg2
_chemical_formula_sum   'Tm3 Zn1 Cd3 Hg2'
_cell_volume   207.05048093
_cell_formula_units_Z   1
loop_
 _symmetry_equiv_pos_site_id
 _symmetry_equiv_pos_as_xyz
  1  'x, y, z'
loop_
 _atom_site_type_symbol
 _atom_site_label
 _atom_site_symmetry_multiplicity
 _atom_site_fract_x
 _atom_site_fract_y
 _atom_site_fract_z
 _atom_site_occupancy
  Tm  Tm0  1  0.000000  0.401390  0.401390  1
  Tm  Tm1  1  0.000000  0.000000  0.598610  1
  Tm  Tm2  1  0.000000  0.598610  0.000000  1
  Zn  Zn3  1  0.000000  0.000000  0.000000  1
  Cd  Cd4  1  0.500000  0.743710  0.743710  1
  Cd  Cd5  1  0.500000  0.000000  0.256290  1
  Cd  Cd6  1  0.500000  0.256290  0.000000  1
  Hg  Hg7  1  0.500000  0.666667  0.333333  1
  Hg  Hg8  1  0.500000  0.333333  0.666667  1
