# generated using pymatgen
data_Ac2Tb(MgIr)3
_symmetry_space_group_name_H-M   'P 1'
_cell_length_a   7.55665007
_cell_length_b   7.55665085
_cell_length_c   4.24288600
_cell_angle_alpha   90.00000000
_cell_angle_beta   90.00000000
_cell_angle_gamma   120.50048795
_symmetry_Int_Tables_number   1
_chemical_formula_structural   Ac2Tb(MgIr)3
_chemical_formula_sum   'Ac2 Tb1 Mg3 Ir3'
_cell_volume   208.75565109
_cell_formula_units_Z   1
loop_
 _symmetry_equiv_pos_site_id
 _symmetry_equiv_pos_as_xyz
  1  'x, y, z'
loop_
 _atom_site_type_symbol
 _atom_site_label
 _atom_site_symmetry_multiplicity
 _atom_site_fract_x
 _atom_site_fract_y
 _atom_site_fract_z
 _atom_site_occupancy
  Ac  Ac0  1  0.417592  0.001667  0.500000  1
  Ac  Ac1  1  0.001667  0.417593  0.500000  1
  Tb  Tb2  1  0.592733  0.592732  0.500000  1
  Mg  Mg3  1  0.761520  0.989145  0.000000  1
  Mg  Mg4  1  0.243386  0.243386  0.000000  1
  Mg  Mg5  1  0.989145  0.761521  0.000000  1
  Ir  Ir6  1  0.659038  0.345323  0.000000  1
  Ir  Ir7  1  0.345323  0.659039  0.000000  1
  Ir  Ir8  1  0.989594  0.989594  0.500000  1
