# generated using pymatgen
data_CeNi3BIr
_symmetry_space_group_name_H-M   'P 1'
_cell_length_a   5.16614300
_cell_length_b   5.16614319
_cell_length_c   7.09487500
_cell_angle_alpha   90.00000000
_cell_angle_beta   90.00000000
_cell_angle_gamma   122.06504867
_symmetry_Int_Tables_number   1
_chemical_formula_structural   CeNi3BIr
_chemical_formula_sum   'Ce2 Ni6 B2 Ir2'
_cell_volume   160.46843138
_cell_formula_units_Z   2
loop_
 _symmetry_equiv_pos_site_id
 _symmetry_equiv_pos_as_xyz
  1  'x, y, z'
loop_
 _atom_site_type_symbol
 _atom_site_label
 _atom_site_symmetry_multiplicity
 _atom_site_fract_x
 _atom_site_fract_y
 _atom_site_fract_z
 _atom_site_occupancy
  Ce  Ce0  1  0.000000  0.000000  0.500000  1
  Ce  Ce1  1  0.000000  0.000000  0.000000  1
  Ni  Ni2  1  0.328129  0.671871  0.000000  1
  Ni  Ni3  1  0.671871  0.328129  0.000000  1
  Ni  Ni4  1  0.500000  0.000000  0.290889  1
  Ni  Ni5  1  0.000000  0.500000  0.290889  1
  Ni  Ni6  1  0.500000  0.000000  0.709111  1
  Ni  Ni7  1  0.000000  0.500000  0.709111  1
  B  B8  1  0.674453  0.325547  0.500000  1
  B  B9  1  0.325547  0.674453  0.500000  1
  Ir  Ir10  1  0.500000  0.500000  0.287726  1
  Ir  Ir11  1  0.500000  0.500000  0.712274  1
