# generated using pymatgen
data_Yb2Pr(GaIr)2
_symmetry_space_group_name_H-M   'P 1'
_cell_length_a   5.78351100
_cell_length_b   7.81004300
_cell_length_c   13.74313900
_cell_angle_alpha   90.00000000
_cell_angle_beta   90.00000000
_cell_angle_gamma   90.00000000
_symmetry_Int_Tables_number   1
_chemical_formula_structural   Yb2Pr(GaIr)2
_chemical_formula_sum   'Yb8 Pr4 Ga8 Ir8'
_cell_volume   620.77029928
_cell_formula_units_Z   4
loop_
 _symmetry_equiv_pos_site_id
 _symmetry_equiv_pos_as_xyz
  1  'x, y, z'
loop_
 _atom_site_type_symbol
 _atom_site_label
 _atom_site_symmetry_multiplicity
 _atom_site_fract_x
 _atom_site_fract_y
 _atom_site_fract_z
 _atom_site_occupancy
  Yb  Yb0  1  0.143490  0.894854  0.592694  1
  Yb  Yb1  1  0.856510  0.105146  0.092694  1
  Yb  Yb2  1  0.143490  0.605146  0.407306  1
  Yb  Yb3  1  0.856510  0.394854  0.907306  1
  Yb  Yb4  1  0.856510  0.105146  0.407306  1
  Yb  Yb5  1  0.143490  0.894854  0.907306  1
  Yb  Yb6  1  0.856510  0.394854  0.592694  1
  Yb  Yb7  1  0.143490  0.605146  0.092694  1
  Pr  Pr8  1  0.385393  0.249774  0.750000  1
  Pr  Pr9  1  0.614607  0.750226  0.250000  1
  Pr  Pr10  1  0.385393  0.250226  0.250000  1
  Pr  Pr11  1  0.614607  0.749774  0.750000  1
  Ga  Ga12  1  0.879489  0.098159  0.750000  1
  Ga  Ga13  1  0.120511  0.901841  0.250000  1
  Ga  Ga14  1  0.879489  0.401841  0.250000  1
  Ga  Ga15  1  0.120511  0.598159  0.750000  1
  Ga  Ga16  1  0.384950  0.250000  0.500000  1
  Ga  Ga17  1  0.615050  0.750000  0.000000  1
  Ga  Ga18  1  0.615050  0.750000  0.500000  1
  Ga  Ga19  1  0.384950  0.250000  0.000000  1
  Ir  Ir20  1  0.643162  0.031174  0.594995  1
  Ir  Ir21  1  0.356838  0.968826  0.094995  1
  Ir  Ir22  1  0.643162  0.468826  0.405005  1
  Ir  Ir23  1  0.356838  0.531174  0.905005  1
  Ir  Ir24  1  0.356838  0.968826  0.405005  1
  Ir  Ir25  1  0.643162  0.031174  0.905005  1
  Ir  Ir26  1  0.356838  0.531174  0.594995  1
  Ir  Ir27  1  0.643162  0.468826  0.094995  1
