# generated using pymatgen
data_ErSc3OsI4
_symmetry_space_group_name_H-M   'P 1'
_cell_length_a   11.46176335
_cell_length_b   11.23350018
_cell_length_c   5.87215543
_cell_angle_alpha   90.27239213
_cell_angle_beta   89.36785239
_cell_angle_gamma   89.54175377
_symmetry_Int_Tables_number   1
_chemical_formula_structural   ErSc3OsI4
_chemical_formula_sum   'Er2 Sc6 Os2 I8'
_cell_volume   755.99454196
_cell_formula_units_Z   2
loop_
 _symmetry_equiv_pos_site_id
 _symmetry_equiv_pos_as_xyz
  1  'x, y, z'
loop_
 _atom_site_type_symbol
 _atom_site_label
 _atom_site_symmetry_multiplicity
 _atom_site_fract_x
 _atom_site_fract_y
 _atom_site_fract_z
 _atom_site_occupancy
  Er  Er0  1  0.079545  0.199111  0.000959  1
  Er  Er1  1  0.920455  0.800889  0.999041  1
  Sc  Sc2  1  0.183745  0.922237  0.995351  1
  Sc  Sc3  1  0.816255  0.077763  0.004649  1
  Sc  Sc4  1  0.078493  0.814304  0.495915  1
  Sc  Sc5  1  0.921507  0.185696  0.504085  1
  Sc  Sc6  1  0.817394  0.924524  0.503803  1
  Sc  Sc7  1  0.182606  0.075476  0.496197  1
  Os  Os8  1  0.999839  0.999868  0.251510  1
  Os  Os9  1  0.000161  0.000132  0.748490  1
  I  I10  1  0.336420  0.858457  0.500181  1
  I  I11  1  0.663580  0.141543  0.499819  1
  I  I12  1  0.152325  0.655041  0.001083  1
  I  I13  1  0.847675  0.344959  0.998917  1
  I  I14  1  0.343462  0.134783  0.007468  1
  I  I15  1  0.656538  0.865217  0.992532  1
  I  I16  1  0.862027  0.655219  0.506411  1
  I  I17  1  0.137973  0.344781  0.493589  1
