# generated using pymatgen
data_YbLu11(Si3Ir)4
_symmetry_space_group_name_H-M   'P 1'
_cell_length_a   4.19313300
_cell_length_b   10.43817506
_cell_length_c   12.07757949
_cell_angle_alpha   89.75955516
_cell_angle_beta   90.00000000
_cell_angle_gamma   90.00000000
_symmetry_Int_Tables_number   1
_chemical_formula_structural   YbLu11(Si3Ir)4
_chemical_formula_sum   'Yb1 Lu11 Si12 Ir4'
_cell_volume   528.61477105
_cell_formula_units_Z   1
loop_
 _symmetry_equiv_pos_site_id
 _symmetry_equiv_pos_as_xyz
  1  'x, y, z'
loop_
 _atom_site_type_symbol
 _atom_site_label
 _atom_site_symmetry_multiplicity
 _atom_site_fract_x
 _atom_site_fract_y
 _atom_site_fract_z
 _atom_site_occupancy
  Yb  Yb0  1  0.250000  0.880868  0.020756  1
  Lu  Lu1  1  0.250000  0.619992  0.519705  1
  Lu  Lu2  1  0.750000  0.116799  0.978816  1
  Lu  Lu3  1  0.750000  0.379649  0.480548  1
  Lu  Lu4  1  0.250000  0.919245  0.602145  1
  Lu  Lu5  1  0.250000  0.580360  0.103001  1
  Lu  Lu6  1  0.750000  0.081366  0.398541  1
  Lu  Lu7  1  0.750000  0.419080  0.896620  1
  Lu  Lu8  1  0.250000  0.662149  0.799855  1
  Lu  Lu9  1  0.250000  0.841531  0.298793  1
  Lu  Lu10  1  0.750000  0.339516  0.199993  1
  Lu  Lu11  1  0.750000  0.159767  0.700313  1
  Si  Si12  1  0.250000  0.011309  0.817574  1
  Si  Si13  1  0.250000  0.487837  0.320860  1
  Si  Si14  1  0.750000  0.990683  0.182683  1
  Si  Si15  1  0.750000  0.512233  0.679224  1
  Si  Si16  1  0.250000  0.247063  0.841962  1
  Si  Si17  1  0.250000  0.253223  0.343213  1
  Si  Si18  1  0.750000  0.750327  0.159260  1
  Si  Si19  1  0.750000  0.747071  0.656674  1
  Si  Si20  1  0.250000  0.197900  0.545394  1
  Si  Si21  1  0.250000  0.299723  0.044369  1
  Si  Si22  1  0.750000  0.802409  0.454588  1
  Si  Si23  1  0.750000  0.695927  0.954945  1
  Ir  Ir24  1  0.250000  0.391150  0.678982  1
  Ir  Ir25  1  0.250000  0.112746  0.182194  1
  Ir  Ir26  1  0.750000  0.608302  0.322956  1
  Ir  Ir27  1  0.750000  0.891775  0.816035  1
