# generated using pymatgen
data_Ca3Eu3(C3Cl2)2
_symmetry_space_group_name_H-M   'P 1'
_cell_length_a   7.19923395
_cell_length_b   7.19923407
_cell_length_c   11.59607850
_cell_angle_alpha   89.37484792
_cell_angle_beta   90.62515332
_cell_angle_gamma   148.25176571
_symmetry_Int_Tables_number   1
_chemical_formula_structural   Ca3Eu3(C3Cl2)2
_chemical_formula_sum   'Ca3 Eu3 C6 Cl4'
_cell_volume   316.22521182
_cell_formula_units_Z   1
loop_
 _symmetry_equiv_pos_site_id
 _symmetry_equiv_pos_as_xyz
  1  'x, y, z'
loop_
 _atom_site_type_symbol
 _atom_site_label
 _atom_site_symmetry_multiplicity
 _atom_site_fract_x
 _atom_site_fract_y
 _atom_site_fract_z
 _atom_site_occupancy
  Ca  Ca0  1  0.343269  0.656731  0.439124  1
  Ca  Ca1  1  0.341605  0.658395  0.059955  1
  Ca  Ca2  1  0.658346  0.341654  0.940213  1
  Eu  Eu3  1  0.657698  0.342302  0.559743  1
  Eu  Eu4  1  0.121065  0.878935  0.248914  1
  Eu  Eu5  1  0.879192  0.120808  0.752514  1
  C  C6  1  0.268778  0.731222  0.635310  1
  C  C7  1  0.735384  0.264616  0.362540  1
  C  C8  1  0.734640  0.265360  0.133204  1
  C  C9  1  0.265237  0.734763  0.864856  1
  C  C10  1  0.745182  0.254818  0.247950  1
  C  C11  1  0.256500  0.743500  0.749792  1
  Cl  Cl12  1  0.531633  0.468367  0.754727  1
  Cl  Cl13  1  0.465758  0.534242  0.250080  1
  Cl  Cl14  1  0.999926  0.000074  0.001011  1
  Cl  Cl15  1  0.995786  0.004214  0.500067  1
