# generated using pymatgen
data_La7Pr9(DyIr3)4
_symmetry_space_group_name_H-M   'P 1'
_cell_length_a   11.30883332
_cell_length_b   11.31495346
_cell_length_c   6.58253244
_cell_angle_alpha   89.90155914
_cell_angle_beta   89.99696341
_cell_angle_gamma   90.08765518
_symmetry_Int_Tables_number   1
_chemical_formula_structural   La7Pr9(DyIr3)4
_chemical_formula_sum   'La7 Pr9 Dy4 Ir12'
_cell_volume   842.29152975
_cell_formula_units_Z   1
loop_
 _symmetry_equiv_pos_site_id
 _symmetry_equiv_pos_as_xyz
  1  'x, y, z'
loop_
 _atom_site_type_symbol
 _atom_site_label
 _atom_site_symmetry_multiplicity
 _atom_site_fract_x
 _atom_site_fract_y
 _atom_site_fract_z
 _atom_site_occupancy
  La  La0  1  0.288142  0.089810  0.384885  1
  La  La1  1  0.288172  0.911817  0.885193  1
  La  La2  1  0.711420  0.089243  0.885223  1
  La  La3  1  0.712355  0.910568  0.384984  1
  La  La4  1  0.589154  0.787764  0.884882  1
  La  La5  1  0.588458  0.212187  0.384895  1
  La  La6  1  0.410826  0.787535  0.384868  1
  Pr  Pr7  1  0.411056  0.212423  0.883462  1
  Pr  Pr8  1  0.210858  0.412608  0.616301  1
  Pr  Pr9  1  0.210440  0.586864  0.115987  1
  Pr  Pr10  1  0.789514  0.412932  0.115373  1
  Pr  Pr11  1  0.789474  0.587055  0.615387  1
  Pr  Pr12  1  0.912842  0.710481  0.115614  1
  Pr  Pr13  1  0.912907  0.289567  0.615611  1
  Pr  Pr14  1  0.087166  0.710464  0.615660  1
  Pr  Pr15  1  0.087540  0.289392  0.115162  1
  Dy  Dy16  1  0.999960  0.000037  0.500185  1
  Dy  Dy17  1  0.999942  0.000251  0.000230  1
  Dy  Dy18  1  0.499567  0.499300  0.000234  1
  Dy  Dy19  1  0.500127  0.499842  0.500879  1
  Ir  Ir20  1  0.850930  0.147466  0.248475  1
  Ir  Ir21  1  0.851113  0.852456  0.748795  1
  Ir  Ir22  1  0.148987  0.147376  0.748239  1
  Ir  Ir23  1  0.149214  0.852707  0.248539  1
  Ir  Ir24  1  0.647302  0.350819  0.748892  1
  Ir  Ir25  1  0.647481  0.648896  0.248304  1
  Ir  Ir26  1  0.352311  0.351887  0.250190  1
  Ir  Ir27  1  0.352556  0.649011  0.748832  1
  Ir  Ir28  1  0.499929  0.999945  0.120709  1
  Ir  Ir29  1  0.500275  0.999296  0.619350  1
  Ir  Ir30  1  0.000142  0.499902  0.882486  1
  Ir  Ir31  1  0.999839  0.500099  0.382174  1
