# generated using pymatgen
data_Dy3Y2Bi3C
_symmetry_space_group_name_H-M   'P 1'
_cell_length_a   9.14535600
_cell_length_b   9.14535774
_cell_length_c   6.51545100
_cell_angle_alpha   90.00010177
_cell_angle_beta   90.00010530
_cell_angle_gamma   119.99534643
_symmetry_Int_Tables_number   1
_chemical_formula_structural   Dy3Y2Bi3C
_chemical_formula_sum   'Dy6 Y4 Bi6 C2'
_cell_volume   471.95087125
_cell_formula_units_Z   2
loop_
 _symmetry_equiv_pos_site_id
 _symmetry_equiv_pos_as_xyz
  1  'x, y, z'
loop_
 _atom_site_type_symbol
 _atom_site_label
 _atom_site_symmetry_multiplicity
 _atom_site_fract_x
 _atom_site_fract_y
 _atom_site_fract_z
 _atom_site_occupancy
  Dy  Dy0  1  0.791824  0.791824  0.249998  1
  Dy  Dy1  1  0.207986  0.999898  0.250000  1
  Dy  Dy2  1  0.999898  0.207986  0.250000  1
  Dy  Dy3  1  0.208178  0.208178  0.749998  1
  Dy  Dy4  1  0.792014  0.000103  0.749999  1
  Dy  Dy5  1  0.000103  0.792014  0.749999  1
  Y  Y6  1  0.666603  0.333397  0.500000  1
  Y  Y7  1  0.333397  0.666603  0.500000  1
  Y  Y8  1  0.333397  0.666603  0.000001  1
  Y  Y9  1  0.666603  0.333397  0.000001  1
  Bi  Bi10  1  0.402049  0.402049  0.250000  1
  Bi  Bi11  1  0.597671  0.000046  0.250003  1
  Bi  Bi12  1  0.000046  0.597671  0.250003  1
  Bi  Bi13  1  0.597951  0.597951  0.750000  1
  Bi  Bi14  1  0.402329  0.999954  0.750003  1
  Bi  Bi15  1  0.999954  0.402329  0.750003  1
  C  C16  1  0.000000  0.000000  0.499996  1
  C  C17  1  0.999999  0.999999  0.999992  1
