# generated using pymatgen
data_NdPa(AlAu)4
_symmetry_space_group_name_H-M   'P 1'
_cell_length_a   4.38205800
_cell_length_b   4.38205800
_cell_length_c   10.48646700
_cell_angle_alpha   90.00000000
_cell_angle_beta   90.00000000
_cell_angle_gamma   90.00000000
_symmetry_Int_Tables_number   1
_chemical_formula_structural   NdPa(AlAu)4
_chemical_formula_sum   'Nd1 Pa1 Al4 Au4'
_cell_volume   201.36567279
_cell_formula_units_Z   1
loop_
 _symmetry_equiv_pos_site_id
 _symmetry_equiv_pos_as_xyz
  1  'x, y, z'
loop_
 _atom_site_type_symbol
 _atom_site_label
 _atom_site_symmetry_multiplicity
 _atom_site_fract_x
 _atom_site_fract_y
 _atom_site_fract_z
 _atom_site_occupancy
  Nd  Nd0  1  0.500000  0.000000  0.754748  1
  Pa  Pa1  1  0.000000  0.500000  0.248261  1
  Al  Al2  1  0.000000  0.000000  0.495836  1
  Al  Al3  1  0.500000  0.500000  0.495836  1
  Al  Al4  1  0.000000  0.500000  0.867028  1
  Al  Al5  1  0.500000  0.000000  0.132895  1
  Au  Au6  1  0.000000  0.000000  0.005518  1
  Au  Au7  1  0.500000  0.500000  0.005519  1
  Au  Au8  1  0.000000  0.500000  0.627401  1
  Au  Au9  1  0.500000  0.000000  0.366958  1
