# generated using pymatgen
data_LuPa(Al3Co)3
_symmetry_space_group_name_H-M   'P 1'
_cell_length_a   7.40943980
_cell_length_b   7.41961011
_cell_length_c   9.17492700
_cell_angle_alpha   90.00000000
_cell_angle_beta   90.00000000
_cell_angle_gamma   119.47024037
_symmetry_Int_Tables_number   1
_chemical_formula_structural   LuPa(Al3Co)3
_chemical_formula_sum   'Lu2 Pa2 Al18 Co6'
_cell_volume   439.13029346
_cell_formula_units_Z   2
loop_
 _symmetry_equiv_pos_site_id
 _symmetry_equiv_pos_as_xyz
  1  'x, y, z'
loop_
 _atom_site_type_symbol
 _atom_site_label
 _atom_site_symmetry_multiplicity
 _atom_site_fract_x
 _atom_site_fract_y
 _atom_site_fract_z
 _atom_site_occupancy
  Lu  Lu0  1  0.670722  0.992175  0.250000  1
  Lu  Lu1  1  0.329278  0.007825  0.750000  1
  Pa  Pa2  1  0.996651  0.671180  0.250000  1
  Pa  Pa3  1  0.003349  0.328820  0.750000  1
  Al  Al4  1  0.125655  0.122820  0.250000  1
  Al  Al5  1  0.874345  0.877180  0.750000  1
  Al  Al6  1  0.997397  0.330404  0.074898  1
  Al  Al7  1  0.002603  0.669596  0.925102  1
  Al  Al8  1  0.002603  0.669596  0.574898  1
  Al  Al9  1  0.339000  0.000955  0.428650  1
  Al  Al10  1  0.997397  0.330404  0.425102  1
  Al  Al11  1  0.661000  0.999045  0.571350  1
  Al  Al12  1  0.661000  0.999045  0.928650  1
  Al  Al13  1  0.339000  0.000955  0.071350  1
  Al  Al14  1  0.334290  0.331689  0.547268  1
  Al  Al15  1  0.665710  0.668311  0.452732  1
  Al  Al16  1  0.665710  0.668311  0.047268  1
  Al  Al17  1  0.334290  0.331689  0.952732  1
  Al  Al18  1  0.341589  0.553639  0.250000  1
  Al  Al19  1  0.658411  0.446361  0.750000  1
  Al  Al20  1  0.553831  0.339260  0.250000  1
  Al  Al21  1  0.446169  0.660740  0.750000  1
  Co  Co22  1  0.676485  0.330522  0.999573  1
  Co  Co23  1  0.323515  0.669478  0.000427  1
  Co  Co24  1  0.323515  0.669478  0.499573  1
  Co  Co25  1  0.676485  0.330522  0.500427  1
  Co  Co26  1  0.000000  0.000000  0.000000  1
  Co  Co27  1  0.000000  0.000000  0.500000  1
