# generated using pymatgen
data_Ba4LaOsO8
_symmetry_space_group_name_H-M   'P 1'
_cell_length_a   7.46379029
_cell_length_b   7.46378952
_cell_length_c   6.15237900
_cell_angle_alpha   90.00000000
_cell_angle_beta   90.00000000
_cell_angle_gamma   131.71095083
_symmetry_Int_Tables_number   1
_chemical_formula_structural   Ba4LaOsO8
_chemical_formula_sum   'Ba4 La1 Os1 O8'
_cell_volume   255.85748083
_cell_formula_units_Z   1
loop_
 _symmetry_equiv_pos_site_id
 _symmetry_equiv_pos_as_xyz
  1  'x, y, z'
loop_
 _atom_site_type_symbol
 _atom_site_label
 _atom_site_symmetry_multiplicity
 _atom_site_fract_x
 _atom_site_fract_y
 _atom_site_fract_z
 _atom_site_occupancy
  Ba  Ba0  1  0.356267  0.643733  0.000000  1
  Ba  Ba1  1  0.852633  0.147367  0.500000  1
  Ba  Ba2  1  0.147367  0.852633  0.500000  1
  Ba  Ba3  1  0.643733  0.356267  0.000000  1
  La  La4  1  0.000000  0.000000  0.000000  1
  Os  Os5  1  0.500000  0.500000  0.500000  1
  O  O6  1  0.267946  0.267946  0.724694  1
  O  O7  1  0.732054  0.732054  0.275306  1
  O  O8  1  0.732054  0.732054  0.724694  1
  O  O9  1  0.267946  0.267946  0.275306  1
  O  O10  1  0.172279  0.827721  0.000000  1
  O  O11  1  0.649568  0.350432  0.500000  1
  O  O12  1  0.350432  0.649568  0.500000  1
  O  O13  1  0.827721  0.172279  0.000000  1
