# generated using pymatgen
data_Tm3Cr(Ni4P3)2
_symmetry_space_group_name_H-M   'P 1'
_cell_length_a   3.71560300
_cell_length_b   10.50928300
_cell_length_c   12.25409300
_cell_angle_alpha   90.00000000
_cell_angle_beta   90.00000000
_cell_angle_gamma   90.00000000
_symmetry_Int_Tables_number   1
_chemical_formula_structural   Tm3Cr(Ni4P3)2
_chemical_formula_sum   'Tm6 Cr2 Ni16 P12'
_cell_volume   478.50178696
_cell_formula_units_Z   2
loop_
 _symmetry_equiv_pos_site_id
 _symmetry_equiv_pos_as_xyz
  1  'x, y, z'
loop_
 _atom_site_type_symbol
 _atom_site_label
 _atom_site_symmetry_multiplicity
 _atom_site_fract_x
 _atom_site_fract_y
 _atom_site_fract_z
 _atom_site_occupancy
  Tm  Tm0  1  0.000000  0.500000  0.523312  1
  Tm  Tm1  1  0.500000  0.000000  0.476688  1
  Tm  Tm2  1  0.500000  0.817109  0.206271  1
  Tm  Tm3  1  0.500000  0.182891  0.206271  1
  Tm  Tm4  1  0.000000  0.682891  0.793729  1
  Tm  Tm5  1  0.000000  0.317109  0.793729  1
  Cr  Cr6  1  0.500000  0.500000  0.155300  1
  Cr  Cr7  1  0.000000  0.000000  0.844700  1
  Ni  Ni8  1  0.500000  0.500000  0.700492  1
  Ni  Ni9  1  0.000000  0.000000  0.299508  1
  Ni  Ni10  1  0.000000  0.500000  0.983283  1
  Ni  Ni11  1  0.500000  0.000000  0.016717  1
  Ni  Ni12  1  0.500000  0.332554  0.990063  1
  Ni  Ni13  1  0.500000  0.667446  0.990063  1
  Ni  Ni14  1  0.000000  0.167446  0.009937  1
  Ni  Ni15  1  0.000000  0.832554  0.009937  1
  Ni  Ni16  1  0.500000  0.302072  0.428872  1
  Ni  Ni17  1  0.500000  0.697928  0.428872  1
  Ni  Ni18  1  0.000000  0.197928  0.571128  1
  Ni  Ni19  1  0.000000  0.802072  0.571128  1
  Ni  Ni20  1  0.500000  0.878855  0.709612  1
  Ni  Ni21  1  0.500000  0.121145  0.709612  1
  Ni  Ni22  1  0.000000  0.621145  0.290388  1
  Ni  Ni23  1  0.000000  0.378855  0.290388  1
  P  P24  1  0.500000  0.500000  0.876864  1
  P  P25  1  0.000000  0.000000  0.123136  1
  P  P26  1  0.500000  0.500000  0.347862  1
  P  P27  1  0.000000  0.000000  0.652138  1
  P  P28  1  0.500000  0.315024  0.614689  1
  P  P29  1  0.500000  0.684976  0.614689  1
  P  P30  1  0.000000  0.184976  0.385311  1
  P  P31  1  0.000000  0.815024  0.385311  1
  P  P32  1  0.500000  0.847469  0.891640  1
  P  P33  1  0.500000  0.152531  0.891640  1
  P  P34  1  0.000000  0.652531  0.108360  1
  P  P35  1  0.000000  0.347469  0.108360  1
