# generated using pymatgen
data_PrPa2Co8P6W
_symmetry_space_group_name_H-M   'P 1'
_cell_length_a   3.77116600
_cell_length_b   10.56240400
_cell_length_c   12.37363200
_cell_angle_alpha   90.00000000
_cell_angle_beta   90.00000000
_cell_angle_gamma   90.00000000
_symmetry_Int_Tables_number   1
_chemical_formula_structural   PrPa2Co8P6W
_chemical_formula_sum   'Pr2 Pa4 Co16 P12 W2'
_cell_volume   492.87367222
_cell_formula_units_Z   2
loop_
 _symmetry_equiv_pos_site_id
 _symmetry_equiv_pos_as_xyz
  1  'x, y, z'
loop_
 _atom_site_type_symbol
 _atom_site_label
 _atom_site_symmetry_multiplicity
 _atom_site_fract_x
 _atom_site_fract_y
 _atom_site_fract_z
 _atom_site_occupancy
  Pr  Pr0  1  0.000000  0.500000  0.520372  1
  Pr  Pr1  1  0.500000  0.000000  0.479628  1
  Pa  Pa2  1  0.500000  0.821931  0.207689  1
  Pa  Pa3  1  0.500000  0.178069  0.207689  1
  Pa  Pa4  1  0.000000  0.678069  0.792311  1
  Pa  Pa5  1  0.000000  0.321931  0.792311  1
  Co  Co6  1  0.500000  0.500000  0.710473  1
  Co  Co7  1  0.000000  0.000000  0.289527  1
  Co  Co8  1  0.000000  0.500000  0.985595  1
  Co  Co9  1  0.500000  0.000000  0.014405  1
  Co  Co10  1  0.500000  0.331744  0.991154  1
  Co  Co11  1  0.500000  0.668256  0.991154  1
  Co  Co12  1  0.000000  0.168256  0.008846  1
  Co  Co13  1  0.000000  0.831744  0.008846  1
  Co  Co14  1  0.500000  0.297684  0.425020  1
  Co  Co15  1  0.500000  0.702316  0.425020  1
  Co  Co16  1  0.000000  0.202316  0.574980  1
  Co  Co17  1  0.000000  0.797684  0.574980  1
  Co  Co18  1  0.500000  0.876877  0.716342  1
  Co  Co19  1  0.500000  0.123123  0.716342  1
  Co  Co20  1  0.000000  0.623123  0.283658  1
  Co  Co21  1  0.000000  0.376877  0.283658  1
  P  P22  1  0.500000  0.500000  0.886959  1
  P  P23  1  0.000000  0.000000  0.113041  1
  P  P24  1  0.500000  0.500000  0.343030  1
  P  P25  1  0.000000  0.000000  0.656970  1
  P  P26  1  0.500000  0.307913  0.613673  1
  P  P27  1  0.500000  0.692087  0.613673  1
  P  P28  1  0.000000  0.192087  0.386327  1
  P  P29  1  0.000000  0.807913  0.386327  1
  P  P30  1  0.500000  0.844539  0.896077  1
  P  P31  1  0.500000  0.155461  0.896077  1
  P  P32  1  0.000000  0.655461  0.103923  1
  P  P33  1  0.000000  0.344539  0.103923  1
  W  W34  1  0.500000  0.500000  0.152251  1
  W  W35  1  0.000000  0.000000  0.847749  1
