# generated using pymatgen
data_HfSc2(AlCu2)3
_symmetry_space_group_name_H-M   'P 1'
_cell_length_a   4.39282100
_cell_length_b   6.12106300
_cell_length_c   13.23804600
_cell_angle_alpha   90.00000000
_cell_angle_beta   90.00000000
_cell_angle_gamma   90.00000000
_symmetry_Int_Tables_number   1
_chemical_formula_structural   HfSc2(AlCu2)3
_chemical_formula_sum   'Hf2 Sc4 Al6 Cu12'
_cell_volume   355.95429875
_cell_formula_units_Z   2
loop_
 _symmetry_equiv_pos_site_id
 _symmetry_equiv_pos_as_xyz
  1  'x, y, z'
loop_
 _atom_site_type_symbol
 _atom_site_label
 _atom_site_symmetry_multiplicity
 _atom_site_fract_x
 _atom_site_fract_y
 _atom_site_fract_z
 _atom_site_occupancy
  Hf  Hf0  1  0.999732  0.000000  0.666504  1
  Hf  Hf1  1  0.499732  0.500000  0.833496  1
  Sc  Sc2  1  0.000000  0.000000  0.999982  1
  Sc  Sc3  1  0.500273  0.500000  0.166485  1
  Sc  Sc4  1  0.000273  0.000000  0.333515  1
  Sc  Sc5  1  0.500000  0.500000  0.500018  1
  Al  Al6  1  0.000003  0.500000  0.000046  1
  Al  Al7  1  0.500152  0.000000  0.166322  1
  Al  Al8  1  0.000150  0.500000  0.333679  1
  Al  Al9  1  0.500003  0.000000  0.499954  1
  Al  Al10  1  0.999838  0.500000  0.666423  1
  Al  Al11  1  0.499836  0.000000  0.833576  1
  Cu  Cu12  1  0.499999  0.249592  0.999836  1
  Cu  Cu13  1  0.499999  0.750409  0.999836  1
  Cu  Cu14  1  0.000328  0.251327  0.166590  1
  Cu  Cu15  1  0.000328  0.748675  0.166590  1
  Cu  Cu16  1  0.500329  0.248673  0.333411  1
  Cu  Cu17  1  0.500329  0.751327  0.333411  1
  Cu  Cu18  1  0.999999  0.250409  0.500164  1
  Cu  Cu19  1  0.999999  0.749591  0.500164  1
  Cu  Cu20  1  0.499674  0.249792  0.666550  1
  Cu  Cu21  1  0.499674  0.750208  0.666550  1
  Cu  Cu22  1  0.999674  0.250208  0.833449  1
  Cu  Cu23  1  0.999674  0.749794  0.833449  1
