# generated using pymatgen
data_La16Cd3HgOs4
_symmetry_space_group_name_H-M   'P 1'
_cell_length_a   10.09305047
_cell_length_b   10.07876142
_cell_length_c   10.07876200
_cell_angle_alpha   59.99999811
_cell_angle_beta   60.04681909
_cell_angle_gamma   60.04682145
_symmetry_Int_Tables_number   1
_chemical_formula_structural   La16Cd3HgOs4
_chemical_formula_sum   'La16 Cd3 Hg1 Os4'
_cell_volume   725.48557004
_cell_formula_units_Z   1
loop_
 _symmetry_equiv_pos_site_id
 _symmetry_equiv_pos_as_xyz
  1  'x, y, z'
loop_
 _atom_site_type_symbol
 _atom_site_label
 _atom_site_symmetry_multiplicity
 _atom_site_fract_x
 _atom_site_fract_y
 _atom_site_fract_z
 _atom_site_occupancy
  La  La0  1  0.942328  0.942420  0.557626  1
  La  La1  1  0.556322  0.942695  0.558289  1
  La  La2  1  0.556322  0.942695  0.942695  1
  La  La3  1  0.689039  0.689101  0.310930  1
  La  La4  1  0.154230  0.154121  0.537527  1
  La  La5  1  0.310396  0.689645  0.689645  1
  La  La6  1  0.154230  0.154121  0.154121  1
  La  La7  1  0.536536  0.154488  0.154488  1
  La  La8  1  0.310396  0.689645  0.310314  1
  La  La9  1  0.310396  0.310314  0.689645  1
  La  La10  1  0.689039  0.310930  0.689101  1
  La  La11  1  0.942328  0.557626  0.557626  1
  La  La12  1  0.556322  0.558289  0.942695  1
  La  La13  1  0.154230  0.537527  0.154121  1
  La  La14  1  0.689039  0.310930  0.310930  1
  La  La15  1  0.942328  0.557626  0.942420  1
  Cd  Cd16  1  0.920664  0.921226  0.921226  1
  Cd  Cd17  1  0.920664  0.921226  0.236885  1
  Cd  Cd18  1  0.920664  0.236885  0.921226  1
  Hg  Hg19  1  0.244754  0.918415  0.918415  1
  Os  Os20  1  0.912576  0.362475  0.362475  1
  Os  Os21  1  0.362400  0.362407  0.912787  1
  Os  Os22  1  0.362400  0.912787  0.362407  1
  Os  Os23  1  0.362400  0.362407  0.362407  1
