# generated using pymatgen
data_Sr3Ga2(SbAs)2
_symmetry_space_group_name_H-M   'P 1'
_cell_length_a   8.94492139
_cell_length_b   8.94492136
_cell_length_c   7.06852419
_cell_angle_alpha   90.16297649
_cell_angle_beta   90.16297118
_cell_angle_gamma   75.73908312
_symmetry_Int_Tables_number   1
_chemical_formula_structural   Sr3Ga2(SbAs)2
_chemical_formula_sum   'Sr6 Ga4 Sb4 As4'
_cell_volume   548.13207494
_cell_formula_units_Z   2
loop_
 _symmetry_equiv_pos_site_id
 _symmetry_equiv_pos_as_xyz
  1  'x, y, z'
loop_
 _atom_site_type_symbol
 _atom_site_label
 _atom_site_symmetry_multiplicity
 _atom_site_fract_x
 _atom_site_fract_y
 _atom_site_fract_z
 _atom_site_occupancy
  Sr  Sr0  1  0.737869  0.002431  0.971037  1
  Sr  Sr1  1  0.997569  0.262131  0.528963  1
  Sr  Sr2  1  0.262131  0.997569  0.028963  1
  Sr  Sr3  1  0.002431  0.737869  0.471037  1
  Sr  Sr4  1  0.589449  0.410551  0.250000  1
  Sr  Sr5  1  0.410551  0.589449  0.750000  1
  Ga  Ga6  1  0.589648  0.811588  0.409674  1
  Ga  Ga7  1  0.188412  0.410352  0.090326  1
  Ga  Ga8  1  0.410352  0.188412  0.590326  1
  Ga  Ga9  1  0.811588  0.589648  0.909674  1
  Sb  Sb10  1  0.709511  0.061843  0.476890  1
  Sb  Sb11  1  0.938157  0.290489  0.023110  1
  Sb  Sb12  1  0.290489  0.938157  0.523110  1
  Sb  Sb13  1  0.061843  0.709511  0.976890  1
  As  As14  1  0.568325  0.739568  0.068275  1
  As  As15  1  0.260432  0.431675  0.431725  1
  As  As16  1  0.431675  0.260432  0.931725  1
  As  As17  1  0.739568  0.568325  0.568275  1
