# generated using pymatgen
data_LiTbHo15In3Rh4
_symmetry_space_group_name_H-M   'P 1'
_cell_length_a   9.61286679
_cell_length_b   9.61286633
_cell_length_c   9.61528057
_cell_angle_alpha   59.89788024
_cell_angle_beta   59.89788398
_cell_angle_gamma   59.87384912
_symmetry_Int_Tables_number   1
_chemical_formula_structural   LiTbHo15In3Rh4
_chemical_formula_sum   'Li1 Tb1 Ho15 In3 Rh4'
_cell_volume   626.70945143
_cell_formula_units_Z   1
loop_
 _symmetry_equiv_pos_site_id
 _symmetry_equiv_pos_as_xyz
  1  'x, y, z'
loop_
 _atom_site_type_symbol
 _atom_site_label
 _atom_site_symmetry_multiplicity
 _atom_site_fract_x
 _atom_site_fract_y
 _atom_site_fract_z
 _atom_site_occupancy
  Li  Li0  1  0.822033  0.822033  0.822016  1
  Tb  Tb1  1  0.187552  0.187552  0.812601  1
  Ho  Ho2  1  0.599680  0.599680  0.201970  1
  Ho  Ho3  1  0.440951  0.059670  0.440553  1
  Ho  Ho4  1  0.440773  0.440773  0.059653  1
  Ho  Ho5  1  0.812982  0.185820  0.813404  1
  Ho  Ho6  1  0.187538  0.812172  0.188010  1
  Ho  Ho7  1  0.436685  0.063187  0.063430  1
  Ho  Ho8  1  0.185820  0.812982  0.813404  1
  Ho  Ho9  1  0.063187  0.436685  0.063430  1
  Ho  Ho10  1  0.813369  0.813369  0.185959  1
  Ho  Ho11  1  0.201925  0.599891  0.599417  1
  Ho  Ho12  1  0.059670  0.440951  0.440553  1
  Ho  Ho13  1  0.063257  0.063257  0.436542  1
  Ho  Ho14  1  0.812172  0.187538  0.188010  1
  Ho  Ho15  1  0.599891  0.201925  0.599417  1
  Ho  Ho16  1  0.600114  0.600114  0.599952  1
  In  In17  1  0.833174  0.833174  0.503363  1
  In  In18  1  0.503950  0.832657  0.833089  1
  In  In19  1  0.832657  0.503950  0.833089  1
  Rh  Rh20  1  0.393002  0.823214  0.392892  1
  Rh  Rh21  1  0.393362  0.393362  0.392963  1
  Rh  Rh22  1  0.823214  0.393002  0.392892  1
  Rh  Rh23  1  0.393044  0.393044  0.823393  1
