# generated using pymatgen
data_Fe4Si2Mo2W4C
_symmetry_space_group_name_H-M   'P 1'
_cell_length_a   7.76473992
_cell_length_b   7.76662881
_cell_length_c   7.76581141
_cell_angle_alpha   59.97248210
_cell_angle_beta   60.00456825
_cell_angle_gamma   60.00804224
_symmetry_Int_Tables_number   1
_chemical_formula_structural   Fe4Si2Mo2W4C
_chemical_formula_sum   'Fe8 Si4 Mo4 W8 C2'
_cell_volume   331.11760349
_cell_formula_units_Z   2
loop_
 _symmetry_equiv_pos_site_id
 _symmetry_equiv_pos_as_xyz
  1  'x, y, z'
loop_
 _atom_site_type_symbol
 _atom_site_label
 _atom_site_symmetry_multiplicity
 _atom_site_fract_x
 _atom_site_fract_y
 _atom_site_fract_z
 _atom_site_occupancy
  Fe  Fe0  1  0.917669  0.245765  0.918495  1
  Fe  Fe1  1  0.331929  0.004235  0.331505  1
  Fe  Fe2  1  0.332234  0.332150  0.331383  1
  Fe  Fe3  1  0.004321  0.331782  0.331693  1
  Fe  Fe4  1  0.918084  0.918153  0.245986  1
  Fe  Fe5  1  0.245767  0.917850  0.918617  1
  Fe  Fe6  1  0.332222  0.331847  0.004014  1
  Fe  Fe7  1  0.917797  0.918218  0.918307  1
  Si  Si8  1  0.125567  0.125000  0.625000  1
  Si  Si9  1  0.125042  0.625000  0.125000  1
  Si  Si10  1  0.125184  0.125159  0.124571  1
  Si  Si11  1  0.624915  0.124841  0.125429  1
  Mo  Mo12  1  0.303722  0.695860  0.696153  1
  Mo  Mo13  1  0.303961  0.304156  0.696104  1
  Mo  Mo14  1  0.554221  0.945844  0.553896  1
  Mo  Mo15  1  0.945736  0.554140  0.553847  1
  W  W16  1  0.553619  0.946084  0.946223  1
  W  W17  1  0.695927  0.303916  0.303777  1
  W  W18  1  0.945914  0.553706  0.946315  1
  W  W19  1  0.304401  0.695564  0.304430  1
  W  W20  1  0.554395  0.554436  0.945570  1
  W  W21  1  0.695326  0.304254  0.695901  1
  W  W22  1  0.695934  0.696294  0.303685  1
  W  W23  1  0.945481  0.945746  0.554099  1
  C  C24  1  0.750082  0.750004  0.750463  1
  C  C25  1  0.500549  0.499996  0.499537  1
