# generated using pymatgen
data_Nd3Er(BiO4)4
_symmetry_space_group_name_H-M   'P 1'
_cell_length_a   5.62640770
_cell_length_b   7.93845470
_cell_length_c   7.95504210
_cell_angle_alpha   82.64420857
_cell_angle_beta   89.97665419
_cell_angle_gamma   90.51747770
_symmetry_Int_Tables_number   1
_chemical_formula_structural   Nd3Er(BiO4)4
_chemical_formula_sum   'Nd3 Er1 Bi4 O16'
_cell_volume   352.37287721
_cell_formula_units_Z   1
loop_
 _symmetry_equiv_pos_site_id
 _symmetry_equiv_pos_as_xyz
  1  'x, y, z'
loop_
 _atom_site_type_symbol
 _atom_site_label
 _atom_site_symmetry_multiplicity
 _atom_site_fract_x
 _atom_site_fract_y
 _atom_site_fract_z
 _atom_site_occupancy
  Nd  Nd0  1  0.270203  0.862049  0.891764  1
  Nd  Nd1  1  0.232295  0.866531  0.387957  1
  Nd  Nd2  1  0.763951  0.136075  0.610593  1
  Er  Er3  1  0.725819  0.139659  0.114092  1
  Bi  Bi4  1  0.771651  0.660989  0.684211  1
  Bi  Bi5  1  0.729837  0.662095  0.184022  1
  Bi  Bi6  1  0.269083  0.336654  0.819891  1
  Bi  Bi7  1  0.226386  0.337643  0.312569  1
  O  O8  1  0.100518  0.577535  0.815552  1
  O  O9  1  0.605616  0.672680  0.929146  1
  O  O10  1  0.396444  0.580882  0.311573  1
  O  O11  1  0.503244  0.840030  0.618334  1
  O  O12  1  0.896657  0.667899  0.429822  1
  O  O13  1  0.004916  0.837239  0.120012  1
  O  O14  1  0.993623  0.889076  0.665123  1
  O  O15  1  0.490432  0.113047  0.838032  1
  O  O16  1  0.521903  0.895060  0.166742  1
  O  O17  1  0.999302  0.112978  0.323735  1
  O  O18  1  0.988946  0.164422  0.893215  1
  O  O19  1  0.109526  0.319979  0.572047  1
  O  O20  1  0.498941  0.159889  0.375772  1
  O  O21  1  0.596106  0.422286  0.682551  1
  O  O22  1  0.407177  0.325248  0.071979  1
  O  O23  1  0.897421  0.420050  0.181266  1
