# generated using pymatgen
data_Gd4MoRu7
_symmetry_space_group_name_H-M   'P 1'
_cell_length_a   5.19496896
_cell_length_b   5.19496904
_cell_length_c   9.09998000
_cell_angle_alpha   90.12797063
_cell_angle_beta   89.87204039
_cell_angle_gamma   116.43954639
_symmetry_Int_Tables_number   1
_chemical_formula_structural   Gd4MoRu7
_chemical_formula_sum   'Gd4 Mo1 Ru7'
_cell_volume   219.89948203
_cell_formula_units_Z   1
loop_
 _symmetry_equiv_pos_site_id
 _symmetry_equiv_pos_as_xyz
  1  'x, y, z'
loop_
 _atom_site_type_symbol
 _atom_site_label
 _atom_site_symmetry_multiplicity
 _atom_site_fract_x
 _atom_site_fract_y
 _atom_site_fract_z
 _atom_site_occupancy
  Gd  Gd0  1  0.327968  0.672032  0.436385  1
  Gd  Gd1  1  0.664626  0.335374  0.569123  1
  Gd  Gd2  1  0.663843  0.336157  0.931747  1
  Gd  Gd3  1  0.327151  0.672849  0.062534  1
  Mo  Mo4  1  0.840748  0.159252  0.249995  1
  Ru  Ru5  1  0.990691  0.009309  0.501625  1
  Ru  Ru6  1  0.989390  0.010610  0.998625  1
  Ru  Ru7  1  0.829378  0.649644  0.250191  1
  Ru  Ru8  1  0.350356  0.170622  0.250191  1
  Ru  Ru9  1  0.178878  0.821122  0.749827  1
  Ru  Ru10  1  0.166302  0.329330  0.749877  1
  Ru  Ru11  1  0.670670  0.833698  0.749877  1
