# generated using pymatgen
data_Li5Lu(SnRh2)6
_symmetry_space_group_name_H-M   'P 1'
_cell_length_a   4.43536100
_cell_length_b   6.26637100
_cell_length_c   13.31792701
_cell_angle_alpha   90.00084217
_cell_angle_beta   90.00116967
_cell_angle_gamma   90.00223021
_symmetry_Int_Tables_number   1
_chemical_formula_structural   Li5Lu(SnRh2)6
_chemical_formula_sum   'Li5 Lu1 Sn6 Rh12'
_cell_volume   370.15336948
_cell_formula_units_Z   1
loop_
 _symmetry_equiv_pos_site_id
 _symmetry_equiv_pos_as_xyz
  1  'x, y, z'
loop_
 _atom_site_type_symbol
 _atom_site_label
 _atom_site_symmetry_multiplicity
 _atom_site_fract_x
 _atom_site_fract_y
 _atom_site_fract_z
 _atom_site_occupancy
  Li  Li0  1  0.499835  0.000002  0.168722  1
  Li  Li1  1  0.999835  0.500004  0.334469  1
  Li  Li2  1  0.500001  0.000000  0.500000  1
  Li  Li3  1  0.000165  0.499994  0.665530  1
  Li  Li4  1  0.500165  0.999998  0.831278  1
  Lu  Lu5  1  0.000000  0.499999  0.000000  1
  Sn  Sn6  1  0.000000  0.000000  0.000000  1
  Sn  Sn7  1  0.499903  0.499992  0.173991  1
  Sn  Sn8  1  0.999902  0.999994  0.339450  1
  Sn  Sn9  1  0.500001  0.499999  0.500000  1
  Sn  Sn10  1  0.000097  0.000006  0.660551  1
  Sn  Sn11  1  0.500096  0.500006  0.826010  1
  Rh  Rh12  1  0.499999  0.243020  0.999998  1
  Rh  Rh13  1  0.500003  0.756980  0.000002  1
  Rh  Rh14  1  0.999852  0.243847  0.170527  1
  Rh  Rh15  1  0.999859  0.756150  0.170527  1
  Rh  Rh16  1  0.499826  0.247833  0.334849  1
  Rh  Rh17  1  0.499826  0.752166  0.334849  1
  Rh  Rh18  1  0.000005  0.253979  0.499999  1
  Rh  Rh19  1  0.999995  0.746021  0.500001  1
  Rh  Rh20  1  0.500173  0.247834  0.665151  1
  Rh  Rh21  1  0.500173  0.752167  0.665151  1
  Rh  Rh22  1  0.000141  0.243850  0.829472  1
  Rh  Rh23  1  0.000148  0.756153  0.829472  1
