# generated using pymatgen
data_Ga2PPd6
_symmetry_space_group_name_H-M   'P 1'
_cell_length_a   3.41148800
_cell_length_b   6.78159120
_cell_length_c   11.69291507
_cell_angle_alpha   90.00758149
_cell_angle_beta   90.00000000
_cell_angle_gamma   90.00000000
_symmetry_Int_Tables_number   1
_chemical_formula_structural   Ga2PPd6
_chemical_formula_sum   'Ga4 P2 Pd12'
_cell_volume   270.51929449
_cell_formula_units_Z   2
loop_
 _symmetry_equiv_pos_site_id
 _symmetry_equiv_pos_as_xyz
  1  'x, y, z'
loop_
 _atom_site_type_symbol
 _atom_site_label
 _atom_site_symmetry_multiplicity
 _atom_site_fract_x
 _atom_site_fract_y
 _atom_site_fract_z
 _atom_site_occupancy
  Ga  Ga0  1  0.000000  0.500314  0.166108  1
  Ga  Ga1  1  0.000000  0.499771  0.834339  1
  Ga  Ga2  1  0.000000  0.000274  0.333429  1
  Ga  Ga3  1  0.000000  0.999660  0.666102  1
  P  P4  1  0.500000  0.999757  0.000243  1
  P  P5  1  0.500000  0.499912  0.499669  1
  Pd  Pd6  1  0.000000  0.748506  0.000571  1
  Pd  Pd7  1  0.000000  0.247708  0.500103  1
  Pd  Pd8  1  0.000000  0.626259  0.626131  1
  Pd  Pd9  1  0.000000  0.126514  0.126215  1
  Pd  Pd10  1  0.000000  0.125200  0.873634  1
  Pd  Pd11  1  0.000000  0.625728  0.373361  1
  Pd  Pd12  1  0.500000  0.896301  0.498895  1
  Pd  Pd13  1  0.500000  0.397318  0.000133  1
  Pd  Pd14  1  0.500000  0.799475  0.801175  1
  Pd  Pd15  1  0.500000  0.302552  0.299895  1
  Pd  Pd16  1  0.500000  0.302855  0.700367  1
  Pd  Pd17  1  0.500000  0.802095  0.199632  1
