# generated using pymatgen
data_TbY7(InAu2)4
_symmetry_space_group_name_H-M   'P 1'
_cell_length_a   8.04475100
_cell_length_b   8.04475173
_cell_length_c   7.36997100
_cell_angle_alpha   90.00000000
_cell_angle_beta   90.00000000
_cell_angle_gamma   89.81545101
_symmetry_Int_Tables_number   1
_chemical_formula_structural   TbY7(InAu2)4
_chemical_formula_sum   'Tb1 Y7 In4 Au8'
_cell_volume   476.96748977
_cell_formula_units_Z   1
loop_
 _symmetry_equiv_pos_site_id
 _symmetry_equiv_pos_as_xyz
  1  'x, y, z'
loop_
 _atom_site_type_symbol
 _atom_site_label
 _atom_site_symmetry_multiplicity
 _atom_site_fract_x
 _atom_site_fract_y
 _atom_site_fract_z
 _atom_site_occupancy
  Tb  Tb0  1  0.825706  0.174294  0.000000  1
  Y  Y1  1  0.835509  0.164491  0.500000  1
  Y  Y2  1  0.162468  0.837532  0.500000  1
  Y  Y3  1  0.335774  0.337012  0.000000  1
  Y  Y4  1  0.662988  0.664226  0.000000  1
  Y  Y5  1  0.676605  0.672814  0.500000  1
  Y  Y6  1  0.327186  0.323395  0.500000  1
  Y  Y7  1  0.174913  0.825087  0.000000  1
  In  In8  1  0.499384  0.998836  0.250805  1
  In  In9  1  0.001164  0.500616  0.749195  1
  In  In10  1  0.499384  0.998836  0.749195  1
  In  In11  1  0.001164  0.500616  0.250805  1
  Au  Au12  1  0.628906  0.371094  0.258840  1
  Au  Au13  1  0.371354  0.628646  0.263391  1
  Au  Au14  1  0.128151  0.129531  0.761746  1
  Au  Au15  1  0.870469  0.871849  0.761746  1
  Au  Au16  1  0.371354  0.628646  0.736609  1
  Au  Au17  1  0.628906  0.371094  0.741160  1
  Au  Au18  1  0.870469  0.871849  0.238254  1
  Au  Au19  1  0.128151  0.129531  0.238254  1
