# generated using pymatgen
data_KBa2Y2Tl(Si2O7)2
_symmetry_space_group_name_H-M   'P 1'
_cell_length_a   5.78733300
_cell_length_b   9.88554093
_cell_length_c   14.40485700
_cell_angle_alpha   63.00460321
_cell_angle_beta   90.00000000
_cell_angle_gamma   90.00000000
_symmetry_Int_Tables_number   1
_chemical_formula_structural   KBa2Y2Tl(Si2O7)2
_chemical_formula_sum   'K2 Ba4 Y4 Tl2 Si8 O28'
_cell_volume   734.32197091
_cell_formula_units_Z   2
loop_
 _symmetry_equiv_pos_site_id
 _symmetry_equiv_pos_as_xyz
  1  'x, y, z'
loop_
 _atom_site_type_symbol
 _atom_site_label
 _atom_site_symmetry_multiplicity
 _atom_site_fract_x
 _atom_site_fract_y
 _atom_site_fract_z
 _atom_site_occupancy
  K  K0  1  0.737017  0.005691  0.862283  1
  K  K1  1  0.237017  0.994309  0.637717  1
  Ba  Ba2  1  0.270627  0.536642  0.327899  1
  Ba  Ba3  1  0.231496  0.534529  0.828628  1
  Ba  Ba4  1  0.731496  0.465471  0.671372  1
  Ba  Ba5  1  0.770627  0.463358  0.172101  1
  Y  Y6  1  0.240755  0.738696  0.020123  1
  Y  Y7  1  0.758963  0.260011  0.979170  1
  Y  Y8  1  0.258963  0.739989  0.520830  1
  Y  Y9  1  0.740755  0.261304  0.479877  1
  Tl  Tl10  1  0.759584  0.008076  0.363552  1
  Tl  Tl11  1  0.259584  0.991924  0.136448  1
  Si  Si12  1  0.228512  0.326986  0.621432  1
  Si  Si13  1  0.745190  0.828417  0.646196  1
  Si  Si14  1  0.254310  0.173545  0.354666  1
  Si  Si15  1  0.754310  0.826455  0.145334  1
  Si  Si16  1  0.771932  0.671298  0.379348  1
  Si  Si17  1  0.728512  0.673014  0.878568  1
  Si  Si18  1  0.245190  0.171583  0.853804  1
  Si  Si19  1  0.271932  0.328702  0.120652  1
  O  O20  1  0.999498  0.257812  0.849957  1
  O  O21  1  0.243358  0.480964  0.637831  1
  O  O22  1  0.465068  0.700514  0.907479  1
  O  O23  1  0.760312  0.006632  0.063132  1
  O  O24  1  0.743358  0.519036  0.862169  1
  O  O25  1  0.535055  0.304133  0.089443  1
  O  O26  1  0.498865  0.261547  0.350619  1
  O  O27  1  0.795877  0.821568  0.763566  1
  O  O28  1  0.579133  0.674914  0.460775  1
  O  O29  1  0.260312  0.993368  0.436868  1
  O  O30  1  0.705358  0.816401  0.263300  1
  O  O31  1  0.499498  0.742188  0.650043  1
  O  O32  1  0.295877  0.178432  0.736434  1
  O  O33  1  0.079133  0.325086  0.039225  1
  O  O34  1  0.461938  0.263795  0.872916  1
  O  O35  1  0.961938  0.736205  0.627084  1
  O  O36  1  0.035055  0.695867  0.410557  1
  O  O37  1  0.965068  0.299486  0.592521  1
  O  O38  1  0.919897  0.677740  0.959746  1
  O  O39  1  0.539292  0.733928  0.125474  1
  O  O40  1  0.205358  0.183599  0.236700  1
  O  O41  1  0.039292  0.266072  0.374526  1
  O  O42  1  0.998865  0.738453  0.149381  1
  O  O43  1  0.419897  0.322260  0.540254  1
  O  O44  1  0.257096  0.482823  0.136820  1
  O  O45  1  0.757096  0.517177  0.363180  1
  O  O46  1  0.740865  0.008873  0.565388  1
  O  O47  1  0.240865  0.991127  0.934612  1
