# generated using pymatgen
data_Sm9B3C6I5
_symmetry_space_group_name_H-M   'P 1'
_cell_length_a   3.87680300
_cell_length_b   8.08997801
_cell_length_c   32.96986000
_cell_angle_alpha   90.00286834
_cell_angle_beta   89.99983743
_cell_angle_gamma   89.99983003
_symmetry_Int_Tables_number   1
_chemical_formula_structural   Sm9B3C6I5
_chemical_formula_sum   'Sm18 B6 C12 I10'
_cell_volume   1034.04199397
_cell_formula_units_Z   2
loop_
 _symmetry_equiv_pos_site_id
 _symmetry_equiv_pos_as_xyz
  1  'x, y, z'
loop_
 _atom_site_type_symbol
 _atom_site_label
 _atom_site_symmetry_multiplicity
 _atom_site_fract_x
 _atom_site_fract_y
 _atom_site_fract_z
 _atom_site_occupancy
  Sm  Sm0  1  0.749998  0.069845  0.094677  1
  Sm  Sm1  1  0.750002  0.821444  0.009150  1
  Sm  Sm2  1  0.250001  0.178563  0.990803  1
  Sm  Sm3  1  0.249993  0.577536  0.250006  1
  Sm  Sm4  1  0.249999  0.929838  0.594725  1
  Sm  Sm5  1  0.250003  0.331628  0.864850  1
  Sm  Sm6  1  0.750004  0.058644  0.694173  1
  Sm  Sm7  1  0.250002  0.940955  0.305803  1
  Sm  Sm8  1  0.750000  0.668537  0.135110  1
  Sm  Sm9  1  0.750005  0.058826  0.805828  1
  Sm  Sm10  1  0.250001  0.940864  0.194193  1
  Sm  Sm11  1  0.250000  0.331861  0.635132  1
  Sm  Sm12  1  0.249998  0.930095  0.905261  1
  Sm  Sm13  1  0.250003  0.178895  0.509144  1
  Sm  Sm14  1  0.749995  0.422745  0.749966  1
  Sm  Sm15  1  0.750004  0.668428  0.364917  1
  Sm  Sm16  1  0.750006  0.821124  0.490879  1
  Sm  Sm17  1  0.749993  0.070029  0.405357  1
  B  B18  1  0.249997  0.215241  0.749989  1
  B  B19  1  0.749997  0.134686  0.920182  1
  B  B20  1  0.749993  0.785101  0.250011  1
  B  B21  1  0.249995  0.865507  0.420219  1
  B  B22  1  0.250001  0.865245  0.079775  1
  B  B23  1  0.750000  0.134334  0.579822  1
  C  C24  1  0.749977  0.135904  0.624658  1
  C  C25  1  0.750003  0.029332  0.957084  1
  C  C26  1  0.250005  0.970542  0.457115  1
  C  C27  1  0.750004  0.735850  0.293628  1
  C  C28  1  0.250005  0.264033  0.793602  1
  C  C29  1  0.250001  0.970665  0.042865  1
  C  C30  1  0.750001  0.735876  0.206392  1
  C  C31  1  0.750004  0.029448  0.542925  1
  C  C32  1  0.249999  0.864097  0.124685  1
  C  C33  1  0.750005  0.135915  0.875291  1
  C  C34  1  0.250005  0.864102  0.375371  1
  C  C35  1  0.250007  0.264107  0.706371  1
  I  I36  1  0.250001  0.578805  0.952336  1
  I  I37  1  0.750000  0.673446  0.651077  1
  I  I38  1  0.249987  0.326512  0.151002  1
  I  I39  1  0.250000  0.326586  0.348989  1
  I  I40  1  0.750001  0.421139  0.452417  1
  I  I41  1  0.250002  0.799562  0.750012  1
  I  I42  1  0.750001  0.673570  0.848959  1
  I  I43  1  0.750001  0.200515  0.249981  1
  I  I44  1  0.250001  0.578842  0.547655  1
  I  I45  1  0.749999  0.421183  0.047611  1
