# generated using pymatgen
data_LaEu3(SbRh)4
_symmetry_space_group_name_H-M   'P 1'
_cell_length_a   4.72104700
_cell_length_b   7.55732332
_cell_length_c   7.85849188
_cell_angle_alpha   90.18651567
_cell_angle_beta   90.00000000
_cell_angle_gamma   90.00000000
_symmetry_Int_Tables_number   1
_chemical_formula_structural   LaEu3(SbRh)4
_chemical_formula_sum   'La1 Eu3 Sb4 Rh4'
_cell_volume   280.37754870
_cell_formula_units_Z   1
loop_
 _symmetry_equiv_pos_site_id
 _symmetry_equiv_pos_as_xyz
  1  'x, y, z'
loop_
 _atom_site_type_symbol
 _atom_site_label
 _atom_site_symmetry_multiplicity
 _atom_site_fract_x
 _atom_site_fract_y
 _atom_site_fract_z
 _atom_site_occupancy
  La  La0  1  0.250000  0.017332  0.306266  1
  Eu  Eu1  1  0.250000  0.516208  0.195480  1
  Eu  Eu2  1  0.750000  0.484142  0.802527  1
  Eu  Eu3  1  0.750000  0.986116  0.697054  1
  Sb  Sb4  1  0.250000  0.683189  0.590120  1
  Sb  Sb5  1  0.750000  0.320133  0.411351  1
  Sb  Sb6  1  0.750000  0.811077  0.085257  1
  Sb  Sb7  1  0.250000  0.186112  0.910630  1
  Rh  Rh8  1  0.250000  0.812634  0.913787  1
  Rh  Rh9  1  0.750000  0.183700  0.090668  1
  Rh  Rh10  1  0.750000  0.695314  0.414028  1
  Rh  Rh11  1  0.250000  0.304043  0.582833  1
