# generated using pymatgen
data_Ta10Ga3Si2As
_symmetry_space_group_name_H-M   'P 1'
_cell_length_a   6.65643997
_cell_length_b   7.63750384
_cell_length_c   6.65643977
_cell_angle_alpha   115.87607250
_cell_angle_beta   89.91415669
_cell_angle_gamma   115.87607750
_symmetry_Int_Tables_number   1
_chemical_formula_structural   Ta10Ga3Si2As
_chemical_formula_sum   'Ta10 Ga3 Si2 As1'
_cell_volume   266.38068263
_cell_formula_units_Z   1
loop_
 _symmetry_equiv_pos_site_id
 _symmetry_equiv_pos_as_xyz
  1  'x, y, z'
loop_
 _atom_site_type_symbol
 _atom_site_label
 _atom_site_symmetry_multiplicity
 _atom_site_fract_x
 _atom_site_fract_y
 _atom_site_fract_z
 _atom_site_occupancy
  Ta  Ta0  1  0.998727  0.000000  0.001852  1
  Ta  Ta1  1  0.501852  0.000000  0.498727  1
  Ta  Ta2  1  0.514102  0.697579  0.683662  1
  Ta  Ta3  1  0.183662  0.697579  0.014102  1
  Ta  Ta4  1  0.689668  0.698189  0.189668  1
  Ta  Ta5  1  0.007850  0.696169  0.507850  1
  Ta  Ta6  1  0.486084  0.302421  0.316524  1
  Ta  Ta7  1  0.816524  0.302421  0.986084  1
  Ta  Ta8  1  0.311682  0.303831  0.811682  1
  Ta  Ta9  1  0.991479  0.301811  0.491479  1
  Ga  Ga10  1  0.751001  0.500000  0.751001  1
  Ga  Ga11  1  0.251001  0.500000  0.251001  1
  Ga  Ga12  1  0.362194  0.000000  0.862194  1
  Si  Si13  1  0.869639  0.000000  0.632684  1
  Si  Si14  1  0.132684  0.000000  0.369639  1
  As  As15  1  0.631849  0.000000  0.131849  1
