# generated using pymatgen
data_Li3Pr3CuIr2
_symmetry_space_group_name_H-M   'P 1'
_cell_length_a   7.36621200
_cell_length_b   7.36621138
_cell_length_c   4.09255100
_cell_angle_alpha   90.00000000
_cell_angle_beta   90.00000000
_cell_angle_gamma   120.00000281
_symmetry_Int_Tables_number   1
_chemical_formula_structural   Li3Pr3CuIr2
_chemical_formula_sum   'Li3 Pr3 Cu1 Ir2'
_cell_volume   192.31497826
_cell_formula_units_Z   1
loop_
 _symmetry_equiv_pos_site_id
 _symmetry_equiv_pos_as_xyz
  1  'x, y, z'
loop_
 _atom_site_type_symbol
 _atom_site_label
 _atom_site_symmetry_multiplicity
 _atom_site_fract_x
 _atom_site_fract_y
 _atom_site_fract_z
 _atom_site_occupancy
  Li  Li0  1  0.761994  0.761994  0.000000  1
  Li  Li1  1  0.238006  0.000000  0.000000  1
  Li  Li2  1  0.000000  0.238006  0.000000  1
  Pr  Pr3  1  0.419888  0.419888  0.500000  1
  Pr  Pr4  1  0.580112  0.000000  0.500000  1
  Pr  Pr5  1  0.000000  0.580112  0.500000  1
  Cu  Cu6  1  0.000000  0.000000  0.500000  1
  Ir  Ir7  1  0.666667  0.333333  0.000000  1
  Ir  Ir8  1  0.333333  0.666667  0.000000  1
