# generated using pymatgen
data_Dy5Y3Tc3B24Ru
_symmetry_space_group_name_H-M   'P 1'
_cell_length_a   3.68434500
_cell_length_b   9.16405795
_cell_length_c   11.55253105
_cell_angle_alpha   89.92072677
_cell_angle_beta   90.00000000
_cell_angle_gamma   90.00000000
_symmetry_Int_Tables_number   1
_chemical_formula_structural   Dy5Y3Tc3B24Ru
_chemical_formula_sum   'Dy5 Y3 Tc3 B24 Ru1'
_cell_volume   390.05409864
_cell_formula_units_Z   1
loop_
 _symmetry_equiv_pos_site_id
 _symmetry_equiv_pos_as_xyz
  1  'x, y, z'
loop_
 _atom_site_type_symbol
 _atom_site_label
 _atom_site_symmetry_multiplicity
 _atom_site_fract_x
 _atom_site_fract_y
 _atom_site_fract_z
 _atom_site_occupancy
  Dy  Dy0  1  0.000000  0.177740  0.914601  1
  Dy  Dy1  1  0.000000  0.942502  0.370136  1
  Dy  Dy2  1  0.000000  0.057791  0.630828  1
  Dy  Dy3  1  0.000000  0.442902  0.130174  1
  Dy  Dy4  1  0.000000  0.557982  0.869034  1
  Y  Y5  1  0.000000  0.323728  0.413993  1
  Y  Y6  1  0.000000  0.675103  0.583974  1
  Y  Y7  1  0.000000  0.823197  0.087254  1
  Tc  Tc8  1  0.000000  0.638349  0.320495  1
  Tc  Tc9  1  0.000000  0.361693  0.680018  1
  Tc  Tc10  1  0.000000  0.137948  0.178253  1
  B  B11  1  0.500000  0.553077  0.432647  1
  B  B12  1  0.500000  0.446609  0.566896  1
  B  B13  1  0.500000  0.053235  0.066939  1
  B  B14  1  0.500000  0.946183  0.932645  1
  B  B15  1  0.500000  0.748171  0.418460  1
  B  B16  1  0.500000  0.251097  0.581644  1
  B  B17  1  0.500000  0.248763  0.081357  1
  B  B18  1  0.500000  0.751830  0.918205  1
  B  B19  1  0.500000  0.791429  0.265664  1
  B  B20  1  0.500000  0.208771  0.735151  1
  B  B21  1  0.500000  0.291374  0.234447  1
  B  B22  1  0.500000  0.709592  0.765410  1
  B  B23  1  0.500000  0.631129  0.185771  1
  B  B24  1  0.500000  0.368912  0.814782  1
  B  B25  1  0.500000  0.130520  0.313863  1
  B  B26  1  0.500000  0.868823  0.686014  1
  B  B27  1  0.500000  0.982208  0.211799  1
  B  B28  1  0.500000  0.016445  0.788506  1
  B  B29  1  0.500000  0.482564  0.287946  1
  B  B30  1  0.500000  0.517294  0.711577  1
  B  B31  1  0.500000  0.602461  0.028179  1
  B  B32  1  0.500000  0.399069  0.971454  1
  B  B33  1  0.500000  0.101829  0.471966  1
  B  B34  1  0.500000  0.897824  0.528879  1
  Ru  Ru35  1  0.000000  0.861856  0.821041  1
