# generated using pymatgen
data_K3LiV2F12
_symmetry_space_group_name_H-M   'P 1'
_cell_length_a   5.50284400
_cell_length_b   5.50284400
_cell_length_c   19.45684400
_cell_angle_alpha   90.00000000
_cell_angle_beta   90.00000000
_cell_angle_gamma   90.00000000
_symmetry_Int_Tables_number   1
_chemical_formula_structural   K3LiV2F12
_chemical_formula_sum   'K6 Li2 V4 F24'
_cell_volume   589.17837628
_cell_formula_units_Z   2
loop_
 _symmetry_equiv_pos_site_id
 _symmetry_equiv_pos_as_xyz
  1  'x, y, z'
loop_
 _atom_site_type_symbol
 _atom_site_label
 _atom_site_symmetry_multiplicity
 _atom_site_fract_x
 _atom_site_fract_y
 _atom_site_fract_z
 _atom_site_occupancy
  K  K0  1  0.000000  0.500000  0.309808  1
  K  K1  1  0.500000  0.000000  0.690192  1
  K  K2  1  0.500000  0.000000  0.190192  1
  K  K3  1  0.000000  0.500000  0.809808  1
  K  K4  1  0.000000  0.000000  0.500000  1
  K  K5  1  0.500000  0.500000  0.000000  1
  Li  Li6  1  0.000000  0.000000  0.000000  1
  Li  Li7  1  0.500000  0.500000  0.500000  1
  V  V8  1  0.000000  0.500000  0.119781  1
  V  V9  1  0.500000  0.000000  0.880219  1
  V  V10  1  0.500000  0.000000  0.380219  1
  V  V11  1  0.000000  0.500000  0.619781  1
  F  F12  1  0.210257  0.165078  0.385091  1
  F  F13  1  0.789743  0.834922  0.385091  1
  F  F14  1  0.165078  0.789743  0.614909  1
  F  F15  1  0.289743  0.665078  0.114909  1
  F  F16  1  0.834922  0.210257  0.614909  1
  F  F17  1  0.710257  0.334922  0.114909  1
  F  F18  1  0.334922  0.289743  0.885091  1
  F  F19  1  0.665078  0.710257  0.885091  1
  F  F20  1  0.118193  0.292422  0.188989  1
  F  F21  1  0.881807  0.707578  0.188989  1
  F  F22  1  0.292422  0.881807  0.811011  1
  F  F23  1  0.381807  0.792422  0.311011  1
  F  F24  1  0.707578  0.118193  0.811011  1
  F  F25  1  0.618193  0.207578  0.311011  1
  F  F26  1  0.207578  0.381807  0.688989  1
  F  F27  1  0.792422  0.618193  0.688989  1
  F  F28  1  0.112359  0.275730  0.050146  1
  F  F29  1  0.887641  0.724270  0.050146  1
  F  F30  1  0.275730  0.887641  0.949854  1
  F  F31  1  0.387641  0.775730  0.449854  1
  F  F32  1  0.724270  0.112359  0.949854  1
  F  F33  1  0.612359  0.224270  0.449854  1
  F  F34  1  0.224270  0.387641  0.550146  1
  F  F35  1  0.775730  0.612359  0.550146  1
