# generated using pymatgen
data_Sc6Ti7Al9Os7
_symmetry_space_group_name_H-M   'P 1'
_cell_length_a   8.91105659
_cell_length_b   8.91105739
_cell_length_c   8.91105738
_cell_angle_alpha   59.53403956
_cell_angle_beta   59.53403560
_cell_angle_gamma   59.53403654
_symmetry_Int_Tables_number   1
_chemical_formula_structural   Sc6Ti7Al9Os7
_chemical_formula_sum   'Sc6 Ti7 Al9 Os7'
_cell_volume   495.04737550
_cell_formula_units_Z   1
loop_
 _symmetry_equiv_pos_site_id
 _symmetry_equiv_pos_as_xyz
  1  'x, y, z'
loop_
 _atom_site_type_symbol
 _atom_site_label
 _atom_site_symmetry_multiplicity
 _atom_site_fract_x
 _atom_site_fract_y
 _atom_site_fract_z
 _atom_site_occupancy
  Sc  Sc0  1  0.707596  0.707596  0.291305  1
  Sc  Sc1  1  0.291083  0.714115  0.291083  1
  Sc  Sc2  1  0.714115  0.291083  0.291083  1
  Sc  Sc3  1  0.291083  0.291083  0.714115  1
  Sc  Sc4  1  0.707596  0.291305  0.707596  1
  Sc  Sc5  1  0.291305  0.707596  0.707596  1
  Ti  Ti6  1  0.880431  0.880431  0.361416  1
  Ti  Ti7  1  0.880431  0.361416  0.880431  1
  Ti  Ti8  1  0.361416  0.880431  0.880431  1
  Ti  Ti9  1  0.877183  0.877183  0.877183  1
  Ti  Ti10  1  0.122464  0.122464  0.633973  1
  Ti  Ti11  1  0.122464  0.633973  0.122464  1
  Ti  Ti12  1  0.633973  0.122464  0.122464  1
  Al  Al13  1  0.118121  0.118121  0.118121  1
  Al  Al14  1  0.665118  0.665118  0.003114  1
  Al  Al15  1  0.665118  0.003114  0.665118  1
  Al  Al16  1  0.003114  0.665118  0.665118  1
  Al  Al17  1  0.666075  0.666075  0.666075  1
  Al  Al18  1  0.332935  0.332935  0.999020  1
  Al  Al19  1  0.332935  0.999020  0.332935  1
  Al  Al20  1  0.999020  0.332935  0.332935  1
  Al  Al21  1  0.336110  0.336110  0.336110  1
  Os  Os22  1  0.996815  0.996815  0.996815  1
  Os  Os23  1  0.000004  0.000004  0.503282  1
  Os  Os24  1  0.500512  0.999186  0.500512  1
  Os  Os25  1  0.999186  0.500512  0.500512  1
  Os  Os26  1  0.500512  0.500512  0.999186  1
  Os  Os27  1  0.000004  0.503282  0.000004  1
  Os  Os28  1  0.503282  0.000004  0.000004  1
