# generated using pymatgen
data_Nd9Y(IrPt)3
_symmetry_space_group_name_H-M   'P 1'
_cell_length_a   11.40142864
_cell_length_b   11.39676400
_cell_length_c   6.50731885
_cell_angle_alpha   90.00000000
_cell_angle_beta   90.10501035
_cell_angle_gamma   90.00000000
_symmetry_Int_Tables_number   1
_chemical_formula_structural   Nd9Y(IrPt)3
_chemical_formula_sum   'Nd18 Y2 Ir6 Pt6'
_cell_volume   845.55563100
_cell_formula_units_Z   2
loop_
 _symmetry_equiv_pos_site_id
 _symmetry_equiv_pos_as_xyz
  1  'x, y, z'
loop_
 _atom_site_type_symbol
 _atom_site_label
 _atom_site_symmetry_multiplicity
 _atom_site_fract_x
 _atom_site_fract_y
 _atom_site_fract_z
 _atom_site_occupancy
  Nd  Nd0  1  0.295317  0.091627  0.374769  1
  Nd  Nd1  1  0.295317  0.908373  0.874769  1
  Nd  Nd2  1  0.704157  0.088299  0.873678  1
  Nd  Nd3  1  0.704157  0.911701  0.373678  1
  Nd  Nd4  1  0.584892  0.790054  0.875425  1
  Nd  Nd5  1  0.584892  0.209946  0.375425  1
  Nd  Nd6  1  0.409748  0.791068  0.381075  1
  Nd  Nd7  1  0.409748  0.208932  0.881075  1
  Nd  Nd8  1  0.211739  0.413143  0.620337  1
  Nd  Nd9  1  0.211739  0.586857  0.120337  1
  Nd  Nd10  1  0.793138  0.411389  0.123139  1
  Nd  Nd11  1  0.793138  0.588611  0.623139  1
  Nd  Nd12  1  0.912926  0.704838  0.125443  1
  Nd  Nd13  1  0.912926  0.295162  0.625443  1
  Nd  Nd14  1  0.092852  0.704040  0.626143  1
  Nd  Nd15  1  0.092852  0.295960  0.126143  1
  Nd  Nd16  1  0.999777  0.998927  0.499871  1
  Nd  Nd17  1  0.999777  0.001073  0.999871  1
  Y  Y18  1  0.497078  0.498925  0.000110  1
  Y  Y19  1  0.497078  0.501075  0.500110  1
  Ir  Ir20  1  0.350661  0.349826  0.249998  1
  Ir  Ir21  1  0.350661  0.650174  0.749998  1
  Ir  Ir22  1  0.500212  0.999262  0.117838  1
  Ir  Ir23  1  0.500212  0.000738  0.617838  1
  Ir  Ir24  1  0.999157  0.500135  0.882203  1
  Ir  Ir25  1  0.999157  0.499865  0.382203  1
  Pt  Pt26  1  0.844858  0.154094  0.250383  1
  Pt  Pt27  1  0.844858  0.845906  0.750383  1
  Pt  Pt28  1  0.153352  0.154444  0.749468  1
  Pt  Pt29  1  0.153352  0.845556  0.249468  1
  Pt  Pt30  1  0.650134  0.350511  0.750122  1
  Pt  Pt31  1  0.650134  0.649489  0.250122  1
