# generated using pymatgen
data_SmCrF7
_symmetry_space_group_name_H-M   'P 1'
_cell_length_a   5.53451600
_cell_length_b   8.90882304
_cell_length_c   11.89912183
_cell_angle_alpha   62.54016633
_cell_angle_beta   90.00000000
_cell_angle_gamma   90.00000000
_symmetry_Int_Tables_number   1
_chemical_formula_structural   SmCrF7
_chemical_formula_sum   'Sm4 Cr4 F28'
_cell_volume   520.59760860
_cell_formula_units_Z   4
loop_
 _symmetry_equiv_pos_site_id
 _symmetry_equiv_pos_as_xyz
  1  'x, y, z'
loop_
 _atom_site_type_symbol
 _atom_site_label
 _atom_site_symmetry_multiplicity
 _atom_site_fract_x
 _atom_site_fract_y
 _atom_site_fract_z
 _atom_site_occupancy
  Sm  Sm0  1  0.761546  0.808056  0.765805  1
  Sm  Sm1  1  0.261546  0.191944  0.734195  1
  Sm  Sm2  1  0.238454  0.191944  0.234195  1
  Sm  Sm3  1  0.738454  0.808056  0.265805  1
  Cr  Cr4  1  0.755757  0.273276  0.957143  1
  Cr  Cr5  1  0.255757  0.726724  0.542857  1
  Cr  Cr6  1  0.244243  0.726724  0.042857  1
  Cr  Cr7  1  0.744243  0.273276  0.457143  1
  F  F8  1  0.432894  0.707292  0.921675  1
  F  F9  1  0.932894  0.292708  0.578325  1
  F  F10  1  0.567106  0.292708  0.078325  1
  F  F11  1  0.067106  0.707292  0.421675  1
  F  F12  1  0.458069  0.280453  0.540660  1
  F  F13  1  0.958069  0.719547  0.959340  1
  F  F14  1  0.541931  0.719547  0.459340  1
  F  F15  1  0.041931  0.280453  0.040660  1
  F  F16  1  0.770264  0.506104  0.864180  1
  F  F17  1  0.270264  0.493896  0.635820  1
  F  F18  1  0.229736  0.493896  0.135820  1
  F  F19  1  0.729736  0.506104  0.364180  1
  F  F20  1  0.757985  0.042502  0.045928  1
  F  F21  1  0.257985  0.957498  0.454072  1
  F  F22  1  0.242015  0.957498  0.954072  1
  F  F23  1  0.742015  0.042502  0.545928  1
  F  F24  1  0.976254  0.729199  0.631031  1
  F  F25  1  0.476254  0.270801  0.868969  1
  F  F26  1  0.023746  0.270801  0.368969  1
  F  F27  1  0.523746  0.729199  0.131031  1
  F  F28  1  0.057759  0.743236  0.168219  1
  F  F29  1  0.557759  0.256764  0.331781  1
  F  F30  1  0.942241  0.256764  0.831781  1
  F  F31  1  0.442241  0.743236  0.668219  1
  F  F32  1  0.406249  0.969576  0.227057  1
  F  F33  1  0.906249  0.030424  0.272943  1
  F  F34  1  0.593751  0.030424  0.772943  1
  F  F35  1  0.093751  0.969576  0.727057  1
