# generated using pymatgen
data_HfCoP3Ru4
_symmetry_space_group_name_H-M   'P 1'
_cell_length_a   3.80254900
_cell_length_b   10.58806900
_cell_length_c   12.21049600
_cell_angle_alpha   90.00000000
_cell_angle_beta   90.00000000
_cell_angle_gamma   90.00000000
_symmetry_Int_Tables_number   1
_chemical_formula_structural   HfCoP3Ru4
_chemical_formula_sum   'Hf4 Co4 P12 Ru16'
_cell_volume   491.61473078
_cell_formula_units_Z   4
loop_
 _symmetry_equiv_pos_site_id
 _symmetry_equiv_pos_as_xyz
  1  'x, y, z'
loop_
 _atom_site_type_symbol
 _atom_site_label
 _atom_site_symmetry_multiplicity
 _atom_site_fract_x
 _atom_site_fract_y
 _atom_site_fract_z
 _atom_site_occupancy
  Hf  Hf0  1  0.250000  0.584320  0.706075  1
  Hf  Hf1  1  0.250000  0.915680  0.206075  1
  Hf  Hf2  1  0.750000  0.415680  0.293925  1
  Hf  Hf3  1  0.750000  0.084320  0.793925  1
  Co  Co4  1  0.250000  0.462433  0.936585  1
  Co  Co5  1  0.250000  0.037567  0.436585  1
  Co  Co6  1  0.750000  0.537567  0.063415  1
  Co  Co7  1  0.750000  0.962433  0.563415  1
  P  P8  1  0.250000  0.423424  0.110765  1
  P  P9  1  0.250000  0.076576  0.610765  1
  P  P10  1  0.750000  0.576576  0.889235  1
  P  P11  1  0.750000  0.923424  0.389235  1
  P  P12  1  0.250000  0.268416  0.868173  1
  P  P13  1  0.250000  0.231584  0.368173  1
  P  P14  1  0.750000  0.731584  0.131827  1
  P  P15  1  0.750000  0.768416  0.631827  1
  P  P16  1  0.250000  0.597666  0.390288  1
  P  P17  1  0.250000  0.902334  0.890288  1
  P  P18  1  0.750000  0.402334  0.609712  1
  P  P19  1  0.750000  0.097666  0.109712  1
  Ru  Ru20  1  0.250000  0.709359  0.987230  1
  Ru  Ru21  1  0.250000  0.790641  0.487230  1
  Ru  Ru22  1  0.750000  0.290641  0.012770  1
  Ru  Ru23  1  0.750000  0.209359  0.512770  1
  Ru  Ru24  1  0.250000  0.405272  0.481400  1
  Ru  Ru25  1  0.250000  0.094728  0.981400  1
  Ru  Ru26  1  0.750000  0.594728  0.518600  1
  Ru  Ru27  1  0.750000  0.905272  0.018600  1
  Ru  Ru28  1  0.250000  0.230137  0.178285  1
  Ru  Ru29  1  0.250000  0.269863  0.678285  1
  Ru  Ru30  1  0.750000  0.769863  0.821715  1
  Ru  Ru31  1  0.750000  0.730137  0.321715  1
  Ru  Ru32  1  0.250000  0.891534  0.701078  1
  Ru  Ru33  1  0.250000  0.608466  0.201078  1
  Ru  Ru34  1  0.750000  0.108466  0.298922  1
  Ru  Ru35  1  0.750000  0.391534  0.798922  1
