# generated using pymatgen
data_Dy2Er10Tc3Ni
_symmetry_space_group_name_H-M   'P 1'
_cell_length_a   6.23224400
_cell_length_b   7.29221913
_cell_length_c   9.09393900
_cell_angle_alpha   90.00000000
_cell_angle_beta   90.00000000
_cell_angle_gamma   90.14116887
_symmetry_Int_Tables_number   1
_chemical_formula_structural   Dy2Er10Tc3Ni
_chemical_formula_sum   'Dy2 Er10 Tc3 Ni1'
_cell_volume   413.28998134
_cell_formula_units_Z   1
loop_
 _symmetry_equiv_pos_site_id
 _symmetry_equiv_pos_as_xyz
  1  'x, y, z'
loop_
 _atom_site_type_symbol
 _atom_site_label
 _atom_site_symmetry_multiplicity
 _atom_site_fract_x
 _atom_site_fract_y
 _atom_site_fract_z
 _atom_site_occupancy
  Dy  Dy0  1  0.139032  0.458237  0.750000  1
  Dy  Dy1  1  0.374546  0.957955  0.750000  1
  Er  Er2  1  0.329290  0.677490  0.067069  1
  Er  Er3  1  0.163029  0.176759  0.436808  1
  Er  Er4  1  0.665832  0.323150  0.562073  1
  Er  Er5  1  0.835003  0.823445  0.938857  1
  Er  Er6  1  0.665832  0.323150  0.937927  1
  Er  Er7  1  0.835003  0.823445  0.561143  1
  Er  Er8  1  0.329290  0.677490  0.432931  1
  Er  Er9  1  0.163029  0.176759  0.063192  1
  Er  Er10  1  0.872230  0.540416  0.250000  1
  Er  Er11  1  0.623521  0.039650  0.250000  1
  Tc  Tc12  1  0.037400  0.885488  0.250000  1
  Tc  Tc13  1  0.460931  0.387837  0.250000  1
  Tc  Tc14  1  0.960036  0.113671  0.750000  1
  Ni  Ni15  1  0.545997  0.615060  0.750000  1
