# generated using pymatgen
data_K4Li2HoInSb4
_symmetry_space_group_name_H-M   'P 1'
_cell_length_a   9.61998962
_cell_length_b   9.61968469
_cell_length_c   9.61998875
_cell_angle_alpha   137.42746985
_cell_angle_beta   61.80130928
_cell_angle_gamma   137.40498957
_symmetry_Int_Tables_number   1
_chemical_formula_structural   K4Li2HoInSb4
_chemical_formula_sum   'K4 Li2 Ho1 In1 Sb4'
_cell_volume   402.88929365
_cell_formula_units_Z   1
loop_
 _symmetry_equiv_pos_site_id
 _symmetry_equiv_pos_as_xyz
  1  'x, y, z'
loop_
 _atom_site_type_symbol
 _atom_site_label
 _atom_site_symmetry_multiplicity
 _atom_site_fract_x
 _atom_site_fract_y
 _atom_site_fract_z
 _atom_site_occupancy
  K  K0  1  0.823184  0.255127  0.085932  1
  K  K1  1  0.676816  0.762768  0.431948  1
  K  K2  1  0.330804  0.244872  0.568056  1
  K  K3  1  0.169180  0.737233  0.914048  1
  Li  Li4  1  0.749987  0.250000  0.499988  1
  Li  Li5  1  0.249991  0.750001  0.499991  1
  Ho  Ho6  1  0.250045  0.250000  0.000045  1
  In  In7  1  0.749961  0.749999  0.999962  1
  Sb  Sb8  1  0.401984  0.750925  0.146486  1
  Sb  Sb9  1  0.097993  0.244508  0.349001  1
  Sb  Sb10  1  0.895562  0.749077  0.651060  1
  Sb  Sb11  1  0.604493  0.255492  0.853485  1
