# generated using pymatgen
data_Er6VFe9(Co2P3)4
_symmetry_space_group_name_H-M   'P 1'
_cell_length_a   3.70346700
_cell_length_b   10.54154500
_cell_length_c   12.06699600
_cell_angle_alpha   90.00000000
_cell_angle_beta   90.00000000
_cell_angle_gamma   90.00000000
_symmetry_Int_Tables_number   1
_chemical_formula_structural   Er6VFe9(Co2P3)4
_chemical_formula_sum   'Er6 V1 Fe9 Co8 P12'
_cell_volume   471.09870997
_cell_formula_units_Z   1
loop_
 _symmetry_equiv_pos_site_id
 _symmetry_equiv_pos_as_xyz
  1  'x, y, z'
loop_
 _atom_site_type_symbol
 _atom_site_label
 _atom_site_symmetry_multiplicity
 _atom_site_fract_x
 _atom_site_fract_y
 _atom_site_fract_z
 _atom_site_occupancy
  Er  Er0  1  0.750000  0.250000  0.475279  1
  Er  Er1  1  0.250000  0.750000  0.524969  1
  Er  Er2  1  0.250000  0.929691  0.794421  1
  Er  Er3  1  0.250000  0.570309  0.794421  1
  Er  Er4  1  0.750000  0.069204  0.203375  1
  Er  Er5  1  0.750000  0.430796  0.203375  1
  V  V6  1  0.250000  0.250000  0.851376  1
  Fe  Fe7  1  0.750000  0.750000  0.154860  1
  Fe  Fe8  1  0.750000  0.250000  0.013805  1
  Fe  Fe9  1  0.250000  0.750000  0.988694  1
  Fe  Fe10  1  0.250000  0.421875  0.005143  1
  Fe  Fe11  1  0.250000  0.078125  0.005143  1
  Fe  Fe12  1  0.250000  0.453525  0.568738  1
  Fe  Fe13  1  0.250000  0.046475  0.568738  1
  Fe  Fe14  1  0.250000  0.868282  0.292172  1
  Fe  Fe15  1  0.250000  0.631718  0.292172  1
  Co  Co16  1  0.250000  0.250000  0.301094  1
  Co  Co17  1  0.750000  0.750000  0.699490  1
  Co  Co18  1  0.750000  0.583966  0.994384  1
  Co  Co19  1  0.750000  0.916034  0.994384  1
  Co  Co20  1  0.750000  0.549367  0.428844  1
  Co  Co21  1  0.750000  0.950633  0.428844  1
  Co  Co22  1  0.750000  0.129315  0.708604  1
  Co  Co23  1  0.750000  0.370685  0.708604  1
  P  P24  1  0.250000  0.250000  0.115249  1
  P  P25  1  0.750000  0.750000  0.883973  1
  P  P26  1  0.250000  0.250000  0.652976  1
  P  P27  1  0.750000  0.750000  0.340235  1
  P  P28  1  0.250000  0.442321  0.382939  1
  P  P29  1  0.250000  0.057679  0.382939  1
  P  P30  1  0.750000  0.557233  0.614663  1
  P  P31  1  0.750000  0.942767  0.614663  1
  P  P32  1  0.250000  0.900563  0.110140  1
  P  P33  1  0.250000  0.599437  0.110140  1
  P  P34  1  0.750000  0.094616  0.895576  1
  P  P35  1  0.750000  0.405384  0.895576  1
