# generated using pymatgen
data_Tm2LuFe2Co7P6
_symmetry_space_group_name_H-M   'P 1'
_cell_length_a   3.66801300
_cell_length_b   10.49707600
_cell_length_c   12.01103100
_cell_angle_alpha   90.00000000
_cell_angle_beta   90.00000000
_cell_angle_gamma   90.00000000
_symmetry_Int_Tables_number   1
_chemical_formula_structural   Tm2LuFe2Co7P6
_chemical_formula_sum   'Tm4 Lu2 Fe4 Co14 P12'
_cell_volume   462.46566589
_cell_formula_units_Z   2
loop_
 _symmetry_equiv_pos_site_id
 _symmetry_equiv_pos_as_xyz
  1  'x, y, z'
loop_
 _atom_site_type_symbol
 _atom_site_label
 _atom_site_symmetry_multiplicity
 _atom_site_fract_x
 _atom_site_fract_y
 _atom_site_fract_z
 _atom_site_occupancy
  Tm  Tm0  1  0.000000  0.500000  0.523059  1
  Tm  Tm1  1  0.500000  0.000000  0.476531  1
  Tm  Tm2  1  0.000000  0.680734  0.795952  1
  Tm  Tm3  1  0.000000  0.319266  0.795952  1
  Lu  Lu4  1  0.500000  0.819515  0.204198  1
  Lu  Lu5  1  0.500000  0.180485  0.204198  1
  Fe  Fe6  1  0.500000  0.500000  0.156245  1
  Fe  Fe7  1  0.000000  0.000000  0.843602  1
  Fe  Fe8  1  0.000000  0.500000  0.988229  1
  Fe  Fe9  1  0.500000  0.000000  0.012924  1
  Co  Co10  1  0.500000  0.500000  0.700805  1
  Co  Co11  1  0.000000  0.000000  0.298889  1
  Co  Co12  1  0.500000  0.331528  0.994439  1
  Co  Co13  1  0.500000  0.668472  0.994439  1
  Co  Co14  1  0.000000  0.168023  0.006666  1
  Co  Co15  1  0.000000  0.831977  0.006666  1
  Co  Co16  1  0.500000  0.296861  0.429994  1
  Co  Co17  1  0.500000  0.703139  0.429994  1
  Co  Co18  1  0.000000  0.202951  0.569093  1
  Co  Co19  1  0.000000  0.797049  0.569093  1
  Co  Co20  1  0.500000  0.878397  0.708954  1
  Co  Co21  1  0.500000  0.121603  0.708954  1
  Co  Co22  1  0.000000  0.621936  0.290668  1
  Co  Co23  1  0.000000  0.378064  0.290668  1
  P  P24  1  0.500000  0.500000  0.883366  1
  P  P25  1  0.000000  0.000000  0.117641  1
  P  P26  1  0.500000  0.500000  0.343205  1
  P  P27  1  0.000000  0.000000  0.656273  1
  P  P28  1  0.500000  0.311329  0.616887  1
  P  P29  1  0.500000  0.688671  0.616887  1
  P  P30  1  0.000000  0.188510  0.382142  1
  P  P31  1  0.000000  0.811490  0.382142  1
  P  P32  1  0.500000  0.847628  0.892979  1
  P  P33  1  0.500000  0.152372  0.892979  1
  P  P34  1  0.000000  0.653107  0.107645  1
  P  P35  1  0.000000  0.346893  0.107645  1
