# generated using pymatgen
data_Rb4Li2ScAlAs4
_symmetry_space_group_name_H-M   'P 1'
_cell_length_a   9.31817815
_cell_length_b   9.31817774
_cell_length_c   9.31817710
_cell_angle_alpha   138.57400092
_cell_angle_beta   59.53372824
_cell_angle_gamma   139.21973170
_symmetry_Int_Tables_number   1
_chemical_formula_structural   Rb4Li2ScAlAs4
_chemical_formula_sum   'Rb4 Li2 Sc1 Al1 As4'
_cell_volume   346.18612983
_cell_formula_units_Z   1
loop_
 _symmetry_equiv_pos_site_id
 _symmetry_equiv_pos_as_xyz
  1  'x, y, z'
loop_
 _atom_site_type_symbol
 _atom_site_label
 _atom_site_symmetry_multiplicity
 _atom_site_fract_x
 _atom_site_fract_y
 _atom_site_fract_z
 _atom_site_occupancy
  Rb  Rb0  1  0.825991  0.271362  0.101195  1
  Rb  Rb1  1  0.674009  0.775204  0.445371  1
  Rb  Rb2  1  0.329833  0.228638  0.554629  1
  Rb  Rb3  1  0.170167  0.724794  0.898804  1
  Li  Li4  1  0.750001  0.250001  0.500000  1
  Li  Li5  1  0.250001  0.750000  0.499999  1
  Sc  Sc6  1  0.250001  0.250001  0.000000  1
  Al  Al7  1  0.750000  0.750000  0.000000  1
  As  As8  1  0.424052  0.739364  0.142899  1
  As  As9  1  0.075948  0.218847  0.315311  1
  As  As10  1  0.903535  0.760635  0.684689  1
  As  As11  1  0.596465  0.281153  0.857101  1
