# generated using pymatgen
data_DyHoEr2(ReB6)2
_symmetry_space_group_name_H-M   'P 1'
_cell_length_a   3.66733400
_cell_length_b   9.14565700
_cell_length_c   11.52683100
_cell_angle_alpha   89.99747823
_cell_angle_beta   90.00000000
_cell_angle_gamma   90.00000000
_symmetry_Int_Tables_number   1
_chemical_formula_structural   DyHoEr2(ReB6)2
_chemical_formula_sum   'Dy2 Ho2 Er4 Re4 B24'
_cell_volume   386.61197334
_cell_formula_units_Z   2
loop_
 _symmetry_equiv_pos_site_id
 _symmetry_equiv_pos_as_xyz
  1  'x, y, z'
loop_
 _atom_site_type_symbol
 _atom_site_label
 _atom_site_symmetry_multiplicity
 _atom_site_fract_x
 _atom_site_fract_y
 _atom_site_fract_z
 _atom_site_occupancy
  Dy  Dy0  1  0.000000  0.323264  0.413809  1
  Dy  Dy1  1  0.000000  0.676736  0.586191  1
  Ho  Ho2  1  0.000000  0.823369  0.086118  1
  Ho  Ho3  1  0.000000  0.176631  0.913882  1
  Er  Er4  1  0.000000  0.943258  0.370056  1
  Er  Er5  1  0.000000  0.056742  0.629944  1
  Er  Er6  1  0.000000  0.443214  0.129732  1
  Er  Er7  1  0.000000  0.556786  0.870268  1
  Re  Re8  1  0.000000  0.639033  0.320385  1
  Re  Re9  1  0.000000  0.360967  0.679615  1
  Re  Re10  1  0.000000  0.138724  0.179225  1
  Re  Re11  1  0.000000  0.861276  0.820775  1
  B  B12  1  0.500000  0.553389  0.432725  1
  B  B13  1  0.500000  0.446611  0.567275  1
  B  B14  1  0.500000  0.053204  0.066990  1
  B  B15  1  0.500000  0.946796  0.933010  1
  B  B16  1  0.500000  0.749661  0.418381  1
  B  B17  1  0.500000  0.250339  0.581619  1
  B  B18  1  0.500000  0.249520  0.081244  1
  B  B19  1  0.500000  0.750480  0.918756  1
  B  B20  1  0.500000  0.792507  0.265295  1
  B  B21  1  0.500000  0.207493  0.734705  1
  B  B22  1  0.500000  0.292325  0.234332  1
  B  B23  1  0.500000  0.707675  0.765668  1
  B  B24  1  0.500000  0.630674  0.185133  1
  B  B25  1  0.500000  0.369326  0.814867  1
  B  B26  1  0.500000  0.130447  0.314529  1
  B  B27  1  0.500000  0.869553  0.685471  1
  B  B28  1  0.500000  0.981859  0.211999  1
  B  B29  1  0.500000  0.018141  0.788001  1
  B  B30  1  0.500000  0.482115  0.287675  1
  B  B31  1  0.500000  0.517885  0.712325  1
  B  B32  1  0.500000  0.599561  0.027813  1
  B  B33  1  0.500000  0.400439  0.972187  1
  B  B34  1  0.500000  0.099148  0.472281  1
  B  B35  1  0.500000  0.900852  0.527719  1
