# generated using pymatgen
data_Ba5Ti5O14
_symmetry_space_group_name_H-M   'P 1'
_cell_length_a   5.94158344
_cell_length_b   5.94077361
_cell_length_c   12.06439859
_cell_angle_alpha   89.99988575
_cell_angle_beta   89.97093263
_cell_angle_gamma   119.99553461
_symmetry_Int_Tables_number   1
_chemical_formula_structural   Ba5Ti5O14
_chemical_formula_sum   'Ba5 Ti5 O14'
_cell_volume   368.80854717
_cell_formula_units_Z   1
loop_
 _symmetry_equiv_pos_site_id
 _symmetry_equiv_pos_as_xyz
  1  'x, y, z'
loop_
 _atom_site_type_symbol
 _atom_site_label
 _atom_site_symmetry_multiplicity
 _atom_site_fract_x
 _atom_site_fract_y
 _atom_site_fract_z
 _atom_site_occupancy
  Ba  Ba0  1  0.000000  0.000000  0.000000  1
  Ba  Ba1  1  0.332808  0.666404  0.771004  1
  Ba  Ba2  1  0.667192  0.333596  0.228996  1
  Ba  Ba3  1  0.333666  0.666835  0.426366  1
  Ba  Ba4  1  0.666334  0.333165  0.573634  1
  Ti  Ti5  1  0.333538  0.666769  0.135111  1
  Ti  Ti6  1  0.666462  0.333231  0.864889  1
  Ti  Ti7  1  0.000679  0.000340  0.297859  1
  Ti  Ti8  1  0.999321  0.999660  0.702141  1
  Ti  Ti9  1  0.000000  0.000000  0.500000  1
  O  O10  1  0.333420  0.666710  0.988791  1
  O  O11  1  0.666580  0.333290  0.011209  1
  O  O12  1  0.669464  0.834732  0.193067  1
  O  O13  1  0.165213  0.834737  0.192875  1
  O  O14  1  0.165213  0.330476  0.192875  1
  O  O15  1  0.330536  0.165268  0.806933  1
  O  O16  1  0.834787  0.165263  0.807125  1
  O  O17  1  0.834787  0.669524  0.807125  1
  O  O18  1  0.690912  0.845457  0.604839  1
  O  O19  1  0.154217  0.845309  0.604803  1
  O  O20  1  0.154216  0.308908  0.604803  1
  O  O21  1  0.309088  0.154543  0.395161  1
  O  O22  1  0.845783  0.154691  0.395197  1
  O  O23  1  0.845784  0.691092  0.395197  1
