# generated using pymatgen
data_Tb3Tm3Th2CdHgIr2
_symmetry_space_group_name_H-M   'P 1'
_cell_length_a   9.69867345
_cell_length_b   9.69867433
_cell_length_c   9.72169400
_cell_angle_alpha   59.92145459
_cell_angle_beta   59.92145160
_cell_angle_gamma   59.88965225
_symmetry_Int_Tables_number   1
_chemical_formula_structural   Tb3Tm3Th2CdHgIr2
_chemical_formula_sum   'Tb6 Tm6 Th4 Cd2 Hg2 Ir4'
_cell_volume   645.31595322
_cell_formula_units_Z   2
loop_
 _symmetry_equiv_pos_site_id
 _symmetry_equiv_pos_as_xyz
  1  'x, y, z'
loop_
 _atom_site_type_symbol
 _atom_site_label
 _atom_site_symmetry_multiplicity
 _atom_site_fract_x
 _atom_site_fract_y
 _atom_site_fract_z
 _atom_site_occupancy
  Tb  Tb0  1  0.187047  0.812913  0.813301  1
  Tb  Tb1  1  0.812913  0.187047  0.186739  1
  Tb  Tb2  1  0.812913  0.187047  0.813301  1
  Tb  Tb3  1  0.187047  0.812913  0.186739  1
  Tb  Tb4  1  0.813319  0.813319  0.186681  1
  Tb  Tb5  1  0.187071  0.187071  0.812929  1
  Tm  Tm6  1  0.064090  0.435212  0.436400  1
  Tm  Tm7  1  0.435212  0.064090  0.064299  1
  Tm  Tm8  1  0.435212  0.064090  0.436400  1
  Tm  Tm9  1  0.064090  0.435212  0.064299  1
  Tm  Tm10  1  0.436151  0.436151  0.063849  1
  Tm  Tm11  1  0.064438  0.064438  0.435562  1
  Th  Th12  1  0.600642  0.600642  0.600071  1
  Th  Th13  1  0.600642  0.600642  0.198647  1
  Th  Th14  1  0.601922  0.196038  0.601020  1
  Th  Th15  1  0.196038  0.601922  0.601020  1
  Cd  Cd16  1  0.831249  0.502180  0.833285  1
  Cd  Cd17  1  0.502180  0.831249  0.833285  1
  Hg  Hg18  1  0.834529  0.834529  0.837917  1
  Hg  Hg19  1  0.834529  0.834529  0.493024  1
  Ir  Ir20  1  0.392459  0.392459  0.393320  1
  Ir  Ir21  1  0.392459  0.392459  0.821762  1
  Ir  Ir22  1  0.392248  0.821600  0.393077  1
  Ir  Ir23  1  0.821600  0.392248  0.393077  1
