# generated using pymatgen
data_Rb6ScInBi4
_symmetry_space_group_name_H-M   'P 1'
_cell_length_a   10.24290613
_cell_length_b   10.24290605
_cell_length_c   10.24290796
_cell_angle_alpha   127.72890141
_cell_angle_beta   69.89437456
_cell_angle_gamma   137.03967490
_symmetry_Int_Tables_number   1
_chemical_formula_structural   Rb6ScInBi4
_chemical_formula_sum   'Rb6 Sc1 In1 Bi4'
_cell_volume   568.34224522
_cell_formula_units_Z   1
loop_
 _symmetry_equiv_pos_site_id
 _symmetry_equiv_pos_as_xyz
  1  'x, y, z'
loop_
 _atom_site_type_symbol
 _atom_site_label
 _atom_site_symmetry_multiplicity
 _atom_site_fract_x
 _atom_site_fract_y
 _atom_site_fract_z
 _atom_site_occupancy
  Rb  Rb0  1  0.250000  0.250000  0.000000  1
  Rb  Rb1  1  0.750000  0.750000  0.000000  1
  Rb  Rb2  1  0.828537  0.314994  0.128183  1
  Rb  Rb3  1  0.671462  0.799647  0.486457  1
  Rb  Rb4  1  0.313189  0.185006  0.513543  1
  Rb  Rb5  1  0.186810  0.700354  0.871817  1
  Sc  Sc6  1  0.750000  0.250000  0.500000  1
  In  In7  1  0.250000  0.750000  0.500000  1
  Bi  Bi8  1  0.406502  0.814183  0.211370  1
  Bi  Bi9  1  0.093498  0.304867  0.407682  1
  Bi  Bi10  1  0.897187  0.685817  0.592319  1
  Bi  Bi11  1  0.602813  0.195133  0.788630  1
