# generated using pymatgen
data_Er2Pa2Ge6MoIr6
_symmetry_space_group_name_H-M   'P 1'
_cell_length_a   7.31446027
_cell_length_b   7.31445914
_cell_length_c   7.29432963
_cell_angle_alpha   109.46968578
_cell_angle_beta   109.46967127
_cell_angle_gamma   109.58583744
_symmetry_Int_Tables_number   1
_chemical_formula_structural   Er2Pa2Ge6MoIr6
_chemical_formula_sum   'Er2 Pa2 Ge6 Mo1 Ir6'
_cell_volume   300.00487942
_cell_formula_units_Z   1
loop_
 _symmetry_equiv_pos_site_id
 _symmetry_equiv_pos_as_xyz
  1  'x, y, z'
loop_
 _atom_site_type_symbol
 _atom_site_label
 _atom_site_symmetry_multiplicity
 _atom_site_fract_x
 _atom_site_fract_y
 _atom_site_fract_z
 _atom_site_occupancy
  Er  Er0  1  0.000000  0.000000  0.500000  1
  Er  Er1  1  0.500000  0.500000  0.500000  1
  Pa  Pa2  1  0.000000  0.500000  0.000000  1
  Pa  Pa3  1  0.500000  0.000000  0.000000  1
  Ge  Ge4  1  0.684285  0.684285  0.000000  1
  Ge  Ge5  1  0.316134  0.005687  0.321820  1
  Ge  Ge6  1  0.005687  0.316134  0.321820  1
  Ge  Ge7  1  0.315715  0.315715  0.000000  1
  Ge  Ge8  1  0.683866  0.994313  0.678180  1
  Ge  Ge9  1  0.994313  0.683866  0.678180  1
  Mo  Mo10  1  0.000000  0.000000  0.000000  1
  Ir  Ir11  1  0.750000  0.250000  0.500000  1
  Ir  Ir12  1  0.749724  0.495149  0.244874  1
  Ir  Ir13  1  0.504851  0.250276  0.755126  1
  Ir  Ir14  1  0.250276  0.504851  0.755126  1
  Ir  Ir15  1  0.250000  0.750000  0.500000  1
  Ir  Ir16  1  0.495149  0.749724  0.244874  1
