# generated using pymatgen
data_TbLu6Co6Sn23
_symmetry_space_group_name_H-M   'P 1'
_cell_length_a   9.63904400
_cell_length_b   9.63904402
_cell_length_c   9.93727600
_cell_angle_alpha   90.00000000
_cell_angle_beta   90.00000000
_cell_angle_gamma   119.99999992
_symmetry_Int_Tables_number   1
_chemical_formula_structural   TbLu6Co6Sn23
_chemical_formula_sum   'Tb1 Lu6 Co6 Sn23'
_cell_volume   799.58734282
_cell_formula_units_Z   1
loop_
 _symmetry_equiv_pos_site_id
 _symmetry_equiv_pos_as_xyz
  1  'x, y, z'
loop_
 _atom_site_type_symbol
 _atom_site_label
 _atom_site_symmetry_multiplicity
 _atom_site_fract_x
 _atom_site_fract_y
 _atom_site_fract_z
 _atom_site_occupancy
  Tb  Tb0  1  0.000000  0.000000  0.000000  1
  Lu  Lu1  1  0.479620  0.520380  0.305969  1
  Lu  Lu2  1  0.520380  0.479620  0.694031  1
  Lu  Lu3  1  0.479620  0.959240  0.305969  1
  Lu  Lu4  1  0.520380  0.040760  0.694031  1
  Lu  Lu5  1  0.040760  0.520380  0.305969  1
  Lu  Lu6  1  0.959240  0.479620  0.694031  1
  Co  Co7  1  0.831635  0.168365  0.197816  1
  Co  Co8  1  0.168365  0.831635  0.802184  1
  Co  Co9  1  0.831635  0.663268  0.197816  1
  Co  Co10  1  0.168365  0.336732  0.802184  1
  Co  Co11  1  0.336732  0.168365  0.197816  1
  Co  Co12  1  0.663268  0.831635  0.802184  1
  Sn  Sn13  1  0.346626  0.000000  0.000000  1
  Sn  Sn14  1  0.653374  0.000000  0.000000  1
  Sn  Sn15  1  0.000000  0.346626  0.000000  1
  Sn  Sn16  1  0.000000  0.653374  0.000000  1
  Sn  Sn17  1  0.653374  0.653374  0.000000  1
  Sn  Sn18  1  0.346626  0.346626  0.000000  1
  Sn  Sn19  1  0.333333  0.666667  0.817185  1
  Sn  Sn20  1  0.666667  0.333333  0.182815  1
  Sn  Sn21  1  0.000000  0.000000  0.500000  1
  Sn  Sn22  1  0.780760  0.219240  0.452395  1
  Sn  Sn23  1  0.219240  0.780760  0.547605  1
  Sn  Sn24  1  0.780760  0.561520  0.452395  1
  Sn  Sn25  1  0.219240  0.438480  0.547605  1
  Sn  Sn26  1  0.438480  0.219240  0.452395  1
  Sn  Sn27  1  0.561520  0.780760  0.547605  1
  Sn  Sn28  1  0.333333  0.666667  0.121968  1
  Sn  Sn29  1  0.666667  0.333333  0.878032  1
  Sn  Sn30  1  0.119055  0.880945  0.275078  1
  Sn  Sn31  1  0.880945  0.119055  0.724922  1
  Sn  Sn32  1  0.119055  0.238112  0.275078  1
  Sn  Sn33  1  0.880945  0.761888  0.724922  1
  Sn  Sn34  1  0.761888  0.880945  0.275078  1
  Sn  Sn35  1  0.238112  0.119055  0.724922  1
