# generated using pymatgen
data_LiYbVO4
_symmetry_space_group_name_H-M   'P 1'
_cell_length_a   5.04068300
_cell_length_b   6.46613300
_cell_length_c   11.30634401
_cell_angle_alpha   90.00007241
_cell_angle_beta   90.00134085
_cell_angle_gamma   89.99989348
_symmetry_Int_Tables_number   1
_chemical_formula_structural   LiYbVO4
_chemical_formula_sum   'Li4 Yb4 V4 O16'
_cell_volume   368.51588661
_cell_formula_units_Z   4
loop_
 _symmetry_equiv_pos_site_id
 _symmetry_equiv_pos_as_xyz
  1  'x, y, z'
loop_
 _atom_site_type_symbol
 _atom_site_label
 _atom_site_symmetry_multiplicity
 _atom_site_fract_x
 _atom_site_fract_y
 _atom_site_fract_z
 _atom_site_occupancy
  Li  Li0  1  0.999977  0.000018  0.000003  1
  Li  Li1  1  0.500034  0.000042  0.500010  1
  Li  Li2  1  0.999979  0.499983  0.000005  1
  Li  Li3  1  0.500033  0.499962  0.500011  1
  Yb  Yb4  1  0.516658  0.250002  0.773681  1
  Yb  Yb5  1  0.483330  0.749998  0.226324  1
  Yb  Yb6  1  0.983365  0.249998  0.273666  1
  Yb  Yb7  1  0.016641  0.750002  0.726339  1
  V  V8  1  0.084960  0.250001  0.584766  1
  V  V9  1  0.915048  0.750000  0.415235  1
  V  V10  1  0.415040  0.249997  0.084752  1
  V  V11  1  0.584950  0.750002  0.915253  1
  O  O12  1  0.229005  0.250000  0.445241  1
  O  O13  1  0.270992  0.249997  0.945230  1
  O  O14  1  0.771037  0.750003  0.554747  1
  O  O15  1  0.728990  0.750000  0.054764  1
  O  O16  1  0.759205  0.249998  0.087341  1
  O  O17  1  0.740789  0.250001  0.587352  1
  O  O18  1  0.259221  0.750000  0.412633  1
  O  O19  1  0.240783  0.750001  0.912659  1
  O  O20  1  0.273086  0.040145  0.159147  1
  O  O21  1  0.226902  0.040149  0.659170  1
  O  O22  1  0.273085  0.459850  0.159146  1
  O  O23  1  0.226901  0.459855  0.659169  1
  O  O24  1  0.726907  0.540150  0.840849  1
  O  O25  1  0.773087  0.540140  0.340829  1
  O  O26  1  0.773086  0.959857  0.340827  1
  O  O27  1  0.726907  0.959854  0.840850  1
