# generated using pymatgen
data_CeNp5(UH12)2
_symmetry_space_group_name_H-M   'P 1'
_cell_length_a   6.65571100
_cell_length_b   6.62171200
_cell_length_c   6.62171200
_cell_angle_alpha   90.00000000
_cell_angle_beta   90.00000000
_cell_angle_gamma   90.00000000
_symmetry_Int_Tables_number   1
_chemical_formula_structural   CeNp5(UH12)2
_chemical_formula_sum   'Ce1 Np5 U2 H24'
_cell_volume   291.83342486
_cell_formula_units_Z   1
loop_
 _symmetry_equiv_pos_site_id
 _symmetry_equiv_pos_as_xyz
  1  'x, y, z'
loop_
 _atom_site_type_symbol
 _atom_site_label
 _atom_site_symmetry_multiplicity
 _atom_site_fract_x
 _atom_site_fract_y
 _atom_site_fract_z
 _atom_site_occupancy
  Ce  Ce0  1  0.250000  0.000000  0.500000  1
  Np  Np1  1  0.750000  0.000000  0.500000  1
  Np  Np2  1  0.999846  0.500000  0.250059  1
  Np  Np3  1  0.999846  0.500000  0.749941  1
  Np  Np4  1  0.500154  0.750059  0.000000  1
  Np  Np5  1  0.500154  0.249941  0.000000  1
  U  U6  1  0.997696  0.000000  0.000000  1
  U  U7  1  0.502304  0.500000  0.500000  1
  H  H8  1  0.994023  0.155692  0.301418  1
  H  H9  1  0.505977  0.198582  0.655692  1
  H  H10  1  0.505977  0.801418  0.344308  1
  H  H11  1  0.804052  0.654814  0.500000  1
  H  H12  1  0.195751  0.650662  0.500000  1
  H  H13  1  0.344668  0.500000  0.802781  1
  H  H14  1  0.655303  0.500000  0.803972  1
  H  H15  1  0.304249  0.000000  0.150662  1
  H  H16  1  0.155332  0.302781  0.000000  1
  H  H17  1  0.844697  0.696028  0.000000  1
  H  H18  1  0.304249  0.000000  0.849338  1
  H  H19  1  0.844697  0.303972  0.000000  1
  H  H20  1  0.695948  0.000000  0.154814  1
  H  H21  1  0.695948  0.000000  0.845186  1
  H  H22  1  0.155332  0.697219  0.000000  1
  H  H23  1  0.994023  0.844308  0.698582  1
  H  H24  1  0.994023  0.155692  0.698582  1
  H  H25  1  0.994023  0.844308  0.301418  1
  H  H26  1  0.655303  0.500000  0.196028  1
  H  H27  1  0.344668  0.500000  0.197219  1
  H  H28  1  0.804052  0.345186  0.500000  1
  H  H29  1  0.195751  0.349338  0.500000  1
  H  H30  1  0.505977  0.801418  0.655692  1
  H  H31  1  0.505977  0.198582  0.344308  1
