# generated using pymatgen
data_Ca2Al20OsRh3
_symmetry_space_group_name_H-M   'P 1'
_cell_length_a   6.88596626
_cell_length_b   6.89781065
_cell_length_c   9.18919044
_cell_angle_alpha   90.16832339
_cell_angle_beta   90.15107639
_cell_angle_gamma   96.92031309
_symmetry_Int_Tables_number   1
_chemical_formula_structural   Ca2Al20OsRh3
_chemical_formula_sum   'Ca2 Al20 Os1 Rh3'
_cell_volume   433.28535804
_cell_formula_units_Z   1
loop_
 _symmetry_equiv_pos_site_id
 _symmetry_equiv_pos_as_xyz
  1  'x, y, z'
loop_
 _atom_site_type_symbol
 _atom_site_label
 _atom_site_symmetry_multiplicity
 _atom_site_fract_x
 _atom_site_fract_y
 _atom_site_fract_z
 _atom_site_occupancy
  Ca  Ca0  1  0.872471  0.124799  0.749491  1
  Ca  Ca1  1  0.127529  0.875201  0.250509  1
  Al  Al2  1  0.620164  0.377003  0.548505  1
  Al  Al3  1  0.379836  0.622997  0.451495  1
  Al  Al4  1  0.379096  0.621755  0.050453  1
  Al  Al5  1  0.620904  0.378245  0.949547  1
  Al  Al6  1  0.222871  0.222142  0.499370  1
  Al  Al7  1  0.777129  0.777858  0.500630  1
  Al  Al8  1  0.775179  0.775776  0.999248  1
  Al  Al9  1  0.224821  0.224224  0.000752  1
  Al  Al10  1  0.841906  0.158305  0.102427  1
  Al  Al11  1  0.158094  0.841695  0.897573  1
  Al  Al12  1  0.157821  0.843067  0.600450  1
  Al  Al13  1  0.842179  0.156933  0.399550  1
  Al  Al14  1  0.856496  0.587957  0.749525  1
  Al  Al15  1  0.143504  0.412043  0.250475  1
  Al  Al16  1  0.411214  0.142657  0.749730  1
  Al  Al17  1  0.588786  0.857343  0.250270  1
  Al  Al18  1  0.224613  0.479395  0.749550  1
  Al  Al19  1  0.775387  0.520605  0.250450  1
  Al  Al20  1  0.520327  0.778143  0.746170  1
  Al  Al21  1  0.479673  0.221857  0.253830  1
  Os  Os22  1  0.500000  0.000000  0.500000  1
  Rh  Rh23  1  0.000000  0.500000  0.500000  1
  Rh  Rh24  1  0.000000  0.500000  0.000000  1
  Rh  Rh25  1  0.500000  0.000000  0.000000  1
