# generated using pymatgen
data_Zr4Si3PPd4
_symmetry_space_group_name_H-M   'P 1'
_cell_length_a   3.91154100
_cell_length_b   6.63409641
_cell_length_c   7.64726874
_cell_angle_alpha   90.35148752
_cell_angle_beta   90.00000000
_cell_angle_gamma   90.00000000
_symmetry_Int_Tables_number   1
_chemical_formula_structural   Zr4Si3PPd4
_chemical_formula_sum   'Zr4 Si3 P1 Pd4'
_cell_volume   198.43937288
_cell_formula_units_Z   1
loop_
 _symmetry_equiv_pos_site_id
 _symmetry_equiv_pos_as_xyz
  1  'x, y, z'
loop_
 _atom_site_type_symbol
 _atom_site_label
 _atom_site_symmetry_multiplicity
 _atom_site_fract_x
 _atom_site_fract_y
 _atom_site_fract_z
 _atom_site_occupancy
  Zr  Zr0  1  0.250000  0.029122  0.322345  1
  Zr  Zr1  1  0.250000  0.528025  0.179102  1
  Zr  Zr2  1  0.750000  0.974173  0.681104  1
  Zr  Zr3  1  0.750000  0.469496  0.815862  1
  Si  Si4  1  0.250000  0.760451  0.877019  1
  Si  Si5  1  0.750000  0.741644  0.376672  1
  Si  Si6  1  0.750000  0.238882  0.120917  1
  P  P7  1  0.250000  0.257326  0.627576  1
  Pd  Pd8  1  0.250000  0.142469  0.941897  1
  Pd  Pd9  1  0.250000  0.649366  0.560064  1
  Pd  Pd10  1  0.750000  0.854440  0.061238  1
  Pd  Pd11  1  0.750000  0.354605  0.436205  1
