# generated using pymatgen
data_Th5Zr3Co15NiAs12
_symmetry_space_group_name_H-M   'P 1'
_cell_length_a   12.78487300
_cell_length_b   12.78487256
_cell_length_c   3.98363200
_cell_angle_alpha   90.00000000
_cell_angle_beta   90.00000000
_cell_angle_gamma   120.00000374
_symmetry_Int_Tables_number   1
_chemical_formula_structural   Th5Zr3Co15NiAs12
_chemical_formula_sum   'Th5 Zr3 Co15 Ni1 As12'
_cell_volume   563.90072001
_cell_formula_units_Z   1
loop_
 _symmetry_equiv_pos_site_id
 _symmetry_equiv_pos_as_xyz
  1  'x, y, z'
loop_
 _atom_site_type_symbol
 _atom_site_label
 _atom_site_symmetry_multiplicity
 _atom_site_fract_x
 _atom_site_fract_y
 _atom_site_fract_z
 _atom_site_occupancy
  Th  Th0  1  0.190600  0.190600  0.500000  1
  Th  Th1  1  0.809400  0.000000  0.500000  1
  Th  Th2  1  0.000000  0.809400  0.500000  1
  Th  Th3  1  0.333333  0.666667  0.000000  1
  Th  Th4  1  0.666667  0.333333  0.000000  1
  Zr  Zr5  1  0.572876  0.572876  0.000000  1
  Zr  Zr6  1  0.427124  0.000000  0.000000  1
  Zr  Zr7  1  0.000000  0.427124  0.000000  1
  Co  Co8  1  0.724745  0.724745  0.500000  1
  Co  Co9  1  0.275255  0.000000  0.500000  1
  Co  Co10  1  0.000000  0.275255  0.500000  1
  Co  Co11  1  0.185012  0.376081  0.000000  1
  Co  Co12  1  0.623919  0.808930  0.000000  1
  Co  Co13  1  0.191070  0.814988  0.000000  1
  Co  Co14  1  0.808930  0.623919  0.000000  1
  Co  Co15  1  0.814988  0.191070  0.000000  1
  Co  Co16  1  0.376081  0.185012  0.000000  1
  Co  Co17  1  0.362910  0.486031  0.500000  1
  Co  Co18  1  0.513969  0.876880  0.500000  1
  Co  Co19  1  0.123120  0.637090  0.500000  1
  Co  Co20  1  0.876880  0.513969  0.500000  1
  Co  Co21  1  0.637090  0.123120  0.500000  1
  Co  Co22  1  0.486031  0.362910  0.500000  1
  Ni  Ni23  1  0.000000  0.000000  0.000000  1
  As  As24  1  0.819018  0.819018  0.000000  1
  As  As25  1  0.180982  0.000000  0.000000  1
  As  As26  1  0.000000  0.180982  0.000000  1
  As  As27  1  0.171727  0.474118  0.500000  1
  As  As28  1  0.525882  0.697609  0.500000  1
  As  As29  1  0.302391  0.828273  0.500000  1
  As  As30  1  0.697609  0.525882  0.500000  1
  As  As31  1  0.828273  0.302391  0.500000  1
  As  As32  1  0.474118  0.171727  0.500000  1
  As  As33  1  0.365748  0.365748  0.000000  1
  As  As34  1  0.634252  0.000000  0.000000  1
  As  As35  1  0.000000  0.634252  0.000000  1
