# generated using pymatgen
data_Dy19ErSnPb15
_symmetry_space_group_name_H-M   'P 1'
_cell_length_a   8.21621400
_cell_length_b   8.28395637
_cell_length_c   15.66100700
_cell_angle_alpha   90.00000000
_cell_angle_beta   90.00000000
_cell_angle_gamma   90.01560583
_symmetry_Int_Tables_number   1
_chemical_formula_structural   Dy19ErSnPb15
_chemical_formula_sum   'Dy19 Er1 Sn1 Pb15'
_cell_volume   1065.93129443
_cell_formula_units_Z   1
loop_
 _symmetry_equiv_pos_site_id
 _symmetry_equiv_pos_as_xyz
  1  'x, y, z'
loop_
 _atom_site_type_symbol
 _atom_site_label
 _atom_site_symmetry_multiplicity
 _atom_site_fract_x
 _atom_site_fract_y
 _atom_site_fract_z
 _atom_site_occupancy
  Dy  Dy0  1  0.379491  0.839300  0.878237  1
  Dy  Dy1  1  0.875839  0.658553  0.621355  1
  Dy  Dy2  1  0.622081  0.158489  0.379294  1
  Dy  Dy3  1  0.122540  0.341103  0.120762  1
  Dy  Dy4  1  0.622081  0.158489  0.120706  1
  Dy  Dy5  1  0.122540  0.341103  0.379238  1
  Dy  Dy6  1  0.379491  0.839300  0.621763  1
  Dy  Dy7  1  0.875839  0.658553  0.878645  1
  Dy  Dy8  1  0.535392  0.325944  0.899052  1
  Dy  Dy9  1  0.035306  0.176202  0.600242  1
  Dy  Dy10  1  0.464458  0.676542  0.400027  1
  Dy  Dy11  1  0.964848  0.824129  0.100044  1
  Dy  Dy12  1  0.464458  0.676542  0.099973  1
  Dy  Dy13  1  0.964848  0.824129  0.399956  1
  Dy  Dy14  1  0.535392  0.325944  0.600948  1
  Dy  Dy15  1  0.035306  0.176202  0.899758  1
  Dy  Dy16  1  0.211785  0.504953  0.750000  1
  Dy  Dy17  1  0.708623  0.993856  0.750000  1
  Dy  Dy18  1  0.790700  0.495913  0.250000  1
  Er  Er19  1  0.290259  0.004052  0.250000  1
  Sn  Sn20  1  0.574247  0.625066  0.750000  1
  Pb  Pb21  1  0.281042  0.033064  0.042823  1
  Pb  Pb22  1  0.781176  0.466539  0.457230  1
  Pb  Pb23  1  0.718940  0.966350  0.542523  1
  Pb  Pb24  1  0.218594  0.533711  0.957422  1
  Pb  Pb25  1  0.718940  0.966350  0.957477  1
  Pb  Pb26  1  0.218594  0.533711  0.542578  1
  Pb  Pb27  1  0.281042  0.033064  0.457177  1
  Pb  Pb28  1  0.781176  0.466539  0.042770  1
  Pb  Pb29  1  0.073201  0.874721  0.750000  1
  Pb  Pb30  1  0.426438  0.374043  0.250000  1
  Pb  Pb31  1  0.927807  0.125677  0.250000  1
  Pb  Pb32  1  0.346366  0.152932  0.750000  1
  Pb  Pb33  1  0.845498  0.348163  0.750000  1
  Pb  Pb34  1  0.652391  0.847249  0.250000  1
  Pb  Pb35  1  0.153270  0.653524  0.250000  1
