# generated using pymatgen
data_Sm4Tm4Sc11Si16W
_symmetry_space_group_name_H-M   'P 1'
_cell_length_a   7.09845909
_cell_length_b   7.33816593
_cell_length_c   13.90607615
_cell_angle_alpha   90.22508296
_cell_angle_beta   89.65204223
_cell_angle_gamma   89.77538105
_symmetry_Int_Tables_number   1
_chemical_formula_structural   Sm4Tm4Sc11Si16W
_chemical_formula_sum   'Sm4 Tm4 Sc11 Si16 W1'
_cell_volume   724.33834494
_cell_formula_units_Z   1
loop_
 _symmetry_equiv_pos_site_id
 _symmetry_equiv_pos_as_xyz
  1  'x, y, z'
loop_
 _atom_site_type_symbol
 _atom_site_label
 _atom_site_symmetry_multiplicity
 _atom_site_fract_x
 _atom_site_fract_y
 _atom_site_fract_z
 _atom_site_occupancy
  Sm  Sm0  1  0.011449  0.172920  0.098084  1
  Sm  Sm1  1  0.989130  0.827218  0.898716  1
  Sm  Sm2  1  0.487915  0.675463  0.900327  1
  Sm  Sm3  1  0.992201  0.829995  0.593719  1
  Tm  Tm4  1  0.512806  0.323432  0.098808  1
  Tm  Tm5  1  0.011335  0.176962  0.402216  1
  Tm  Tm6  1  0.506153  0.322950  0.409895  1
  Tm  Tm7  1  0.488677  0.675684  0.595271  1
  Sc  Sc8  1  0.164222  0.494198  0.743808  1
  Sc  Sc9  1  0.837733  0.497551  0.252582  1
  Sc  Sc10  1  0.337259  0.002901  0.253453  1
  Sc  Sc11  1  0.658225  0.003079  0.746651  1
  Sc  Sc12  1  0.663666  0.825149  0.378994  1
  Sc  Sc13  1  0.168940  0.676027  0.378652  1
  Sc  Sc14  1  0.668918  0.824029  0.126488  1
  Sc  Sc15  1  0.833016  0.324132  0.621875  1
  Sc  Sc16  1  0.334337  0.177832  0.874381  1
  Sc  Sc17  1  0.829485  0.323824  0.871266  1
  Sc  Sc18  1  0.170579  0.675580  0.126879  1
  Si  Si19  1  0.044084  0.124154  0.744034  1
  Si  Si20  1  0.963754  0.883523  0.253508  1
  Si  Si21  1  0.467093  0.615514  0.251727  1
  Si  Si22  1  0.531341  0.373852  0.744229  1
  Si  Si23  1  0.289854  0.883203  0.743904  1
  Si  Si24  1  0.709071  0.127589  0.253311  1
  Si  Si25  1  0.217349  0.373305  0.252240  1
  Si  Si26  1  0.783211  0.621648  0.744523  1
  Si  Si27  1  0.180099  0.448659  0.539960  1
  Si  Si28  1  0.838752  0.528297  0.458403  1
  Si  Si29  1  0.333781  0.971527  0.469775  1
  Si  Si30  1  0.843087  0.534621  0.039856  1
  Si  Si31  1  0.642905  0.035751  0.544951  1
  Si  Si32  1  0.151967  0.464708  0.959760  1
  Si  Si33  1  0.657787  0.040614  0.960539  1
  Si  Si34  1  0.345733  0.965290  0.040015  1
  W  W35  1  0.334086  0.178818  0.627203  1
