# generated using pymatgen
data_TbPa3TlInPd4
_symmetry_space_group_name_H-M   'P 1'
_cell_length_a   7.82542035
_cell_length_b   7.81069050
_cell_length_c   3.70449100
_cell_angle_alpha   90.00000000
_cell_angle_beta   90.00000000
_cell_angle_gamma   88.93336556
_symmetry_Int_Tables_number   1
_chemical_formula_structural   TbPa3TlInPd4
_chemical_formula_sum   'Tb1 Pa3 Tl1 In1 Pd4'
_cell_volume   226.38642865
_cell_formula_units_Z   1
loop_
 _symmetry_equiv_pos_site_id
 _symmetry_equiv_pos_as_xyz
  1  'x, y, z'
loop_
 _atom_site_type_symbol
 _atom_site_label
 _atom_site_symmetry_multiplicity
 _atom_site_fract_x
 _atom_site_fract_y
 _atom_site_fract_z
 _atom_site_occupancy
  Tb  Tb0  1  0.674347  0.175979  0.500000  1
  Pa  Pa1  1  0.329403  0.827509  0.500000  1
  Pa  Pa2  1  0.824476  0.673021  0.500000  1
  Pa  Pa3  1  0.175337  0.326807  0.500000  1
  Tl  Tl4  1  0.994202  0.002502  0.000000  1
  In  In5  1  0.502321  0.494932  0.000000  1
  Pd  Pd6  1  0.363778  0.124323  0.000000  1
  Pd  Pd7  1  0.881097  0.384643  0.000000  1
  Pd  Pd8  1  0.134783  0.630833  0.000000  1
  Pd  Pd9  1  0.620258  0.859450  0.000000  1
