# generated using pymatgen
data_Er19Tm(HgBi3)3
_symmetry_space_group_name_H-M   'P 1'
_cell_length_a   8.15445302
_cell_length_b   9.41824101
_cell_length_c   11.92772723
_cell_angle_alpha   90.00625983
_cell_angle_beta   89.82666976
_cell_angle_gamma   89.99869152
_symmetry_Int_Tables_number   1
_chemical_formula_structural   Er19Tm(HgBi3)3
_chemical_formula_sum   'Er19 Tm1 Hg3 Bi9'
_cell_volume   916.05245684
_cell_formula_units_Z   1
loop_
 _symmetry_equiv_pos_site_id
 _symmetry_equiv_pos_as_xyz
  1  'x, y, z'
loop_
 _atom_site_type_symbol
 _atom_site_label
 _atom_site_symmetry_multiplicity
 _atom_site_fract_x
 _atom_site_fract_y
 _atom_site_fract_z
 _atom_site_occupancy
  Er  Er0  1  0.031663  0.250108  0.507952  1
  Er  Er1  1  0.966124  0.749943  0.491841  1
  Er  Er2  1  0.464736  0.749969  0.007040  1
  Er  Er3  1  0.522564  0.249988  0.991243  1
  Er  Er4  1  0.347477  0.250004  0.290062  1
  Er  Er5  1  0.654914  0.749938  0.707464  1
  Er  Er6  1  0.145041  0.749937  0.791634  1
  Er  Er7  1  0.848706  0.249978  0.214993  1
  Er  Er8  1  0.194238  0.250034  0.779071  1
  Er  Er9  1  0.816509  0.749985  0.214694  1
  Er  Er10  1  0.318208  0.749918  0.284796  1
  Er  Er11  1  0.681209  0.249968  0.713139  1
  Er  Er12  1  0.193446  0.055049  0.060661  1
  Er  Er13  1  0.809576  0.931467  0.943301  1
  Er  Er14  1  0.311850  0.939890  0.557589  1
  Er  Er15  1  0.809599  0.568529  0.943296  1
  Er  Er16  1  0.687131  0.060645  0.444683  1
  Er  Er17  1  0.193442  0.444948  0.060663  1
  Er  Er18  1  0.687102  0.439386  0.444703  1
  Tm  Tm19  1  0.311840  0.560152  0.557411  1
  Hg  Hg20  1  0.405973  0.250291  0.538719  1
  Hg  Hg21  1  0.591628  0.749900  0.459586  1
  Hg  Hg22  1  0.093079  0.750018  0.042088  1
  Bi  Bi23  1  0.908445  0.250013  0.955000  1
  Bi  Bi24  1  0.058521  0.000887  0.322376  1
  Bi  Bi25  1  0.941183  0.999656  0.677201  1
  Bi  Bi26  1  0.442732  0.998366  0.822641  1
  Bi  Bi27  1  0.941256  0.500317  0.677159  1
  Bi  Bi28  1  0.560317  0.001724  0.176999  1
  Bi  Bi29  1  0.058492  0.499099  0.322381  1
  Bi  Bi30  1  0.560307  0.498272  0.177019  1
  Bi  Bi31  1  0.442692  0.501620  0.822597  1
