# generated using pymatgen
data_Sr4Al6TcO16
_symmetry_space_group_name_H-M   'P 1'
_cell_length_a   8.29147854
_cell_length_b   8.29147838
_cell_length_c   8.29147812
_cell_angle_alpha   110.03083067
_cell_angle_beta   110.03083474
_cell_angle_gamma   108.35770334
_symmetry_Int_Tables_number   1
_chemical_formula_structural   Sr4Al6TcO16
_chemical_formula_sum   'Sr4 Al6 Tc1 O16'
_cell_volume   438.68346240
_cell_formula_units_Z   1
loop_
 _symmetry_equiv_pos_site_id
 _symmetry_equiv_pos_as_xyz
  1  'x, y, z'
loop_
 _atom_site_type_symbol
 _atom_site_label
 _atom_site_symmetry_multiplicity
 _atom_site_fract_x
 _atom_site_fract_y
 _atom_site_fract_z
 _atom_site_occupancy
  Sr  Sr0  1  0.507775  0.007775  0.015551  1
  Sr  Sr1  1  0.992225  0.007775  0.500000  1
  Sr  Sr2  1  0.992225  0.492225  0.984449  1
  Sr  Sr3  1  0.507775  0.492225  0.500000  1
  Al  Al4  1  0.496567  0.244697  0.748131  1
  Al  Al5  1  0.750000  0.250000  0.500000  1
  Al  Al6  1  0.251565  0.503433  0.748131  1
  Al  Al7  1  0.250000  0.750000  0.500000  1
  Al  Al8  1  0.496567  0.748435  0.251869  1
  Al  Al9  1  0.755303  0.503433  0.251869  1
  Tc  Tc10  1  0.000000  0.000000  0.000000  1
  O  O11  1  0.651950  0.998013  0.346063  1
  O  O12  1  0.326704  0.663821  0.662882  1
  O  O13  1  0.661460  0.338540  0.000000  1
  O  O14  1  0.336179  0.999062  0.662882  1
  O  O15  1  0.001987  0.348050  0.653937  1
  O  O16  1  0.661460  0.661460  0.322920  1
  O  O17  1  0.651950  0.305886  0.653937  1
  O  O18  1  0.000938  0.663821  0.337118  1
  O  O19  1  0.338540  0.661460  0.000000  1
  O  O20  1  0.336179  0.673296  0.337118  1
  O  O21  1  0.694114  0.348050  0.346063  1
  O  O22  1  0.338540  0.338540  0.677080  1
  O  O23  1  0.887245  0.737338  0.850093  1
  O  O24  1  0.962848  0.112755  0.850093  1
  O  O25  1  0.262662  0.112755  0.149907  1
  O  O26  1  0.887245  0.037152  0.149907  1
