# generated using pymatgen
data_HfTa7(NbN6)2
_symmetry_space_group_name_H-M   'P 1'
_cell_length_a   5.24712317
_cell_length_b   5.25537393
_cell_length_c   10.45914706
_cell_angle_alpha   90.01269597
_cell_angle_beta   89.99374405
_cell_angle_gamma   120.05195063
_symmetry_Int_Tables_number   1
_chemical_formula_structural   HfTa7(NbN6)2
_chemical_formula_sum   'Hf1 Ta7 Nb2 N12'
_cell_volume   249.64575452
_cell_formula_units_Z   1
loop_
 _symmetry_equiv_pos_site_id
 _symmetry_equiv_pos_as_xyz
  1  'x, y, z'
loop_
 _atom_site_type_symbol
 _atom_site_label
 _atom_site_symmetry_multiplicity
 _atom_site_fract_x
 _atom_site_fract_y
 _atom_site_fract_z
 _atom_site_occupancy
  Hf  Hf0  1  0.332809  0.666405  0.500000  1
  Ta  Ta1  1  0.663506  0.331751  0.999998  1
  Ta  Ta2  1  0.664118  0.332059  0.500001  1
  Ta  Ta3  1  0.333658  0.666831  0.000000  1
  Ta  Ta4  1  0.676763  0.999284  0.751517  1
  Ta  Ta5  1  0.676770  0.677481  0.248486  1
  Ta  Ta6  1  0.001069  0.323533  0.248450  1
  Ta  Ta7  1  0.001075  0.677539  0.751551  1
  Nb  Nb8  1  0.324081  0.324889  0.751721  1
  Nb  Nb9  1  0.324082  0.999192  0.248278  1
  N  N10  1  0.345084  0.342875  0.376452  1
  N  N11  1  0.664948  0.005629  0.376992  1
  N  N12  1  0.990515  0.650215  0.376460  1
  N  N13  1  0.996213  0.341668  0.879434  1
  N  N14  1  0.663584  0.000047  0.120127  1
  N  N15  1  0.663583  0.663537  0.879873  1
  N  N16  1  0.340689  0.996581  0.879189  1
  N  N17  1  0.664949  0.659320  0.623006  1
  N  N18  1  0.990515  0.340299  0.623538  1
  N  N19  1  0.996211  0.654544  0.120569  1
  N  N20  1  0.345088  0.002214  0.623548  1
  N  N21  1  0.340691  0.344105  0.120810  1
