# generated using pymatgen
data_Dy3HfAl16(GaIr3)2
_symmetry_space_group_name_H-M   'P 1'
_cell_length_a   7.52523976
_cell_length_b   7.51518528
_cell_length_c   9.42784200
_cell_angle_alpha   90.00000000
_cell_angle_beta   90.00000000
_cell_angle_gamma   119.53538386
_symmetry_Int_Tables_number   1
_chemical_formula_structural   Dy3HfAl16(GaIr3)2
_chemical_formula_sum   'Dy3 Hf1 Al16 Ga2 Ir6'
_cell_volume   463.89239450
_cell_formula_units_Z   1
loop_
 _symmetry_equiv_pos_site_id
 _symmetry_equiv_pos_as_xyz
  1  'x, y, z'
loop_
 _atom_site_type_symbol
 _atom_site_label
 _atom_site_symmetry_multiplicity
 _atom_site_fract_x
 _atom_site_fract_y
 _atom_site_fract_z
 _atom_site_occupancy
  Dy  Dy0  1  0.002358  0.323812  0.250000  1
  Dy  Dy1  1  0.671723  0.997559  0.750000  1
  Dy  Dy2  1  0.329632  0.009576  0.250000  1
  Hf  Hf3  1  0.998095  0.673267  0.750000  1
  Al  Al4  1  0.126787  0.124285  0.750000  1
  Al  Al5  1  0.000775  0.338558  0.579314  1
  Al  Al6  1  0.999348  0.665013  0.430613  1
  Al  Al7  1  0.999348  0.665013  0.069387  1
  Al  Al8  1  0.332775  0.998000  0.921049  1
  Al  Al9  1  0.000775  0.338558  0.920686  1
  Al  Al10  1  0.663954  0.996724  0.073714  1
  Al  Al11  1  0.663954  0.996724  0.426286  1
  Al  Al12  1  0.332775  0.998000  0.578951  1
  Al  Al13  1  0.333963  0.334669  0.047707  1
  Al  Al14  1  0.669342  0.667055  0.938928  1
  Al  Al15  1  0.669342  0.667055  0.561072  1
  Al  Al16  1  0.333963  0.334669  0.452293  1
  Al  Al17  1  0.335278  0.549734  0.750000  1
  Al  Al18  1  0.555338  0.344149  0.750000  1
  Al  Al19  1  0.448557  0.658318  0.250000  1
  Ga  Ga20  1  0.869297  0.866773  0.250000  1
  Ga  Ga21  1  0.659562  0.453537  0.250000  1
  Ir  Ir22  1  0.673089  0.328321  0.503124  1
  Ir  Ir23  1  0.328697  0.672223  0.501434  1
  Ir  Ir24  1  0.328697  0.672223  0.998566  1
  Ir  Ir25  1  0.673089  0.328321  0.996876  1
  Ir  Ir26  1  0.999745  0.998931  0.503582  1
  Ir  Ir27  1  0.999745  0.998931  0.996418  1
