# generated using pymatgen
data_La5DyTl2In4O18
_symmetry_space_group_name_H-M   'P 1'
_cell_length_a   6.67458575
_cell_length_b   6.66757495
_cell_length_c   12.50577680
_cell_angle_alpha   89.97865403
_cell_angle_beta   90.05995409
_cell_angle_gamma   119.97663543
_symmetry_Int_Tables_number   1
_chemical_formula_structural   La5DyTl2In4O18
_chemical_formula_sum   'La5 Dy1 Tl2 In4 O18'
_cell_volume   482.09817219
_cell_formula_units_Z   1
loop_
 _symmetry_equiv_pos_site_id
 _symmetry_equiv_pos_as_xyz
  1  'x, y, z'
loop_
 _atom_site_type_symbol
 _atom_site_label
 _atom_site_symmetry_multiplicity
 _atom_site_fract_x
 _atom_site_fract_y
 _atom_site_fract_z
 _atom_site_occupancy
  La  La0  1  0.341235  0.672171  0.237754  1
  La  La1  1  0.000555  0.001963  0.262515  1
  La  La2  1  0.000051  0.998328  0.766622  1
  La  La3  1  0.340170  0.668536  0.732433  1
  La  La4  1  0.659958  0.328456  0.732048  1
  Dy  Dy5  1  0.657547  0.330602  0.229125  1
  Tl  Tl6  1  0.996639  0.662992  0.493494  1
  Tl  Tl7  1  0.999234  0.335768  0.998387  1
  In  In8  1  0.335683  0.332817  0.493865  1
  In  In9  1  0.665851  0.664300  0.998959  1
  In  In10  1  0.335331  0.000162  0.998886  1
  In  In11  1  0.667971  0.003738  0.493869  1
  O  O12  1  0.003298  0.688752  0.664459  1
  O  O13  1  0.981817  0.629906  0.324412  1
  O  O14  1  0.999178  0.354684  0.828603  1
  O  O15  1  0.988783  0.317825  0.168834  1
  O  O16  1  0.351164  0.683528  0.021146  1
  O  O17  1  0.000337  0.017934  0.467486  1
  O  O18  1  0.351281  0.667400  0.509359  1
  O  O19  1  0.000254  0.982554  0.975892  1
  O  O20  1  0.307041  0.311486  0.665269  1
  O  O21  1  0.370423  0.352870  0.324707  1
  O  O22  1  0.321738  0.008488  0.169330  1
  O  O23  1  0.644613  0.642314  0.829086  1
  O  O24  1  0.687273  0.677326  0.169511  1
  O  O25  1  0.356915  0.000578  0.829014  1
  O  O26  1  0.649053  0.316127  0.522834  1
  O  O27  1  0.649413  0.332491  0.024819  1
  O  O28  1  0.647590  0.018946  0.324599  1
  O  O29  1  0.689603  0.996963  0.665252  1
