# generated using pymatgen
data_Ce2Sm2(Ga8Pd3)3
_symmetry_space_group_name_H-M   'P 1'
_cell_length_a   7.52754678
_cell_length_b   7.58495283
_cell_length_c   13.46522400
_cell_angle_alpha   85.00248863
_cell_angle_beta   100.27901996
_cell_angle_gamma   119.68720383
_symmetry_Int_Tables_number   1
_chemical_formula_structural   Ce2Sm2(Ga8Pd3)3
_chemical_formula_sum   'Ce2 Sm2 Ga24 Pd9'
_cell_volume   657.17884231
_cell_formula_units_Z   1
loop_
 _symmetry_equiv_pos_site_id
 _symmetry_equiv_pos_as_xyz
  1  'x, y, z'
loop_
 _atom_site_type_symbol
 _atom_site_label
 _atom_site_symmetry_multiplicity
 _atom_site_fract_x
 _atom_site_fract_y
 _atom_site_fract_z
 _atom_site_occupancy
  Ce  Ce0  1  0.770492  0.501895  0.809442  1
  Ce  Ce1  1  0.229508  0.498105  0.190558  1
  Sm  Sm2  1  0.437459  0.830966  0.810789  1
  Sm  Sm3  1  0.562541  0.169034  0.189211  1
  Ga  Ga4  1  0.479237  0.166954  0.940497  1
  Ga  Ga5  1  0.520763  0.833046  0.059503  1
  Ga  Ga6  1  0.021233  0.165347  0.558390  1
  Ga  Ga7  1  0.978767  0.834653  0.441610  1
  Ga  Ga8  1  0.354274  0.832604  0.556456  1
  Ga  Ga9  1  0.645726  0.167396  0.443544  1
  Ga  Ga10  1  0.615261  0.834922  0.327659  1
  Ga  Ga11  1  0.384739  0.165078  0.672341  1
  Ga  Ga12  1  0.058371  0.495193  0.671584  1
  Ga  Ga13  1  0.941629  0.504807  0.328416  1
  Ga  Ga14  1  0.730120  0.838240  0.670801  1
  Ga  Ga15  1  0.269880  0.161760  0.329199  1
  Ga  Ga16  1  0.145486  0.499500  0.941641  1
  Ga  Ga17  1  0.854514  0.500500  0.058359  1
  Ga  Ga18  1  0.815493  0.832843  0.947538  1
  Ga  Ga19  1  0.184507  0.167157  0.052462  1
  Ga  Ga20  1  0.311854  0.499525  0.442555  1
  Ga  Ga21  1  0.688146  0.500475  0.557445  1
  Ga  Ga22  1  0.100667  0.835271  0.182849  1
  Ga  Ga23  1  0.899333  0.164729  0.817151  1
  Ga  Ga24  1  0.307983  0.367733  0.816280  1
  Ga  Ga25  1  0.692017  0.632267  0.183720  1
  Ga  Ga26  1  0.101264  0.960574  0.816571  1
  Ga  Ga27  1  0.898736  0.039426  0.183429  1
  Pd  Pd28  1  0.385082  0.503186  0.637508  1
  Pd  Pd29  1  0.614918  0.496814  0.362492  1
  Pd  Pd30  1  0.171950  0.831535  0.999410  1
  Pd  Pd31  1  0.828050  0.168465  0.000590  1
  Pd  Pd32  1  0.290484  0.833624  0.361967  1
  Pd  Pd33  1  0.709516  0.166376  0.638033  1
  Pd  Pd34  1  0.049698  0.829089  0.637228  1
  Pd  Pd35  1  0.950302  0.170911  0.362772  1
  Pd  Pd36  1  0.500000  0.500000  0.000000  1
