# generated using pymatgen
data_Tb8MgCdPt2
_symmetry_space_group_name_H-M   'P 1'
_cell_length_a   9.76883232
_cell_length_b   9.76883123
_cell_length_c   9.75873400
_cell_angle_alpha   60.03418587
_cell_angle_beta   60.03418957
_cell_angle_gamma   59.97359913
_symmetry_Int_Tables_number   1
_chemical_formula_structural   Tb8MgCdPt2
_chemical_formula_sum   'Tb16 Mg2 Cd2 Pt4'
_cell_volume   658.72046258
_cell_formula_units_Z   2
loop_
 _symmetry_equiv_pos_site_id
 _symmetry_equiv_pos_as_xyz
  1  'x, y, z'
loop_
 _atom_site_type_symbol
 _atom_site_label
 _atom_site_symmetry_multiplicity
 _atom_site_fract_x
 _atom_site_fract_y
 _atom_site_fract_z
 _atom_site_occupancy
  Tb  Tb0  1  0.350465  0.350465  0.349478  1
  Tb  Tb1  1  0.350465  0.350465  0.949593  1
  Tb  Tb2  1  0.351093  0.947477  0.350715  1
  Tb  Tb3  1  0.947477  0.351093  0.350715  1
  Tb  Tb4  1  0.811231  0.189548  0.189528  1
  Tb  Tb5  1  0.189548  0.811231  0.809693  1
  Tb  Tb6  1  0.189548  0.811231  0.189528  1
  Tb  Tb7  1  0.811231  0.189548  0.809693  1
  Tb  Tb8  1  0.191998  0.191998  0.808002  1
  Tb  Tb9  1  0.812317  0.812317  0.187683  1
  Tb  Tb10  1  0.937179  0.564918  0.564859  1
  Tb  Tb11  1  0.564918  0.937179  0.933044  1
  Tb  Tb12  1  0.564918  0.937179  0.564859  1
  Tb  Tb13  1  0.937179  0.564917  0.933044  1
  Tb  Tb14  1  0.567303  0.567303  0.932697  1
  Tb  Tb15  1  0.936578  0.936578  0.563421  1
  Mg  Mg16  1  0.575771  0.575771  0.581344  1
  Mg  Mg17  1  0.575771  0.575771  0.267112  1
  Cd  Cd18  1  0.582036  0.253351  0.582307  1
  Cd  Cd19  1  0.253351  0.582036  0.582307  1
  Pt  Pt20  1  0.143115  0.143115  0.143733  1
  Pt  Pt21  1  0.143115  0.143115  0.570038  1
  Pt  Pt22  1  0.141876  0.571520  0.143303  1
  Pt  Pt23  1  0.571520  0.141876  0.143303  1
