# generated using pymatgen
data_DyTa6CdS12
_symmetry_space_group_name_H-M   'P 1'
_cell_length_a   5.79959600
_cell_length_b   5.79959473
_cell_length_c   13.89447400
_cell_angle_alpha   90.00000000
_cell_angle_beta   90.00000000
_cell_angle_gamma   120.00000725
_symmetry_Int_Tables_number   1
_chemical_formula_structural   DyTa6CdS12
_chemical_formula_sum   'Dy1 Ta6 Cd1 S12'
_cell_volume   404.73251762
_cell_formula_units_Z   1
loop_
 _symmetry_equiv_pos_site_id
 _symmetry_equiv_pos_as_xyz
  1  'x, y, z'
loop_
 _atom_site_type_symbol
 _atom_site_label
 _atom_site_symmetry_multiplicity
 _atom_site_fract_x
 _atom_site_fract_y
 _atom_site_fract_z
 _atom_site_occupancy
  Dy  Dy0  1  0.000000  0.000000  0.500000  1
  Ta  Ta1  1  0.333333  0.666667  0.249240  1
  Ta  Ta2  1  0.666667  0.333333  0.750760  1
  Ta  Ta3  1  0.666667  0.333333  0.249240  1
  Ta  Ta4  1  0.333333  0.666667  0.750760  1
  Ta  Ta5  1  0.000000  0.000000  0.251146  1
  Ta  Ta6  1  0.000000  0.000000  0.748854  1
  Cd  Cd7  1  0.000000  0.000000  0.000000  1
  S  S8  1  0.335798  0.000000  0.137216  1
  S  S9  1  0.000000  0.335798  0.137216  1
  S  S10  1  0.664202  0.664202  0.137216  1
  S  S11  1  0.337231  0.337231  0.636549  1
  S  S12  1  0.662769  0.662769  0.363451  1
  S  S13  1  0.662769  0.000000  0.636549  1
  S  S14  1  0.000000  0.662769  0.636549  1
  S  S15  1  0.000000  0.664202  0.862784  1
  S  S16  1  0.335798  0.335798  0.862784  1
  S  S17  1  0.000000  0.337231  0.363451  1
  S  S18  1  0.337231  0.000000  0.363451  1
  S  S19  1  0.664202  0.000000  0.862784  1
