# generated using pymatgen
data_CaYb11(DySn2)8
_symmetry_space_group_name_H-M   'P 1'
_cell_length_a   7.84051001
_cell_length_b   8.43984204
_cell_length_c   16.05099008
_cell_angle_alpha   90.01027564
_cell_angle_beta   90.00436938
_cell_angle_gamma   90.00473675
_symmetry_Int_Tables_number   1
_chemical_formula_structural   CaYb11(DySn2)8
_chemical_formula_sum   'Ca1 Yb11 Dy8 Sn16'
_cell_volume   1062.13678191
_cell_formula_units_Z   1
loop_
 _symmetry_equiv_pos_site_id
 _symmetry_equiv_pos_as_xyz
  1  'x, y, z'
loop_
 _atom_site_type_symbol
 _atom_site_label
 _atom_site_symmetry_multiplicity
 _atom_site_fract_x
 _atom_site_fract_y
 _atom_site_fract_z
 _atom_site_occupancy
  Ca  Ca0  1  0.504994  0.688498  0.592604  1
  Yb  Yb1  1  0.005028  0.811312  0.907240  1
  Yb  Yb2  1  0.494963  0.311307  0.092758  1
  Yb  Yb3  1  0.994990  0.188641  0.407230  1
  Yb  Yb4  1  0.494934  0.311318  0.407217  1
  Yb  Yb5  1  0.994988  0.188681  0.092764  1
  Yb  Yb6  1  0.505036  0.688689  0.907237  1
  Yb  Yb7  1  0.005039  0.811384  0.592776  1
  Yb  Yb8  1  0.835664  0.512095  0.750055  1
  Yb  Yb9  1  0.335506  0.987973  0.750077  1
  Yb  Yb10  1  0.164448  0.487844  0.249988  1
  Yb  Yb11  1  0.664427  0.012131  0.249984  1
  Dy  Dy12  1  0.672917  0.166004  0.622037  1
  Dy  Dy13  1  0.172912  0.334025  0.877969  1
  Dy  Dy14  1  0.327079  0.834053  0.122024  1
  Dy  Dy15  1  0.827092  0.665957  0.377949  1
  Dy  Dy16  1  0.326996  0.834132  0.377890  1
  Dy  Dy17  1  0.827077  0.665926  0.122019  1
  Dy  Dy18  1  0.672925  0.165936  0.877976  1
  Dy  Dy19  1  0.172769  0.333904  0.622098  1
  Sn  Sn20  1  0.671719  0.964663  0.459053  1
  Sn  Sn21  1  0.171592  0.535680  0.040786  1
  Sn  Sn22  1  0.328413  0.035681  0.959217  1
  Sn  Sn23  1  0.829072  0.463814  0.540715  1
  Sn  Sn24  1  0.328167  0.036220  0.540661  1
  Sn  Sn25  1  0.828421  0.464334  0.959211  1
  Sn  Sn26  1  0.671589  0.964329  0.040778  1
  Sn  Sn27  1  0.171431  0.535576  0.459112  1
  Sn  Sn28  1  0.471534  0.374418  0.750139  1
  Sn  Sn29  1  0.971702  0.125389  0.749973  1
  Sn  Sn30  1  0.528337  0.625345  0.249992  1
  Sn  Sn31  1  0.028334  0.874648  0.249997  1
  Sn  Sn32  1  0.718093  0.873658  0.750272  1
  Sn  Sn33  1  0.217412  0.626427  0.750183  1
  Sn  Sn34  1  0.282202  0.126558  0.250004  1
  Sn  Sn35  1  0.782198  0.373451  0.250014  1
