# generated using pymatgen
data_Hf6Ga6NiIr4Pd
_symmetry_space_group_name_H-M   'P 1'
_cell_length_a   7.18820300
_cell_length_b   7.18820190
_cell_length_c   6.81695800
_cell_angle_alpha   90.00000000
_cell_angle_beta   90.00000000
_cell_angle_gamma   119.99999126
_symmetry_Int_Tables_number   1
_chemical_formula_structural   Hf6Ga6NiIr4Pd
_chemical_formula_sum   'Hf6 Ga6 Ni1 Ir4 Pd1'
_cell_volume   305.04357950
_cell_formula_units_Z   1
loop_
 _symmetry_equiv_pos_site_id
 _symmetry_equiv_pos_as_xyz
  1  'x, y, z'
loop_
 _atom_site_type_symbol
 _atom_site_label
 _atom_site_symmetry_multiplicity
 _atom_site_fract_x
 _atom_site_fract_y
 _atom_site_fract_z
 _atom_site_occupancy
  Hf  Hf0  1  0.609781  0.599977  0.250000  1
  Hf  Hf1  1  0.009933  0.410894  0.750000  1
  Hf  Hf2  1  0.400023  0.009803  0.250000  1
  Hf  Hf3  1  0.990197  0.390219  0.250000  1
  Hf  Hf4  1  0.400961  0.990067  0.750000  1
  Hf  Hf5  1  0.589106  0.599039  0.750000  1
  Ga  Ga6  1  0.262958  0.263555  0.491578  1
  Ga  Ga7  1  0.736445  0.999403  0.491578  1
  Ga  Ga8  1  0.000597  0.737042  0.491578  1
  Ga  Ga9  1  0.736445  0.999403  0.008422  1
  Ga  Ga10  1  0.262958  0.263555  0.008422  1
  Ga  Ga11  1  0.000597  0.737042  0.008422  1
  Ni  Ni12  1  0.000000  0.000000  0.250000  1
  Ir  Ir13  1  0.333333  0.666667  0.485504  1
  Ir  Ir14  1  0.333333  0.666667  0.014496  1
  Ir  Ir15  1  0.666667  0.333333  0.511367  1
  Ir  Ir16  1  0.666667  0.333333  0.988633  1
  Pd  Pd17  1  0.000000  0.000000  0.750000  1
