# generated using pymatgen
data_Sc7BI12
_symmetry_space_group_name_H-M   'P 1'
_cell_length_a   9.32299635
_cell_length_b   9.32299595
_cell_length_c   9.32299717
_cell_angle_alpha   107.87655325
_cell_angle_beta   107.87655007
_cell_angle_gamma   107.87656166
_symmetry_Int_Tables_number   1
_chemical_formula_structural   Sc7BI12
_chemical_formula_sum   'Sc7 B1 I12'
_cell_volume   658.05440179
_cell_formula_units_Z   1
loop_
 _symmetry_equiv_pos_site_id
 _symmetry_equiv_pos_as_xyz
  1  'x, y, z'
loop_
 _atom_site_type_symbol
 _atom_site_label
 _atom_site_symmetry_multiplicity
 _atom_site_fract_x
 _atom_site_fract_y
 _atom_site_fract_z
 _atom_site_occupancy
  Sc  Sc0  1  0.479314  0.479314  0.479314  1
  Sc  Sc1  1  0.913268  0.976924  0.724881  1
  Sc  Sc2  1  0.976924  0.724881  0.913268  1
  Sc  Sc3  1  0.724881  0.913268  0.976924  1
  Sc  Sc4  1  0.038869  0.284435  0.100936  1
  Sc  Sc5  1  0.284435  0.100936  0.038869  1
  Sc  Sc6  1  0.100936  0.038869  0.284435  1
  B  B7  1  0.001947  0.001947  0.001947  1
  I  I8  1  0.226766  0.076956  0.697097  1
  I  I9  1  0.076956  0.697097  0.226766  1
  I  I10  1  0.697097  0.226766  0.076956  1
  I  I11  1  0.545225  0.841302  0.618325  1
  I  I12  1  0.841302  0.618325  0.545225  1
  I  I13  1  0.618325  0.545225  0.841302  1
  I  I14  1  0.925658  0.308769  0.781539  1
  I  I15  1  0.308769  0.781539  0.925658  1
  I  I16  1  0.781539  0.925658  0.308769  1
  I  I17  1  0.387196  0.465291  0.149502  1
  I  I18  1  0.465291  0.149502  0.387196  1
  I  I19  1  0.149502  0.387196  0.465291  1
