# generated using pymatgen
data_LiY8Pd23Pb
_symmetry_space_group_name_H-M   'P 1'
_cell_length_a   8.42073100
_cell_length_b   8.44507600
_cell_length_c   8.44507600
_cell_angle_alpha   90.00000000
_cell_angle_beta   90.00000000
_cell_angle_gamma   90.00000000
_symmetry_Int_Tables_number   1
_chemical_formula_structural   LiY8Pd23Pb
_chemical_formula_sum   'Li1 Y8 Pd23 Pb1'
_cell_volume   600.56071321
_cell_formula_units_Z   1
loop_
 _symmetry_equiv_pos_site_id
 _symmetry_equiv_pos_as_xyz
  1  'x, y, z'
loop_
 _atom_site_type_symbol
 _atom_site_label
 _atom_site_symmetry_multiplicity
 _atom_site_fract_x
 _atom_site_fract_y
 _atom_site_fract_z
 _atom_site_occupancy
  Li  Li0  1  0.359791  0.000000  0.000000  1
  Y  Y1  1  0.248934  0.256245  0.256245  1
  Y  Y2  1  0.744780  0.748829  0.748829  1
  Y  Y3  1  0.744780  0.748829  0.251171  1
  Y  Y4  1  0.744780  0.251171  0.748829  1
  Y  Y5  1  0.248934  0.256245  0.743755  1
  Y  Y6  1  0.248934  0.743755  0.256245  1
  Y  Y7  1  0.248934  0.743755  0.743755  1
  Y  Y8  1  0.744780  0.251171  0.251171  1
  Pd  Pd9  1  0.266720  0.500000  0.000000  1
  Pd  Pd10  1  0.731104  0.500000  0.000000  1
  Pd  Pd11  1  0.995982  0.266830  0.500000  1
  Pd  Pd12  1  0.495059  0.260933  0.000000  1
  Pd  Pd13  1  0.995982  0.733170  0.500000  1
  Pd  Pd14  1  0.495059  0.739067  0.000000  1
  Pd  Pd15  1  0.495059  0.000000  0.260933  1
  Pd  Pd16  1  0.266720  0.000000  0.500000  1
  Pd  Pd17  1  0.495059  0.000000  0.739067  1
  Pd  Pd18  1  0.731104  0.000000  0.500000  1
  Pd  Pd19  1  0.995982  0.500000  0.266830  1
  Pd  Pd20  1  0.995982  0.500000  0.733170  1
  Pd  Pd21  1  0.252666  0.500000  0.500000  1
  Pd  Pd22  1  0.741744  0.500000  0.500000  1
  Pd  Pd23  1  0.498650  0.253933  0.500000  1
  Pd  Pd24  1  0.498650  0.746067  0.500000  1
  Pd  Pd25  1  0.498650  0.500000  0.253933  1
  Pd  Pd26  1  0.498650  0.500000  0.746067  1
  Pd  Pd27  1  0.697109  0.000000  0.000000  1
  Pd  Pd28  1  0.999954  0.315450  0.000000  1
  Pd  Pd29  1  0.999954  0.684550  0.000000  1
  Pd  Pd30  1  0.999954  0.000000  0.315450  1
  Pd  Pd31  1  0.999954  0.000000  0.684550  1
  Pb  Pb32  1  0.019607  0.000000  0.000000  1
