# generated using pymatgen
data_HoTmOsC2
_symmetry_space_group_name_H-M   'P 1'
_cell_length_a   5.07526700
_cell_length_b   6.42427500
_cell_length_c   9.70816400
_cell_angle_alpha   90.00000000
_cell_angle_beta   90.00000000
_cell_angle_gamma   90.00000000
_symmetry_Int_Tables_number   1
_chemical_formula_structural   HoTmOsC2
_chemical_formula_sum   'Ho4 Tm4 Os4 C8'
_cell_volume   316.53382228
_cell_formula_units_Z   4
loop_
 _symmetry_equiv_pos_site_id
 _symmetry_equiv_pos_as_xyz
  1  'x, y, z'
loop_
 _atom_site_type_symbol
 _atom_site_label
 _atom_site_symmetry_multiplicity
 _atom_site_fract_x
 _atom_site_fract_y
 _atom_site_fract_z
 _atom_site_occupancy
  Ho  Ho0  1  0.250000  0.526852  0.218256  1
  Ho  Ho1  1  0.750000  0.473148  0.781744  1
  Ho  Ho2  1  0.750000  0.973148  0.718256  1
  Ho  Ho3  1  0.250000  0.026852  0.281744  1
  Tm  Tm4  1  0.250000  0.679870  0.554074  1
  Tm  Tm5  1  0.750000  0.320130  0.445926  1
  Tm  Tm6  1  0.750000  0.820130  0.054074  1
  Tm  Tm7  1  0.250000  0.179870  0.945926  1
  Os  Os8  1  0.250000  0.725129  0.866475  1
  Os  Os9  1  0.750000  0.274871  0.133525  1
  Os  Os10  1  0.750000  0.774871  0.366475  1
  Os  Os11  1  0.250000  0.225129  0.633525  1
  C  C12  1  0.250000  0.460140  0.758727  1
  C  C13  1  0.750000  0.539860  0.241273  1
  C  C14  1  0.750000  0.039860  0.258727  1
  C  C15  1  0.250000  0.960140  0.741273  1
  C  C16  1  0.250000  0.829549  0.054813  1
  C  C17  1  0.750000  0.170451  0.945187  1
  C  C18  1  0.750000  0.670451  0.554813  1
  C  C19  1  0.250000  0.329549  0.445187  1
