# generated using pymatgen
data_HfZrFeSb2Pt
_symmetry_space_group_name_H-M   'P 1'
_cell_length_a   6.28169971
_cell_length_b   6.27830866
_cell_length_c   7.63688252
_cell_angle_alpha   65.72909254
_cell_angle_beta   65.71512947
_cell_angle_gamma   90.00000298
_symmetry_Int_Tables_number   1
_chemical_formula_structural   HfZrFeSb2Pt
_chemical_formula_sum   'Hf2 Zr2 Fe2 Sb4 Pt2'
_cell_volume   245.03552037
_cell_formula_units_Z   2
loop_
 _symmetry_equiv_pos_site_id
 _symmetry_equiv_pos_as_xyz
  1  'x, y, z'
loop_
 _atom_site_type_symbol
 _atom_site_label
 _atom_site_symmetry_multiplicity
 _atom_site_fract_x
 _atom_site_fract_y
 _atom_site_fract_z
 _atom_site_occupancy
  Hf  Hf0  1  0.366555  0.875000  0.750000  1
  Hf  Hf1  1  0.883445  0.375000  0.750000  1
  Zr  Zr2  1  0.125001  0.115914  0.249999  1
  Zr  Zr3  1  0.625000  0.634087  0.250000  1
  Fe  Fe4  1  0.000666  0.000666  0.998668  1
  Fe  Fe5  1  0.249334  0.749334  0.501332  1
  Sb  Sb6  1  0.625001  0.106190  0.249999  1
  Sb  Sb7  1  0.125000  0.643811  0.250000  1
  Sb  Sb8  1  0.353686  0.375000  0.750000  1
  Sb  Sb9  1  0.896314  0.875000  0.750000  1
  Pt  Pt10  1  0.502084  0.502084  0.995832  1
  Pt  Pt11  1  0.747916  0.247916  0.504168  1
