# generated using pymatgen
data_LiY4MnC8
_symmetry_space_group_name_H-M   'P 1'
_cell_length_a   6.65794595
_cell_length_b   6.65794732
_cell_length_c   6.65794706
_cell_angle_alpha   134.02621194
_cell_angle_beta   110.42525028
_cell_angle_gamma   87.47974584
_symmetry_Int_Tables_number   1
_chemical_formula_structural   LiY4MnC8
_chemical_formula_sum   'Li1 Y4 Mn1 C8'
_cell_volume   190.03555769
_cell_formula_units_Z   1
loop_
 _symmetry_equiv_pos_site_id
 _symmetry_equiv_pos_as_xyz
  1  'x, y, z'
loop_
 _atom_site_type_symbol
 _atom_site_label
 _atom_site_symmetry_multiplicity
 _atom_site_fract_x
 _atom_site_fract_y
 _atom_site_fract_z
 _atom_site_occupancy
  Li  Li0  1  0.000000  0.250000  0.250000  1
  Y  Y1  1  0.511284  0.354473  0.155892  1
  Y  Y2  1  0.488716  0.644609  0.843190  1
  Y  Y3  1  0.198581  0.855391  0.344108  1
  Y  Y4  1  0.801419  0.145527  0.656810  1
  Mn  Mn5  1  0.000000  0.750000  0.750000  1
  C  C6  1  0.261374  0.024113  0.119409  1
  C  C7  1  0.738626  0.858034  0.762737  1
  C  C8  1  0.904704  0.641966  0.380591  1
  C  C9  1  0.095296  0.475887  0.737263  1
  C  C10  1  0.468187  0.131462  0.343468  1
  C  C11  1  0.531813  0.875281  0.663276  1
  C  C12  1  0.787994  0.624719  0.156532  1
  C  C13  1  0.212006  0.368538  0.836724  1
