# generated using pymatgen
data_HoEr9(SiHg)4
_symmetry_space_group_name_H-M   'P 1'
_cell_length_a   8.70451179
_cell_length_b   8.70249535
_cell_length_c   7.50563019
_cell_angle_alpha   89.97834787
_cell_angle_beta   90.00275919
_cell_angle_gamma   129.03719153
_symmetry_Int_Tables_number   1
_chemical_formula_structural   HoEr9(SiHg)4
_chemical_formula_sum   'Ho1 Er9 Si4 Hg4'
_cell_volume   441.62077477
_cell_formula_units_Z   1
loop_
 _symmetry_equiv_pos_site_id
 _symmetry_equiv_pos_as_xyz
  1  'x, y, z'
loop_
 _atom_site_type_symbol
 _atom_site_label
 _atom_site_symmetry_multiplicity
 _atom_site_fract_x
 _atom_site_fract_y
 _atom_site_fract_z
 _atom_site_occupancy
  Ho  Ho0  1  0.052470  0.307375  0.325514  1
  Er  Er1  1  0.947533  0.692934  0.674410  1
  Er  Er2  1  0.447517  0.192993  0.825623  1
  Er  Er3  1  0.806956  0.552486  0.174288  1
  Er  Er4  1  0.552422  0.806892  0.174266  1
  Er  Er5  1  0.193166  0.447651  0.825688  1
  Er  Er6  1  0.692946  0.947387  0.674487  1
  Er  Er7  1  0.306927  0.052447  0.325599  1
  Er  Er8  1  0.000044  0.999802  0.999856  1
  Er  Er9  1  0.500224  0.500048  0.500060  1
  Si  Si10  1  0.379058  0.378787  0.123937  1
  Si  Si11  1  0.621252  0.621218  0.875858  1
  Si  Si12  1  0.121294  0.121181  0.624375  1
  Si  Si13  1  0.878599  0.878466  0.375849  1
  Hg  Hg14  1  0.783399  0.216297  0.999623  1
  Hg  Hg15  1  0.216317  0.783590  0.000031  1
  Hg  Hg16  1  0.715913  0.283562  0.500270  1
  Hg  Hg17  1  0.283965  0.716884  0.500265  1
