# generated using pymatgen
data_Mn5V(GaRh2)6
_symmetry_space_group_name_H-M   'P 1'
_cell_length_a   4.31231500
_cell_length_b   6.06770000
_cell_length_c   12.88844100
_cell_angle_alpha   90.00000000
_cell_angle_beta   90.00049035
_cell_angle_gamma   90.00000000
_symmetry_Int_Tables_number   1
_chemical_formula_structural   Mn5V(GaRh2)6
_chemical_formula_sum   'Mn5 V1 Ga6 Rh12'
_cell_volume   337.23680450
_cell_formula_units_Z   1
loop_
 _symmetry_equiv_pos_site_id
 _symmetry_equiv_pos_as_xyz
  1  'x, y, z'
loop_
 _atom_site_type_symbol
 _atom_site_label
 _atom_site_symmetry_multiplicity
 _atom_site_fract_x
 _atom_site_fract_y
 _atom_site_fract_z
 _atom_site_occupancy
  Mn  Mn0  1  0.499888  0.500000  0.167836  1
  Mn  Mn1  1  0.999915  0.000000  0.333377  1
  Mn  Mn2  1  0.500002  0.500000  0.499999  1
  Mn  Mn3  1  0.000086  0.000000  0.666626  1
  Mn  Mn4  1  0.500108  0.500000  0.832159  1
  V  V5  1  0.000000  0.000000  0.999997  1
  Ga  Ga6  1  0.000001  0.500000  0.000000  1
  Ga  Ga7  1  0.499888  0.000000  0.169627  1
  Ga  Ga8  1  0.999907  0.500000  0.334430  1
  Ga  Ga9  1  0.500001  0.000000  0.500000  1
  Ga  Ga10  1  0.000092  0.500000  0.665574  1
  Ga  Ga11  1  0.500111  0.000000  0.830372  1
  Rh  Rh12  1  0.500000  0.244681  0.999995  1
  Rh  Rh13  1  0.500001  0.755319  0.999996  1
  Rh  Rh14  1  0.999897  0.245917  0.162526  1
  Rh  Rh15  1  0.999897  0.754082  0.162526  1
  Rh  Rh16  1  0.499913  0.251457  0.333061  1
  Rh  Rh17  1  0.499913  0.748543  0.333061  1
  Rh  Rh18  1  0.000001  0.248944  0.500004  1
  Rh  Rh19  1  0.000001  0.751057  0.500004  1
  Rh  Rh20  1  0.500086  0.251451  0.666941  1
  Rh  Rh21  1  0.500086  0.748549  0.666941  1
  Rh  Rh22  1  0.000102  0.245918  0.837472  1
  Rh  Rh23  1  0.000102  0.754082  0.837472  1
