# generated using pymatgen
data_Pr8Ga(Si4Rh)3
_symmetry_space_group_name_H-M   'P 1'
_cell_length_a   8.27684500
_cell_length_b   8.27684659
_cell_length_c   8.58321000
_cell_angle_alpha   90.00000000
_cell_angle_beta   90.00000000
_cell_angle_gamma   120.00000565
_symmetry_Int_Tables_number   1
_chemical_formula_structural   Pr8Ga(Si4Rh)3
_chemical_formula_sum   'Pr8 Ga1 Si12 Rh3'
_cell_volume   509.22541768
_cell_formula_units_Z   1
loop_
 _symmetry_equiv_pos_site_id
 _symmetry_equiv_pos_as_xyz
  1  'x, y, z'
loop_
 _atom_site_type_symbol
 _atom_site_label
 _atom_site_symmetry_multiplicity
 _atom_site_fract_x
 _atom_site_fract_y
 _atom_site_fract_z
 _atom_site_occupancy
  Pr  Pr0  1  0.498047  0.501953  0.754050  1
  Pr  Pr1  1  0.499618  0.500382  0.246290  1
  Pr  Pr2  1  0.003907  0.501953  0.754050  1
  Pr  Pr3  1  0.000764  0.500382  0.246290  1
  Pr  Pr4  1  0.498047  0.996093  0.754050  1
  Pr  Pr5  1  0.499618  0.999236  0.246290  1
  Pr  Pr6  1  0.000000  0.000000  0.752049  1
  Pr  Pr7  1  0.000000  0.000000  0.246929  1
  Ga  Ga8  1  0.666667  0.333333  0.506734  1
  Si  Si9  1  0.832526  0.167474  0.999595  1
  Si  Si10  1  0.166986  0.833014  0.000242  1
  Si  Si11  1  0.334949  0.167474  0.999595  1
  Si  Si12  1  0.169543  0.830457  0.500799  1
  Si  Si13  1  0.666029  0.833014  0.000242  1
  Si  Si14  1  0.838713  0.161287  0.498196  1
  Si  Si15  1  0.832526  0.665051  0.999595  1
  Si  Si16  1  0.660914  0.830457  0.500799  1
  Si  Si17  1  0.166986  0.333971  0.000242  1
  Si  Si18  1  0.322576  0.161287  0.498196  1
  Si  Si19  1  0.169543  0.339086  0.500799  1
  Si  Si20  1  0.838713  0.677424  0.498196  1
  Rh  Rh21  1  0.666667  0.333333  0.996685  1
  Rh  Rh22  1  0.333333  0.666667  0.003384  1
  Rh  Rh23  1  0.333333  0.666667  0.496704  1
