# generated using pymatgen
data_ThTaNb5Sn6
_symmetry_space_group_name_H-M   'P 1'
_cell_length_a   5.83566000
_cell_length_b   5.83599359
_cell_length_c   9.62261500
_cell_angle_alpha   90.00000000
_cell_angle_beta   90.00000000
_cell_angle_gamma   119.99810916
_symmetry_Int_Tables_number   1
_chemical_formula_structural   ThTaNb5Sn6
_chemical_formula_sum   'Th1 Ta1 Nb5 Sn6'
_cell_volume   283.81595314
_cell_formula_units_Z   1
loop_
 _symmetry_equiv_pos_site_id
 _symmetry_equiv_pos_as_xyz
  1  'x, y, z'
loop_
 _atom_site_type_symbol
 _atom_site_label
 _atom_site_symmetry_multiplicity
 _atom_site_fract_x
 _atom_site_fract_y
 _atom_site_fract_z
 _atom_site_occupancy
  Th  Th0  1  0.000000  0.000000  0.999887  1
  Ta  Ta1  1  0.500000  0.000000  0.751383  1
  Nb  Nb2  1  0.000000  0.500000  0.751482  1
  Nb  Nb3  1  0.500000  0.500000  0.751482  1
  Nb  Nb4  1  0.000000  0.500000  0.248849  1
  Nb  Nb5  1  0.500000  0.500000  0.248849  1
  Nb  Nb6  1  0.500000  0.000000  0.248533  1
  Sn  Sn7  1  0.666565  0.333129  0.499923  1
  Sn  Sn8  1  0.333435  0.666871  0.499923  1
  Sn  Sn9  1  0.666744  0.333486  0.000009  1
  Sn  Sn10  1  0.333256  0.666514  0.000009  1
  Sn  Sn11  1  0.000000  0.000000  0.655754  1
  Sn  Sn12  1  0.000000  0.000000  0.343918  1
