# generated using pymatgen
data_Dy9Ho3Co6Pb
_symmetry_space_group_name_H-M   'P 1'
_cell_length_a   8.38095932
_cell_length_b   8.38095893
_cell_length_c   8.38304328
_cell_angle_alpha   109.46461287
_cell_angle_beta   109.52017575
_cell_angle_gamma   109.41880479
_symmetry_Int_Tables_number   1
_chemical_formula_structural   Dy9Ho3Co6Pb
_chemical_formula_sum   'Dy9 Ho3 Co6 Pb1'
_cell_volume   453.33678501
_cell_formula_units_Z   1
loop_
 _symmetry_equiv_pos_site_id
 _symmetry_equiv_pos_as_xyz
  1  'x, y, z'
loop_
 _atom_site_type_symbol
 _atom_site_label
 _atom_site_symmetry_multiplicity
 _atom_site_fract_x
 _atom_site_fract_y
 _atom_site_fract_z
 _atom_site_occupancy
  Dy  Dy0  1  0.805481  0.304367  0.109848  1
  Dy  Dy1  1  0.695632  0.500963  0.804831  1
  Dy  Dy2  1  0.304602  0.499241  0.194923  1
  Dy  Dy3  1  0.695681  0.890321  0.194923  1
  Dy  Dy4  1  0.303867  0.109198  0.804831  1
  Dy  Dy5  1  0.501036  0.804911  0.695821  1
  Dy  Dy6  1  0.498645  0.194824  0.304048  1
  Dy  Dy7  1  0.109224  0.805403  0.304048  1
  Dy  Dy8  1  0.890910  0.194784  0.695821  1
  Ho  Ho9  1  0.805569  0.695385  0.500954  1
  Ho  Ho10  1  0.194666  0.304718  0.499384  1
  Ho  Ho11  1  0.194548  0.695326  0.889874  1
  Co  Co12  1  0.887612  0.387751  0.500646  1
  Co  Co13  1  0.112895  0.613033  0.500646  1
  Co  Co14  1  0.387008  0.499851  0.886859  1
  Co  Co15  1  0.612761  0.500027  0.112788  1
  Co  Co16  1  0.500043  0.887340  0.387383  1
  Co  Co17  1  0.499681  0.112706  0.612387  1
  Pb  Pb18  1  0.000138  0.999849  0.999986  1
