# generated using pymatgen
data_Pr4Nd2Al23VOs8
_symmetry_space_group_name_H-M   'P 1'
_cell_length_a   8.94206478
_cell_length_b   8.94206369
_cell_length_c   9.69773525
_cell_angle_alpha   90.02248270
_cell_angle_beta   89.97751964
_cell_angle_gamma   120.06862855
_symmetry_Int_Tables_number   1
_chemical_formula_structural   Pr4Nd2Al23VOs8
_chemical_formula_sum   'Pr4 Nd2 Al23 V1 Os8'
_cell_volume   671.08221659
_cell_formula_units_Z   1
loop_
 _symmetry_equiv_pos_site_id
 _symmetry_equiv_pos_as_xyz
  1  'x, y, z'
loop_
 _atom_site_type_symbol
 _atom_site_label
 _atom_site_symmetry_multiplicity
 _atom_site_fract_x
 _atom_site_fract_y
 _atom_site_fract_z
 _atom_site_occupancy
  Pr  Pr0  1  0.193933  0.387464  0.248122  1
  Pr  Pr1  1  0.807713  0.615650  0.750078  1
  Pr  Pr2  1  0.612536  0.806067  0.248122  1
  Pr  Pr3  1  0.384350  0.192287  0.750078  1
  Nd  Nd4  1  0.193657  0.806343  0.247921  1
  Nd  Nd5  1  0.807860  0.192140  0.750146  1
  Al  Al6  1  0.666738  0.333262  0.984356  1
  Al  Al7  1  0.666611  0.333389  0.514370  1
  Al  Al8  1  0.333434  0.666566  0.487353  1
  Al  Al9  1  0.162439  0.325299  0.573941  1
  Al  Al10  1  0.837233  0.674255  0.426537  1
  Al  Al11  1  0.674701  0.837561  0.573941  1
  Al  Al12  1  0.835947  0.671731  0.075461  1
  Al  Al13  1  0.325745  0.162767  0.426537  1
  Al  Al14  1  0.160488  0.321154  0.926558  1
  Al  Al15  1  0.162568  0.837432  0.573862  1
  Al  Al16  1  0.328269  0.164053  0.075461  1
  Al  Al17  1  0.837225  0.162775  0.426853  1
  Al  Al18  1  0.678846  0.839512  0.926558  1
  Al  Al19  1  0.835866  0.164134  0.075201  1
  Al  Al20  1  0.160590  0.839410  0.926775  1
  Al  Al21  1  0.562865  0.126192  0.252985  1
  Al  Al22  1  0.439813  0.879373  0.749594  1
  Al  Al23  1  0.873808  0.437135  0.252985  1
  Al  Al24  1  0.120627  0.560187  0.749594  1
  Al  Al25  1  0.563177  0.436823  0.253077  1
  Al  Al26  1  0.439652  0.560348  0.749583  1
  Al  Al27  1  0.000157  0.999843  0.251617  1
  Al  Al28  1  0.999863  0.000137  0.750283  1
  V  V29  1  0.333218  0.666782  0.976899  1
  Os  Os30  1  0.494772  0.989476  0.005066  1
  Os  Os31  1  0.010524  0.505228  0.005066  1
  Os  Os32  1  0.499285  0.998577  0.502575  1
  Os  Os33  1  0.494746  0.505254  0.005050  1
  Os  Os34  1  0.001423  0.500715  0.502575  1
  Os  Os35  1  0.499301  0.500699  0.502694  1
  Os  Os36  1  0.000018  0.999982  0.001944  1
  Os  Os37  1  0.999998  0.000002  0.500179  1
