# generated using pymatgen
data_Zn3Mo12Ru(PtN)4
_symmetry_space_group_name_H-M   'P 1'
_cell_length_a   6.86202613
_cell_length_b   6.86201157
_cell_length_c   6.86201500
_cell_angle_alpha   90.33959728
_cell_angle_beta   90.33968399
_cell_angle_gamma   90.33968569
_symmetry_Int_Tables_number   1
_chemical_formula_structural   Zn3Mo12Ru(PtN)4
_chemical_formula_sum   'Zn3 Mo12 Ru1 Pt4 N4'
_cell_volume   323.09667706
_cell_formula_units_Z   1
loop_
 _symmetry_equiv_pos_site_id
 _symmetry_equiv_pos_as_xyz
  1  'x, y, z'
loop_
 _atom_site_type_symbol
 _atom_site_label
 _atom_site_symmetry_multiplicity
 _atom_site_fract_x
 _atom_site_fract_y
 _atom_site_fract_z
 _atom_site_occupancy
  Zn  Zn0  1  0.181816  0.818847  0.314077  1
  Zn  Zn1  1  0.314076  0.181818  0.818847  1
  Zn  Zn2  1  0.818848  0.314076  0.181817  1
  Mo  Mo3  1  0.792600  0.954160  0.379331  1
  Mo  Mo4  1  0.701538  0.033783  0.877249  1
  Mo  Mo5  1  0.199704  0.461561  0.126138  1
  Mo  Mo6  1  0.306147  0.539853  0.628708  1
  Mo  Mo7  1  0.954158  0.379333  0.792599  1
  Mo  Mo8  1  0.033782  0.877248  0.701538  1
  Mo  Mo9  1  0.461562  0.126138  0.199704  1
  Mo  Mo10  1  0.539852  0.628709  0.306147  1
  Mo  Mo11  1  0.379332  0.792599  0.954158  1
  Mo  Mo12  1  0.877248  0.701536  0.033783  1
  Mo  Mo13  1  0.126138  0.199703  0.461562  1
  Mo  Mo14  1  0.628708  0.306147  0.539853  1
  Ru  Ru15  1  0.683698  0.683699  0.683699  1
  Pt  Pt16  1  0.563071  0.429938  0.941368  1
  Pt  Pt17  1  0.429938  0.941369  0.563071  1
  Pt  Pt18  1  0.941367  0.563071  0.429938  1
  Pt  Pt19  1  0.068392  0.068391  0.068391  1
  N  N20  1  0.870132  0.127826  0.626420  1
  N  N21  1  0.626420  0.870132  0.127824  1
  N  N22  1  0.127825  0.626420  0.870132  1
  N  N23  1  0.373648  0.373647  0.373648  1
