# generated using pymatgen
data_Ho16CdHg3RuPt3
_symmetry_space_group_name_H-M   'P 1'
_cell_length_a   9.59338299
_cell_length_b   9.59535871
_cell_length_c   9.59535801
_cell_angle_alpha   59.86957492
_cell_angle_beta   59.88965313
_cell_angle_gamma   59.88965212
_symmetry_Int_Tables_number   1
_chemical_formula_structural   Ho16CdHg3RuPt3
_chemical_formula_sum   'Ho16 Cd1 Hg3 Ru1 Pt3'
_cell_volume   622.90860382
_cell_formula_units_Z   1
loop_
 _symmetry_equiv_pos_site_id
 _symmetry_equiv_pos_as_xyz
  1  'x, y, z'
loop_
 _atom_site_type_symbol
 _atom_site_label
 _atom_site_symmetry_multiplicity
 _atom_site_fract_x
 _atom_site_fract_y
 _atom_site_fract_z
 _atom_site_occupancy
  Ho  Ho0  1  0.602623  0.602235  0.602235  1
  Ho  Ho1  1  0.602143  0.601504  0.193469  1
  Ho  Ho2  1  0.602143  0.193469  0.601504  1
  Ho  Ho3  1  0.191129  0.602552  0.602552  1
  Ho  Ho4  1  0.064538  0.439215  0.439215  1
  Ho  Ho5  1  0.438449  0.060020  0.060020  1
  Ho  Ho6  1  0.438066  0.065076  0.439154  1
  Ho  Ho7  1  0.059139  0.439507  0.059232  1
  Ho  Ho8  1  0.438066  0.439154  0.065076  1
  Ho  Ho9  1  0.059139  0.059232  0.439507  1
  Ho  Ho10  1  0.184837  0.815550  0.815550  1
  Ho  Ho11  1  0.809693  0.187146  0.187146  1
  Ho  Ho12  1  0.814679  0.186670  0.815210  1
  Ho  Ho13  1  0.185756  0.810341  0.187735  1
  Ho  Ho14  1  0.814679  0.815210  0.186670  1
  Ho  Ho15  1  0.185756  0.187735  0.810341  1
  Cd  Cd16  1  0.504771  0.830838  0.830838  1
  Hg  Hg17  1  0.833357  0.834910  0.834910  1
  Hg  Hg18  1  0.834569  0.836475  0.490331  1
  Hg  Hg19  1  0.834569  0.490331  0.836475  1
  Ru  Ru20  1  0.393364  0.394095  0.394095  1
  Pt  Pt21  1  0.393604  0.393995  0.820918  1
  Pt  Pt22  1  0.393604  0.820918  0.393995  1
  Pt  Pt23  1  0.821320  0.393816  0.393816  1
