# generated using pymatgen
data_Pr16Ho4Bi3Pb13
_symmetry_space_group_name_H-M   'P 1'
_cell_length_a   8.46918478
_cell_length_b   16.25742064
_cell_length_c   8.52002322
_cell_angle_alpha   90.07327515
_cell_angle_beta   89.90373620
_cell_angle_gamma   89.77546736
_symmetry_Int_Tables_number   1
_chemical_formula_structural   Pr16Ho4Bi3Pb13
_chemical_formula_sum   'Pr16 Ho4 Bi3 Pb13'
_cell_volume   1173.08565109
_cell_formula_units_Z   1
loop_
 _symmetry_equiv_pos_site_id
 _symmetry_equiv_pos_as_xyz
  1  'x, y, z'
loop_
 _atom_site_type_symbol
 _atom_site_label
 _atom_site_symmetry_multiplicity
 _atom_site_fract_x
 _atom_site_fract_y
 _atom_site_fract_z
 _atom_site_occupancy
  Pr  Pr0  1  0.618514  0.619103  0.158655  1
  Pr  Pr1  1  0.115838  0.880765  0.342782  1
  Pr  Pr2  1  0.382908  0.119719  0.843867  1
  Pr  Pr3  1  0.880819  0.380806  0.655776  1
  Pr  Pr4  1  0.377773  0.381039  0.843159  1
  Pr  Pr5  1  0.879869  0.118778  0.658522  1
  Pr  Pr6  1  0.619584  0.881445  0.157889  1
  Pr  Pr7  1  0.120007  0.619337  0.342771  1
  Pr  Pr8  1  0.455105  0.603766  0.669162  1
  Pr  Pr9  1  0.948044  0.894102  0.828875  1
  Pr  Pr10  1  0.551623  0.105640  0.329559  1
  Pr  Pr11  1  0.045855  0.396952  0.175219  1
  Pr  Pr12  1  0.540448  0.397841  0.328583  1
  Pr  Pr13  1  0.039774  0.103706  0.172394  1
  Pr  Pr14  1  0.460829  0.896580  0.672832  1
  Pr  Pr15  1  0.962603  0.602593  0.822490  1
  Ho  Ho16  1  0.784640  0.749000  0.497899  1
  Ho  Ho17  1  0.284453  0.746562  0.000771  1
  Ho  Ho18  1  0.216157  0.252829  0.501512  1
  Ho  Ho19  1  0.715812  0.248904  0.999232  1
  Bi  Bi20  1  0.724807  0.451410  0.975291  1
  Bi  Bi21  1  0.227696  0.049112  0.522301  1
  Bi  Bi22  1  0.272109  0.950800  0.021383  1
  Pb  Pb23  1  0.776146  0.546990  0.473189  1
  Pb  Pb24  1  0.276634  0.546920  0.028375  1
  Pb  Pb25  1  0.776122  0.952446  0.472895  1
  Pb  Pb26  1  0.723526  0.047323  0.973199  1
  Pb  Pb27  1  0.221654  0.453399  0.529847  1
  Pb  Pb28  1  0.423537  0.751803  0.371716  1
  Pb  Pb29  1  0.923212  0.749207  0.127440  1
  Pb  Pb30  1  0.576193  0.250798  0.628560  1
  Pb  Pb31  1  0.075698  0.249695  0.872617  1
  Pb  Pb32  1  0.647916  0.748682  0.848936  1
  Pb  Pb33  1  0.149469  0.751432  0.650784  1
  Pb  Pb34  1  0.352100  0.249597  0.152448  1
  Pb  Pb35  1  0.852524  0.250919  0.349074  1
