# generated using pymatgen
data_Mg6NpTaN8
_symmetry_space_group_name_H-M   'P 1'
_cell_length_a   5.43276412
_cell_length_b   6.29877117
_cell_length_c   6.29870327
_cell_angle_alpha   60.37982838
_cell_angle_beta   73.22004971
_cell_angle_gamma   73.22201791
_symmetry_Int_Tables_number   1
_chemical_formula_structural   Mg6NpTaN8
_chemical_formula_sum   'Mg6 Np1 Ta1 N8'
_cell_volume   176.61444993
_cell_formula_units_Z   1
loop_
 _symmetry_equiv_pos_site_id
 _symmetry_equiv_pos_as_xyz
  1  'x, y, z'
loop_
 _atom_site_type_symbol
 _atom_site_label
 _atom_site_symmetry_multiplicity
 _atom_site_fract_x
 _atom_site_fract_y
 _atom_site_fract_z
 _atom_site_occupancy
  Mg  Mg0  1  0.243795  0.372294  0.631701  1
  Mg  Mg1  1  0.756876  0.625210  0.371472  1
  Mg  Mg2  1  0.750001  0.623381  0.876559  1
  Mg  Mg3  1  0.250030  0.376251  0.123869  1
  Mg  Mg4  1  0.256297  0.868322  0.127769  1
  Mg  Mg5  1  0.742986  0.128456  0.874701  1
  Np  Np6  1  0.249981  0.865542  0.634539  1
  Ta  Ta7  1  0.750080  0.161467  0.338371  1
  N  N8  1  0.009835  0.762825  0.503429  1
  N  N9  1  0.993985  0.229917  0.503165  1
  N  N10  1  0.514579  0.484427  0.257896  1
  N  N11  1  0.487250  0.512883  0.746481  1
  N  N12  1  0.490130  0.996529  0.737374  1
  N  N13  1  0.506010  0.996847  0.270017  1
  N  N14  1  0.012721  0.753463  0.987258  1
  N  N15  1  0.985445  0.242188  0.015399  1
