# generated using pymatgen
data_Ho8TlZnPd2
_symmetry_space_group_name_H-M   'P 1'
_cell_length_a   9.60081583
_cell_length_b   9.60081628
_cell_length_c   9.61317100
_cell_angle_alpha   59.95742598
_cell_angle_beta   59.95742440
_cell_angle_gamma   59.97665549
_symmetry_Int_Tables_number   1
_chemical_formula_structural   Ho8TlZnPd2
_chemical_formula_sum   'Ho16 Tl2 Zn2 Pd4'
_cell_volume   626.05373504
_cell_formula_units_Z   2
loop_
 _symmetry_equiv_pos_site_id
 _symmetry_equiv_pos_as_xyz
  1  'x, y, z'
loop_
 _atom_site_type_symbol
 _atom_site_label
 _atom_site_symmetry_multiplicity
 _atom_site_fract_x
 _atom_site_fract_y
 _atom_site_fract_z
 _atom_site_occupancy
  Ho  Ho0  1  0.354624  0.354624  0.357385  1
  Ho  Ho1  1  0.354624  0.354624  0.933370  1
  Ho  Ho2  1  0.354602  0.932852  0.356274  1
  Ho  Ho3  1  0.932852  0.354602  0.356274  1
  Ho  Ho4  1  0.809693  0.189408  0.191214  1
  Ho  Ho5  1  0.189408  0.809693  0.809685  1
  Ho  Ho6  1  0.189408  0.809693  0.191214  1
  Ho  Ho7  1  0.809693  0.189408  0.809685  1
  Ho  Ho8  1  0.190568  0.190568  0.809432  1
  Ho  Ho9  1  0.809495  0.809495  0.190505  1
  Ho  Ho10  1  0.942296  0.565861  0.564775  1
  Ho  Ho11  1  0.565861  0.942296  0.927068  1
  Ho  Ho12  1  0.565861  0.942296  0.564775  1
  Ho  Ho13  1  0.942296  0.565861  0.927068  1
  Ho  Ho14  1  0.566052  0.566052  0.933948  1
  Ho  Ho15  1  0.936428  0.936428  0.563572  1
  Tl  Tl16  1  0.580907  0.580907  0.587628  1
  Tl  Tl17  1  0.580907  0.580907  0.250559  1
  Zn  Zn18  1  0.581351  0.244810  0.586919  1
  Zn  Zn19  1  0.244810  0.581351  0.586919  1
  Pd  Pd20  1  0.144465  0.144465  0.145565  1
  Pd  Pd21  1  0.144465  0.144465  0.565506  1
  Pd  Pd22  1  0.144417  0.564920  0.145331  1
  Pd  Pd23  1  0.564920  0.144417  0.145331  1
