# generated using pymatgen
data_DyY11Pb10
_symmetry_space_group_name_H-M   'P 1'
_cell_length_a   11.76008205
_cell_length_b   11.76008151
_cell_length_c   11.76118200
_cell_angle_alpha   146.85295621
_cell_angle_beta   132.77893127
_cell_angle_gamma   58.89664081
_symmetry_Int_Tables_number   1
_chemical_formula_structural   DyY11Pb10
_chemical_formula_sum   'Dy1 Y11 Pb10'
_cell_volume   647.27680495
_cell_formula_units_Z   1
loop_
 _symmetry_equiv_pos_site_id
 _symmetry_equiv_pos_as_xyz
  1  'x, y, z'
loop_
 _atom_site_type_symbol
 _atom_site_label
 _atom_site_symmetry_multiplicity
 _atom_site_fract_x
 _atom_site_fract_y
 _atom_site_fract_z
 _atom_site_occupancy
  Dy  Dy0  1  0.696432  0.446432  0.750000  1
  Y  Y1  1  0.696379  0.946379  0.250000  1
  Y  Y2  1  0.250323  0.637234  0.613056  1
  Y  Y3  1  0.681175  0.941447  0.739754  1
  Y  Y4  1  0.024178  0.137265  0.886944  1
  Y  Y5  1  0.975888  0.862544  0.113102  1
  Y  Y6  1  0.798301  0.558534  0.239668  1
  Y  Y7  1  0.201691  0.441419  0.760246  1
  Y  Y8  1  0.303522  0.053522  0.750000  1
  Y  Y9  1  0.318865  0.058632  0.260332  1
  Y  Y10  1  0.303631  0.553631  0.250000  1
  Y  Y11  1  0.749441  0.362786  0.386898  1
  Pb  Pb12  1  0.481333  0.573626  0.906000  1
  Pb  Pb13  1  0.598949  0.793550  0.803824  1
  Pb  Pb14  1  0.667626  0.075334  0.594000  1
  Pb  Pb15  1  0.000006  0.750006  0.750000  1
  Pb  Pb16  1  0.989727  0.295125  0.696176  1
  Pb  Pb17  1  0.518922  0.425588  0.093092  1
  Pb  Pb18  1  0.009762  0.705008  0.303622  1
  Pb  Pb19  1  0.401387  0.206141  0.196378  1
  Pb  Pb20  1  0.332496  0.925829  0.406908  1
  Pb  Pb21  1  0.999969  0.249969  0.250000  1
