# generated using pymatgen
data_DyY3(ErIn)6
_symmetry_space_group_name_H-M   'P 1'
_cell_length_a   9.13533038
_cell_length_b   9.13532901
_cell_length_c   9.13753643
_cell_angle_alpha   96.40529140
_cell_angle_beta   96.37969936
_cell_angle_gamma   141.01117983
_symmetry_Int_Tables_number   1
_chemical_formula_structural   DyY3(ErIn)6
_chemical_formula_sum   'Dy1 Y3 Er6 In6'
_cell_volume   452.29248939
_cell_formula_units_Z   1
loop_
 _symmetry_equiv_pos_site_id
 _symmetry_equiv_pos_as_xyz
  1  'x, y, z'
loop_
 _atom_site_type_symbol
 _atom_site_label
 _atom_site_symmetry_multiplicity
 _atom_site_fract_x
 _atom_site_fract_y
 _atom_site_fract_z
 _atom_site_occupancy
  Dy  Dy0  1  0.081745  0.782147  0.863892  1
  Y  Y1  1  0.717729  0.418152  0.135881  1
  Y  Y2  1  0.282407  0.581742  0.864149  1
  Y  Y3  1  0.582055  0.717715  0.299769  1
  Er  Er4  1  0.217496  0.082043  0.299538  1
  Er  Er5  1  0.917969  0.217464  0.135433  1
  Er  Er6  1  0.749985  0.249900  0.499938  1
  Er  Er7  1  0.250038  0.749954  0.499938  1
  Er  Er8  1  0.782591  0.918308  0.700900  1
  Er  Er9  1  0.417740  0.282535  0.700276  1
  In  In10  1  0.838332  0.661599  0.499931  1
  In  In11  1  0.338816  0.838755  0.177571  1
  In  In12  1  0.750082  0.750414  0.000011  1
  In  In13  1  0.661703  0.161289  0.822994  1
  In  In14  1  0.161716  0.338053  0.499769  1
  In  In15  1  0.249596  0.249929  0.000011  1
