# generated using pymatgen
data_Na3Cu3As2
_symmetry_space_group_name_H-M   'P 1'
_cell_length_a   7.24719165
_cell_length_b   7.24719243
_cell_length_c   7.24719226
_cell_angle_alpha   42.75822010
_cell_angle_beta   42.75821507
_cell_angle_gamma   42.75821316
_symmetry_Int_Tables_number   1
_chemical_formula_structural   Na3Cu3As2
_chemical_formula_sum   'Na3 Cu3 As2'
_cell_volume   158.94079430
_cell_formula_units_Z   1
loop_
 _symmetry_equiv_pos_site_id
 _symmetry_equiv_pos_as_xyz
  1  'x, y, z'
loop_
 _atom_site_type_symbol
 _atom_site_label
 _atom_site_symmetry_multiplicity
 _atom_site_fract_x
 _atom_site_fract_y
 _atom_site_fract_z
 _atom_site_occupancy
  Na  Na0  1  0.089372  0.089372  0.089372  1
  Na  Na1  1  0.910628  0.910628  0.910628  1
  Na  Na2  1  0.500000  0.500000  0.500000  1
  Cu  Cu3  1  0.000000  0.500000  0.500000  1
  Cu  Cu4  1  0.500000  0.500000  0.000000  1
  Cu  Cu5  1  0.500000  0.000000  0.500000  1
  As  As6  1  0.759122  0.759122  0.759122  1
  As  As7  1  0.240878  0.240878  0.240878  1
