# generated using pymatgen
data_AcTh2Al7Cu2
_symmetry_space_group_name_H-M   'P 1'
_cell_length_a   9.32023210
_cell_length_b   9.32023116
_cell_length_c   9.32023149
_cell_angle_alpha   35.35283152
_cell_angle_beta   35.35284109
_cell_angle_gamma   35.35283765
_symmetry_Int_Tables_number   1
_chemical_formula_structural   AcTh2Al7Cu2
_chemical_formula_sum   'Ac1 Th2 Al7 Cu2'
_cell_volume   242.16334938
_cell_formula_units_Z   1
loop_
 _symmetry_equiv_pos_site_id
 _symmetry_equiv_pos_as_xyz
  1  'x, y, z'
loop_
 _atom_site_type_symbol
 _atom_site_label
 _atom_site_symmetry_multiplicity
 _atom_site_fract_x
 _atom_site_fract_y
 _atom_site_fract_z
 _atom_site_occupancy
  Ac  Ac0  1  0.000000  0.000000  0.000000  1
  Th  Th1  1  0.141934  0.141934  0.141934  1
  Th  Th2  1  0.858066  0.858066  0.858066  1
  Al  Al3  1  0.500000  0.500000  0.500000  1
  Al  Al4  1  0.071051  0.582749  0.582749  1
  Al  Al5  1  0.582749  0.582749  0.071051  1
  Al  Al6  1  0.582749  0.071051  0.582749  1
  Al  Al7  1  0.417251  0.928949  0.417251  1
  Al  Al8  1  0.928949  0.417251  0.417251  1
  Al  Al9  1  0.417251  0.417251  0.928949  1
  Cu  Cu10  1  0.335566  0.335566  0.335566  1
  Cu  Cu11  1  0.664434  0.664434  0.664434  1
