# generated using pymatgen
data_Nb8CrFeSe16
_symmetry_space_group_name_H-M   'P 1'
_cell_length_a   6.98114000
_cell_length_b   6.98114036
_cell_length_c   12.74439100
_cell_angle_alpha   90.00000000
_cell_angle_beta   90.00000000
_cell_angle_gamma   119.99999831
_symmetry_Int_Tables_number   1
_chemical_formula_structural   Nb8CrFeSe16
_chemical_formula_sum   'Nb8 Cr1 Fe1 Se16'
_cell_volume   537.90111368
_cell_formula_units_Z   1
loop_
 _symmetry_equiv_pos_site_id
 _symmetry_equiv_pos_as_xyz
  1  'x, y, z'
loop_
 _atom_site_type_symbol
 _atom_site_label
 _atom_site_symmetry_multiplicity
 _atom_site_fract_x
 _atom_site_fract_y
 _atom_site_fract_z
 _atom_site_occupancy
  Nb  Nb0  1  0.000000  0.000000  0.249332  1
  Nb  Nb1  1  0.000000  0.000000  0.750668  1
  Nb  Nb2  1  0.508150  0.016299  0.250340  1
  Nb  Nb3  1  0.983701  0.491850  0.250340  1
  Nb  Nb4  1  0.508150  0.491850  0.250340  1
  Nb  Nb5  1  0.491850  0.983701  0.749660  1
  Nb  Nb6  1  0.016299  0.508150  0.749660  1
  Nb  Nb7  1  0.491850  0.508150  0.749660  1
  Cr  Cr8  1  0.000000  0.000000  0.500000  1
  Fe  Fe9  1  0.000000  0.000000  0.000000  1
  Se  Se10  1  0.333333  0.666667  0.885809  1
  Se  Se11  1  0.666667  0.333333  0.114191  1
  Se  Se12  1  0.666667  0.333333  0.387209  1
  Se  Se13  1  0.333333  0.666667  0.612791  1
  Se  Se14  1  0.167142  0.832858  0.380689  1
  Se  Se15  1  0.167142  0.334284  0.380689  1
  Se  Se16  1  0.665716  0.832858  0.380689  1
  Se  Se17  1  0.832858  0.167142  0.619311  1
  Se  Se18  1  0.832858  0.665716  0.619311  1
  Se  Se19  1  0.334284  0.167142  0.619311  1
  Se  Se20  1  0.831829  0.168171  0.880288  1
  Se  Se21  1  0.831829  0.663659  0.880288  1
  Se  Se22  1  0.336341  0.168171  0.880288  1
  Se  Se23  1  0.168171  0.831829  0.119712  1
  Se  Se24  1  0.168171  0.336341  0.119712  1
  Se  Se25  1  0.663659  0.831829  0.119712  1
