# generated using pymatgen
data_YHo11Co4BiRu
_symmetry_space_group_name_H-M   'P 1'
_cell_length_a   8.30569037
_cell_length_b   8.30530487
_cell_length_c   8.29512982
_cell_angle_alpha   111.13697147
_cell_angle_beta   110.56700718
_cell_angle_gamma   106.79790414
_symmetry_Int_Tables_number   1
_chemical_formula_structural   YHo11Co4BiRu
_chemical_formula_sum   'Y1 Ho11 Co4 Bi1 Ru1'
_cell_volume   439.45338869
_cell_formula_units_Z   1
loop_
 _symmetry_equiv_pos_site_id
 _symmetry_equiv_pos_as_xyz
  1  'x, y, z'
loop_
 _atom_site_type_symbol
 _atom_site_label
 _atom_site_symmetry_multiplicity
 _atom_site_fract_x
 _atom_site_fract_y
 _atom_site_fract_z
 _atom_site_occupancy
  Y  Y0  1  0.816482  0.714428  0.530889  1
  Ho  Ho1  1  0.182491  0.285583  0.468088  1
  Ho  Ho2  1  0.182823  0.714224  0.897045  1
  Ho  Ho3  1  0.817437  0.285589  0.103060  1
  Ho  Ho4  1  0.688385  0.379603  0.691594  1
  Ho  Ho5  1  0.311094  0.620034  0.308323  1
  Ho  Ho6  1  0.688328  0.997250  0.308306  1
  Ho  Ho7  1  0.311967  0.003248  0.691646  1
  Ho  Ho8  1  0.592477  0.788814  0.804417  1
  Ho  Ho9  1  0.406960  0.210935  0.195569  1
  Ho  Ho10  1  0.984632  0.788663  0.195606  1
  Ho  Ho11  1  0.015591  0.211886  0.804365  1
  Co  Co12  1  0.624145  0.000124  0.624272  1
  Co  Co13  1  0.375739  0.000102  0.375853  1
  Co  Co14  1  0.111956  0.610807  0.500019  1
  Co  Co15  1  0.889252  0.388037  0.500030  1
  Bi  Bi16  1  0.500092  0.500096  0.000194  1
  Ru  Ru17  1  0.000150  0.000577  0.000728  1
