# generated using pymatgen
data_KBaWN3
_symmetry_space_group_name_H-M   'P 1'
_cell_length_a   6.75291449
_cell_length_b   6.75291397
_cell_length_c   13.41577446
_cell_angle_alpha   89.94938574
_cell_angle_beta   89.94938297
_cell_angle_gamma   125.72639060
_symmetry_Int_Tables_number   1
_chemical_formula_structural   KBaWN3
_chemical_formula_sum   'K4 Ba4 W4 N12'
_cell_volume   496.65440339
_cell_formula_units_Z   4
loop_
 _symmetry_equiv_pos_site_id
 _symmetry_equiv_pos_as_xyz
  1  'x, y, z'
loop_
 _atom_site_type_symbol
 _atom_site_label
 _atom_site_symmetry_multiplicity
 _atom_site_fract_x
 _atom_site_fract_y
 _atom_site_fract_z
 _atom_site_occupancy
  K  K0  1  0.957389  0.551158  0.364418  1
  K  K1  1  0.448842  0.042611  0.135582  1
  K  K2  1  0.042611  0.448842  0.635582  1
  K  K3  1  0.551158  0.957389  0.864418  1
  Ba  Ba4  1  0.138250  0.352468  0.080259  1
  Ba  Ba5  1  0.647532  0.861750  0.419741  1
  Ba  Ba6  1  0.861750  0.647532  0.919741  1
  Ba  Ba7  1  0.352468  0.138250  0.580259  1
  W  W8  1  0.769900  0.726545  0.168188  1
  W  W9  1  0.273455  0.230100  0.331812  1
  W  W10  1  0.230100  0.273455  0.831812  1
  W  W11  1  0.726545  0.769900  0.668188  1
  N  N12  1  0.483520  0.516480  0.250000  1
  N  N13  1  0.516480  0.483520  0.750000  1
  N  N14  1  0.906615  0.574237  0.123117  1
  N  N15  1  0.425763  0.093385  0.376883  1
  N  N16  1  0.093385  0.425763  0.876883  1
  N  N17  1  0.574237  0.906615  0.623117  1
  N  N18  1  0.826120  0.687412  0.558359  1
  N  N19  1  0.312588  0.173880  0.941641  1
  N  N20  1  0.173880  0.312588  0.441641  1
  N  N21  1  0.687412  0.826120  0.058359  1
  N  N22  1  0.993334  0.006666  0.250000  1
  N  N23  1  0.006666  0.993334  0.750000  1
