# generated using pymatgen
data_Hf3FeSi3
_symmetry_space_group_name_H-M   'P 1'
_cell_length_a   5.26994893
_cell_length_b   5.26994849
_cell_length_c   12.74954258
_cell_angle_alpha   71.00517391
_cell_angle_beta   71.00517651
_cell_angle_gamma   42.77597438
_symmetry_Int_Tables_number   1
_chemical_formula_structural   Hf3FeSi3
_chemical_formula_sum   'Hf6 Fe2 Si6'
_cell_volume   225.30094641
_cell_formula_units_Z   2
loop_
 _symmetry_equiv_pos_site_id
 _symmetry_equiv_pos_as_xyz
  1  'x, y, z'
loop_
 _atom_site_type_symbol
 _atom_site_label
 _atom_site_symmetry_multiplicity
 _atom_site_fract_x
 _atom_site_fract_y
 _atom_site_fract_z
 _atom_site_occupancy
  Hf  Hf0  1  0.746492  0.746492  0.774143  1
  Hf  Hf1  1  0.253508  0.253508  0.225857  1
  Hf  Hf2  1  0.524664  0.524664  0.619904  1
  Hf  Hf3  1  0.475336  0.475336  0.380096  1
  Hf  Hf4  1  0.396222  0.396222  0.918072  1
  Hf  Hf5  1  0.603778  0.603778  0.081928  1
  Fe  Fe6  1  0.760513  0.760513  0.412556  1
  Fe  Fe7  1  0.239487  0.239487  0.587444  1
  Si  Si8  1  0.135317  0.135317  0.450373  1
  Si  Si9  1  0.864683  0.864683  0.549627  1
  Si  Si10  1  0.116786  0.116786  0.925918  1
  Si  Si11  1  0.883214  0.883214  0.074082  1
  Si  Si12  1  0.041788  0.041788  0.760961  1
  Si  Si13  1  0.958212  0.958212  0.239039  1
