# generated using pymatgen
data_Zr5GaSn2Bi
_symmetry_space_group_name_H-M   'P 1'
_cell_length_a   8.78827000
_cell_length_b   8.76788900
_cell_length_c   5.93167900
_cell_angle_alpha   90.00000000
_cell_angle_beta   90.00000000
_cell_angle_gamma   120.07692383
_symmetry_Int_Tables_number   1
_chemical_formula_structural   Zr5GaSn2Bi
_chemical_formula_sum   'Zr10 Ga2 Sn4 Bi2'
_cell_volume   395.52100025
_cell_formula_units_Z   2
loop_
 _symmetry_equiv_pos_site_id
 _symmetry_equiv_pos_as_xyz
  1  'x, y, z'
loop_
 _atom_site_type_symbol
 _atom_site_label
 _atom_site_symmetry_multiplicity
 _atom_site_fract_x
 _atom_site_fract_y
 _atom_site_fract_z
 _atom_site_occupancy
  Zr  Zr0  1  0.004799  0.269331  0.250000  1
  Zr  Zr1  1  0.737541  0.000000  0.750000  1
  Zr  Zr2  1  0.735468  0.730669  0.250000  1
  Zr  Zr3  1  0.669519  0.339037  0.500000  1
  Zr  Zr4  1  0.995201  0.730669  0.750000  1
  Zr  Zr5  1  0.264532  0.269331  0.750000  1
  Zr  Zr6  1  0.330481  0.660963  0.000000  1
  Zr  Zr7  1  0.669519  0.339037  0.000000  1
  Zr  Zr8  1  0.330481  0.660963  0.500000  1
  Zr  Zr9  1  0.262459  0.000000  0.250000  1
  Ga  Ga10  1  0.000000  0.000000  0.000000  1
  Ga  Ga11  1  0.000000  0.000000  0.500000  1
  Sn  Sn12  1  0.389765  0.389011  0.250000  1
  Sn  Sn13  1  0.000754  0.610989  0.250000  1
  Sn  Sn14  1  0.999246  0.389011  0.750000  1
  Sn  Sn15  1  0.610235  0.610989  0.750000  1
  Bi  Bi16  1  0.612117  0.000000  0.250000  1
  Bi  Bi17  1  0.387883  0.000000  0.750000  1
