# generated using pymatgen
data_Hf16TaCo4Ir3
_symmetry_space_group_name_H-M   'P 1'
_cell_length_a   8.65875219
_cell_length_b   8.65875299
_cell_length_c   8.65875322
_cell_angle_alpha   59.66281292
_cell_angle_beta   59.66281130
_cell_angle_gamma   59.66281241
_symmetry_Int_Tables_number   1
_chemical_formula_structural   Hf16TaCo4Ir3
_chemical_formula_sum   'Hf16 Ta1 Co4 Ir3'
_cell_volume   455.52384189
_cell_formula_units_Z   1
loop_
 _symmetry_equiv_pos_site_id
 _symmetry_equiv_pos_as_xyz
  1  'x, y, z'
loop_
 _atom_site_type_symbol
 _atom_site_label
 _atom_site_symmetry_multiplicity
 _atom_site_fract_x
 _atom_site_fract_y
 _atom_site_fract_z
 _atom_site_occupancy
  Hf  Hf0  1  0.046344  0.650989  0.650989  1
  Hf  Hf1  1  0.650989  0.046344  0.650989  1
  Hf  Hf2  1  0.650989  0.650989  0.046344  1
  Hf  Hf3  1  0.647326  0.647326  0.647326  1
  Hf  Hf4  1  0.796731  0.796731  0.203390  1
  Hf  Hf5  1  0.197639  0.197639  0.799511  1
  Hf  Hf6  1  0.796731  0.203390  0.796731  1
  Hf  Hf7  1  0.197639  0.799511  0.197639  1
  Hf  Hf8  1  0.203390  0.796731  0.796731  1
  Hf  Hf9  1  0.799511  0.197639  0.197639  1
  Hf  Hf10  1  0.435149  0.435149  0.070000  1
  Hf  Hf11  1  0.064047  0.064047  0.436250  1
  Hf  Hf12  1  0.435149  0.070000  0.435149  1
  Hf  Hf13  1  0.064047  0.436250  0.064047  1
  Hf  Hf14  1  0.070000  0.435149  0.435149  1
  Hf  Hf15  1  0.436250  0.064047  0.064047  1
  Ta  Ta16  1  0.422938  0.422938  0.422938  1
  Co  Co17  1  0.421126  0.858882  0.858882  1
  Co  Co18  1  0.858882  0.421126  0.858882  1
  Co  Co19  1  0.858882  0.858882  0.421126  1
  Co  Co20  1  0.860453  0.860453  0.860453  1
  Ir  Ir21  1  0.757530  0.414130  0.414130  1
  Ir  Ir22  1  0.414130  0.757530  0.414130  1
  Ir  Ir23  1  0.414130  0.414130  0.757530  1
