# generated using pymatgen
data_RbY3Te5
_symmetry_space_group_name_H-M   'P 1'
_cell_length_a   4.42365600
_cell_length_b   13.39030600
_cell_length_c   23.50162700
_cell_angle_alpha   90.00000000
_cell_angle_beta   90.00000000
_cell_angle_gamma   90.00000000
_symmetry_Int_Tables_number   1
_chemical_formula_structural   RbY3Te5
_chemical_formula_sum   'Rb4 Y12 Te20'
_cell_volume   1392.09789964
_cell_formula_units_Z   4
loop_
 _symmetry_equiv_pos_site_id
 _symmetry_equiv_pos_as_xyz
  1  'x, y, z'
loop_
 _atom_site_type_symbol
 _atom_site_label
 _atom_site_symmetry_multiplicity
 _atom_site_fract_x
 _atom_site_fract_y
 _atom_site_fract_z
 _atom_site_occupancy
  Rb  Rb0  1  0.250000  0.339593  0.096843  1
  Rb  Rb1  1  0.750000  0.660407  0.903157  1
  Rb  Rb2  1  0.750000  0.839593  0.403157  1
  Rb  Rb3  1  0.250000  0.160407  0.596843  1
  Y  Y4  1  0.250000  0.461751  0.701457  1
  Y  Y5  1  0.750000  0.538249  0.298543  1
  Y  Y6  1  0.750000  0.961751  0.798543  1
  Y  Y7  1  0.250000  0.038249  0.201457  1
  Y  Y8  1  0.250000  0.802598  0.669874  1
  Y  Y9  1  0.750000  0.197402  0.330126  1
  Y  Y10  1  0.750000  0.302598  0.830126  1
  Y  Y11  1  0.250000  0.697402  0.169874  1
  Y  Y12  1  0.250000  0.391538  0.445466  1
  Y  Y13  1  0.750000  0.608462  0.554534  1
  Y  Y14  1  0.750000  0.891538  0.054534  1
  Y  Y15  1  0.250000  0.108462  0.945466  1
  Te  Te16  1  0.250000  0.446975  0.570980  1
  Te  Te17  1  0.750000  0.553025  0.429020  1
  Te  Te18  1  0.750000  0.946975  0.929020  1
  Te  Te19  1  0.250000  0.053025  0.070980  1
  Te  Te20  1  0.250000  0.767372  0.540866  1
  Te  Te21  1  0.750000  0.232628  0.459134  1
  Te  Te22  1  0.750000  0.267372  0.959134  1
  Te  Te23  1  0.250000  0.732628  0.040866  1
  Te  Te24  1  0.250000  0.806881  0.800274  1
  Te  Te25  1  0.750000  0.193119  0.199726  1
  Te  Te26  1  0.750000  0.306881  0.699726  1
  Te  Te27  1  0.250000  0.693119  0.300274  1
  Te  Te28  1  0.250000  0.459915  0.832283  1
  Te  Te29  1  0.750000  0.540085  0.167717  1
  Te  Te30  1  0.750000  0.959915  0.667717  1
  Te  Te31  1  0.250000  0.040085  0.332283  1
  Te  Te32  1  0.250000  0.367597  0.313118  1
  Te  Te33  1  0.750000  0.632403  0.686882  1
  Te  Te34  1  0.750000  0.867597  0.186882  1
  Te  Te35  1  0.250000  0.132403  0.813118  1
