# generated using pymatgen
data_Ac16Yb4Si15Sb
_symmetry_space_group_name_H-M   'P 1'
_cell_length_a   8.08189434
_cell_length_b   8.35842164
_cell_length_c   16.10356900
_cell_angle_alpha   90.08831115
_cell_angle_beta   90.49396004
_cell_angle_gamma   90.15954058
_symmetry_Int_Tables_number   1
_chemical_formula_structural   Ac16Yb4Si15Sb
_chemical_formula_sum   'Ac16 Yb4 Si15 Sb1'
_cell_volume   1087.78039425
_cell_formula_units_Z   1
loop_
 _symmetry_equiv_pos_site_id
 _symmetry_equiv_pos_as_xyz
  1  'x, y, z'
loop_
 _atom_site_type_symbol
 _atom_site_label
 _atom_site_symmetry_multiplicity
 _atom_site_fract_x
 _atom_site_fract_y
 _atom_site_fract_z
 _atom_site_occupancy
  Ac  Ac0  1  0.314851  0.181097  0.122713  1
  Ac  Ac1  1  0.826153  0.307192  0.373992  1
  Ac  Ac2  1  0.183367  0.689129  0.877407  1
  Ac  Ac3  1  0.672676  0.835719  0.631180  1
  Ac  Ac4  1  0.321665  0.177779  0.373229  1
  Ac  Ac5  1  0.818249  0.310743  0.121839  1
  Ac  Ac6  1  0.181076  0.684866  0.620667  1
  Ac  Ac7  1  0.687132  0.819301  0.877380  1
  Ac  Ac8  1  0.970684  0.808518  0.397786  1
  Ac  Ac9  1  0.462202  0.682874  0.100232  1
  Ac  Ac10  1  0.511854  0.313463  0.602875  1
  Ac  Ac11  1  0.040323  0.193905  0.898930  1
  Ac  Ac12  1  0.032364  0.189729  0.599124  1
  Ac  Ac13  1  0.538305  0.316985  0.900098  1
  Ac  Ac14  1  0.475198  0.681642  0.398397  1
  Ac  Ac15  1  0.959649  0.805148  0.102173  1
  Yb  Yb16  1  0.349373  0.025692  0.754953  1
  Yb  Yb17  1  0.848692  0.484065  0.751055  1
  Yb  Yb18  1  0.153863  0.516759  0.252186  1
  Yb  Yb19  1  0.644321  0.971635  0.248179  1
  Si  Si20  1  0.369130  0.979305  0.960994  1
  Si  Si21  1  0.639245  0.027047  0.465566  1
  Si  Si22  1  0.135962  0.475337  0.036420  1
  Si  Si23  1  0.179741  0.470258  0.459183  1
  Si  Si24  1  0.632621  0.020868  0.038366  1
  Si  Si25  1  0.360951  0.972815  0.534806  1
  Si  Si26  1  0.866447  0.525233  0.962574  1
  Si  Si27  1  0.978817  0.924858  0.750784  1
  Si  Si28  1  0.471120  0.589510  0.752043  1
  Si  Si29  1  0.531169  0.409011  0.247936  1
  Si  Si30  1  0.023950  0.074681  0.247906  1
  Si  Si31  1  0.241400  0.385498  0.751198  1
  Si  Si32  1  0.749613  0.131096  0.754087  1
  Si  Si33  1  0.253060  0.871979  0.246711  1
  Si  Si34  1  0.757271  0.613218  0.249395  1
  Sb  Sb35  1  0.817501  0.533042  0.537634  1
