# generated using pymatgen
data_Sr20Tl3AgAu8
_symmetry_space_group_name_H-M   'P 1'
_cell_length_a   8.55066800
_cell_length_b   8.55066800
_cell_length_c   15.66938000
_cell_angle_alpha   90.00000000
_cell_angle_beta   90.00000000
_cell_angle_gamma   90.00000000
_symmetry_Int_Tables_number   1
_chemical_formula_structural   Sr20Tl3AgAu8
_chemical_formula_sum   'Sr20 Tl3 Ag1 Au8'
_cell_volume   1145.64984664
_cell_formula_units_Z   1
loop_
 _symmetry_equiv_pos_site_id
 _symmetry_equiv_pos_as_xyz
  1  'x, y, z'
loop_
 _atom_site_type_symbol
 _atom_site_label
 _atom_site_symmetry_multiplicity
 _atom_site_fract_x
 _atom_site_fract_y
 _atom_site_fract_z
 _atom_site_occupancy
  Sr  Sr0  1  0.000000  0.000000  0.754680  1
  Sr  Sr1  1  0.500000  0.500000  0.252706  1
  Sr  Sr2  1  0.000000  0.000000  0.245320  1
  Sr  Sr3  1  0.500000  0.500000  0.747294  1
  Sr  Sr4  1  0.170213  0.661264  0.108886  1
  Sr  Sr5  1  0.667557  0.166578  0.611400  1
  Sr  Sr6  1  0.829787  0.338736  0.108886  1
  Sr  Sr7  1  0.332443  0.833422  0.611400  1
  Sr  Sr8  1  0.338736  0.170213  0.108886  1
  Sr  Sr9  1  0.833422  0.667557  0.611400  1
  Sr  Sr10  1  0.661264  0.829787  0.108886  1
  Sr  Sr11  1  0.166578  0.332443  0.611400  1
  Sr  Sr12  1  0.338736  0.829787  0.891114  1
  Sr  Sr13  1  0.833422  0.332443  0.388600  1
  Sr  Sr14  1  0.661264  0.170213  0.891114  1
  Sr  Sr15  1  0.166578  0.667557  0.388600  1
  Sr  Sr16  1  0.170213  0.338736  0.891114  1
  Sr  Sr17  1  0.667557  0.833422  0.388600  1
  Sr  Sr18  1  0.829787  0.661264  0.891114  1
  Sr  Sr19  1  0.332443  0.166578  0.388600  1
  Tl  Tl20  1  0.000000  0.000000  0.500000  1
  Tl  Tl21  1  0.000000  0.000000  0.000000  1
  Tl  Tl22  1  0.500000  0.500000  0.500000  1
  Ag  Ag23  1  0.500000  0.500000  0.000000  1
  Au  Au24  1  0.626938  0.128344  0.247852  1
  Au  Au25  1  0.128344  0.626938  0.752148  1
  Au  Au26  1  0.871656  0.373062  0.752148  1
  Au  Au27  1  0.373062  0.871656  0.247852  1
  Au  Au28  1  0.373062  0.128344  0.752148  1
  Au  Au29  1  0.871656  0.626938  0.247852  1
  Au  Au30  1  0.128344  0.373062  0.247852  1
  Au  Au31  1  0.626938  0.871656  0.752148  1
