# generated using pymatgen
data_Sm4TmBe4P8Ir19
_symmetry_space_group_name_H-M   'P 1'
_cell_length_a   12.68945292
_cell_length_b   12.58661543
_cell_length_c   3.95732500
_cell_angle_alpha   90.00000000
_cell_angle_beta   90.00000000
_cell_angle_gamma   120.07671740
_symmetry_Int_Tables_number   1
_chemical_formula_structural   Sm4TmBe4P8Ir19
_chemical_formula_sum   'Sm4 Tm1 Be4 P8 Ir19'
_cell_volume   546.95041859
_cell_formula_units_Z   1
loop_
 _symmetry_equiv_pos_site_id
 _symmetry_equiv_pos_as_xyz
  1  'x, y, z'
loop_
 _atom_site_type_symbol
 _atom_site_label
 _atom_site_symmetry_multiplicity
 _atom_site_fract_x
 _atom_site_fract_y
 _atom_site_fract_z
 _atom_site_occupancy
  Sm  Sm0  1  0.334086  0.666442  0.500000  1
  Sm  Sm1  1  0.184124  0.190794  0.000000  1
  Sm  Sm2  1  0.808921  0.999657  0.000000  1
  Sm  Sm3  1  0.003650  0.813675  0.000000  1
  Tm  Tm4  1  0.677058  0.331546  0.500000  1
  Be  Be5  1  0.314791  0.837498  0.000000  1
  Be  Be6  1  0.162714  0.476268  0.000000  1
  Be  Be7  1  0.522677  0.685393  0.000000  1
  Be  Be8  1  0.827716  0.306822  0.000000  1
  P  P9  1  0.487220  0.180495  0.000000  1
  P  P10  1  0.698446  0.515107  0.000000  1
  P  P11  1  0.362368  0.375438  0.500000  1
  P  P12  1  0.625155  0.992909  0.500000  1
  P  P13  1  0.008671  0.630787  0.500000  1
  P  P14  1  0.816431  0.817197  0.500000  1
  P  P15  1  0.184429  0.003111  0.500000  1
  P  P16  1  0.994285  0.183052  0.500000  1
  Ir  Ir17  1  0.196300  0.821279  0.500000  1
  Ir  Ir18  1  0.176772  0.376453  0.500000  1
  Ir  Ir19  1  0.623662  0.803134  0.500000  1
  Ir  Ir20  1  0.809300  0.188858  0.500000  1
  Ir  Ir21  1  0.382341  0.191407  0.500000  1
  Ir  Ir22  1  0.804606  0.618105  0.500000  1
  Ir  Ir23  1  0.125892  0.641256  0.000000  1
  Ir  Ir24  1  0.357325  0.482116  0.000000  1
  Ir  Ir25  1  0.515591  0.872635  0.000000  1
  Ir  Ir26  1  0.632276  0.129399  0.000000  1
  Ir  Ir27  1  0.501761  0.370534  0.000000  1
  Ir  Ir28  1  0.874924  0.508076  0.000000  1
  Ir  Ir29  1  0.547156  0.554553  0.500000  1
  Ir  Ir30  1  0.443292  0.991617  0.500000  1
  Ir  Ir31  1  0.995257  0.442905  0.500000  1
  Ir  Ir32  1  0.716774  0.711031  0.000000  1
  Ir  Ir33  1  0.290021  0.008154  0.000000  1
  Ir  Ir34  1  0.994244  0.282226  0.000000  1
  Ir  Ir35  1  0.999764  0.000073  0.500000  1
