# generated using pymatgen
data_Ba6Lu3Cr(WO9)2
_symmetry_space_group_name_H-M   'P 1'
_cell_length_a   5.93953004
_cell_length_b   8.40752982
_cell_length_c   10.29465122
_cell_angle_alpha   65.89912131
_cell_angle_beta   73.23323338
_cell_angle_gamma   90.00000003
_symmetry_Int_Tables_number   1
_chemical_formula_structural   Ba6Lu3Cr(WO9)2
_chemical_formula_sum   'Ba6 Lu3 Cr1 W2 O18'
_cell_volume   445.21852670
_cell_formula_units_Z   1
loop_
 _symmetry_equiv_pos_site_id
 _symmetry_equiv_pos_as_xyz
  1  'x, y, z'
loop_
 _atom_site_type_symbol
 _atom_site_label
 _atom_site_symmetry_multiplicity
 _atom_site_fract_x
 _atom_site_fract_y
 _atom_site_fract_z
 _atom_site_occupancy
  Ba  Ba0  1  0.500000  0.269804  0.000000  1
  Ba  Ba1  1  0.841699  0.580603  0.316600  1
  Ba  Ba2  1  0.158301  0.897204  0.683400  1
  Ba  Ba3  1  0.500000  0.730196  0.000000  1
  Ba  Ba4  1  0.841699  0.102796  0.316600  1
  Ba  Ba5  1  0.158301  0.419397  0.683400  1
  Lu  Lu6  1  0.000000  0.000000  0.000000  1
  Lu  Lu7  1  0.333775  0.333775  0.332449  1
  Lu  Lu8  1  0.666225  0.666225  0.667551  1
  Cr  Cr9  1  0.000000  0.500000  0.000000  1
  W  W10  1  0.333329  0.833329  0.333341  1
  W  W11  1  0.666671  0.166671  0.666658  1
  O  O12  1  0.000000  0.255285  0.000000  1
  O  O13  1  0.331361  0.597340  0.337278  1
  O  O14  1  0.668639  0.934620  0.662722  1
  O  O15  1  0.159693  0.416550  0.166899  1
  O  O16  1  0.491953  0.756744  0.486510  1
  O  O17  1  0.821364  0.088567  0.822864  1
  O  O18  1  0.326590  0.583450  0.833101  1
  O  O19  1  0.644229  0.911433  0.177136  1
  O  O20  1  0.978464  0.243256  0.513490  1
  O  O21  1  0.000000  0.744715  0.000000  1
  O  O22  1  0.331361  0.065380  0.337278  1
  O  O23  1  0.668639  0.402660  0.662722  1
  O  O24  1  0.840307  0.583450  0.833101  1
  O  O25  1  0.178636  0.911433  0.177136  1
  O  O26  1  0.508047  0.243256  0.513490  1
  O  O27  1  0.673410  0.416550  0.166899  1
  O  O28  1  0.021536  0.756744  0.486510  1
  O  O29  1  0.355771  0.088567  0.822864  1
