# generated using pymatgen
data_Yb3PaBiPt4Pb
_symmetry_space_group_name_H-M   'P 1'
_cell_length_a   7.87510372
_cell_length_b   7.81962602
_cell_length_c   7.47761600
_cell_angle_alpha   90.00000000
_cell_angle_beta   90.00000000
_cell_angle_gamma   92.66928915
_symmetry_Int_Tables_number   1
_chemical_formula_structural   Yb3PaBiPt4Pb
_chemical_formula_sum   'Yb6 Pa2 Bi2 Pt8 Pb2'
_cell_volume   459.97470632
_cell_formula_units_Z   2
loop_
 _symmetry_equiv_pos_site_id
 _symmetry_equiv_pos_as_xyz
  1  'x, y, z'
loop_
 _atom_site_type_symbol
 _atom_site_label
 _atom_site_symmetry_multiplicity
 _atom_site_fract_x
 _atom_site_fract_y
 _atom_site_fract_z
 _atom_site_occupancy
  Yb  Yb0  1  0.659608  0.665209  0.000000  1
  Yb  Yb1  1  0.833469  0.163713  0.500000  1
  Yb  Yb2  1  0.340392  0.334791  0.000000  1
  Yb  Yb3  1  0.166531  0.836287  0.500000  1
  Yb  Yb4  1  0.827385  0.169379  0.000000  1
  Yb  Yb5  1  0.172615  0.830621  0.000000  1
  Pa  Pa6  1  0.330623  0.317121  0.500000  1
  Pa  Pa7  1  0.669377  0.682879  0.500000  1
  Bi  Bi8  1  0.500000  0.000000  0.755864  1
  Bi  Bi9  1  0.500000  0.000000  0.244136  1
  Pt  Pt10  1  0.869661  0.864736  0.743711  1
  Pt  Pt11  1  0.130339  0.135264  0.743711  1
  Pt  Pt12  1  0.630294  0.381474  0.723495  1
  Pt  Pt13  1  0.630294  0.381474  0.276505  1
  Pt  Pt14  1  0.369706  0.618526  0.276505  1
  Pt  Pt15  1  0.130339  0.135264  0.256289  1
  Pt  Pt16  1  0.869661  0.864736  0.256289  1
  Pt  Pt17  1  0.369706  0.618526  0.723495  1
  Pb  Pb18  1  0.000000  0.500000  0.755980  1
  Pb  Pb19  1  0.000000  0.500000  0.244020  1
