# generated using pymatgen
data_Rb2NbOsBr12
_symmetry_space_group_name_H-M   'P 1'
_cell_length_a   10.79877125
_cell_length_b   7.71603661
_cell_length_c   7.64058372
_cell_angle_alpha   89.96085571
_cell_angle_beta   89.39449557
_cell_angle_gamma   90.11555916
_symmetry_Int_Tables_number   1
_chemical_formula_structural   Rb2NbOsBr12
_chemical_formula_sum   'Rb2 Nb1 Os1 Br12'
_cell_volume   636.60481149
_cell_formula_units_Z   1
loop_
 _symmetry_equiv_pos_site_id
 _symmetry_equiv_pos_as_xyz
  1  'x, y, z'
loop_
 _atom_site_type_symbol
 _atom_site_label
 _atom_site_symmetry_multiplicity
 _atom_site_fract_x
 _atom_site_fract_y
 _atom_site_fract_z
 _atom_site_occupancy
  Rb  Rb0  1  0.744024  0.250804  0.265260  1
  Rb  Rb1  1  0.234536  0.748991  0.737202  1
  Nb  Nb2  1  0.492680  0.750810  0.243278  1
  Os  Os3  1  0.992436  0.249167  0.755295  1
  Br  Br4  1  0.486076  0.983257  0.482128  1
  Br  Br5  1  0.762051  0.248038  0.766972  1
  Br  Br6  1  0.997245  0.021460  0.985476  1
  Br  Br7  1  0.996466  0.477383  0.985038  1
  Br  Br8  1  0.498247  0.985303  0.009812  1
  Br  Br9  1  0.728792  0.751302  0.252885  1
  Br  Br10  1  0.256015  0.751045  0.236289  1
  Br  Br11  1  0.486120  0.517468  0.481757  1
  Br  Br12  1  0.987103  0.020791  0.524390  1
  Br  Br13  1  0.987283  0.477687  0.524003  1
  Br  Br14  1  0.222390  0.250133  0.740266  1
  Br  Br15  1  0.497443  0.516361  0.009947  1
