# generated using pymatgen
data_ZrSc7Si16Mo5W7
_symmetry_space_group_name_H-M   'P 1'
_cell_length_a   6.58980833
_cell_length_b   6.78503651
_cell_length_c   12.69537158
_cell_angle_alpha   89.94731831
_cell_angle_beta   90.04966999
_cell_angle_gamma   89.89149811
_symmetry_Int_Tables_number   1
_chemical_formula_structural   ZrSc7Si16Mo5W7
_chemical_formula_sum   'Zr1 Sc7 Si16 Mo5 W7'
_cell_volume   567.63512623
_cell_formula_units_Z   1
loop_
 _symmetry_equiv_pos_site_id
 _symmetry_equiv_pos_as_xyz
  1  'x, y, z'
loop_
 _atom_site_type_symbol
 _atom_site_label
 _atom_site_symmetry_multiplicity
 _atom_site_fract_x
 _atom_site_fract_y
 _atom_site_fract_z
 _atom_site_occupancy
  Zr  Zr0  1  0.494170  0.669492  0.594074  1
  Sc  Sc1  1  0.993277  0.830348  0.908142  1
  Sc  Sc2  1  0.506551  0.330287  0.092555  1
  Sc  Sc3  1  0.006252  0.169926  0.407050  1
  Sc  Sc4  1  0.505429  0.330574  0.407019  1
  Sc  Sc5  1  0.005468  0.170249  0.092698  1
  Sc  Sc6  1  0.493714  0.669954  0.907557  1
  Sc  Sc7  1  0.992986  0.829793  0.592251  1
  Si  Si8  1  0.667806  0.963015  0.455365  1
  Si  Si9  1  0.167558  0.537600  0.044544  1
  Si  Si10  1  0.332505  0.037370  0.955347  1
  Si  Si11  1  0.833336  0.460421  0.543133  1
  Si  Si12  1  0.332336  0.039180  0.543147  1
  Si  Si13  1  0.832647  0.462254  0.955870  1
  Si  Si14  1  0.666843  0.963051  0.044492  1
  Si  Si15  1  0.168141  0.538103  0.455234  1
  Si  Si16  1  0.464207  0.378690  0.750624  1
  Si  Si17  1  0.965333  0.119760  0.750327  1
  Si  Si18  1  0.534793  0.620133  0.249611  1
  Si  Si19  1  0.035763  0.879592  0.250257  1
  Si  Si20  1  0.699810  0.858915  0.751097  1
  Si  Si21  1  0.196158  0.642404  0.751724  1
  Si  Si22  1  0.302241  0.142034  0.249492  1
  Si  Si23  1  0.802027  0.357543  0.250135  1
  Mo  Mo24  1  0.667488  0.164237  0.623715  1
  Mo  Mo25  1  0.167665  0.336472  0.876154  1
  Mo  Mo26  1  0.332589  0.835387  0.124453  1
  Mo  Mo27  1  0.831613  0.664326  0.375833  1
  Mo  Mo28  1  0.333742  0.835254  0.375304  1
  W  W29  1  0.832528  0.663954  0.124791  1
  W  W30  1  0.667243  0.164786  0.874697  1
  W  W31  1  0.167815  0.336837  0.625291  1
  W  W32  1  0.833544  0.503680  0.749237  1
  W  W33  1  0.333732  0.994245  0.749339  1
  W  W34  1  0.165913  0.496132  0.250009  1
  W  W35  1  0.666781  0.004000  0.249430  1
