# generated using pymatgen
data_LuU3(AsO4)6
_symmetry_space_group_name_H-M   'P 1'
_cell_length_a   9.74283605
_cell_length_b   9.74283490
_cell_length_c   9.74283500
_cell_angle_alpha   58.20766865
_cell_angle_beta   58.20766590
_cell_angle_gamma   58.20766128
_symmetry_Int_Tables_number   1
_chemical_formula_structural   LuU3(AsO4)6
_chemical_formula_sum   'Lu1 U3 As6 O24'
_cell_volume   627.08876473
_cell_formula_units_Z   1
loop_
 _symmetry_equiv_pos_site_id
 _symmetry_equiv_pos_as_xyz
  1  'x, y, z'
loop_
 _atom_site_type_symbol
 _atom_site_label
 _atom_site_symmetry_multiplicity
 _atom_site_fract_x
 _atom_site_fract_y
 _atom_site_fract_z
 _atom_site_occupancy
  Lu  Lu0  1  0.859358  0.859358  0.859358  1
  U  U1  1  0.141712  0.141712  0.141712  1
  U  U2  1  0.357948  0.357948  0.357948  1
  U  U3  1  0.641457  0.641457  0.641457  1
  As  As4  1  0.033380  0.472581  0.751033  1
  As  As5  1  0.472581  0.751033  0.033380  1
  As  As6  1  0.751033  0.033380  0.472581  1
  As  As7  1  0.248427  0.961394  0.536907  1
  As  As8  1  0.536907  0.248427  0.961394  1
  As  As9  1  0.961394  0.536907  0.248427  1
  O  O10  1  0.126924  0.491323  0.302838  1
  O  O11  1  0.302838  0.126924  0.491323  1
  O  O12  1  0.040741  0.296563  0.936601  1
  O  O13  1  0.491323  0.302838  0.126924  1
  O  O14  1  0.220889  0.414072  0.590382  1
  O  O15  1  0.014278  0.649248  0.758290  1
  O  O16  1  0.296563  0.936601  0.040741  1
  O  O17  1  0.414072  0.590382  0.220889  1
  O  O18  1  0.590382  0.220889  0.414072  1
  O  O19  1  0.233420  0.993980  0.352240  1
  O  O20  1  0.070347  0.955253  0.708455  1
  O  O21  1  0.352240  0.233420  0.993980  1
  O  O22  1  0.649248  0.758290  0.014278  1
  O  O23  1  0.936601  0.040741  0.296563  1
  O  O24  1  0.758290  0.014278  0.649248  1
  O  O25  1  0.422602  0.776903  0.563121  1
  O  O26  1  0.563121  0.422602  0.776903  1
  O  O27  1  0.708455  0.070347  0.955253  1
  O  O28  1  0.993980  0.352240  0.233420  1
  O  O29  1  0.776903  0.563121  0.422602  1
  O  O30  1  0.499066  0.714458  0.863809  1
  O  O31  1  0.955253  0.708455  0.070347  1
  O  O32  1  0.714458  0.863809  0.499066  1
  O  O33  1  0.863809  0.499066  0.714458  1
