# generated using pymatgen
data_LuThB6W
_symmetry_space_group_name_H-M   'P 1'
_cell_length_a   3.73757400
_cell_length_b   9.26731200
_cell_length_c   11.73194200
_cell_angle_alpha   90.00000000
_cell_angle_beta   90.00000000
_cell_angle_gamma   90.00000000
_symmetry_Int_Tables_number   1
_chemical_formula_structural   LuThB6W
_chemical_formula_sum   'Lu4 Th4 B24 W4'
_cell_volume   406.36237676
_cell_formula_units_Z   4
loop_
 _symmetry_equiv_pos_site_id
 _symmetry_equiv_pos_as_xyz
  1  'x, y, z'
loop_
 _atom_site_type_symbol
 _atom_site_label
 _atom_site_symmetry_multiplicity
 _atom_site_fract_x
 _atom_site_fract_y
 _atom_site_fract_z
 _atom_site_occupancy
  Lu  Lu0  1  0.000000  0.944434  0.371656  1
  Lu  Lu1  1  0.000000  0.055566  0.628344  1
  Lu  Lu2  1  0.000000  0.444434  0.128344  1
  Lu  Lu3  1  0.000000  0.555566  0.871656  1
  Th  Th4  1  0.000000  0.321601  0.414702  1
  Th  Th5  1  0.000000  0.678399  0.585298  1
  Th  Th6  1  0.000000  0.821601  0.085298  1
  Th  Th7  1  0.000000  0.178399  0.914702  1
  B  B8  1  0.500000  0.555034  0.430697  1
  B  B9  1  0.500000  0.444966  0.569303  1
  B  B10  1  0.500000  0.055034  0.069303  1
  B  B11  1  0.500000  0.944966  0.930697  1
  B  B12  1  0.500000  0.753052  0.416543  1
  B  B13  1  0.500000  0.246948  0.583457  1
  B  B14  1  0.500000  0.253052  0.083457  1
  B  B15  1  0.500000  0.746948  0.916543  1
  B  B16  1  0.500000  0.794195  0.265368  1
  B  B17  1  0.500000  0.205805  0.734632  1
  B  B18  1  0.500000  0.294195  0.234632  1
  B  B19  1  0.500000  0.705805  0.765368  1
  B  B20  1  0.500000  0.629337  0.184097  1
  B  B21  1  0.500000  0.370663  0.815903  1
  B  B22  1  0.500000  0.129337  0.315903  1
  B  B23  1  0.500000  0.870663  0.684097  1
  B  B24  1  0.500000  0.982420  0.214999  1
  B  B25  1  0.500000  0.017580  0.785001  1
  B  B26  1  0.500000  0.482420  0.285001  1
  B  B27  1  0.500000  0.517580  0.714999  1
  B  B28  1  0.500000  0.596912  0.026562  1
  B  B29  1  0.500000  0.403088  0.973438  1
  B  B30  1  0.500000  0.096912  0.473438  1
  B  B31  1  0.500000  0.903088  0.526562  1
  W  W32  1  0.000000  0.640040  0.319044  1
  W  W33  1  0.000000  0.359960  0.680956  1
  W  W34  1  0.000000  0.140040  0.180956  1
  W  W35  1  0.000000  0.859960  0.819044  1
