# generated using pymatgen
data_TbDy9(TlBi)3
_symmetry_space_group_name_H-M   'P 1'
_cell_length_a   9.06844700
_cell_length_b   9.07393905
_cell_length_c   6.61497100
_cell_angle_alpha   90.00000000
_cell_angle_beta   90.00000000
_cell_angle_gamma   120.03968986
_symmetry_Int_Tables_number   1
_chemical_formula_structural   TbDy9(TlBi)3
_chemical_formula_sum   'Tb1 Dy9 Tl3 Bi3'
_cell_volume   471.20894038
_cell_formula_units_Z   1
loop_
 _symmetry_equiv_pos_site_id
 _symmetry_equiv_pos_as_xyz
  1  'x, y, z'
loop_
 _atom_site_type_symbol
 _atom_site_label
 _atom_site_symmetry_multiplicity
 _atom_site_fract_x
 _atom_site_fract_y
 _atom_site_fract_z
 _atom_site_occupancy
  Tb  Tb0  1  0.991944  0.758795  0.250000  1
  Dy  Dy1  1  0.660410  0.332750  0.998363  1
  Dy  Dy2  1  0.344071  0.667834  0.998121  1
  Dy  Dy3  1  0.344071  0.667834  0.501879  1
  Dy  Dy4  1  0.660410  0.332750  0.501637  1
  Dy  Dy5  1  0.755908  0.764878  0.750000  1
  Dy  Dy6  1  0.244259  0.010305  0.750000  1
  Dy  Dy7  1  0.001513  0.236028  0.750000  1
  Dy  Dy8  1  0.242061  0.240287  0.250000  1
  Dy  Dy9  1  0.758085  0.989400  0.250000  1
  Tl  Tl10  1  0.395049  0.396067  0.750000  1
  Tl  Tl11  1  0.606863  0.004524  0.750000  1
  Tl  Tl12  1  0.603035  0.600241  0.250000  1
  Bi  Bi13  1  0.002915  0.610510  0.750000  1
  Bi  Bi14  1  0.391024  0.996340  0.250000  1
  Bi  Bi15  1  0.998380  0.391458  0.250000  1
