# generated using pymatgen
data_TbZnCo3B
_symmetry_space_group_name_H-M   'P 1'
_cell_length_a   5.11013400
_cell_length_b   5.10300420
_cell_length_c   6.80315700
_cell_angle_alpha   90.00000000
_cell_angle_beta   90.00000000
_cell_angle_gamma   120.04625497
_symmetry_Int_Tables_number   1
_chemical_formula_structural   TbZnCo3B
_chemical_formula_sum   'Tb2 Zn2 Co6 B2'
_cell_volume   153.56658544
_cell_formula_units_Z   2
loop_
 _symmetry_equiv_pos_site_id
 _symmetry_equiv_pos_as_xyz
  1  'x, y, z'
loop_
 _atom_site_type_symbol
 _atom_site_label
 _atom_site_symmetry_multiplicity
 _atom_site_fract_x
 _atom_site_fract_y
 _atom_site_fract_z
 _atom_site_occupancy
  Tb  Tb0  1  0.999975  0.000000  0.000000  1
  Tb  Tb1  1  0.999993  0.000000  0.500000  1
  Zn  Zn2  1  0.333363  0.666773  0.000000  1
  Zn  Zn3  1  0.666590  0.333227  0.000000  1
  Co  Co4  1  0.499990  0.000000  0.297025  1
  Co  Co5  1  0.499986  0.500003  0.297043  1
  Co  Co6  1  0.999982  0.499997  0.297043  1
  Co  Co7  1  0.499990  0.000000  0.702975  1
  Co  Co8  1  0.499986  0.500003  0.702957  1
  Co  Co9  1  0.999982  0.499997  0.702957  1
  B  B10  1  0.333425  0.666888  0.500000  1
  B  B11  1  0.666536  0.333112  0.500000  1
