# generated using pymatgen
data_Dy4HoRu3
_symmetry_space_group_name_H-M   'P 1'
_cell_length_a   10.81198200
_cell_length_b   10.81198200
_cell_length_c   6.36458300
_cell_angle_alpha   90.00000000
_cell_angle_beta   90.00000000
_cell_angle_gamma   90.00000000
_symmetry_Int_Tables_number   1
_chemical_formula_structural   Dy4HoRu3
_chemical_formula_sum   'Dy16 Ho4 Ru12'
_cell_volume   744.01310024
_cell_formula_units_Z   4
loop_
 _symmetry_equiv_pos_site_id
 _symmetry_equiv_pos_as_xyz
  1  'x, y, z'
loop_
 _atom_site_type_symbol
 _atom_site_label
 _atom_site_symmetry_multiplicity
 _atom_site_fract_x
 _atom_site_fract_y
 _atom_site_fract_z
 _atom_site_occupancy
  Dy  Dy0  1  0.291707  0.087254  0.377714  1
  Dy  Dy1  1  0.291707  0.912746  0.877714  1
  Dy  Dy2  1  0.708293  0.087254  0.877714  1
  Dy  Dy3  1  0.708293  0.912746  0.377714  1
  Dy  Dy4  1  0.587254  0.791707  0.877714  1
  Dy  Dy5  1  0.587254  0.208293  0.377714  1
  Dy  Dy6  1  0.412746  0.791707  0.377714  1
  Dy  Dy7  1  0.412746  0.208293  0.877714  1
  Dy  Dy8  1  0.208293  0.412746  0.622286  1
  Dy  Dy9  1  0.208293  0.587254  0.122286  1
  Dy  Dy10  1  0.791707  0.412746  0.122286  1
  Dy  Dy11  1  0.791707  0.587254  0.622286  1
  Dy  Dy12  1  0.912746  0.708293  0.122286  1
  Dy  Dy13  1  0.912746  0.291707  0.622286  1
  Dy  Dy14  1  0.087254  0.708293  0.622286  1
  Dy  Dy15  1  0.087254  0.291707  0.122286  1
  Ho  Ho16  1  0.000000  0.000000  0.500000  1
  Ho  Ho17  1  0.000000  0.000000  0.000000  1
  Ho  Ho18  1  0.500000  0.500000  0.000000  1
  Ho  Ho19  1  0.500000  0.500000  0.500000  1
  Ru  Ru20  1  0.847188  0.152812  0.250000  1
  Ru  Ru21  1  0.847188  0.847188  0.750000  1
  Ru  Ru22  1  0.152812  0.152812  0.750000  1
  Ru  Ru23  1  0.152812  0.847188  0.250000  1
  Ru  Ru24  1  0.652812  0.347188  0.750000  1
  Ru  Ru25  1  0.652812  0.652812  0.250000  1
  Ru  Ru26  1  0.347188  0.347188  0.250000  1
  Ru  Ru27  1  0.347188  0.652812  0.750000  1
  Ru  Ru28  1  0.500000  0.000000  0.123137  1
  Ru  Ru29  1  0.500000  0.000000  0.623137  1
  Ru  Ru30  1  0.000000  0.500000  0.876863  1
  Ru  Ru31  1  0.000000  0.500000  0.376863  1
