# generated using pymatgen
data_DyYPu(BO3)3
_symmetry_space_group_name_H-M   'P 1'
_cell_length_a   6.66623748
_cell_length_b   6.66623708
_cell_length_c   9.00030400
_cell_angle_alpha   89.97830642
_cell_angle_beta   89.97830642
_cell_angle_gamma   119.77115746
_symmetry_Int_Tables_number   1
_chemical_formula_structural   DyYPu(BO3)3
_chemical_formula_sum   'Dy2 Y2 Pu2 B6 O18'
_cell_volume   347.17311035
_cell_formula_units_Z   2
loop_
 _symmetry_equiv_pos_site_id
 _symmetry_equiv_pos_as_xyz
  1  'x, y, z'
loop_
 _atom_site_type_symbol
 _atom_site_label
 _atom_site_symmetry_multiplicity
 _atom_site_fract_x
 _atom_site_fract_y
 _atom_site_fract_z
 _atom_site_occupancy
  Dy  Dy0  1  0.328170  0.671830  0.000000  1
  Dy  Dy1  1  0.000505  0.999495  0.000000  1
  Y  Y2  1  0.670209  0.329791  0.500000  1
  Y  Y3  1  0.672039  0.327961  0.000000  1
  Pu  Pu4  1  0.331265  0.668735  0.500000  1
  Pu  Pu5  1  0.999364  0.000636  0.500000  1
  B  B6  1  0.337484  0.098571  0.753588  1
  B  B7  1  0.094437  0.334720  0.755391  1
  B  B8  1  0.574080  0.572781  0.755643  1
  B  B9  1  0.427219  0.425920  0.244357  1
  B  B10  1  0.665280  0.905563  0.244609  1
  B  B11  1  0.901429  0.662516  0.246412  1
  O  O12  1  0.451762  0.666644  0.242526  1
  O  O13  1  0.664978  0.447937  0.244966  1
  O  O14  1  0.878100  0.878073  0.245056  1
  O  O15  1  0.121927  0.121900  0.754944  1
  O  O16  1  0.552063  0.335022  0.755034  1
  O  O17  1  0.333356  0.548238  0.757474  1
  O  O18  1  0.015993  0.666309  0.107908  1
  O  O19  1  0.004770  0.659094  0.389209  1
  O  O20  1  0.666695  0.014279  0.104632  1
  O  O21  1  0.666370  0.019386  0.384183  1
  O  O22  1  0.315584  0.314965  0.105394  1
  O  O23  1  0.322764  0.321810  0.388341  1
  O  O24  1  0.678190  0.677236  0.611659  1
  O  O25  1  0.685035  0.684416  0.894606  1
  O  O26  1  0.980614  0.333630  0.615817  1
  O  O27  1  0.985721  0.333305  0.895368  1
  O  O28  1  0.340906  0.995230  0.610791  1
  O  O29  1  0.333691  0.984007  0.892092  1
