# generated using pymatgen
data_K2LiAsO4
_symmetry_space_group_name_H-M   'P 1'
_cell_length_a   5.75756866
_cell_length_b   5.75756874
_cell_length_c   7.66920968
_cell_angle_alpha   89.79421087
_cell_angle_beta   89.79421278
_cell_angle_gamma   85.21838830
_symmetry_Int_Tables_number   1
_chemical_formula_structural   K2LiAsO4
_chemical_formula_sum   'K4 Li2 As2 O8'
_cell_volume   253.34338616
_cell_formula_units_Z   2
loop_
 _symmetry_equiv_pos_site_id
 _symmetry_equiv_pos_as_xyz
  1  'x, y, z'
loop_
 _atom_site_type_symbol
 _atom_site_label
 _atom_site_symmetry_multiplicity
 _atom_site_fract_x
 _atom_site_fract_y
 _atom_site_fract_z
 _atom_site_occupancy
  K  K0  1  0.293226  0.293226  0.184319  1
  K  K1  1  0.220528  0.779472  0.500000  1
  K  K2  1  0.706774  0.706774  0.815681  1
  K  K3  1  0.779472  0.220528  0.500000  1
  Li  Li4  1  0.183390  0.816610  0.000000  1
  Li  Li5  1  0.816610  0.183390  0.000000  1
  As  As6  1  0.288099  0.288099  0.759856  1
  As  As7  1  0.711901  0.711901  0.240144  1
  O  O8  1  0.789792  0.428330  0.177270  1
  O  O9  1  0.894950  0.894950  0.140110  1
  O  O10  1  0.428330  0.789792  0.177270  1
  O  O11  1  0.105050  0.105050  0.859890  1
  O  O12  1  0.733468  0.733468  0.464060  1
  O  O13  1  0.571670  0.210208  0.822730  1
  O  O14  1  0.210208  0.571670  0.822730  1
  O  O15  1  0.266532  0.266532  0.535940  1
