# generated using pymatgen
data_Tb2Y14MgNi4Ag3
_symmetry_space_group_name_H-M   'P 1'
_cell_length_a   9.52528806
_cell_length_b   9.53325389
_cell_length_c   9.52973900
_cell_angle_alpha   60.01219915
_cell_angle_beta   59.98454490
_cell_angle_gamma   60.05877765
_symmetry_Int_Tables_number   1
_chemical_formula_structural   Tb2Y14MgNi4Ag3
_chemical_formula_sum   'Tb2 Y14 Mg1 Ni4 Ag3'
_cell_volume   612.16301407
_cell_formula_units_Z   1
loop_
 _symmetry_equiv_pos_site_id
 _symmetry_equiv_pos_as_xyz
  1  'x, y, z'
loop_
 _atom_site_type_symbol
 _atom_site_label
 _atom_site_symmetry_multiplicity
 _atom_site_fract_x
 _atom_site_fract_y
 _atom_site_fract_z
 _atom_site_occupancy
  Tb  Tb0  1  0.599869  0.205743  0.597194  1
  Tb  Tb1  1  0.193829  0.603005  0.601582  1
  Y  Y2  1  0.183535  0.815226  0.814649  1
  Y  Y3  1  0.813492  0.185645  0.185761  1
  Y  Y4  1  0.813492  0.185645  0.815103  1
  Y  Y5  1  0.183535  0.815226  0.186589  1
  Y  Y6  1  0.813697  0.815422  0.185441  1
  Y  Y7  1  0.183821  0.186978  0.814600  1
  Y  Y8  1  0.058997  0.439779  0.440914  1
  Y  Y9  1  0.436469  0.062443  0.062530  1
  Y  Y10  1  0.436469  0.062443  0.438559  1
  Y  Y11  1  0.058997  0.439779  0.060310  1
  Y  Y12  1  0.437024  0.438138  0.062419  1
  Y  Y13  1  0.059081  0.060556  0.440182  1
  Y  Y14  1  0.599063  0.598050  0.596991  1
  Y  Y15  1  0.599063  0.598050  0.205896  1
  Mg  Mg16  1  0.538270  0.819968  0.820882  1
  Ni  Ni17  1  0.390569  0.394029  0.395183  1
  Ni  Ni18  1  0.390569  0.394029  0.820221  1
  Ni  Ni19  1  0.389584  0.821804  0.394307  1
  Ni  Ni20  1  0.822463  0.391614  0.392963  1
  Ag  Ag21  1  0.832683  0.833655  0.833952  1
  Ag  Ag22  1  0.832683  0.833655  0.499711  1
  Ag  Ag23  1  0.832749  0.499121  0.834066  1
