# generated using pymatgen
data_Dy2Fe3Ni6P6Ru
_symmetry_space_group_name_H-M   'P 1'
_cell_length_a   3.70347700
_cell_length_b   10.34884900
_cell_length_c   11.89519800
_cell_angle_alpha   90.00000000
_cell_angle_beta   90.00000000
_cell_angle_gamma   90.00000000
_symmetry_Int_Tables_number   1
_chemical_formula_structural   Dy2Fe3Ni6P6Ru
_chemical_formula_sum   'Dy4 Fe6 Ni12 P12 Ru2'
_cell_volume   455.90397362
_cell_formula_units_Z   2
loop_
 _symmetry_equiv_pos_site_id
 _symmetry_equiv_pos_as_xyz
  1  'x, y, z'
loop_
 _atom_site_type_symbol
 _atom_site_label
 _atom_site_symmetry_multiplicity
 _atom_site_fract_x
 _atom_site_fract_y
 _atom_site_fract_z
 _atom_site_occupancy
  Dy  Dy0  1  0.250000  0.581539  0.704229  1
  Dy  Dy1  1  0.250000  0.918461  0.204229  1
  Dy  Dy2  1  0.750000  0.420932  0.292113  1
  Dy  Dy3  1  0.750000  0.079068  0.792113  1
  Fe  Fe4  1  0.250000  0.880965  0.702863  1
  Fe  Fe5  1  0.250000  0.619035  0.202863  1
  Fe  Fe6  1  0.250000  0.460762  0.929886  1
  Fe  Fe7  1  0.250000  0.039238  0.429886  1
  Fe  Fe8  1  0.750000  0.535206  0.067323  1
  Fe  Fe9  1  0.750000  0.964794  0.567323  1
  Ni  Ni10  1  0.750000  0.284433  0.004619  1
  Ni  Ni11  1  0.750000  0.215567  0.504619  1
  Ni  Ni12  1  0.250000  0.409937  0.487871  1
  Ni  Ni13  1  0.250000  0.090063  0.987871  1
  Ni  Ni14  1  0.750000  0.590786  0.513534  1
  Ni  Ni15  1  0.750000  0.909214  0.013534  1
  Ni  Ni16  1  0.250000  0.223307  0.177072  1
  Ni  Ni17  1  0.250000  0.276693  0.677072  1
  Ni  Ni18  1  0.750000  0.774618  0.825652  1
  Ni  Ni19  1  0.750000  0.725382  0.325652  1
  Ni  Ni20  1  0.750000  0.124728  0.298976  1
  Ni  Ni21  1  0.750000  0.375272  0.798976  1
  P  P22  1  0.250000  0.427083  0.111512  1
  P  P23  1  0.250000  0.072917  0.611512  1
  P  P24  1  0.750000  0.572036  0.888715  1
  P  P25  1  0.750000  0.927964  0.388715  1
  P  P26  1  0.250000  0.265807  0.870112  1
  P  P27  1  0.250000  0.234193  0.370112  1
  P  P28  1  0.750000  0.726588  0.135306  1
  P  P29  1  0.750000  0.773412  0.635306  1
  P  P30  1  0.250000  0.600733  0.388865  1
  P  P31  1  0.250000  0.899267  0.888865  1
  P  P32  1  0.750000  0.395321  0.607924  1
  P  P33  1  0.750000  0.104679  0.107924  1
  Ru  Ru34  1  0.250000  0.710487  0.993426  1
  Ru  Ru35  1  0.250000  0.789513  0.493426  1
