# generated using pymatgen
data_LiHo9(Co2Pd)2
_symmetry_space_group_name_H-M   'P 1'
_cell_length_a   7.19434725
_cell_length_b   7.19434686
_cell_length_c   8.53054990
_cell_angle_alpha   114.94079338
_cell_angle_beta   114.94078704
_cell_angle_gamma   90.00000180
_symmetry_Int_Tables_number   1
_chemical_formula_structural   LiHo9(Co2Pd)2
_chemical_formula_sum   'Li1 Ho9 Co4 Pd2'
_cell_volume   354.42739456
_cell_formula_units_Z   1
loop_
 _symmetry_equiv_pos_site_id
 _symmetry_equiv_pos_as_xyz
  1  'x, y, z'
loop_
 _atom_site_type_symbol
 _atom_site_label
 _atom_site_symmetry_multiplicity
 _atom_site_fract_x
 _atom_site_fract_y
 _atom_site_fract_z
 _atom_site_occupancy
  Li  Li0  1  0.500000  0.500000  0.000000  1
  Ho  Ho1  1  0.000000  0.000000  0.000000  1
  Ho  Ho2  1  0.466314  0.320079  0.266512  1
  Ho  Ho3  1  0.946434  0.466314  0.266512  1
  Ho  Ho4  1  0.320079  0.800197  0.266512  1
  Ho  Ho5  1  0.800197  0.946434  0.266512  1
  Ho  Ho6  1  0.199802  0.053567  0.733487  1
  Ho  Ho7  1  0.679920  0.199802  0.733487  1
  Ho  Ho8  1  0.053567  0.533685  0.733487  1
  Ho  Ho9  1  0.533685  0.679920  0.733487  1
  Co  Co10  1  0.619717  0.109815  0.000000  1
  Co  Co11  1  0.109815  0.380284  0.000000  1
  Co  Co12  1  0.890185  0.619717  0.000000  1
  Co  Co13  1  0.380284  0.890185  0.000000  1
  Pd  Pd14  1  0.242034  0.242034  0.484067  1
  Pd  Pd15  1  0.757966  0.757966  0.515933  1
