# generated using pymatgen
data_Tb8Cd2CoPt
_symmetry_space_group_name_H-M   'P 1'
_cell_length_a   9.65960807
_cell_length_b   9.65352877
_cell_length_c   9.65352877
_cell_angle_alpha   59.96843882
_cell_angle_beta   59.97916214
_cell_angle_gamma   59.97917049
_symmetry_Int_Tables_number   1
_chemical_formula_structural   Tb8Cd2CoPt
_chemical_formula_sum   'Tb16 Cd4 Co2 Pt2'
_cell_volume   636.17446790
_cell_formula_units_Z   2
loop_
 _symmetry_equiv_pos_site_id
 _symmetry_equiv_pos_as_xyz
  1  'x, y, z'
loop_
 _atom_site_type_symbol
 _atom_site_label
 _atom_site_symmetry_multiplicity
 _atom_site_fract_x
 _atom_site_fract_y
 _atom_site_fract_z
 _atom_site_occupancy
  Tb  Tb0  1  0.441145  0.438133  0.052039  1
  Tb  Tb1  1  0.588695  0.601501  0.601501  1
  Tb  Tb2  1  0.184551  0.815449  0.815449  1
  Tb  Tb3  1  0.068683  0.052039  0.438133  1
  Tb  Tb4  1  0.438493  0.061507  0.061507  1
  Tb  Tb5  1  0.813167  0.188154  0.813286  1
  Tb  Tb6  1  0.441145  0.052039  0.438133  1
  Tb  Tb7  1  0.595936  0.197739  0.610390  1
  Tb  Tb8  1  0.813167  0.813286  0.188154  1
  Tb  Tb9  1  0.208303  0.601501  0.601501  1
  Tb  Tb10  1  0.811152  0.188848  0.188848  1
  Tb  Tb11  1  0.058521  0.441479  0.441479  1
  Tb  Tb12  1  0.185393  0.813286  0.188154  1
  Tb  Tb13  1  0.595936  0.610390  0.197739  1
  Tb  Tb14  1  0.185393  0.188154  0.813286  1
  Tb  Tb15  1  0.068683  0.438133  0.052039  1
  Cd  Cd16  1  0.831583  0.829787  0.507046  1
  Cd  Cd17  1  0.832473  0.830680  0.830680  1
  Cd  Cd18  1  0.506166  0.830680  0.830680  1
  Cd  Cd19  1  0.831583  0.507046  0.829787  1
  Co  Co20  1  0.391678  0.824928  0.391717  1
  Co  Co21  1  0.391678  0.391717  0.824928  1
  Pt  Pt22  1  0.394516  0.391762  0.391762  1
  Pt  Pt23  1  0.821961  0.391762  0.391762  1
