# generated using pymatgen
data_Pr2VIr3
_symmetry_space_group_name_H-M   'P 1'
_cell_length_a   5.70955330
_cell_length_b   5.23716036
_cell_length_c   5.70955200
_cell_angle_alpha   56.96849089
_cell_angle_beta   59.99999594
_cell_angle_gamma   56.96849242
_symmetry_Int_Tables_number   1
_chemical_formula_structural   Pr2VIr3
_chemical_formula_sum   'Pr2 V1 Ir3'
_cell_volume   114.89067879
_cell_formula_units_Z   1
loop_
 _symmetry_equiv_pos_site_id
 _symmetry_equiv_pos_as_xyz
  1  'x, y, z'
loop_
 _atom_site_type_symbol
 _atom_site_label
 _atom_site_symmetry_multiplicity
 _atom_site_fract_x
 _atom_site_fract_y
 _atom_site_fract_z
 _atom_site_occupancy
  Pr  Pr0  1  0.500007  0.499978  0.500007  1
  Pr  Pr1  1  0.749993  0.750022  0.749993  1
  V  V2  1  0.125000  0.625000  0.125000  1
  Ir  Ir3  1  0.625000  0.125000  0.125000  1
  Ir  Ir4  1  0.125000  0.125000  0.125000  1
  Ir  Ir5  1  0.125000  0.125000  0.625000  1
