# generated using pymatgen
data_Dy2Y3ErPtI10
_symmetry_space_group_name_H-M   'P 1'
_cell_length_a   7.72699078
_cell_length_b   9.74434488
_cell_length_c   9.77162506
_cell_angle_alpha   107.18521535
_cell_angle_beta   96.85233181
_cell_angle_gamma   104.58645832
_symmetry_Int_Tables_number   1
_chemical_formula_structural   Dy2Y3ErPtI10
_chemical_formula_sum   'Dy2 Y3 Er1 Pt1 I10'
_cell_volume   665.14664675
_cell_formula_units_Z   1
loop_
 _symmetry_equiv_pos_site_id
 _symmetry_equiv_pos_as_xyz
  1  'x, y, z'
loop_
 _atom_site_type_symbol
 _atom_site_label
 _atom_site_symmetry_multiplicity
 _atom_site_fract_x
 _atom_site_fract_y
 _atom_site_fract_z
 _atom_site_occupancy
  Dy  Dy0  1  0.886117  0.960064  0.241773  1
  Dy  Dy1  1  0.116268  0.041340  0.759328  1
  Y  Y2  1  0.649965  0.874506  0.833408  1
  Y  Y3  1  0.970812  0.288281  0.087701  1
  Y  Y4  1  0.030056  0.712112  0.913178  1
  Er  Er5  1  0.344513  0.123529  0.164216  1
  Pt  Pt6  1  0.999803  0.999957  0.999788  1
  I  I7  1  0.357223  0.450199  0.272555  1
  I  I8  1  0.645441  0.546984  0.727583  1
  I  I9  1  0.914563  0.627447  0.180548  1
  I  I10  1  0.085900  0.372687  0.819897  1
  I  I11  1  0.454535  0.819623  0.094051  1
  I  I12  1  0.545686  0.183794  0.909898  1
  I  I13  1  0.260468  0.087915  0.461476  1
  I  I14  1  0.743196  0.913305  0.537354  1
  I  I15  1  0.773613  0.256439  0.345284  1
  I  I16  1  0.221841  0.741819  0.651962  1
