# generated using pymatgen
data_Y4Si10IrOs5
_symmetry_space_group_name_H-M   'P 1'
_cell_length_a   8.13018245
_cell_length_b   8.11858310
_cell_length_c   5.81611671
_cell_angle_alpha   70.75354569
_cell_angle_beta   70.73140004
_cell_angle_gamma   94.11451542
_symmetry_Int_Tables_number   1
_chemical_formula_structural   Y4Si10IrOs5
_chemical_formula_sum   'Y4 Si10 Ir1 Os5'
_cell_volume   335.04401133
_cell_formula_units_Z   1
loop_
 _symmetry_equiv_pos_site_id
 _symmetry_equiv_pos_as_xyz
  1  'x, y, z'
loop_
 _atom_site_type_symbol
 _atom_site_label
 _atom_site_symmetry_multiplicity
 _atom_site_fract_x
 _atom_site_fract_y
 _atom_site_fract_z
 _atom_site_occupancy
  Y  Y0  1  0.866725  0.600505  0.754469  1
  Y  Y1  1  0.399470  0.131767  0.745897  1
  Y  Y2  1  0.131307  0.398139  0.248714  1
  Y  Y3  1  0.600824  0.868739  0.253840  1
  Si  Si4  1  0.064762  0.259536  0.836278  1
  Si  Si5  1  0.738434  0.932122  0.665888  1
  Si  Si6  1  0.932193  0.737948  0.166366  1
  Si  Si7  1  0.262645  0.066686  0.333330  1
  Si  Si8  1  0.209089  0.795135  0.746703  1
  Si  Si9  1  0.794016  0.207585  0.248299  1
  Si  Si10  1  0.514887  0.486993  0.750581  1
  Si  Si11  1  0.487801  0.513412  0.248076  1
  Si  Si12  1  0.773530  0.227183  0.750898  1
  Si  Si13  1  0.226285  0.776025  0.248707  1
  Ir  Ir14  1  0.255568  0.542808  0.630939  1
  Os  Os15  1  0.455593  0.743354  0.870443  1
  Os  Os16  1  0.742741  0.456338  0.369715  1
  Os  Os17  1  0.543288  0.257100  0.131729  1
  Os  Os18  1  0.004008  0.995218  0.749541  1
  Os  Os19  1  0.996836  0.003406  0.249589  1
