# generated using pymatgen
data_Sr9Yb3(GdSn2)8
_symmetry_space_group_name_H-M   'P 1'
_cell_length_a   8.27706804
_cell_length_b   8.55864499
_cell_length_c   16.29049300
_cell_angle_alpha   90.01376388
_cell_angle_beta   90.00574545
_cell_angle_gamma   89.89366325
_symmetry_Int_Tables_number   1
_chemical_formula_structural   Sr9Yb3(GdSn2)8
_chemical_formula_sum   'Sr9 Yb3 Gd8 Sn16'
_cell_volume   1154.02442937
_cell_formula_units_Z   1
loop_
 _symmetry_equiv_pos_site_id
 _symmetry_equiv_pos_as_xyz
  1  'x, y, z'
loop_
 _atom_site_type_symbol
 _atom_site_label
 _atom_site_symmetry_multiplicity
 _atom_site_fract_x
 _atom_site_fract_y
 _atom_site_fract_z
 _atom_site_occupancy
  Sr  Sr0  1  0.178046  0.328586  0.619749  1
  Sr  Sr1  1  0.507841  0.679419  0.593977  1
  Sr  Sr2  1  0.008320  0.823716  0.909067  1
  Sr  Sr3  1  0.489282  0.320135  0.094687  1
  Sr  Sr4  1  0.989704  0.182044  0.403889  1
  Sr  Sr5  1  0.490044  0.319949  0.404925  1
  Sr  Sr6  1  0.989759  0.181141  0.094550  1
  Sr  Sr7  1  0.508209  0.680503  0.908192  1
  Sr  Sr8  1  0.010053  0.821607  0.591757  1
  Yb  Yb9  1  0.340640  0.992147  0.750499  1
  Yb  Yb10  1  0.157612  0.493198  0.248860  1
  Yb  Yb11  1  0.658594  0.006060  0.250227  1
  Gd  Gd12  1  0.673666  0.166167  0.623023  1
  Gd  Gd13  1  0.174941  0.328804  0.878602  1
  Gd  Gd14  1  0.325634  0.830735  0.122915  1
  Gd  Gd15  1  0.826237  0.667806  0.375686  1
  Gd  Gd16  1  0.326600  0.831505  0.375898  1
  Gd  Gd17  1  0.826655  0.667862  0.122517  1
  Gd  Gd18  1  0.672518  0.166391  0.879235  1
  Gd  Gd19  1  0.843981  0.509853  0.749713  1
  Sn  Sn20  1  0.663562  0.959158  0.457459  1
  Sn  Sn21  1  0.158656  0.539274  0.041256  1
  Sn  Sn22  1  0.342048  0.039815  0.959683  1
  Sn  Sn23  1  0.833004  0.464996  0.541080  1
  Sn  Sn24  1  0.351810  0.030937  0.540080  1
  Sn  Sn25  1  0.841588  0.462901  0.956104  1
  Sn  Sn26  1  0.658274  0.960891  0.042708  1
  Sn  Sn27  1  0.153437  0.544311  0.453128  1
  Sn  Sn28  1  0.481184  0.383768  0.755588  1
  Sn  Sn29  1  0.966743  0.121309  0.753637  1
  Sn  Sn30  1  0.527040  0.622876  0.248725  1
  Sn  Sn31  1  0.027178  0.876895  0.248120  1
  Sn  Sn32  1  0.718998  0.872716  0.751257  1
  Sn  Sn33  1  0.215837  0.622854  0.754929  1
  Sn  Sn34  1  0.281675  0.120255  0.249315  1
  Sn  Sn35  1  0.780633  0.379409  0.248965  1
