# generated using pymatgen
data_Lu12GaFe3Pt
_symmetry_space_group_name_H-M   'P 1'
_cell_length_a   8.06525842
_cell_length_b   8.06525694
_cell_length_c   8.06525800
_cell_angle_alpha   107.16565797
_cell_angle_beta   110.75056386
_cell_angle_gamma   110.52183495
_symmetry_Int_Tables_number   1
_chemical_formula_structural   Lu12GaFe3Pt
_chemical_formula_sum   'Lu12 Ga1 Fe3 Pt1'
_cell_volume   403.37222190
_cell_formula_units_Z   1
loop_
 _symmetry_equiv_pos_site_id
 _symmetry_equiv_pos_as_xyz
  1  'x, y, z'
loop_
 _atom_site_type_symbol
 _atom_site_label
 _atom_site_symmetry_multiplicity
 _atom_site_fract_x
 _atom_site_fract_y
 _atom_site_fract_z
 _atom_site_occupancy
  Lu  Lu0  1  0.309666  0.308371  0.618032  1
  Lu  Lu1  1  0.690334  0.691629  0.381968  1
  Lu  Lu2  1  0.690339  0.308371  0.998704  1
  Lu  Lu3  1  0.309661  0.691629  0.001296  1
  Lu  Lu4  1  0.186552  0.410882  0.224328  1
  Lu  Lu5  1  0.813448  0.589118  0.775672  1
  Lu  Lu6  1  0.186546  0.962212  0.775666  1
  Lu  Lu7  1  0.925707  0.191528  0.734182  1
  Lu  Lu8  1  0.813454  0.037788  0.224334  1
  Lu  Lu9  1  0.074293  0.808472  0.265818  1
  Lu  Lu10  1  0.457347  0.191528  0.265819  1
  Lu  Lu11  1  0.542653  0.808472  0.734181  1
  Ga  Ga12  1  0.000000  0.500000  0.500000  1
  Fe  Fe13  1  0.380670  0.380674  0.000004  1
  Fe  Fe14  1  0.619330  0.619326  0.999996  1
  Fe  Fe15  1  0.000000  0.000000  0.000000  1
  Pt  Pt16  1  0.500000  0.000000  0.500000  1
