# generated using pymatgen
data_NaPr2(Si3Pd10)2
_symmetry_space_group_name_H-M   'P 1'
_cell_length_a   8.74378531
_cell_length_b   8.74378552
_cell_length_c   8.74378500
_cell_angle_alpha   59.99999819
_cell_angle_beta   59.99999737
_cell_angle_gamma   60.00000125
_symmetry_Int_Tables_number   1
_chemical_formula_structural   NaPr2(Si3Pd10)2
_chemical_formula_sum   'Na1 Pr2 Si6 Pd20'
_cell_volume   472.69765040
_cell_formula_units_Z   1
loop_
 _symmetry_equiv_pos_site_id
 _symmetry_equiv_pos_as_xyz
  1  'x, y, z'
loop_
 _atom_site_type_symbol
 _atom_site_label
 _atom_site_symmetry_multiplicity
 _atom_site_fract_x
 _atom_site_fract_y
 _atom_site_fract_z
 _atom_site_occupancy
  Na  Na0  1  0.000000  0.000000  0.000000  1
  Pr  Pr1  1  0.750000  0.750000  0.750000  1
  Pr  Pr2  1  0.250000  0.250000  0.250000  1
  Si  Si3  1  0.735255  0.735255  0.264745  1
  Si  Si4  1  0.264745  0.264745  0.735255  1
  Si  Si5  1  0.735255  0.264745  0.735255  1
  Si  Si6  1  0.264745  0.735255  0.264745  1
  Si  Si7  1  0.264745  0.735255  0.735255  1
  Si  Si8  1  0.735255  0.264745  0.264745  1
  Pd  Pd9  1  0.614535  0.614535  0.614535  1
  Pd  Pd10  1  0.385465  0.385465  0.385465  1
  Pd  Pd11  1  0.156395  0.614535  0.614535  1
  Pd  Pd12  1  0.614535  0.156395  0.614535  1
  Pd  Pd13  1  0.843605  0.385465  0.385465  1
  Pd  Pd14  1  0.385465  0.843605  0.385465  1
  Pd  Pd15  1  0.614535  0.614535  0.156395  1
  Pd  Pd16  1  0.385465  0.385465  0.843605  1
  Pd  Pd17  1  0.000000  0.000000  0.654364  1
  Pd  Pd18  1  0.000000  0.000000  0.345636  1
  Pd  Pd19  1  0.345636  0.654364  0.000000  1
  Pd  Pd20  1  0.654364  0.345636  0.000000  1
  Pd  Pd21  1  0.000000  0.654364  0.000000  1
  Pd  Pd22  1  0.654364  0.000000  0.345636  1
  Pd  Pd23  1  0.000000  0.345636  0.000000  1
  Pd  Pd24  1  0.345636  0.000000  0.654364  1
  Pd  Pd25  1  0.654364  0.000000  0.000000  1
  Pd  Pd26  1  0.345636  0.000000  0.000000  1
  Pd  Pd27  1  0.000000  0.654364  0.345636  1
  Pd  Pd28  1  0.000000  0.345636  0.654364  1
