# generated using pymatgen
data_CdCo3(BrO3)8
_symmetry_space_group_name_H-M   'P 1'
_cell_length_a   5.75599554
_cell_length_b   10.70957062
_cell_length_c   10.76273800
_cell_angle_alpha   119.23780036
_cell_angle_beta   90.08637180
_cell_angle_gamma   89.34125366
_symmetry_Int_Tables_number   1
_chemical_formula_structural   CdCo3(BrO3)8
_chemical_formula_sum   'Cd1 Co3 Br8 O24'
_cell_volume   578.89124221
_cell_formula_units_Z   1
loop_
 _symmetry_equiv_pos_site_id
 _symmetry_equiv_pos_as_xyz
  1  'x, y, z'
loop_
 _atom_site_type_symbol
 _atom_site_label
 _atom_site_symmetry_multiplicity
 _atom_site_fract_x
 _atom_site_fract_y
 _atom_site_fract_z
 _atom_site_occupancy
  Cd  Cd0  1  0.137863  0.766589  0.506789  1
  Co  Co1  1  0.644314  0.235484  0.492274  1
  Co  Co2  1  0.140655  0.262073  0.005868  1
  Co  Co3  1  0.642240  0.738950  0.991975  1
  Br  Br4  1  0.268409  0.409046  0.344561  1
  Br  Br5  1  0.752115  0.576743  0.650970  1
  Br  Br6  1  0.263564  0.917482  0.858047  1
  Br  Br7  1  0.764877  0.084652  0.151067  1
  Br  Br8  1  0.778434  0.100248  0.700872  1
  Br  Br9  1  0.299793  0.920901  0.306671  1
  Br  Br10  1  0.288101  0.414292  0.812329  1
  Br  Br11  1  0.783605  0.582882  0.178430  1
  O  O12  1  0.429202  0.890297  0.973114  1
  O  O13  1  0.933304  0.117940  0.041827  1
  O  O14  1  0.378153  0.804492  0.695878  1
  O  O15  1  0.869759  0.192575  0.317559  1
  O  O16  1  0.363746  0.293618  0.177169  1
  O  O17  1  0.855295  0.692044  0.815702  1
  O  O18  1  0.935009  0.234377  0.830673  1
  O  O19  1  0.438609  0.778032  0.172029  1
  O  O20  1  0.905510  0.946430  0.675207  1
  O  O21  1  0.440901  0.070590  0.334375  1
  O  O22  1  0.348930  0.080007  0.883490  1
  O  O23  1  0.857143  0.918472  0.114564  1
  O  O24  1  0.430597  0.276749  0.674038  1
  O  O25  1  0.915175  0.725735  0.312024  1
  O  O26  1  0.352237  0.390781  0.954249  1
  O  O27  1  0.843155  0.598736  0.032100  1
  O  O28  1  0.426138  0.566451  0.844822  1
  O  O29  1  0.938912  0.437152  0.155693  1
  O  O30  1  0.372862  0.568538  0.373812  1
  O  O31  1  0.844694  0.413489  0.623047  1
  O  O32  1  0.433081  0.376833  0.456618  1
  O  O33  1  0.923922  0.603437  0.539827  1
  O  O34  1  0.843025  0.106750  0.549689  1
  O  O35  1  0.366268  0.907133  0.452641  1
