# generated using pymatgen
data_Ba8Sn18HgBi5
_symmetry_space_group_name_H-M   'P 1'
_cell_length_a   7.40619332
_cell_length_b   7.40619220
_cell_length_c   22.36566413
_cell_angle_alpha   89.82444566
_cell_angle_beta   90.17555495
_cell_angle_gamma   119.95197402
_symmetry_Int_Tables_number   1
_chemical_formula_structural   Ba8Sn18HgBi5
_chemical_formula_sum   'Ba8 Sn18 Hg1 Bi5'
_cell_volume   1062.94233018
_cell_formula_units_Z   1
loop_
 _symmetry_equiv_pos_site_id
 _symmetry_equiv_pos_as_xyz
  1  'x, y, z'
loop_
 _atom_site_type_symbol
 _atom_site_label
 _atom_site_symmetry_multiplicity
 _atom_site_fract_x
 _atom_site_fract_y
 _atom_site_fract_z
 _atom_site_occupancy
  Ba  Ba0  1  0.334382  0.665618  0.133286  1
  Ba  Ba1  1  0.665618  0.334382  0.866714  1
  Ba  Ba2  1  0.666677  0.333323  0.634561  1
  Ba  Ba3  1  0.333323  0.666677  0.365439  1
  Ba  Ba4  1  0.000000  0.000000  0.000000  1
  Ba  Ba5  1  0.000000  0.000000  0.500000  1
  Ba  Ba6  1  0.000385  0.999615  0.249653  1
  Ba  Ba7  1  0.999615  0.000385  0.750347  1
  Sn  Sn8  1  0.192978  0.388145  0.625179  1
  Sn  Sn9  1  0.807022  0.611855  0.374821  1
  Sn  Sn10  1  0.611855  0.807022  0.625179  1
  Sn  Sn11  1  0.806711  0.611836  0.123875  1
  Sn  Sn12  1  0.388145  0.192978  0.374821  1
  Sn  Sn13  1  0.193289  0.388164  0.876125  1
  Sn  Sn14  1  0.194577  0.805423  0.624169  1
  Sn  Sn15  1  0.388164  0.193289  0.123875  1
  Sn  Sn16  1  0.805423  0.194577  0.375831  1
  Sn  Sn17  1  0.611836  0.806711  0.876125  1
  Sn  Sn18  1  0.805161  0.194839  0.124861  1
  Sn  Sn19  1  0.194839  0.805161  0.875139  1
  Sn  Sn20  1  0.527244  0.057421  0.248443  1
  Sn  Sn21  1  0.472756  0.942579  0.751557  1
  Sn  Sn22  1  0.942579  0.472756  0.248443  1
  Sn  Sn23  1  0.057421  0.527244  0.751557  1
  Sn  Sn24  1  0.528966  0.471034  0.249336  1
  Sn  Sn25  1  0.471034  0.528966  0.750664  1
  Hg  Hg26  1  0.500000  0.500000  0.000000  1
  Bi  Bi27  1  0.500000  0.000000  0.000000  1
  Bi  Bi28  1  0.000000  0.500000  0.000000  1
  Bi  Bi29  1  0.500000  0.000000  0.500000  1
  Bi  Bi30  1  0.000000  0.500000  0.500000  1
  Bi  Bi31  1  0.500000  0.500000  0.500000  1
