# generated using pymatgen
data_SmTmZr2(Al8Pt3)3
_symmetry_space_group_name_H-M   'P 1'
_cell_length_a   7.50944702
_cell_length_b   7.51584148
_cell_length_c   13.04783700
_cell_angle_alpha   84.52545266
_cell_angle_beta   78.95258346
_cell_angle_gamma   59.94081740
_symmetry_Int_Tables_number   1
_chemical_formula_structural   SmTmZr2(Al8Pt3)3
_chemical_formula_sum   'Sm1 Tm1 Zr2 Al24 Pt9'
_cell_volume   625.56418532
_cell_formula_units_Z   1
loop_
 _symmetry_equiv_pos_site_id
 _symmetry_equiv_pos_as_xyz
  1  'x, y, z'
loop_
 _atom_site_type_symbol
 _atom_site_label
 _atom_site_symmetry_multiplicity
 _atom_site_fract_x
 _atom_site_fract_y
 _atom_site_fract_z
 _atom_site_occupancy
  Sm  Sm0  1  0.266942  0.501782  0.190489  1
  Tm  Tm1  1  0.734046  0.498612  0.807041  1
  Zr  Zr2  1  0.393817  0.167224  0.810124  1
  Zr  Zr3  1  0.606418  0.832160  0.189741  1
  Al  Al4  1  0.681822  0.835153  0.942751  1
  Al  Al5  1  0.319368  0.162607  0.054726  1
  Al  Al6  1  0.145756  0.833383  0.563492  1
  Al  Al7  1  0.853687  0.167004  0.437575  1
  Al  Al8  1  0.480020  0.166865  0.561675  1
  Al  Al9  1  0.519741  0.833103  0.439419  1
  Al  Al10  1  0.220028  0.163302  0.328416  1
  Al  Al11  1  0.779274  0.836418  0.673714  1
  Al  Al12  1  0.436453  0.504377  0.673827  1
  Al  Al13  1  0.563254  0.495733  0.328285  1
  Al  Al14  1  0.110595  0.160446  0.672512  1
  Al  Al15  1  0.887950  0.839993  0.329726  1
  Al  Al16  1  0.354703  0.496845  0.940420  1
  Al  Al17  1  0.648695  0.502852  0.055917  1
  Al  Al18  1  0.018108  0.168193  0.950149  1
  Al  Al19  1  0.980922  0.833450  0.047014  1
  Al  Al20  1  0.186354  0.499690  0.441104  1
  Al  Al21  1  0.813085  0.500326  0.559957  1
  Al  Al22  1  0.735579  0.156677  0.183820  1
  Al  Al23  1  0.266658  0.840861  0.816281  1
  Al  Al24  1  0.064947  0.626698  0.815188  1
  Al  Al25  1  0.932234  0.373642  0.184944  1
  Al  Al26  1  0.850649  0.041471  0.815753  1
  Al  Al27  1  0.149546  0.961221  0.184357  1
  Pt  Pt28  1  0.119466  0.491087  0.639546  1
  Pt  Pt29  1  0.879238  0.508763  0.361350  1
  Pt  Pt30  1  0.657221  0.172899  0.999265  1
  Pt  Pt31  1  0.343217  0.827106  0.000010  1
  Pt  Pt32  1  0.537309  0.166484  0.362139  1
  Pt  Pt33  1  0.463221  0.832813  0.638822  1
  Pt  Pt34  1  0.778471  0.176495  0.637974  1
  Pt  Pt35  1  0.220959  0.824626  0.362906  1
  Pt  Pt36  1  0.000248  0.499642  0.999567  1
