# generated using pymatgen
data_LaY2(P2Rh3)3
_symmetry_space_group_name_H-M   'P 1'
_cell_length_a   3.95256700
_cell_length_b   11.25987200
_cell_length_c   12.87898900
_cell_angle_alpha   90.00000000
_cell_angle_beta   90.00000000
_cell_angle_gamma   90.00000000
_symmetry_Int_Tables_number   1
_chemical_formula_structural   LaY2(P2Rh3)3
_chemical_formula_sum   'La2 Y4 P12 Rh18'
_cell_volume   573.18453761
_cell_formula_units_Z   2
loop_
 _symmetry_equiv_pos_site_id
 _symmetry_equiv_pos_as_xyz
  1  'x, y, z'
loop_
 _atom_site_type_symbol
 _atom_site_label
 _atom_site_symmetry_multiplicity
 _atom_site_fract_x
 _atom_site_fract_y
 _atom_site_fract_z
 _atom_site_occupancy
  La  La0  1  0.000000  0.500000  0.523747  1
  La  La1  1  0.500000  0.000000  0.476253  1
  Y  Y2  1  0.500000  0.814035  0.204303  1
  Y  Y3  1  0.500000  0.185965  0.204303  1
  Y  Y4  1  0.000000  0.685965  0.795697  1
  Y  Y5  1  0.000000  0.314035  0.795697  1
  P  P6  1  0.500000  0.500000  0.879903  1
  P  P7  1  0.000000  0.000000  0.120097  1
  P  P8  1  0.500000  0.500000  0.346921  1
  P  P9  1  0.000000  0.000000  0.653079  1
  P  P10  1  0.500000  0.311584  0.619838  1
  P  P11  1  0.500000  0.688416  0.619838  1
  P  P12  1  0.000000  0.188416  0.380162  1
  P  P13  1  0.000000  0.811584  0.380162  1
  P  P14  1  0.500000  0.846665  0.893759  1
  P  P15  1  0.500000  0.153335  0.893759  1
  P  P16  1  0.000000  0.653335  0.106241  1
  P  P17  1  0.000000  0.346665  0.106241  1
  Rh  Rh18  1  0.500000  0.500000  0.168226  1
  Rh  Rh19  1  0.000000  0.000000  0.831774  1
  Rh  Rh20  1  0.500000  0.500000  0.704637  1
  Rh  Rh21  1  0.000000  0.000000  0.295363  1
  Rh  Rh22  1  0.000000  0.500000  0.979082  1
  Rh  Rh23  1  0.500000  0.000000  0.020918  1
  Rh  Rh24  1  0.500000  0.334124  0.993869  1
  Rh  Rh25  1  0.500000  0.665876  0.993869  1
  Rh  Rh26  1  0.000000  0.165876  0.006131  1
  Rh  Rh27  1  0.000000  0.834124  0.006131  1
  Rh  Rh28  1  0.500000  0.293397  0.429203  1
  Rh  Rh29  1  0.500000  0.706603  0.429203  1
  Rh  Rh30  1  0.000000  0.206603  0.570797  1
  Rh  Rh31  1  0.000000  0.793397  0.570797  1
  Rh  Rh32  1  0.500000  0.873304  0.712935  1
  Rh  Rh33  1  0.500000  0.126696  0.712935  1
  Rh  Rh34  1  0.000000  0.626696  0.287065  1
  Rh  Rh35  1  0.000000  0.373304  0.287065  1
