# generated using pymatgen
data_Tb5Tm(Sc2Sn3)2
_symmetry_space_group_name_H-M   'P 1'
_cell_length_a   8.82550000
_cell_length_b   8.81296016
_cell_length_c   6.29251000
_cell_angle_alpha   90.00000000
_cell_angle_beta   90.00000000
_cell_angle_gamma   120.04707989
_symmetry_Int_Tables_number   1
_chemical_formula_structural   Tb5Tm(Sc2Sn3)2
_chemical_formula_sum   'Tb5 Tm1 Sc4 Sn6'
_cell_volume   423.65217811
_cell_formula_units_Z   1
loop_
 _symmetry_equiv_pos_site_id
 _symmetry_equiv_pos_as_xyz
  1  'x, y, z'
loop_
 _atom_site_type_symbol
 _atom_site_label
 _atom_site_symmetry_multiplicity
 _atom_site_fract_x
 _atom_site_fract_y
 _atom_site_fract_z
 _atom_site_occupancy
  Tb  Tb0  1  0.760369  0.760672  0.250000  1
  Tb  Tb1  1  0.240100  0.000000  0.250000  1
  Tb  Tb2  1  0.239315  0.239604  0.750000  1
  Tb  Tb3  1  0.999711  0.760396  0.750000  1
  Tb  Tb4  1  0.999697  0.239328  0.250000  1
  Tm  Tm5  1  0.760134  0.000000  0.750000  1
  Sc  Sc6  1  0.333439  0.666699  0.500114  1
  Sc  Sc7  1  0.666741  0.333301  0.999886  1
  Sc  Sc8  1  0.666741  0.333301  0.500114  1
  Sc  Sc9  1  0.333439  0.666699  0.999886  1
  Sn  Sn10  1  0.401184  0.000000  0.750000  1
  Sn  Sn11  1  0.400375  0.400421  0.250000  1
  Sn  Sn12  1  0.999954  0.599579  0.250000  1
  Sn  Sn13  1  0.999331  0.399399  0.750000  1
  Sn  Sn14  1  0.599932  0.600601  0.750000  1
  Sn  Sn15  1  0.599539  0.000000  0.250000  1
