# generated using pymatgen
data_Ba8Sn18Bi5Pb
_symmetry_space_group_name_H-M   'P 1'
_cell_length_a   7.34443310
_cell_length_b   7.34471067
_cell_length_c   22.77362753
_cell_angle_alpha   90.25388342
_cell_angle_beta   89.98655090
_cell_angle_gamma   119.98548923
_symmetry_Int_Tables_number   1
_chemical_formula_structural   Ba8Sn18Bi5Pb
_chemical_formula_sum   'Ba8 Sn18 Bi5 Pb1'
_cell_volume   1064.03007248
_cell_formula_units_Z   1
loop_
 _symmetry_equiv_pos_site_id
 _symmetry_equiv_pos_as_xyz
  1  'x, y, z'
loop_
 _atom_site_type_symbol
 _atom_site_label
 _atom_site_symmetry_multiplicity
 _atom_site_fract_x
 _atom_site_fract_y
 _atom_site_fract_z
 _atom_site_occupancy
  Ba  Ba0  1  0.332849  0.666008  0.135097  1
  Ba  Ba1  1  0.667151  0.333992  0.864903  1
  Ba  Ba2  1  0.666793  0.333299  0.634418  1
  Ba  Ba3  1  0.333207  0.666701  0.365582  1
  Ba  Ba4  1  0.000000  0.000000  0.000000  1
  Ba  Ba5  1  0.000000  0.000000  0.500000  1
  Ba  Ba6  1  0.000384  0.000535  0.249785  1
  Ba  Ba7  1  0.999616  0.999465  0.750215  1
  Sn  Sn8  1  0.193019  0.385965  0.624450  1
  Sn  Sn9  1  0.806981  0.614035  0.375550  1
  Sn  Sn10  1  0.612783  0.806335  0.624709  1
  Sn  Sn11  1  0.806768  0.613355  0.124992  1
  Sn  Sn12  1  0.387217  0.193665  0.375291  1
  Sn  Sn13  1  0.193232  0.386645  0.875008  1
  Sn  Sn14  1  0.193810  0.806785  0.624714  1
  Sn  Sn15  1  0.385590  0.192583  0.125044  1
  Sn  Sn16  1  0.806190  0.193215  0.375286  1
  Sn  Sn17  1  0.614410  0.807417  0.874956  1
  Sn  Sn18  1  0.806739  0.192325  0.124961  1
  Sn  Sn19  1  0.193261  0.807675  0.875039  1
  Sn  Sn20  1  0.529143  0.057736  0.249547  1
  Sn  Sn21  1  0.470857  0.942264  0.750453  1
  Sn  Sn22  1  0.941669  0.470499  0.249576  1
  Sn  Sn23  1  0.058331  0.529501  0.750424  1
  Sn  Sn24  1  0.528597  0.469956  0.249643  1
  Sn  Sn25  1  0.471403  0.530044  0.750357  1
  Bi  Bi26  1  0.000000  0.500000  0.000000  1
  Bi  Bi27  1  0.500000  0.000000  0.500000  1
  Bi  Bi28  1  0.500000  0.500000  0.000000  1
  Bi  Bi29  1  0.000000  0.500000  0.500000  1
  Bi  Bi30  1  0.500000  0.500000  0.500000  1
  Pb  Pb31  1  0.500000  0.000000  0.000000  1
