# generated using pymatgen
data_Tb8Tm4ZnCo4Hg
_symmetry_space_group_name_H-M   'P 1'
_cell_length_a   8.26717447
_cell_length_b   8.26717452
_cell_length_c   8.26717384
_cell_angle_alpha   111.87441569
_cell_angle_beta   110.15232291
_cell_angle_gamma   106.43392113
_symmetry_Int_Tables_number   1
_chemical_formula_structural   Tb8Tm4ZnCo4Hg
_chemical_formula_sum   'Tb8 Tm4 Zn1 Co4 Hg1'
_cell_volume   433.94573650
_cell_formula_units_Z   1
loop_
 _symmetry_equiv_pos_site_id
 _symmetry_equiv_pos_as_xyz
  1  'x, y, z'
loop_
 _atom_site_type_symbol
 _atom_site_label
 _atom_site_symmetry_multiplicity
 _atom_site_fract_x
 _atom_site_fract_y
 _atom_site_fract_z
 _atom_site_occupancy
  Tb  Tb0  1  0.432234  0.235756  0.196478  1
  Tb  Tb1  1  0.567766  0.764244  0.803522  1
  Tb  Tb2  1  0.039278  0.235756  0.803522  1
  Tb  Tb3  1  0.960722  0.764244  0.196478  1
  Tb  Tb4  1  0.180920  0.280737  0.461657  1
  Tb  Tb5  1  0.819080  0.719263  0.538343  1
  Tb  Tb6  1  0.180920  0.719263  0.900181  1
  Tb  Tb7  1  0.819080  0.280737  0.099819  1
  Tm  Tm8  1  0.326435  0.640816  0.314379  1
  Tm  Tm9  1  0.673565  0.359184  0.685621  1
  Tm  Tm10  1  0.326435  0.012056  0.685621  1
  Tm  Tm11  1  0.673565  0.987944  0.314379  1
  Zn  Zn12  1  0.000000  0.000000  0.000000  1
  Co  Co13  1  0.340287  0.000000  0.340287  1
  Co  Co14  1  0.659713  0.000000  0.659713  1
  Co  Co15  1  0.115315  0.615315  0.500000  1
  Co  Co16  1  0.884685  0.384685  0.500000  1
  Hg  Hg17  1  0.500000  0.500000  0.000000  1
