# generated using pymatgen
data_NdEr4Mn2O12
_symmetry_space_group_name_H-M   'P 1'
_cell_length_a   6.83396417
_cell_length_b   6.83396473
_cell_length_c   7.26739714
_cell_angle_alpha   74.66199718
_cell_angle_beta   74.66199535
_cell_angle_gamma   49.63085440
_symmetry_Int_Tables_number   1
_chemical_formula_structural   NdEr4Mn2O12
_chemical_formula_sum   'Nd1 Er4 Mn2 O12'
_cell_volume   247.36772196
_cell_formula_units_Z   1
loop_
 _symmetry_equiv_pos_site_id
 _symmetry_equiv_pos_as_xyz
  1  'x, y, z'
loop_
 _atom_site_type_symbol
 _atom_site_label
 _atom_site_symmetry_multiplicity
 _atom_site_fract_x
 _atom_site_fract_y
 _atom_site_fract_z
 _atom_site_occupancy
  Nd  Nd0  1  0.000000  0.000000  0.500000  1
  Er  Er1  1  0.305708  0.305708  0.356274  1
  Er  Er2  1  0.694292  0.694292  0.643726  1
  Er  Er3  1  0.305557  0.305557  0.836962  1
  Er  Er4  1  0.694443  0.694443  0.163038  1
  Mn  Mn5  1  0.752952  0.247048  0.000000  1
  Mn  Mn6  1  0.247048  0.752952  0.000000  1
  O  O7  1  0.899692  0.422899  0.920247  1
  O  O8  1  0.422899  0.899692  0.920247  1
  O  O9  1  0.100308  0.577101  0.079753  1
  O  O10  1  0.577101  0.100308  0.079753  1
  O  O11  1  0.095826  0.586028  0.579959  1
  O  O12  1  0.586028  0.095826  0.579959  1
  O  O13  1  0.904174  0.413972  0.420041  1
  O  O14  1  0.413972  0.904174  0.420041  1
  O  O15  1  0.000149  0.000149  0.826031  1
  O  O16  1  0.999851  0.999851  0.173969  1
  O  O17  1  0.499625  0.499625  0.817315  1
  O  O18  1  0.500375  0.500375  0.182685  1
