# generated using pymatgen
data_BaLi2Nd2Al7
_symmetry_space_group_name_H-M   'P 1'
_cell_length_a   9.74819055
_cell_length_b   9.74819070
_cell_length_c   9.74819079
_cell_angle_alpha   34.11226064
_cell_angle_beta   34.11226125
_cell_angle_gamma   34.11225923
_symmetry_Int_Tables_number   1
_chemical_formula_structural   BaLi2Nd2Al7
_chemical_formula_sum   'Ba1 Li2 Nd2 Al7'
_cell_volume   259.74988789
_cell_formula_units_Z   1
loop_
 _symmetry_equiv_pos_site_id
 _symmetry_equiv_pos_as_xyz
  1  'x, y, z'
loop_
 _atom_site_type_symbol
 _atom_site_label
 _atom_site_symmetry_multiplicity
 _atom_site_fract_x
 _atom_site_fract_y
 _atom_site_fract_z
 _atom_site_occupancy
  Ba  Ba0  1  0.000000  0.000000  0.000000  1
  Li  Li1  1  0.335577  0.335577  0.335577  1
  Li  Li2  1  0.664423  0.664423  0.664423  1
  Nd  Nd3  1  0.141921  0.141921  0.141921  1
  Nd  Nd4  1  0.858079  0.858079  0.858079  1
  Al  Al5  1  0.590133  0.590133  0.076747  1
  Al  Al6  1  0.409867  0.923253  0.409867  1
  Al  Al7  1  0.590133  0.076747  0.590133  1
  Al  Al8  1  0.076747  0.590133  0.590133  1
  Al  Al9  1  0.409867  0.409867  0.923253  1
  Al  Al10  1  0.500000  0.500000  0.500000  1
  Al  Al11  1  0.923253  0.409867  0.409867  1
