# generated using pymatgen
data_NdDy2Zr3(SnIr)6
_symmetry_space_group_name_H-M   'P 1'
_cell_length_a   7.48577201
_cell_length_b   7.49933897
_cell_length_c   7.68865100
_cell_angle_alpha   90.00000000
_cell_angle_beta   90.00000000
_cell_angle_gamma   119.94651551
_symmetry_Int_Tables_number   1
_chemical_formula_structural   NdDy2Zr3(SnIr)6
_chemical_formula_sum   'Nd1 Dy2 Zr3 Sn6 Ir6'
_cell_volume   374.00220996
_cell_formula_units_Z   1
loop_
 _symmetry_equiv_pos_site_id
 _symmetry_equiv_pos_as_xyz
  1  'x, y, z'
loop_
 _atom_site_type_symbol
 _atom_site_label
 _atom_site_symmetry_multiplicity
 _atom_site_fract_x
 _atom_site_fract_y
 _atom_site_fract_z
 _atom_site_occupancy
  Nd  Nd0  1  0.408484  0.999823  0.250000  1
  Dy  Dy1  1  0.594019  0.593977  0.250000  1
  Dy  Dy2  1  0.000825  0.406402  0.250000  1
  Zr  Zr3  1  0.606687  0.607356  0.750000  1
  Zr  Zr4  1  0.000625  0.393287  0.750000  1
  Zr  Zr5  1  0.392114  0.999388  0.750000  1
  Sn  Sn6  1  0.264908  0.265887  0.506508  1
  Sn  Sn7  1  0.264908  0.265887  0.993492  1
  Sn  Sn8  1  0.736362  0.000526  0.991005  1
  Sn  Sn9  1  0.997976  0.733564  0.506498  1
  Sn  Sn10  1  0.736362  0.000526  0.508995  1
  Sn  Sn11  1  0.997976  0.733564  0.993502  1
  Ir  Ir12  1  0.668051  0.335090  0.536051  1
  Ir  Ir13  1  0.668051  0.335090  0.963949  1
  Ir  Ir14  1  0.332948  0.664813  0.965174  1
  Ir  Ir15  1  0.332948  0.664813  0.534826  1
  Ir  Ir16  1  0.000953  0.999998  0.750000  1
  Ir  Ir17  1  0.995805  0.000005  0.250000  1
