# generated using pymatgen
data_Dy2Tm3Co9(P6Ru5)2
_symmetry_space_group_name_H-M   'P 1'
_cell_length_a   12.30221188
_cell_length_b   12.26268148
_cell_length_c   3.75736600
_cell_angle_alpha   90.00000000
_cell_angle_beta   90.00000000
_cell_angle_gamma   119.74072939
_symmetry_Int_Tables_number   1
_chemical_formula_structural   Dy2Tm3Co9(P6Ru5)2
_chemical_formula_sum   'Dy2 Tm3 Co9 P12 Ru10'
_cell_volume   492.16587152
_cell_formula_units_Z   1
loop_
 _symmetry_equiv_pos_site_id
 _symmetry_equiv_pos_as_xyz
  1  'x, y, z'
loop_
 _atom_site_type_symbol
 _atom_site_label
 _atom_site_symmetry_multiplicity
 _atom_site_fract_x
 _atom_site_fract_y
 _atom_site_fract_z
 _atom_site_occupancy
  Dy  Dy0  1  0.663592  0.333356  0.000000  1
  Dy  Dy1  1  0.332994  0.666849  0.000000  1
  Tm  Tm2  1  0.182533  0.181216  0.500000  1
  Tm  Tm3  1  0.819324  0.998389  0.500000  1
  Tm  Tm4  1  0.999458  0.819621  0.500000  1
  Co  Co5  1  0.803897  0.631803  0.000000  1
  Co  Co6  1  0.366670  0.170871  0.000000  1
  Co  Co7  1  0.194210  0.828457  0.000000  1
  Co  Co8  1  0.630646  0.801774  0.000000  1
  Co  Co9  1  0.176396  0.368854  0.000000  1
  Co  Co10  1  0.719817  0.719557  0.500000  1
  Co  Co11  1  0.278322  0.999758  0.500000  1
  Co  Co12  1  0.007419  0.284176  0.500000  1
  Co  Co13  1  0.999367  0.998845  0.000000  1
  P  P14  1  0.361726  0.361406  0.000000  1
  P  P15  1  0.634637  0.996605  0.000000  1
  P  P16  1  0.000416  0.639405  0.000000  1
  P  P17  1  0.838679  0.316085  0.500000  1
  P  P18  1  0.684367  0.524026  0.500000  1
  P  P19  1  0.472975  0.158937  0.500000  1
  P  P20  1  0.316146  0.841082  0.500000  1
  P  P21  1  0.524341  0.683061  0.500000  1
  P  P22  1  0.161654  0.478192  0.500000  1
  P  P23  1  0.821610  0.821988  0.000000  1
  P  P24  1  0.176775  0.000069  0.000000  1
  P  P25  1  0.006182  0.179789  0.000000  1
  Ru  Ru26  1  0.555391  0.553841  0.000000  1
  Ru  Ru27  1  0.440145  0.995518  0.000000  1
  Ru  Ru28  1  0.008530  0.450598  0.000000  1
  Ru  Ru29  1  0.827469  0.196492  0.000000  1
  Ru  Ru30  1  0.640577  0.125375  0.500000  1
  Ru  Ru31  1  0.872781  0.520130  0.500000  1
  Ru  Ru32  1  0.479794  0.351738  0.500000  1
  Ru  Ru33  1  0.129717  0.650943  0.500000  1
  Ru  Ru34  1  0.518682  0.869928  0.500000  1
  Ru  Ru35  1  0.352757  0.481262  0.500000  1
