# generated using pymatgen
data_Na15BiPb3
_symmetry_space_group_name_H-M   'P 1'
_cell_length_a   11.53476740
_cell_length_b   11.55256923
_cell_length_c   11.53192335
_cell_angle_alpha   109.48792312
_cell_angle_beta   109.42533147
_cell_angle_gamma   109.54161738
_symmetry_Int_Tables_number   1
_chemical_formula_structural   Na15BiPb3
_chemical_formula_sum   'Na30 Bi2 Pb6'
_cell_volume   1182.34948872
_cell_formula_units_Z   2
loop_
 _symmetry_equiv_pos_site_id
 _symmetry_equiv_pos_as_xyz
  1  'x, y, z'
loop_
 _atom_site_type_symbol
 _atom_site_label
 _atom_site_symmetry_multiplicity
 _atom_site_fract_x
 _atom_site_fract_y
 _atom_site_fract_z
 _atom_site_occupancy
  Na  Na0  1  0.625902  0.373905  0.248465  1
  Na  Na1  1  0.246456  0.623526  0.372905  1
  Na  Na2  1  0.750094  0.875078  0.124955  1
  Na  Na3  1  0.125139  0.750123  0.875045  1
  Na  Na4  1  0.373550  0.250620  0.627095  1
  Na  Na5  1  0.877437  0.125440  0.751535  1
  Na  Na6  1  0.081384  0.275549  0.114554  1
  Na  Na7  1  0.694357  0.033599  0.918824  1
  Na  Na8  1  0.883871  0.467453  0.160200  1
  Na  Na9  1  0.157885  0.882497  0.466812  1
  Na  Na10  1  0.338274  0.807276  0.725223  1
  Na  Na11  1  0.725303  0.341468  0.810528  1
  Na  Na12  1  0.032973  0.916592  0.692919  1
  Na  Na13  1  0.223671  0.307253  0.839800  1
  Na  Na14  1  0.191074  0.415686  0.533188  1
  Na  Na15  1  0.969640  0.384877  0.660716  1
  Na  Na16  1  0.306171  0.838702  0.220976  1
  Na  Na17  1  0.533108  0.191916  0.413812  1
  Na  Na18  1  0.383258  0.659728  0.966961  1
  Na  Na19  1  0.113052  0.082053  0.274777  1
  Na  Na20  1  0.275534  0.114776  0.081176  1
  Na  Na21  1  0.840054  0.223673  0.307081  1
  Na  Na22  1  0.414776  0.530940  0.189472  1
  Na  Na23  1  0.661126  0.967687  0.381920  1
  Na  Na24  1  0.619297  0.778105  0.586188  1
  Na  Na25  1  0.585193  0.617726  0.779024  1
  Na  Na26  1  0.779206  0.585766  0.618080  1
  Na  Na27  1  0.808924  0.724161  0.339284  1
  Na  Na28  1  0.916299  0.692768  0.033039  1
  Na  Na29  1  0.466831  0.160995  0.885446  1
  Bi  Bi30  1  0.418111  0.417474  0.418074  1
  Bi  Bi31  1  0.500037  0.999400  0.581926  1
  Pb  Pb32  1  0.582630  0.498421  0.997940  1
  Pb  Pb33  1  0.000947  0.583945  0.500257  1
  Pb  Pb34  1  0.084690  0.500481  0.002060  1
  Pb  Pb35  1  0.000690  0.083688  0.499743  1
  Pb  Pb36  1  0.499472  0.001269  0.085887  1
  Pb  Pb37  1  0.913585  0.915382  0.914113  1
