# generated using pymatgen
data_Dy7Y4ErNi4
_symmetry_space_group_name_H-M   'P 1'
_cell_length_a   6.33451862
_cell_length_b   6.83791783
_cell_length_c   9.54783400
_cell_angle_alpha   89.95891714
_cell_angle_beta   90.41055648
_cell_angle_gamma   90.03236048
_symmetry_Int_Tables_number   1
_chemical_formula_structural   Dy7Y4ErNi4
_chemical_formula_sum   'Dy7 Y4 Er1 Ni4'
_cell_volume   413.55285685
_cell_formula_units_Z   1
loop_
 _symmetry_equiv_pos_site_id
 _symmetry_equiv_pos_as_xyz
  1  'x, y, z'
loop_
 _atom_site_type_symbol
 _atom_site_label
 _atom_site_symmetry_multiplicity
 _atom_site_fract_x
 _atom_site_fract_y
 _atom_site_fract_z
 _atom_site_occupancy
  Dy  Dy0  1  0.321275  0.677301  0.065600  1
  Dy  Dy1  1  0.178198  0.177868  0.433227  1
  Dy  Dy2  1  0.678279  0.322217  0.565743  1
  Dy  Dy3  1  0.823279  0.821260  0.935853  1
  Dy  Dy4  1  0.678750  0.321669  0.935348  1
  Dy  Dy5  1  0.821818  0.823090  0.565787  1
  Dy  Dy6  1  0.322479  0.678255  0.434673  1
  Y  Y7  1  0.862131  0.531698  0.250259  1
  Y  Y8  1  0.638242  0.033102  0.248958  1
  Y  Y9  1  0.139222  0.467512  0.750028  1
  Y  Y10  1  0.361982  0.968865  0.750978  1
  Er  Er11  1  0.176945  0.177895  0.065749  1
  Ni  Ni12  1  0.056885  0.892343  0.247395  1
  Ni  Ni13  1  0.440797  0.391822  0.248781  1
  Ni  Ni14  1  0.941327  0.107208  0.752261  1
  Ni  Ni15  1  0.558388  0.607896  0.749358  1
