# generated using pymatgen
data_CeCoH4
_symmetry_space_group_name_H-M   'P 1'
_cell_length_a   3.71068500
_cell_length_b   4.81220300
_cell_length_c   6.20369416
_cell_angle_alpha   90.00000000
_cell_angle_beta   72.59822512
_cell_angle_gamma   90.00000000
_symmetry_Int_Tables_number   1
_chemical_formula_structural   CeCoH4
_chemical_formula_sum   'Ce2 Co2 H8'
_cell_volume   105.70656448
_cell_formula_units_Z   2
loop_
 _symmetry_equiv_pos_site_id
 _symmetry_equiv_pos_as_xyz
  1  'x, y, z'
loop_
 _atom_site_type_symbol
 _atom_site_label
 _atom_site_symmetry_multiplicity
 _atom_site_fract_x
 _atom_site_fract_y
 _atom_site_fract_z
 _atom_site_occupancy
  Ce  Ce0  1  0.869565  0.250001  0.260868  1
  Ce  Ce1  1  0.130435  0.750001  0.739133  1
  Co  Co2  1  0.403466  0.750001  0.193072  1
  Co  Co3  1  0.596534  0.250001  0.806929  1
  H  H4  1  0.500001  0.000000  0.000000  1
  H  H5  1  0.500001  0.500000  0.000000  1
  H  H6  1  0.910613  0.750001  0.178773  1
  H  H7  1  0.307052  0.990887  0.385896  1
  H  H8  1  0.307052  0.509115  0.385896  1
  H  H9  1  0.692948  0.490886  0.614104  1
  H  H10  1  0.692948  0.009115  0.614104  1
  H  H11  1  0.089388  0.250001  0.821225  1
