# generated using pymatgen
data_TbHo3Ru4F28
_symmetry_space_group_name_H-M   'P 1'
_cell_length_a   5.55040429
_cell_length_b   8.89197178
_cell_length_c   11.93628937
_cell_angle_alpha   63.47296540
_cell_angle_beta   90.03658955
_cell_angle_gamma   90.02167417
_symmetry_Int_Tables_number   1
_chemical_formula_structural   TbHo3Ru4F28
_chemical_formula_sum   'Tb1 Ho3 Ru4 F28'
_cell_volume   527.08529022
_cell_formula_units_Z   1
loop_
 _symmetry_equiv_pos_site_id
 _symmetry_equiv_pos_as_xyz
  1  'x, y, z'
loop_
 _atom_site_type_symbol
 _atom_site_label
 _atom_site_symmetry_multiplicity
 _atom_site_fract_x
 _atom_site_fract_y
 _atom_site_fract_z
 _atom_site_occupancy
  Tb  Tb0  1  0.241493  0.811127  0.768807  1
  Ho  Ho1  1  0.258506  0.811372  0.268730  1
  Ho  Ho2  1  0.741463  0.190371  0.730820  1
  Ho  Ho3  1  0.758506  0.188885  0.231220  1
  Ru  Ru4  1  0.754591  0.727042  0.045347  1
  Ru  Ru5  1  0.245312  0.272110  0.955755  1
  Ru  Ru6  1  0.254816  0.273195  0.455137  1
  Ru  Ru7  1  0.745538  0.727050  0.543749  1
  F  F8  1  0.950654  0.704972  0.417761  1
  F  F9  1  0.050025  0.295107  0.581344  1
  F  F10  1  0.450374  0.294908  0.081618  1
  F  F11  1  0.551115  0.704352  0.919087  1
  F  F12  1  0.467443  0.730980  0.141154  1
  F  F13  1  0.531776  0.269208  0.859325  1
  F  F14  1  0.968312  0.268999  0.359069  1
  F  F15  1  0.031630  0.730108  0.639815  1
  F  F16  1  0.956842  0.749772  0.173282  1
  F  F17  1  0.043248  0.250184  0.827400  1
  F  F18  1  0.456923  0.250386  0.327177  1
  F  F19  1  0.545435  0.748720  0.672303  1
  F  F20  1  0.766510  0.487483  0.140971  1
  F  F21  1  0.233144  0.511240  0.859609  1
  F  F22  1  0.266700  0.512431  0.359257  1
  F  F23  1  0.733272  0.487615  0.640480  1
  F  F24  1  0.952449  0.282258  0.046915  1
  F  F25  1  0.047159  0.716531  0.954767  1
  F  F26  1  0.451664  0.717685  0.452936  1
  F  F27  1  0.547699  0.282685  0.546470  1
  F  F28  1  0.745346  0.965453  0.451145  1
  F  F29  1  0.254746  0.034940  0.548033  1
  F  F30  1  0.245252  0.033877  0.048796  1
  F  F31  1  0.754888  0.965168  0.951933  1
  F  F32  1  0.576240  0.973256  0.233145  1
  F  F33  1  0.424419  0.029322  0.767052  1
  F  F34  1  0.076044  0.026950  0.266872  1
  F  F35  1  0.920466  0.974259  0.732719  1
