# generated using pymatgen
data_Ca4Pr16Si15Rh
_symmetry_space_group_name_H-M   'P 1'
_cell_length_a   7.97094280
_cell_length_b   7.89975290
_cell_length_c   15.10483181
_cell_angle_alpha   89.95665430
_cell_angle_beta   89.88680016
_cell_angle_gamma   90.30883522
_symmetry_Int_Tables_number   1
_chemical_formula_structural   Ca4Pr16Si15Rh
_chemical_formula_sum   'Ca4 Pr16 Si15 Rh1'
_cell_volume   951.11232386
_cell_formula_units_Z   1
loop_
 _symmetry_equiv_pos_site_id
 _symmetry_equiv_pos_as_xyz
  1  'x, y, z'
loop_
 _atom_site_type_symbol
 _atom_site_label
 _atom_site_symmetry_multiplicity
 _atom_site_fract_x
 _atom_site_fract_y
 _atom_site_fract_z
 _atom_site_occupancy
  Ca  Ca0  1  0.310260  0.309805  0.999454  1
  Ca  Ca1  1  0.190210  0.809980  0.250907  1
  Ca  Ca2  1  0.811003  0.192699  0.747829  1
  Ca  Ca3  1  0.691362  0.690387  0.501929  1
  Pr  Pr4  1  0.376271  0.008404  0.450103  1
  Pr  Pr5  1  0.491414  0.878728  0.698204  1
  Pr  Pr6  1  0.509039  0.124295  0.199607  1
  Pr  Pr7  1  0.876503  0.490192  0.301274  1
  Pr  Pr8  1  0.124808  0.504484  0.797807  1
  Pr  Pr9  1  0.623974  0.990029  0.948518  1
  Pr  Pr10  1  0.002673  0.376047  0.550841  1
  Pr  Pr11  1  0.990862  0.624680  0.050638  1
  Pr  Pr12  1  0.129971  0.991021  0.871171  1
  Pr  Pr13  1  0.514676  0.628188  0.125697  1
  Pr  Pr14  1  0.472915  0.362224  0.628349  1
  Pr  Pr15  1  0.626695  0.513741  0.874687  1
  Pr  Pr16  1  0.373242  0.485145  0.375428  1
  Pr  Pr17  1  0.875586  0.015449  0.377153  1
  Pr  Pr18  1  0.985977  0.123487  0.123628  1
  Pr  Pr19  1  0.025039  0.883884  0.626097  1
  Si  Si20  1  0.331395  0.698788  0.948275  1
  Si  Si21  1  0.662572  0.296128  0.449561  1
  Si  Si22  1  0.704423  0.335549  0.052706  1
  Si  Si23  1  0.299286  0.666673  0.549891  1
  Si  Si24  1  0.800151  0.832966  0.201183  1
  Si  Si25  1  0.166111  0.200800  0.299092  1
  Si  Si26  1  0.834102  0.799165  0.799815  1
  Si  Si27  1  0.286610  0.918582  0.058029  1
  Si  Si28  1  0.581455  0.786942  0.310013  1
  Si  Si29  1  0.428057  0.205725  0.813549  1
  Si  Si30  1  0.784008  0.582698  0.690019  1
  Si  Si31  1  0.211533  0.421104  0.190426  1
  Si  Si32  1  0.706964  0.076841  0.559007  1
  Si  Si33  1  0.920245  0.288376  0.941048  1
  Si  Si34  1  0.081645  0.714630  0.440598  1
  Rh  Rh35  1  0.198963  0.172163  0.697468  1
