# generated using pymatgen
data_LiLa3Pr5CdIr2
_symmetry_space_group_name_H-M   'P 1'
_cell_length_a   10.04773110
_cell_length_b   10.13035406
_cell_length_c   10.09088177
_cell_angle_alpha   59.58854479
_cell_angle_beta   60.40106380
_cell_angle_gamma   60.20849363
_symmetry_Int_Tables_number   1
_chemical_formula_structural   LiLa3Pr5CdIr2
_chemical_formula_sum   'Li2 La6 Pr10 Cd2 Ir4'
_cell_volume   727.29193917
_cell_formula_units_Z   2
loop_
 _symmetry_equiv_pos_site_id
 _symmetry_equiv_pos_as_xyz
  1  'x, y, z'
loop_
 _atom_site_type_symbol
 _atom_site_label
 _atom_site_symmetry_multiplicity
 _atom_site_fract_x
 _atom_site_fract_y
 _atom_site_fract_z
 _atom_site_occupancy
  Li  Li0  1  0.572567  0.571146  0.575751  1
  Li  Li1  1  0.571146  0.572567  0.280535  1
  La  La2  1  0.345019  0.347906  0.348469  1
  La  La3  1  0.347906  0.345019  0.958607  1
  La  La4  1  0.347318  0.961931  0.343555  1
  La  La5  1  0.961931  0.347318  0.347195  1
  La  La6  1  0.813425  0.187724  0.187502  1
  La  La7  1  0.187724  0.813425  0.811349  1
  Pr  Pr8  1  0.189769  0.810338  0.191556  1
  Pr  Pr9  1  0.810338  0.189769  0.808337  1
  Pr  Pr10  1  0.192984  0.192984  0.807016  1
  Pr  Pr11  1  0.813771  0.813771  0.186229  1
  Pr  Pr12  1  0.936173  0.563638  0.565059  1
  Pr  Pr13  1  0.563638  0.936173  0.935130  1
  Pr  Pr14  1  0.562395  0.938206  0.562344  1
  Pr  Pr15  1  0.938206  0.562395  0.937054  1
  Pr  Pr16  1  0.562901  0.562901  0.937099  1
  Pr  Pr17  1  0.938411  0.938411  0.561589  1
  Cd  Cd18  1  0.582308  0.256329  0.581835  1
  Cd  Cd19  1  0.256329  0.582308  0.579527  1
  Ir  Ir20  1  0.136595  0.145488  0.143103  1
  Ir  Ir21  1  0.145488  0.136595  0.574812  1
  Ir  Ir22  1  0.147438  0.576216  0.133946  1
  Ir  Ir23  1  0.576216  0.147438  0.142400  1
