# generated using pymatgen
data_Ho3Er13MgIn3Co4
_symmetry_space_group_name_H-M   'P 1'
_cell_length_a   9.48908098
_cell_length_b   9.46262825
_cell_length_c   9.46262700
_cell_angle_alpha   60.00000087
_cell_angle_beta   60.09217455
_cell_angle_gamma   60.09217628
_symmetry_Int_Tables_number   1
_chemical_formula_structural   Ho3Er13MgIn3Co4
_chemical_formula_sum   'Ho3 Er13 Mg1 In3 Co4'
_cell_volume   601.63948056
_cell_formula_units_Z   1
loop_
 _symmetry_equiv_pos_site_id
 _symmetry_equiv_pos_as_xyz
  1  'x, y, z'
loop_
 _atom_site_type_symbol
 _atom_site_label
 _atom_site_symmetry_multiplicity
 _atom_site_fract_x
 _atom_site_fract_y
 _atom_site_fract_z
 _atom_site_occupancy
  Ho  Ho0  1  0.597411  0.595543  0.595543  1
  Ho  Ho1  1  0.597411  0.595543  0.211503  1
  Ho  Ho2  1  0.597411  0.211503  0.595543  1
  Er  Er3  1  0.208868  0.597044  0.597044  1
  Er  Er4  1  0.060593  0.438905  0.438905  1
  Er  Er5  1  0.435177  0.063797  0.063797  1
  Er  Er6  1  0.435177  0.063797  0.437228  1
  Er  Er7  1  0.060593  0.438905  0.061597  1
  Er  Er8  1  0.435177  0.437228  0.063797  1
  Er  Er9  1  0.060593  0.061597  0.438905  1
  Er  Er10  1  0.188416  0.811496  0.811496  1
  Er  Er11  1  0.812247  0.188792  0.188792  1
  Er  Er12  1  0.812247  0.188792  0.810170  1
  Er  Er13  1  0.188416  0.811496  0.188591  1
  Er  Er14  1  0.812247  0.810170  0.188792  1
  Er  Er15  1  0.188416  0.188591  0.811496  1
  Mg  Mg16  1  0.517017  0.827661  0.827661  1
  In  In17  1  0.831870  0.832784  0.832784  1
  In  In18  1  0.831870  0.832784  0.502561  1
  In  In19  1  0.831870  0.502561  0.832784  1
  Co  Co20  1  0.389200  0.391284  0.391284  1
  Co  Co21  1  0.389200  0.391284  0.828233  1
  Co  Co22  1  0.389200  0.828233  0.391284  1
  Co  Co23  1  0.829374  0.390209  0.390209  1
