# generated using pymatgen
data_Zr8Nb(CuP2)2
_symmetry_space_group_name_H-M   'P 1'
_cell_length_a   12.02460800
_cell_length_b   12.02460800
_cell_length_c   3.70379000
_cell_angle_alpha   90.00000000
_cell_angle_beta   90.00000000
_cell_angle_gamma   90.00000000
_symmetry_Int_Tables_number   1
_chemical_formula_structural   Zr8Nb(CuP2)2
_chemical_formula_sum   'Zr16 Nb2 Cu4 P8'
_cell_volume   535.53543159
_cell_formula_units_Z   2
loop_
 _symmetry_equiv_pos_site_id
 _symmetry_equiv_pos_as_xyz
  1  'x, y, z'
loop_
 _atom_site_type_symbol
 _atom_site_label
 _atom_site_symmetry_multiplicity
 _atom_site_fract_x
 _atom_site_fract_y
 _atom_site_fract_z
 _atom_site_occupancy
  Zr  Zr0  1  0.097785  0.176587  0.500000  1
  Zr  Zr1  1  0.176587  0.902215  0.500000  1
  Zr  Zr2  1  0.823413  0.097785  0.500000  1
  Zr  Zr3  1  0.902215  0.823413  0.500000  1
  Zr  Zr4  1  0.402215  0.676587  0.500000  1
  Zr  Zr5  1  0.597785  0.323413  0.500000  1
  Zr  Zr6  1  0.676587  0.597785  0.500000  1
  Zr  Zr7  1  0.323413  0.402215  0.500000  1
  Zr  Zr8  1  0.095680  0.404320  0.000000  1
  Zr  Zr9  1  0.404320  0.904320  0.000000  1
  Zr  Zr10  1  0.595680  0.095680  0.000000  1
  Zr  Zr11  1  0.904320  0.595680  0.000000  1
  Zr  Zr12  1  0.380822  0.119178  0.500000  1
  Zr  Zr13  1  0.119178  0.619178  0.500000  1
  Zr  Zr14  1  0.880822  0.380822  0.500000  1
  Zr  Zr15  1  0.619178  0.880822  0.500000  1
  Nb  Nb16  1  0.000000  0.000000  0.000000  1
  Nb  Nb17  1  0.500000  0.500000  0.000000  1
  Cu  Cu18  1  0.254285  0.245715  0.000000  1
  Cu  Cu19  1  0.245715  0.745715  0.000000  1
  Cu  Cu20  1  0.754285  0.254285  0.000000  1
  Cu  Cu21  1  0.745715  0.754285  0.000000  1
  P  P22  1  0.222191  0.054444  0.000000  1
  P  P23  1  0.054444  0.777809  0.000000  1
  P  P24  1  0.945556  0.222191  0.000000  1
  P  P25  1  0.777809  0.945556  0.000000  1
  P  P26  1  0.277809  0.554444  0.000000  1
  P  P27  1  0.722191  0.445556  0.000000  1
  P  P28  1  0.554444  0.722191  0.000000  1
  P  P29  1  0.445556  0.277809  0.000000  1
