# generated using pymatgen
data_Dy4Tm12CdNi4Ag3
_symmetry_space_group_name_H-M   'P 1'
_cell_length_a   9.35702967
_cell_length_b   9.35497446
_cell_length_c   9.35497300
_cell_angle_alpha   60.00000164
_cell_angle_beta   60.00726710
_cell_angle_gamma   60.00726836
_symmetry_Int_Tables_number   1
_chemical_formula_structural   Dy4Tm12CdNi4Ag3
_chemical_formula_sum   'Dy4 Tm12 Cd1 Ni4 Ag3'
_cell_volume   579.10305780
_cell_formula_units_Z   1
loop_
 _symmetry_equiv_pos_site_id
 _symmetry_equiv_pos_as_xyz
  1  'x, y, z'
loop_
 _atom_site_type_symbol
 _atom_site_label
 _atom_site_symmetry_multiplicity
 _atom_site_fract_x
 _atom_site_fract_y
 _atom_site_fract_z
 _atom_site_occupancy
  Dy  Dy0  1  0.350725  0.350020  0.350020  1
  Dy  Dy1  1  0.350725  0.350020  0.949235  1
  Dy  Dy2  1  0.350725  0.949235  0.350020  1
  Dy  Dy3  1  0.946351  0.351216  0.351216  1
  Tm  Tm4  1  0.811501  0.188487  0.188487  1
  Tm  Tm5  1  0.188352  0.811761  0.811761  1
  Tm  Tm6  1  0.188352  0.811761  0.188126  1
  Tm  Tm7  1  0.811501  0.188487  0.811526  1
  Tm  Tm8  1  0.188352  0.188126  0.811761  1
  Tm  Tm9  1  0.811501  0.811526  0.188487  1
  Tm  Tm10  1  0.932473  0.565029  0.565029  1
  Tm  Tm11  1  0.564088  0.935471  0.935471  1
  Tm  Tm12  1  0.564088  0.935471  0.564970  1
  Tm  Tm13  1  0.932473  0.565029  0.937469  1
  Tm  Tm14  1  0.564088  0.564970  0.935471  1
  Tm  Tm15  1  0.932473  0.937469  0.565029  1
  Cd  Cd16  1  0.261867  0.579378  0.579378  1
  Ni  Ni17  1  0.141679  0.142222  0.142222  1
  Ni  Ni18  1  0.141679  0.142222  0.573879  1
  Ni  Ni19  1  0.141679  0.573879  0.142222  1
  Ni  Ni20  1  0.573900  0.142033  0.142033  1
  Ag  Ag21  1  0.583811  0.582862  0.582862  1
  Ag  Ag22  1  0.583811  0.582862  0.250466  1
  Ag  Ag23  1  0.583811  0.250466  0.582862  1
