# generated using pymatgen
data_SrErSiPd14
_symmetry_space_group_name_H-M   'P 1'
_cell_length_a   8.93731600
_cell_length_b   8.93731600
_cell_length_c   7.17063500
_cell_angle_alpha   90.00000000
_cell_angle_beta   90.00000000
_cell_angle_gamma   90.00000000
_symmetry_Int_Tables_number   1
_chemical_formula_structural   SrErSiPd14
_chemical_formula_sum   'Sr2 Er2 Si2 Pd28'
_cell_volume   572.75889694
_cell_formula_units_Z   2
loop_
 _symmetry_equiv_pos_site_id
 _symmetry_equiv_pos_as_xyz
  1  'x, y, z'
loop_
 _atom_site_type_symbol
 _atom_site_label
 _atom_site_symmetry_multiplicity
 _atom_site_fract_x
 _atom_site_fract_y
 _atom_site_fract_z
 _atom_site_occupancy
  Sr  Sr0  1  0.500000  0.000000  0.943840  1
  Sr  Sr1  1  0.000000  0.500000  0.056160  1
  Er  Er2  1  0.000000  0.000000  0.500000  1
  Er  Er3  1  0.500000  0.500000  0.500000  1
  Si  Si4  1  0.500000  0.000000  0.450594  1
  Si  Si5  1  0.000000  0.500000  0.549406  1
  Pd  Pd6  1  0.332926  0.832926  0.614897  1
  Pd  Pd7  1  0.332926  0.167074  0.614897  1
  Pd  Pd8  1  0.667074  0.832926  0.614897  1
  Pd  Pd9  1  0.667074  0.167074  0.614897  1
  Pd  Pd10  1  0.167074  0.667074  0.385103  1
  Pd  Pd11  1  0.167074  0.332926  0.385103  1
  Pd  Pd12  1  0.832926  0.667074  0.385103  1
  Pd  Pd13  1  0.832926  0.332926  0.385103  1
  Pd  Pd14  1  0.500000  0.765483  0.267053  1
  Pd  Pd15  1  0.500000  0.234517  0.267053  1
  Pd  Pd16  1  0.265483  0.000000  0.267053  1
  Pd  Pd17  1  0.734517  0.000000  0.267053  1
  Pd  Pd18  1  0.000000  0.734517  0.732947  1
  Pd  Pd19  1  0.000000  0.265483  0.732947  1
  Pd  Pd20  1  0.234517  0.500000  0.732947  1
  Pd  Pd21  1  0.765483  0.500000  0.732947  1
  Pd  Pd22  1  0.500000  0.350708  0.851562  1
  Pd  Pd23  1  0.500000  0.649292  0.851562  1
  Pd  Pd24  1  0.850708  0.000000  0.851562  1
  Pd  Pd25  1  0.149292  0.000000  0.851562  1
  Pd  Pd26  1  0.000000  0.149292  0.148438  1
  Pd  Pd27  1  0.000000  0.850708  0.148438  1
  Pd  Pd28  1  0.649292  0.500000  0.148438  1
  Pd  Pd29  1  0.350708  0.500000  0.148438  1
  Pd  Pd30  1  0.250000  0.750000  0.000000  1
  Pd  Pd31  1  0.250000  0.250000  0.000000  1
  Pd  Pd32  1  0.750000  0.750000  0.000000  1
  Pd  Pd33  1  0.750000  0.250000  0.000000  1
