# generated using pymatgen
data_LiHo16Cd2HgPt4
_symmetry_space_group_name_H-M   'P 1'
_cell_length_a   9.62429070
_cell_length_b   9.62429131
_cell_length_c   9.62207033
_cell_angle_alpha   59.99751647
_cell_angle_beta   59.99751676
_cell_angle_gamma   59.97297889
_symmetry_Int_Tables_number   1
_chemical_formula_structural   LiHo16Cd2HgPt4
_chemical_formula_sum   'Li1 Ho16 Cd2 Hg1 Pt4'
_cell_volume   630.06587437
_cell_formula_units_Z   1
loop_
 _symmetry_equiv_pos_site_id
 _symmetry_equiv_pos_as_xyz
  1  'x, y, z'
loop_
 _atom_site_type_symbol
 _atom_site_label
 _atom_site_symmetry_multiplicity
 _atom_site_fract_x
 _atom_site_fract_y
 _atom_site_fract_z
 _atom_site_occupancy
  Li  Li0  1  0.821645  0.821645  0.819593  1
  Ho  Ho1  1  0.601238  0.601238  0.601183  1
  Ho  Ho2  1  0.603146  0.603146  0.192563  1
  Ho  Ho3  1  0.603857  0.190996  0.603327  1
  Ho  Ho4  1  0.190996  0.603857  0.603327  1
  Ho  Ho5  1  0.059515  0.442137  0.442779  1
  Ho  Ho6  1  0.438052  0.062651  0.062868  1
  Ho  Ho7  1  0.442137  0.059515  0.442779  1
  Ho  Ho8  1  0.062651  0.438052  0.062868  1
  Ho  Ho9  1  0.441884  0.441884  0.060181  1
  Ho  Ho10  1  0.062381  0.062381  0.438691  1
  Ho  Ho11  1  0.185291  0.815402  0.815959  1
  Ho  Ho12  1  0.813332  0.185165  0.187606  1
  Ho  Ho13  1  0.815402  0.185291  0.815959  1
  Ho  Ho14  1  0.185165  0.813332  0.187606  1
  Ho  Ho15  1  0.815080  0.815080  0.187163  1
  Ho  Ho16  1  0.186090  0.186090  0.813957  1
  Cd  Cd17  1  0.832044  0.503462  0.832678  1
  Cd  Cd18  1  0.503462  0.832044  0.832678  1
  Hg  Hg19  1  0.836040  0.836040  0.494867  1
  Pt  Pt20  1  0.394433  0.394433  0.394868  1
  Pt  Pt21  1  0.392675  0.392675  0.820756  1
  Pt  Pt22  1  0.392665  0.820820  0.392871  1
  Pt  Pt23  1  0.820820  0.392665  0.392871  1
