# generated using pymatgen
data_Sc2Co4P3
_symmetry_space_group_name_H-M   'P 1'
_cell_length_a   12.09822900
_cell_length_b   12.09822868
_cell_length_c   3.65105700
_cell_angle_alpha   90.00000000
_cell_angle_beta   90.00000000
_cell_angle_gamma   120.00000360
_symmetry_Int_Tables_number   1
_chemical_formula_structural   Sc2Co4P3
_chemical_formula_sum   'Sc8 Co16 P12'
_cell_volume   462.79943408
_cell_formula_units_Z   4
loop_
 _symmetry_equiv_pos_site_id
 _symmetry_equiv_pos_as_xyz
  1  'x, y, z'
loop_
 _atom_site_type_symbol
 _atom_site_label
 _atom_site_symmetry_multiplicity
 _atom_site_fract_x
 _atom_site_fract_y
 _atom_site_fract_z
 _atom_site_occupancy
  Sc  Sc0  1  0.816193  0.816193  0.500000  1
  Sc  Sc1  1  0.442743  0.442743  0.000000  1
  Sc  Sc2  1  0.000000  0.183807  0.500000  1
  Sc  Sc3  1  0.557257  0.000000  0.000000  1
  Sc  Sc4  1  0.333333  0.666667  0.000000  1
  Sc  Sc5  1  0.666667  0.333333  0.000000  1
  Sc  Sc6  1  0.000000  0.557257  0.000000  1
  Sc  Sc7  1  0.183807  0.000000  0.500000  1
  Co  Co8  1  0.627616  0.821715  0.000000  1
  Co  Co9  1  0.372384  0.194099  0.000000  1
  Co  Co10  1  0.000000  0.722864  0.500000  1
  Co  Co11  1  0.277136  0.277136  0.500000  1
  Co  Co12  1  0.874275  0.354751  0.500000  1
  Co  Co13  1  0.722864  0.000000  0.500000  1
  Co  Co14  1  0.821715  0.627616  0.000000  1
  Co  Co15  1  0.178285  0.805901  0.000000  1
  Co  Co16  1  0.354751  0.874275  0.500000  1
  Co  Co17  1  0.125725  0.480476  0.500000  1
  Co  Co18  1  0.645249  0.519524  0.500000  1
  Co  Co19  1  0.000000  0.000000  0.000000  1
  Co  Co20  1  0.519524  0.645249  0.500000  1
  Co  Co21  1  0.480476  0.125725  0.500000  1
  Co  Co22  1  0.194099  0.372384  0.000000  1
  Co  Co23  1  0.805901  0.178285  0.000000  1
  P  P24  1  0.000000  0.349534  0.000000  1
  P  P25  1  0.826605  0.517196  0.500000  1
  P  P26  1  0.690590  0.173395  0.500000  1
  P  P27  1  0.176414  0.176414  0.000000  1
  P  P28  1  0.650466  0.650466  0.000000  1
  P  P29  1  0.823586  0.000000  0.000000  1
  P  P30  1  0.517196  0.826605  0.500000  1
  P  P31  1  0.173395  0.690590  0.500000  1
  P  P32  1  0.349534  0.000000  0.000000  1
  P  P33  1  0.482804  0.309410  0.500000  1
  P  P34  1  0.000000  0.823586  0.000000  1
  P  P35  1  0.309410  0.482804  0.500000  1
