# generated using pymatgen
data_LiLaY(P3Pd10)2
_symmetry_space_group_name_H-M   'P 1'
_cell_length_a   8.67355342
_cell_length_b   8.67360101
_cell_length_c   8.67357600
_cell_angle_alpha   59.99993264
_cell_angle_beta   59.99970140
_cell_angle_gamma   59.99996348
_symmetry_Int_Tables_number   1
_chemical_formula_structural   LiLaY(P3Pd10)2
_chemical_formula_sum   'Li1 La1 Y1 P6 Pd20'
_cell_volume   461.40082557
_cell_formula_units_Z   1
loop_
 _symmetry_equiv_pos_site_id
 _symmetry_equiv_pos_as_xyz
  1  'x, y, z'
loop_
 _atom_site_type_symbol
 _atom_site_label
 _atom_site_symmetry_multiplicity
 _atom_site_fract_x
 _atom_site_fract_y
 _atom_site_fract_z
 _atom_site_occupancy
  Li  Li0  1  0.999999  0.000000  0.999999  1
  La  La1  1  0.750003  0.749998  0.750001  1
  Y  Y2  1  0.249998  0.250000  0.250001  1
  P  P3  1  0.740431  0.259560  0.259562  1
  P  P4  1  0.259567  0.740439  0.740437  1
  P  P5  1  0.259560  0.740437  0.259555  1
  P  P6  1  0.740437  0.259565  0.740440  1
  P  P7  1  0.259562  0.259557  0.740434  1
  P  P8  1  0.740436  0.740441  0.259566  1
  Pd  Pd9  1  0.383842  0.383841  0.383841  1
  Pd  Pd10  1  0.612204  0.612206  0.612207  1
  Pd  Pd11  1  0.383842  0.383839  0.848475  1
  Pd  Pd12  1  0.383842  0.848476  0.383841  1
  Pd  Pd13  1  0.612206  0.612207  0.163375  1
  Pd  Pd14  1  0.612208  0.163374  0.612208  1
  Pd  Pd15  1  0.848475  0.383840  0.383841  1
  Pd  Pd16  1  0.163374  0.612210  0.612205  1
  Pd  Pd17  1  0.343346  0.001665  0.001662  1
  Pd  Pd18  1  0.653333  0.001661  0.001664  1
  Pd  Pd19  1  0.001666  0.343343  0.653329  1
  Pd  Pd20  1  0.001661  0.653333  0.343345  1
  Pd  Pd21  1  0.001667  0.343341  0.001665  1
  Pd  Pd22  1  0.653332  0.001662  0.343347  1
  Pd  Pd23  1  0.001664  0.653335  0.001665  1
  Pd  Pd24  1  0.343345  0.001666  0.653329  1
  Pd  Pd25  1  0.001661  0.001665  0.343345  1
  Pd  Pd26  1  0.001665  0.001663  0.653334  1
  Pd  Pd27  1  0.653327  0.343348  0.001664  1
  Pd  Pd28  1  0.343346  0.653328  0.001663  1
