# generated using pymatgen
data_Gd3Er2Ir3
_symmetry_space_group_name_H-M   'P 1'
_cell_length_a   11.00664500
_cell_length_b   11.06049300
_cell_length_c   6.24680200
_cell_angle_alpha   90.00000000
_cell_angle_beta   90.00000000
_cell_angle_gamma   90.00000000
_symmetry_Int_Tables_number   1
_chemical_formula_structural   Gd3Er2Ir3
_chemical_formula_sum   'Gd12 Er8 Ir12'
_cell_volume   760.47892878
_cell_formula_units_Z   4
loop_
 _symmetry_equiv_pos_site_id
 _symmetry_equiv_pos_as_xyz
  1  'x, y, z'
loop_
 _atom_site_type_symbol
 _atom_site_label
 _atom_site_symmetry_multiplicity
 _atom_site_fract_x
 _atom_site_fract_y
 _atom_site_fract_z
 _atom_site_occupancy
  Gd  Gd0  1  0.290724  0.089012  0.374975  1
  Gd  Gd1  1  0.290724  0.910988  0.874975  1
  Gd  Gd2  1  0.709276  0.089012  0.874975  1
  Gd  Gd3  1  0.709276  0.910988  0.374975  1
  Gd  Gd4  1  0.588853  0.789983  0.876637  1
  Gd  Gd5  1  0.588853  0.210017  0.376637  1
  Gd  Gd6  1  0.411147  0.789983  0.376637  1
  Gd  Gd7  1  0.411147  0.210017  0.876637  1
  Gd  Gd8  1  0.207853  0.412958  0.623395  1
  Gd  Gd9  1  0.207853  0.587042  0.123395  1
  Gd  Gd10  1  0.792147  0.412958  0.123395  1
  Gd  Gd11  1  0.792147  0.587042  0.623395  1
  Er  Er12  1  0.914510  0.708323  0.121607  1
  Er  Er13  1  0.914510  0.291677  0.621607  1
  Er  Er14  1  0.085490  0.708323  0.621607  1
  Er  Er15  1  0.085490  0.291677  0.121607  1
  Er  Er16  1  0.000000  0.000000  0.499617  1
  Er  Er17  1  0.000000  0.000000  0.999617  1
  Er  Er18  1  0.500000  0.500000  0.004354  1
  Er  Er19  1  0.500000  0.500000  0.504354  1
  Ir  Ir20  1  0.850964  0.153594  0.249580  1
  Ir  Ir21  1  0.850964  0.846406  0.749580  1
  Ir  Ir22  1  0.149036  0.153594  0.749580  1
  Ir  Ir23  1  0.149036  0.846406  0.249580  1
  Ir  Ir24  1  0.653663  0.348035  0.751736  1
  Ir  Ir25  1  0.653663  0.651965  0.251736  1
  Ir  Ir26  1  0.346337  0.348035  0.251736  1
  Ir  Ir27  1  0.346337  0.651965  0.751736  1
  Ir  Ir28  1  0.500000  0.000000  0.123348  1
  Ir  Ir29  1  0.500000  0.000000  0.623348  1
  Ir  Ir30  1  0.000000  0.500000  0.876820  1
  Ir  Ir31  1  0.000000  0.500000  0.376820  1
