# generated using pymatgen
data_Nd5Dy3(Si3Pt)4
_symmetry_space_group_name_H-M   'P 1'
_cell_length_a   8.20017600
_cell_length_b   8.20017660
_cell_length_c   8.42566600
_cell_angle_alpha   90.00000000
_cell_angle_beta   90.00000000
_cell_angle_gamma   119.99998952
_symmetry_Int_Tables_number   1
_chemical_formula_structural   Nd5Dy3(Si3Pt)4
_chemical_formula_sum   'Nd5 Dy3 Si12 Pt4'
_cell_volume   490.66072485
_cell_formula_units_Z   1
loop_
 _symmetry_equiv_pos_site_id
 _symmetry_equiv_pos_as_xyz
  1  'x, y, z'
loop_
 _atom_site_type_symbol
 _atom_site_label
 _atom_site_symmetry_multiplicity
 _atom_site_fract_x
 _atom_site_fract_y
 _atom_site_fract_z
 _atom_site_occupancy
  Nd  Nd0  1  0.000000  0.000000  0.250000  1
  Nd  Nd1  1  0.000000  0.000000  0.750000  1
  Nd  Nd2  1  0.500125  0.499875  0.250000  1
  Nd  Nd3  1  0.500125  0.000251  0.250000  1
  Nd  Nd4  1  0.999749  0.499875  0.250000  1
  Dy  Dy5  1  0.499617  0.500383  0.750000  1
  Dy  Dy6  1  0.499617  0.999232  0.750000  1
  Dy  Dy7  1  0.000768  0.500383  0.750000  1
  Si  Si8  1  0.166264  0.833736  0.502063  1
  Si  Si9  1  0.166264  0.332530  0.502063  1
  Si  Si10  1  0.667470  0.833736  0.502063  1
  Si  Si11  1  0.833825  0.166175  0.503879  1
  Si  Si12  1  0.833825  0.667649  0.503879  1
  Si  Si13  1  0.332351  0.166175  0.503879  1
  Si  Si14  1  0.833825  0.166175  0.996121  1
  Si  Si15  1  0.833825  0.667649  0.996121  1
  Si  Si16  1  0.332351  0.166175  0.996121  1
  Si  Si17  1  0.166264  0.833736  0.997937  1
  Si  Si18  1  0.166264  0.332530  0.997937  1
  Si  Si19  1  0.667470  0.833736  0.997937  1
  Pt  Pt20  1  0.333333  0.666667  0.513067  1
  Pt  Pt21  1  0.666667  0.333333  0.514325  1
  Pt  Pt22  1  0.666667  0.333333  0.985675  1
  Pt  Pt23  1  0.333333  0.666667  0.986933  1
