# generated using pymatgen
data_Er3Tm3Zr4(Sn3O)2
_symmetry_space_group_name_H-M   'P 1'
_cell_length_a   8.70890901
_cell_length_b   8.70991848
_cell_length_c   6.00999100
_cell_angle_alpha   90.00023944
_cell_angle_beta   89.99971226
_cell_angle_gamma   120.00075231
_symmetry_Int_Tables_number   1
_chemical_formula_structural   Er3Tm3Zr4(Sn3O)2
_chemical_formula_sum   'Er3 Tm3 Zr4 Sn6 O2'
_cell_volume   394.80169084
_cell_formula_units_Z   1
loop_
 _symmetry_equiv_pos_site_id
 _symmetry_equiv_pos_as_xyz
  1  'x, y, z'
loop_
 _atom_site_type_symbol
 _atom_site_label
 _atom_site_symmetry_multiplicity
 _atom_site_fract_x
 _atom_site_fract_y
 _atom_site_fract_z
 _atom_site_occupancy
  Er  Er0  1  0.999914  0.773273  0.750000  1
  Er  Er1  1  0.999887  0.226623  0.250009  1
  Er  Er2  1  0.226804  0.226728  0.750002  1
  Tm  Tm3  1  0.226108  0.999969  0.250001  1
  Tm  Tm4  1  0.773955  0.773987  0.250002  1
  Tm  Tm5  1  0.773841  0.999929  0.750000  1
  Zr  Zr6  1  0.333371  0.666698  0.999953  1
  Zr  Zr7  1  0.333373  0.666699  0.500041  1
  Zr  Zr8  1  0.666668  0.333326  0.999958  1
  Zr  Zr9  1  0.666666  0.333326  0.500047  1
  Sn  Sn10  1  0.000061  0.596060  0.250003  1
  Sn  Sn11  1  0.999698  0.404301  0.749988  1
  Sn  Sn12  1  0.404784  0.404441  0.250000  1
  Sn  Sn13  1  0.595684  0.595992  0.749995  1
  Sn  Sn14  1  0.404828  0.000018  0.749993  1
  Sn  Sn15  1  0.595431  0.999718  0.250011  1
  O  O16  1  0.999465  0.999458  0.000618  1
  O  O17  1  0.999463  0.999455  0.499380  1
