# generated using pymatgen
data_Cs7Rb9(TiSe4)4
_symmetry_space_group_name_H-M   'P 1'
_cell_length_a   8.80260226
_cell_length_b   10.59643992
_cell_length_c   16.07246331
_cell_angle_alpha   90.40834662
_cell_angle_beta   90.49870818
_cell_angle_gamma   90.41379592
_symmetry_Int_Tables_number   1
_chemical_formula_structural   Cs7Rb9(TiSe4)4
_chemical_formula_sum   'Cs7 Rb9 Ti4 Se16'
_cell_volume   1499.04440336
_cell_formula_units_Z   1
loop_
 _symmetry_equiv_pos_site_id
 _symmetry_equiv_pos_as_xyz
  1  'x, y, z'
loop_
 _atom_site_type_symbol
 _atom_site_label
 _atom_site_symmetry_multiplicity
 _atom_site_fract_x
 _atom_site_fract_y
 _atom_site_fract_z
 _atom_site_occupancy
  Cs  Cs0  1  0.000000  0.000000  0.000000  1
  Cs  Cs1  1  0.500000  0.000000  0.500000  1
  Cs  Cs2  1  0.000000  0.500000  0.000000  1
  Cs  Cs3  1  0.990282  0.749711  0.425679  1
  Cs  Cs4  1  0.489862  0.249895  0.075103  1
  Cs  Cs5  1  0.009718  0.250289  0.574321  1
  Cs  Cs6  1  0.510138  0.750105  0.924897  1
  Rb  Rb7  1  0.500000  0.500000  0.500000  1
  Rb  Rb8  1  0.839525  0.053145  0.276667  1
  Rb  Rb9  1  0.339729  0.947411  0.223773  1
  Rb  Rb10  1  0.159794  0.552480  0.723008  1
  Rb  Rb11  1  0.660183  0.447168  0.776094  1
  Rb  Rb12  1  0.160475  0.946855  0.723333  1
  Rb  Rb13  1  0.660271  0.052589  0.776227  1
  Rb  Rb14  1  0.840206  0.447520  0.276992  1
  Rb  Rb15  1  0.339817  0.552832  0.223906  1
  Ti  Ti16  1  0.758992  0.748530  0.668400  1
  Ti  Ti17  1  0.241008  0.251470  0.331600  1
  Ti  Ti18  1  0.738799  0.750152  0.169761  1
  Ti  Ti19  1  0.261201  0.249848  0.830239  1
  Se  Se20  1  0.986241  0.249625  0.822418  1
  Se  Se21  1  0.515568  0.251261  0.324264  1
  Se  Se22  1  0.484432  0.748739  0.675736  1
  Se  Se23  1  0.013759  0.750375  0.177582  1
  Se  Se24  1  0.653202  0.564161  0.097332  1
  Se  Se25  1  0.160746  0.437645  0.404501  1
  Se  Se26  1  0.346253  0.064902  0.901822  1
  Se  Se27  1  0.845792  0.933968  0.598009  1
  Se  Se28  1  0.346798  0.435839  0.902668  1
  Se  Se29  1  0.839254  0.562355  0.595499  1
  Se  Se30  1  0.653747  0.935098  0.098178  1
  Se  Se31  1  0.154208  0.066032  0.401991  1
  Se  Se32  1  0.632010  0.749912  0.308911  1
  Se  Se33  1  0.131772  0.250591  0.191854  1
  Se  Se34  1  0.367990  0.250088  0.691089  1
  Se  Se35  1  0.868228  0.749409  0.808146  1
