# generated using pymatgen
data_SmY3Re3Os5
_symmetry_space_group_name_H-M   'P 1'
_cell_length_a   5.35584719
_cell_length_b   5.36417414
_cell_length_c   8.98513846
_cell_angle_alpha   89.99999870
_cell_angle_beta   90.03119309
_cell_angle_gamma   120.05143507
_symmetry_Int_Tables_number   1
_chemical_formula_structural   SmY3Re3Os5
_chemical_formula_sum   'Sm1 Y3 Re3 Os5'
_cell_volume   223.44006045
_cell_formula_units_Z   1
loop_
 _symmetry_equiv_pos_site_id
 _symmetry_equiv_pos_as_xyz
  1  'x, y, z'
loop_
 _atom_site_type_symbol
 _atom_site_label
 _atom_site_symmetry_multiplicity
 _atom_site_fract_x
 _atom_site_fract_y
 _atom_site_fract_z
 _atom_site_occupancy
  Sm  Sm0  1  0.339029  0.669515  0.064082  1
  Y  Y1  1  0.338722  0.669362  0.435192  1
  Y  Y2  1  0.668911  0.334455  0.563666  1
  Y  Y3  1  0.669361  0.334680  0.936267  1
  Re  Re4  1  0.163865  0.335217  0.748594  1
  Re  Re5  1  0.163865  0.828648  0.748594  1
  Re  Re6  1  0.328246  0.164124  0.251267  1
  Os  Os7  1  0.819516  0.647136  0.251957  1
  Os  Os8  1  0.644061  0.822031  0.748386  1
  Os  Os9  1  0.022820  0.011409  0.000606  1
  Os  Os10  1  0.819516  0.172380  0.251957  1
  Os  Os11  1  0.022087  0.011043  0.499431  1
