# generated using pymatgen
data_Ba2NiIrI
_symmetry_space_group_name_H-M   'P 1'
_cell_length_a   4.37133500
_cell_length_b   4.37133684
_cell_length_c   9.57253600
_cell_angle_alpha   90.00000000
_cell_angle_beta   90.00000000
_cell_angle_gamma   119.99999361
_symmetry_Int_Tables_number   1
_chemical_formula_structural   Ba2NiIrI
_chemical_formula_sum   'Ba2 Ni1 Ir1 I1'
_cell_volume   158.41125391
_cell_formula_units_Z   1
loop_
 _symmetry_equiv_pos_site_id
 _symmetry_equiv_pos_as_xyz
  1  'x, y, z'
loop_
 _atom_site_type_symbol
 _atom_site_label
 _atom_site_symmetry_multiplicity
 _atom_site_fract_x
 _atom_site_fract_y
 _atom_site_fract_z
 _atom_site_occupancy
  Ba  Ba0  1  0.000000  0.000000  0.217539  1
  Ba  Ba1  1  0.000000  0.000000  0.782461  1
  Ni  Ni2  1  0.666667  0.333333  0.000000  1
  Ir  Ir3  1  0.333333  0.666667  0.000000  1
  I  I4  1  0.666667  0.333333  0.500000  1
