# generated using pymatgen
data_TmZr8ScSn6
_symmetry_space_group_name_H-M   'P 1'
_cell_length_a   5.87548600
_cell_length_b   8.62301187
_cell_length_c   8.53424530
_cell_angle_alpha   119.85293988
_cell_angle_beta   89.99991084
_cell_angle_gamma   90.00003695
_symmetry_Int_Tables_number   1
_chemical_formula_structural   TmZr8ScSn6
_chemical_formula_sum   'Tm1 Zr8 Sc1 Sn6'
_cell_volume   375.00771067
_cell_formula_units_Z   1
loop_
 _symmetry_equiv_pos_site_id
 _symmetry_equiv_pos_as_xyz
  1  'x, y, z'
loop_
 _atom_site_type_symbol
 _atom_site_label
 _atom_site_symmetry_multiplicity
 _atom_site_fract_x
 _atom_site_fract_y
 _atom_site_fract_z
 _atom_site_occupancy
  Tm  Tm0  1  0.250002  0.999151  0.765824  1
  Zr  Zr1  1  0.500026  0.333713  0.663545  1
  Zr  Zr2  1  0.500100  0.669502  0.334004  1
  Zr  Zr3  1  0.999900  0.669502  0.334003  1
  Zr  Zr4  1  0.999979  0.333710  0.663543  1
  Zr  Zr5  1  0.749993  0.749071  0.751091  1
  Zr  Zr6  1  0.750004  0.998664  0.241317  1
  Zr  Zr7  1  0.249998  0.751587  0.001092  1
  Zr  Zr8  1  0.250004  0.247278  0.250221  1
  Sc  Sc9  1  0.750006  0.247786  0.000000  1
  Sn  Sn10  1  0.749999  0.608276  0.999531  1
  Sn  Sn11  1  0.750001  0.390317  0.387061  1
  Sn  Sn12  1  0.749995  0.001452  0.608949  1
  Sn  Sn13  1  0.249999  0.394913  0.002385  1
  Sn  Sn14  1  0.249991  0.605363  0.606895  1
  Sn  Sn15  1  0.250002  0.999713  0.390541  1
