# generated using pymatgen
data_Dy3Co8P6W
_symmetry_space_group_name_H-M   'P 1'
_cell_length_a   3.72460700
_cell_length_b   10.56625300
_cell_length_c   12.25832900
_cell_angle_alpha   90.00000000
_cell_angle_beta   90.00000000
_cell_angle_gamma   90.00000000
_symmetry_Int_Tables_number   1
_chemical_formula_structural   Dy3Co8P6W
_chemical_formula_sum   'Dy6 Co16 P12 W2'
_cell_volume   482.42825258
_cell_formula_units_Z   2
loop_
 _symmetry_equiv_pos_site_id
 _symmetry_equiv_pos_as_xyz
  1  'x, y, z'
loop_
 _atom_site_type_symbol
 _atom_site_label
 _atom_site_symmetry_multiplicity
 _atom_site_fract_x
 _atom_site_fract_y
 _atom_site_fract_z
 _atom_site_occupancy
  Dy  Dy0  1  0.000000  0.500000  0.524202  1
  Dy  Dy1  1  0.500000  0.000000  0.475798  1
  Dy  Dy2  1  0.500000  0.819444  0.204889  1
  Dy  Dy3  1  0.500000  0.180556  0.204889  1
  Dy  Dy4  1  0.000000  0.680556  0.795111  1
  Dy  Dy5  1  0.000000  0.319444  0.795111  1
  Co  Co6  1  0.000000  0.500000  0.987138  1
  Co  Co7  1  0.500000  0.000000  0.012862  1
  Co  Co8  1  0.500000  0.295823  0.431320  1
  Co  Co9  1  0.500000  0.704177  0.431320  1
  Co  Co10  1  0.000000  0.204177  0.568680  1
  Co  Co11  1  0.000000  0.795823  0.568680  1
  Co  Co12  1  0.500000  0.878335  0.707526  1
  Co  Co13  1  0.500000  0.121665  0.707526  1
  Co  Co14  1  0.000000  0.621665  0.292474  1
  Co  Co15  1  0.000000  0.378335  0.292474  1
  Co  Co16  1  0.500000  0.332869  0.990485  1
  Co  Co17  1  0.500000  0.667131  0.990485  1
  Co  Co18  1  0.000000  0.167131  0.009515  1
  Co  Co19  1  0.000000  0.832869  0.009515  1
  Co  Co20  1  0.500000  0.500000  0.701336  1
  Co  Co21  1  0.000000  0.000000  0.298664  1
  P  P22  1  0.500000  0.311118  0.615747  1
  P  P23  1  0.500000  0.688882  0.615747  1
  P  P24  1  0.000000  0.188882  0.384253  1
  P  P25  1  0.000000  0.811118  0.384253  1
  P  P26  1  0.500000  0.500000  0.880961  1
  P  P27  1  0.000000  0.000000  0.119039  1
  P  P28  1  0.500000  0.844309  0.892840  1
  P  P29  1  0.500000  0.155691  0.892840  1
  P  P30  1  0.000000  0.655691  0.107160  1
  P  P31  1  0.000000  0.344309  0.107160  1
  P  P32  1  0.500000  0.500000  0.349893  1
  P  P33  1  0.000000  0.000000  0.650107  1
  W  W34  1  0.500000  0.500000  0.156253  1
  W  W35  1  0.000000  0.000000  0.843747  1
