# generated using pymatgen
data_Er3Tm3TcOs
_symmetry_space_group_name_H-M   'P 1'
_cell_length_a   6.22740703
_cell_length_b   7.37635200
_cell_length_c   8.96093749
_cell_angle_alpha   90.00000000
_cell_angle_beta   89.93396636
_cell_angle_gamma   90.00000000
_symmetry_Int_Tables_number   1
_chemical_formula_structural   Er3Tm3TcOs
_chemical_formula_sum   'Er6 Tm6 Tc2 Os2'
_cell_volume   411.62528576
_cell_formula_units_Z   2
loop_
 _symmetry_equiv_pos_site_id
 _symmetry_equiv_pos_as_xyz
  1  'x, y, z'
loop_
 _atom_site_type_symbol
 _atom_site_label
 _atom_site_symmetry_multiplicity
 _atom_site_fract_x
 _atom_site_fract_y
 _atom_site_fract_z
 _atom_site_occupancy
  Er  Er0  1  0.337561  0.674811  0.437733  1
  Er  Er1  1  0.162439  0.174811  0.062267  1
  Er  Er2  1  0.875899  0.539139  0.249949  1
  Er  Er3  1  0.624101  0.039139  0.250051  1
  Er  Er4  1  0.129200  0.459489  0.750022  1
  Er  Er5  1  0.370800  0.959489  0.749978  1
  Tm  Tm6  1  0.337528  0.674798  0.061887  1
  Tm  Tm7  1  0.162472  0.174798  0.438113  1
  Tm  Tm8  1  0.664482  0.324855  0.562900  1
  Tm  Tm9  1  0.835518  0.824855  0.937100  1
  Tm  Tm10  1  0.664324  0.325101  0.937083  1
  Tm  Tm11  1  0.835676  0.825101  0.562917  1
  Tc  Tc12  1  0.039044  0.883882  0.249942  1
  Tc  Tc13  1  0.460956  0.383882  0.250058  1
  Os  Os14  1  0.958805  0.117925  0.749662  1
  Os  Os15  1  0.541195  0.617925  0.750338  1
