# generated using pymatgen
data_YbSm3Os5Ru3
_symmetry_space_group_name_H-M   'P 1'
_cell_length_a   5.37407851
_cell_length_b   5.18350218
_cell_length_c   9.10480656
_cell_angle_alpha   90.04674425
_cell_angle_beta   90.01872762
_cell_angle_gamma   119.65904313
_symmetry_Int_Tables_number   1
_chemical_formula_structural   YbSm3Os5Ru3
_chemical_formula_sum   'Yb1 Sm3 Os5 Ru3'
_cell_volume   220.39930929
_cell_formula_units_Z   1
loop_
 _symmetry_equiv_pos_site_id
 _symmetry_equiv_pos_as_xyz
  1  'x, y, z'
loop_
 _atom_site_type_symbol
 _atom_site_label
 _atom_site_symmetry_multiplicity
 _atom_site_fract_x
 _atom_site_fract_y
 _atom_site_fract_z
 _atom_site_occupancy
  Yb  Yb0  1  0.666380  0.333455  0.936342  1
  Sm  Sm1  1  0.667629  0.334046  0.570697  1
  Sm  Sm2  1  0.331249  0.665535  0.433267  1
  Sm  Sm3  1  0.329317  0.664687  0.060617  1
  Os  Os4  1  0.171340  0.338587  0.751487  1
  Os  Os5  1  0.171346  0.831447  0.751254  1
  Os  Os6  1  0.660699  0.829640  0.751713  1
  Os  Os7  1  0.836327  0.666433  0.248438  1
  Os  Os8  1  0.835250  0.171407  0.248439  1
  Ru  Ru9  1  0.990951  0.995700  0.498573  1
  Ru  Ru10  1  0.986318  0.992516  0.999646  1
  Ru  Ru11  1  0.353192  0.176547  0.249529  1
