# generated using pymatgen
data_Ce2Nd(ZnPt)3
_symmetry_space_group_name_H-M   'P 1'
_cell_length_a   7.44222400
_cell_length_b   7.46255360
_cell_length_c   3.90916400
_cell_angle_alpha   90.00000000
_cell_angle_beta   90.00000000
_cell_angle_gamma   119.90992452
_symmetry_Int_Tables_number   1
_chemical_formula_structural   Ce2Nd(ZnPt)3
_chemical_formula_sum   'Ce2 Nd1 Zn3 Pt3'
_cell_volume   188.19071843
_cell_formula_units_Z   1
loop_
 _symmetry_equiv_pos_site_id
 _symmetry_equiv_pos_as_xyz
  1  'x, y, z'
loop_
 _atom_site_type_symbol
 _atom_site_label
 _atom_site_symmetry_multiplicity
 _atom_site_fract_x
 _atom_site_fract_y
 _atom_site_fract_z
 _atom_site_occupancy
  Ce  Ce0  1  0.409670  0.409670  0.000000  1
  Ce  Ce1  1  0.999999  0.590330  0.000000  1
  Nd  Nd2  1  0.590619  0.000000  0.000000  1
  Zn  Zn3  1  0.247954  0.000000  0.500001  1
  Zn  Zn4  1  0.997909  0.242026  0.500001  1
  Zn  Zn5  1  0.755883  0.757974  0.500001  1
  Pt  Pt6  1  0.006516  0.000000  0.000000  1
  Pt  Pt7  1  0.669795  0.348138  0.500001  1
  Pt  Pt8  1  0.321657  0.651862  0.500001  1
