# generated using pymatgen
data_PrLu2Ga9Pd2
_symmetry_space_group_name_H-M   'P 1'
_cell_length_a   8.16912994
_cell_length_b   8.16913021
_cell_length_c   8.16913096
_cell_angle_alpha   149.21619823
_cell_angle_beta   109.66318593
_cell_angle_gamma   78.72052790
_symmetry_Int_Tables_number   1
_chemical_formula_structural   PrLu2Ga9Pd2
_chemical_formula_sum   'Pr1 Lu2 Ga9 Pd2'
_cell_volume   257.75464869
_cell_formula_units_Z   1
loop_
 _symmetry_equiv_pos_site_id
 _symmetry_equiv_pos_as_xyz
  1  'x, y, z'
loop_
 _atom_site_type_symbol
 _atom_site_label
 _atom_site_symmetry_multiplicity
 _atom_site_fract_x
 _atom_site_fract_y
 _atom_site_fract_z
 _atom_site_occupancy
  Pr  Pr0  1  0.500000  0.500000  0.000000  1
  Lu  Lu1  1  0.197478  0.197478  0.000000  1
  Lu  Lu2  1  0.802522  0.802522  0.000000  1
  Ga  Ga3  1  0.643717  0.359102  0.284615  1
  Ga  Ga4  1  0.356283  0.640898  0.715385  1
  Ga  Ga5  1  0.074488  0.359102  0.715385  1
  Ga  Ga6  1  0.925512  0.640898  0.284615  1
  Ga  Ga7  1  0.524484  0.159684  0.364799  1
  Ga  Ga8  1  0.475516  0.840316  0.635201  1
  Ga  Ga9  1  0.794885  0.159684  0.635201  1
  Ga  Ga10  1  0.205115  0.840316  0.364799  1
  Ga  Ga11  1  0.000000  0.500000  0.500000  1
  Pd  Pd12  1  0.183149  0.000000  0.183149  1
  Pd  Pd13  1  0.816851  0.000000  0.816851  1
