# generated using pymatgen
data_DyHoTm(Al3Ru)4
_symmetry_space_group_name_H-M   'P 1'
_cell_length_a   8.78681030
_cell_length_b   8.78346272
_cell_length_c   9.60896800
_cell_angle_alpha   90.00000000
_cell_angle_beta   90.00000000
_cell_angle_gamma   120.00277240
_symmetry_Int_Tables_number   1
_chemical_formula_structural   DyHoTm(Al3Ru)4
_chemical_formula_sum   'Dy2 Ho2 Tm2 Al24 Ru8'
_cell_volume   642.23246923
_cell_formula_units_Z   2
loop_
 _symmetry_equiv_pos_site_id
 _symmetry_equiv_pos_as_xyz
  1  'x, y, z'
loop_
 _atom_site_type_symbol
 _atom_site_label
 _atom_site_symmetry_multiplicity
 _atom_site_fract_x
 _atom_site_fract_y
 _atom_site_fract_z
 _atom_site_occupancy
  Dy  Dy0  1  0.806972  0.193167  0.750000  1
  Dy  Dy1  1  0.193028  0.806833  0.250000  1
  Ho  Ho2  1  0.388331  0.194102  0.750000  1
  Ho  Ho3  1  0.611669  0.805898  0.250000  1
  Tm  Tm4  1  0.805600  0.610934  0.750000  1
  Tm  Tm5  1  0.194400  0.389066  0.250000  1
  Al  Al6  1  0.666868  0.333590  0.981386  1
  Al  Al7  1  0.333132  0.666410  0.018614  1
  Al  Al8  1  0.333132  0.666410  0.481386  1
  Al  Al9  1  0.666868  0.333590  0.518614  1
  Al  Al10  1  0.837446  0.162676  0.422197  1
  Al  Al11  1  0.162554  0.837324  0.577803  1
  Al  Al12  1  0.325419  0.163019  0.422717  1
  Al  Al13  1  0.162554  0.837324  0.922197  1
  Al  Al14  1  0.674581  0.836981  0.577283  1
  Al  Al15  1  0.837446  0.162676  0.077803  1
  Al  Al16  1  0.836967  0.674434  0.422930  1
  Al  Al17  1  0.674581  0.836981  0.922717  1
  Al  Al18  1  0.163033  0.325566  0.577070  1
  Al  Al19  1  0.325419  0.163019  0.077283  1
  Al  Al20  1  0.163033  0.325566  0.922930  1
  Al  Al21  1  0.836967  0.674434  0.077070  1
  Al  Al22  1  0.438835  0.561542  0.750000  1
  Al  Al23  1  0.561165  0.438458  0.250000  1
  Al  Al24  1  0.123270  0.561991  0.750000  1
  Al  Al25  1  0.876730  0.438009  0.250000  1
  Al  Al26  1  0.438036  0.876397  0.750000  1
  Al  Al27  1  0.561964  0.123603  0.250000  1
  Al  Al28  1  0.000914  0.998612  0.750000  1
  Al  Al29  1  0.999086  0.001388  0.250000  1
  Ru  Ru30  1  0.500000  0.500000  0.000000  1
  Ru  Ru31  1  0.000000  0.500000  0.000000  1
  Ru  Ru32  1  0.500000  0.500000  0.500000  1
  Ru  Ru33  1  0.500000  0.000000  0.000000  1
  Ru  Ru34  1  0.000000  0.500000  0.500000  1
  Ru  Ru35  1  0.500000  0.000000  0.500000  1
  Ru  Ru36  1  0.000000  0.000000  0.000000  1
  Ru  Ru37  1  0.000000  0.000000  0.500000  1
