# generated using pymatgen
data_Er4As3Se
_symmetry_space_group_name_H-M   'P 1'
_cell_length_a   4.07686200
_cell_length_b   5.74182300
_cell_length_c   8.15027000
_cell_angle_alpha   90.00000000
_cell_angle_beta   90.00000000
_cell_angle_gamma   90.00000000
_symmetry_Int_Tables_number   1
_chemical_formula_structural   Er4As3Se
_chemical_formula_sum   'Er4 As3 Se1'
_cell_volume   190.78657332
_cell_formula_units_Z   1
loop_
 _symmetry_equiv_pos_site_id
 _symmetry_equiv_pos_as_xyz
  1  'x, y, z'
loop_
 _atom_site_type_symbol
 _atom_site_label
 _atom_site_symmetry_multiplicity
 _atom_site_fract_x
 _atom_site_fract_y
 _atom_site_fract_z
 _atom_site_occupancy
  Er  Er0  1  0.500000  0.500000  0.241616  1
  Er  Er1  1  0.000000  0.000000  0.500000  1
  Er  Er2  1  0.500000  0.500000  0.758384  1
  Er  Er3  1  0.000000  0.000000  0.000000  1
  As  As4  1  0.500000  0.000000  0.747403  1
  As  As5  1  0.000000  0.500000  0.000000  1
  As  As6  1  0.500000  0.000000  0.252597  1
  Se  Se7  1  0.000000  0.500000  0.500000  1
