# generated using pymatgen
data_Yb5Sm2Y(Cu2Sn5)2
_symmetry_space_group_name_H-M   'P 1'
_cell_length_a   4.46010700
_cell_length_b   8.77092300
_cell_length_c   14.10651700
_cell_angle_alpha   90.00000000
_cell_angle_beta   90.00000000
_cell_angle_gamma   90.00000000
_symmetry_Int_Tables_number   1
_chemical_formula_structural   Yb5Sm2Y(Cu2Sn5)2
_chemical_formula_sum   'Yb5 Sm2 Y1 Cu4 Sn10'
_cell_volume   551.83643665
_cell_formula_units_Z   1
loop_
 _symmetry_equiv_pos_site_id
 _symmetry_equiv_pos_as_xyz
  1  'x, y, z'
loop_
 _atom_site_type_symbol
 _atom_site_label
 _atom_site_symmetry_multiplicity
 _atom_site_fract_x
 _atom_site_fract_y
 _atom_site_fract_z
 _atom_site_occupancy
  Yb  Yb0  1  0.500000  0.792128  0.741920  1
  Yb  Yb1  1  0.000000  0.204693  0.753538  1
  Yb  Yb2  1  0.000000  0.204693  0.246462  1
  Yb  Yb3  1  0.000000  0.865858  0.500000  1
  Yb  Yb4  1  0.500000  0.792128  0.258080  1
  Sm  Sm5  1  0.500000  0.696239  0.000000  1
  Sm  Sm6  1  0.500000  0.140388  0.000000  1
  Y  Y7  1  0.000000  0.297466  0.500000  1
  Cu  Cu8  1  0.500000  0.377951  0.643950  1
  Cu  Cu9  1  0.000000  0.623714  0.851815  1
  Cu  Cu10  1  0.000000  0.623714  0.148185  1
  Cu  Cu11  1  0.500000  0.377951  0.356050  1
  Sn  Sn12  1  0.500000  0.083357  0.396008  1
  Sn  Sn13  1  0.000000  0.553544  0.662406  1
  Sn  Sn14  1  0.000000  0.411323  0.000000  1
  Sn  Sn15  1  0.500000  0.442310  0.164999  1
  Sn  Sn16  1  0.500000  0.594761  0.500000  1
  Sn  Sn17  1  0.500000  0.442310  0.835001  1
  Sn  Sn18  1  0.000000  0.919285  0.895924  1
  Sn  Sn19  1  0.000000  0.553544  0.337594  1
  Sn  Sn20  1  0.500000  0.083357  0.603992  1
  Sn  Sn21  1  0.000000  0.919285  0.104076  1
