# generated using pymatgen
data_CrSn(As2O7)2
_symmetry_space_group_name_H-M   'P 1'
_cell_length_a   5.05407744
_cell_length_b   8.35130838
_cell_length_c   7.39767101
_cell_angle_alpha   90.72179357
_cell_angle_beta   106.30797287
_cell_angle_gamma   90.35567253
_symmetry_Int_Tables_number   1
_chemical_formula_structural   CrSn(As2O7)2
_chemical_formula_sum   'Cr1 Sn1 As4 O14'
_cell_volume   299.64017129
_cell_formula_units_Z   1
loop_
 _symmetry_equiv_pos_site_id
 _symmetry_equiv_pos_as_xyz
  1  'x, y, z'
loop_
 _atom_site_type_symbol
 _atom_site_label
 _atom_site_symmetry_multiplicity
 _atom_site_fract_x
 _atom_site_fract_y
 _atom_site_fract_z
 _atom_site_occupancy
  Cr  Cr0  1  0.779103  0.006331  0.270871  1
  Sn  Sn1  1  0.222451  0.506712  0.734214  1
  As  As2  1  0.395608  0.180329  0.501854  1
  As  As3  1  0.217923  0.782339  0.104843  1
  As  As4  1  0.773699  0.264644  0.904909  1
  As  As5  1  0.612070  0.691112  0.491904  1
  O  O6  1  0.054072  0.309926  0.828863  1
  O  O7  1  0.103203  0.680217  0.897320  1
  O  O8  1  0.137782  0.040509  0.447561  1
  O  O9  1  0.299087  0.374061  0.512798  1
  O  O10  1  0.420951  0.695543  0.648456  1
  O  O11  1  0.589122  0.431882  0.925612  1
  O  O12  1  0.572347  0.123761  0.736175  1
  O  O13  1  0.401790  0.634825  0.261101  1
  O  O14  1  0.424088  0.945906  0.097984  1
  O  O15  1  0.617841  0.183700  0.362210  1
  O  O16  1  0.707897  0.884973  0.476820  1
  O  O17  1  0.857018  0.547982  0.527951  1
  O  O18  1  0.892081  0.155613  0.101328  1
  O  O19  1  0.927169  0.823194  0.171831  1
