# generated using pymatgen
data_Ta3Mn5B6RuW3
_symmetry_space_group_name_H-M   'P 1'
_cell_length_a   3.06345000
_cell_length_b   6.12521571
_cell_length_c   10.61322672
_cell_angle_alpha   89.89660642
_cell_angle_beta   90.00000000
_cell_angle_gamma   90.00000000
_symmetry_Int_Tables_number   1
_chemical_formula_structural   Ta3Mn5B6RuW3
_chemical_formula_sum   'Ta3 Mn5 B6 Ru1 W3'
_cell_volume   199.14936154
_cell_formula_units_Z   1
loop_
 _symmetry_equiv_pos_site_id
 _symmetry_equiv_pos_as_xyz
  1  'x, y, z'
loop_
 _atom_site_type_symbol
 _atom_site_label
 _atom_site_symmetry_multiplicity
 _atom_site_fract_x
 _atom_site_fract_y
 _atom_site_fract_z
 _atom_site_occupancy
  Ta  Ta0  1  0.000000  0.763978  0.447611  1
  Ta  Ta1  1  0.000000  0.151668  0.247996  1
  Ta  Ta2  1  0.000000  0.857971  0.755720  1
  Mn  Mn3  1  0.500000  0.433112  0.122178  1
  Mn  Mn4  1  0.500000  0.569479  0.879558  1
  Mn  Mn5  1  0.500000  0.426423  0.372221  1
  Mn  Mn6  1  0.500000  0.797993  0.247669  1
  Mn  Mn7  1  0.500000  0.200789  0.750240  1
  B  B8  1  0.500000  0.052463  0.085092  1
  B  B9  1  0.500000  0.951145  0.917388  1
  B  B10  1  0.500000  0.055805  0.411165  1
  B  B11  1  0.500000  0.954966  0.586990  1
  B  B12  1  0.000000  0.552781  0.246337  1
  B  B13  1  0.000000  0.441924  0.760628  1
  Ru  Ru14  1  0.500000  0.568051  0.624968  1
  W  W15  1  0.000000  0.230049  0.956107  1
  W  W16  1  0.000000  0.770092  0.046563  1
  W  W17  1  0.000000  0.221311  0.541569  1
