# generated using pymatgen
data_Er2Zr3(In2Pt)2
_symmetry_space_group_name_H-M   'P 1'
_cell_length_a   3.57234800
_cell_length_b   7.77736400
_cell_length_c   17.65038100
_cell_angle_alpha   90.00000000
_cell_angle_beta   90.00000000
_cell_angle_gamma   90.00000000
_symmetry_Int_Tables_number   1
_chemical_formula_structural   Er2Zr3(In2Pt)2
_chemical_formula_sum   'Er4 Zr6 In8 Pt4'
_cell_volume   490.38849089
_cell_formula_units_Z   2
loop_
 _symmetry_equiv_pos_site_id
 _symmetry_equiv_pos_as_xyz
  1  'x, y, z'
loop_
 _atom_site_type_symbol
 _atom_site_label
 _atom_site_symmetry_multiplicity
 _atom_site_fract_x
 _atom_site_fract_y
 _atom_site_fract_z
 _atom_site_occupancy
  Er  Er0  1  0.000000  0.241493  0.219761  1
  Er  Er1  1  0.000000  0.758507  0.780239  1
  Er  Er2  1  0.000000  0.258507  0.719761  1
  Er  Er3  1  0.000000  0.741493  0.280239  1
  Zr  Zr4  1  0.000000  0.123309  0.420332  1
  Zr  Zr5  1  0.000000  0.876691  0.579668  1
  Zr  Zr6  1  0.000000  0.376691  0.920332  1
  Zr  Zr7  1  0.000000  0.623309  0.079668  1
  Zr  Zr8  1  0.000000  0.000000  0.000000  1
  Zr  Zr9  1  0.000000  0.500000  0.500000  1
  In  In10  1  0.500000  0.421515  0.354492  1
  In  In11  1  0.500000  0.578485  0.645508  1
  In  In12  1  0.500000  0.078485  0.854492  1
  In  In13  1  0.500000  0.921515  0.145508  1
  In  In14  1  0.500000  0.293512  0.061516  1
  In  In15  1  0.500000  0.706488  0.938484  1
  In  In16  1  0.500000  0.206488  0.561516  1
  In  In17  1  0.500000  0.793512  0.438484  1
  Pt  Pt18  1  0.500000  0.031098  0.308291  1
  Pt  Pt19  1  0.500000  0.968902  0.691709  1
  Pt  Pt20  1  0.500000  0.468902  0.808291  1
  Pt  Pt21  1  0.500000  0.531098  0.191709  1
