# generated using pymatgen
data_Sm3Th(Si4Tc3)2
_symmetry_space_group_name_H-M   'P 1'
_cell_length_a   8.15768068
_cell_length_b   5.68547859
_cell_length_c   6.97948858
_cell_angle_alpha   76.75936435
_cell_angle_beta   89.91198016
_cell_angle_gamma   89.89672140
_symmetry_Int_Tables_number   1
_chemical_formula_structural   Sm3Th(Si4Tc3)2
_chemical_formula_sum   'Sm3 Th1 Si8 Tc6'
_cell_volume   315.10488181
_cell_formula_units_Z   1
loop_
 _symmetry_equiv_pos_site_id
 _symmetry_equiv_pos_as_xyz
  1  'x, y, z'
loop_
 _atom_site_type_symbol
 _atom_site_label
 _atom_site_symmetry_multiplicity
 _atom_site_fract_x
 _atom_site_fract_y
 _atom_site_fract_z
 _atom_site_occupancy
  Sm  Sm0  1  0.432714  0.934679  0.749579  1
  Sm  Sm1  1  0.069521  0.436758  0.748237  1
  Sm  Sm2  1  0.568058  0.064955  0.250651  1
  Th  Th3  1  0.934899  0.566536  0.250479  1
  Si  Si4  1  0.586268  0.611453  0.113772  1
  Si  Si5  1  0.091025  0.891774  0.882383  1
  Si  Si6  1  0.410463  0.386755  0.887976  1
  Si  Si7  1  0.910369  0.115338  0.109531  1
  Si  Si8  1  0.749870  0.718526  0.590566  1
  Si  Si9  1  0.254591  0.786727  0.411444  1
  Si  Si10  1  0.250948  0.276387  0.412914  1
  Si  Si11  1  0.746568  0.214740  0.590901  1
  Tc  Tc12  1  0.289414  0.609810  0.121026  1
  Tc  Tc13  1  0.793700  0.885013  0.884490  1
  Tc  Tc14  1  0.706132  0.388344  0.880467  1
  Tc  Tc15  1  0.206355  0.112012  0.117464  1
  Tc  Tc16  1  0.500200  0.499994  0.498054  1
  Tc  Tc17  1  0.998904  0.000199  0.500065  1
