# generated using pymatgen
data_Nd6Y10MgHg3Rh4
_symmetry_space_group_name_H-M   'P 1'
_cell_length_a   9.74457156
_cell_length_b   9.77095451
_cell_length_c   9.77135708
_cell_angle_alpha   59.99524710
_cell_angle_beta   59.92161799
_cell_angle_gamma   59.91894278
_symmetry_Int_Tables_number   1
_chemical_formula_structural   Nd6Y10MgHg3Rh4
_chemical_formula_sum   'Nd6 Y10 Mg1 Hg3 Rh4'
_cell_volume   657.05193964
_cell_formula_units_Z   1
loop_
 _symmetry_equiv_pos_site_id
 _symmetry_equiv_pos_as_xyz
  1  'x, y, z'
loop_
 _atom_site_type_symbol
 _atom_site_label
 _atom_site_symmetry_multiplicity
 _atom_site_fract_x
 _atom_site_fract_y
 _atom_site_fract_z
 _atom_site_occupancy
  Nd  Nd0  1  0.188832  0.811244  0.811244  1
  Nd  Nd1  1  0.809577  0.189562  0.189560  1
  Nd  Nd2  1  0.809820  0.188912  0.811605  1
  Nd  Nd3  1  0.189254  0.810650  0.189123  1
  Nd  Nd4  1  0.809817  0.811610  0.188917  1
  Nd  Nd5  1  0.189240  0.189120  0.810660  1
  Y  Y6  1  0.598810  0.597192  0.597194  1
  Y  Y7  1  0.599794  0.599303  0.204976  1
  Y  Y8  1  0.599777  0.204973  0.599320  1
  Y  Y9  1  0.196671  0.601903  0.601904  1
  Y  Y10  1  0.058675  0.439665  0.439654  1
  Y  Y11  1  0.433172  0.063698  0.063696  1
  Y  Y12  1  0.435496  0.062194  0.437786  1
  Y  Y13  1  0.059484  0.438243  0.061242  1
  Y  Y14  1  0.435497  0.437792  0.062193  1
  Y  Y15  1  0.059479  0.061246  0.438239  1
  Mg  Mg16  1  0.536887  0.820451  0.820456  1
  Hg  Hg17  1  0.831110  0.834962  0.834971  1
  Hg  Hg18  1  0.831097  0.835525  0.498580  1
  Hg  Hg19  1  0.831095  0.498575  0.835531  1
  Rh  Rh20  1  0.390213  0.392611  0.392610  1
  Rh  Rh21  1  0.391013  0.393466  0.824505  1
  Rh  Rh22  1  0.391012  0.824509  0.393465  1
  Rh  Rh23  1  0.824183  0.392594  0.392570  1
