# generated using pymatgen
data_Tb6Y4In3Ru
_symmetry_space_group_name_H-M   'P 1'
_cell_length_a   9.76605400
_cell_length_b   9.76605276
_cell_length_c   9.83036600
_cell_angle_alpha   90.00000000
_cell_angle_beta   90.00000000
_cell_angle_gamma   119.99999744
_symmetry_Int_Tables_number   1
_chemical_formula_structural   Tb6Y4In3Ru
_chemical_formula_sum   'Tb12 Y8 In6 Ru2'
_cell_volume   811.96725963
_cell_formula_units_Z   2
loop_
 _symmetry_equiv_pos_site_id
 _symmetry_equiv_pos_as_xyz
  1  'x, y, z'
loop_
 _atom_site_type_symbol
 _atom_site_label
 _atom_site_symmetry_multiplicity
 _atom_site_fract_x
 _atom_site_fract_y
 _atom_site_fract_z
 _atom_site_occupancy
  Tb  Tb0  1  0.209852  0.790148  0.438843  1
  Tb  Tb1  1  0.209852  0.419705  0.438843  1
  Tb  Tb2  1  0.580295  0.790148  0.438843  1
  Tb  Tb3  1  0.790148  0.209852  0.561157  1
  Tb  Tb4  1  0.790148  0.580295  0.561157  1
  Tb  Tb5  1  0.419705  0.209852  0.561157  1
  Tb  Tb6  1  0.790148  0.209852  0.938843  1
  Tb  Tb7  1  0.790148  0.580295  0.938843  1
  Tb  Tb8  1  0.419705  0.209852  0.938843  1
  Tb  Tb9  1  0.209852  0.790148  0.061157  1
  Tb  Tb10  1  0.209852  0.419705  0.061157  1
  Tb  Tb11  1  0.580295  0.790148  0.061157  1
  Y  Y12  1  0.000000  0.000000  0.500000  1
  Y  Y13  1  0.000000  0.000000  0.000000  1
  Y  Y14  1  0.539687  0.460313  0.250000  1
  Y  Y15  1  0.539687  0.079375  0.250000  1
  Y  Y16  1  0.920625  0.460313  0.250000  1
  Y  Y17  1  0.460313  0.539687  0.750000  1
  Y  Y18  1  0.460313  0.920625  0.750000  1
  Y  Y19  1  0.079375  0.539687  0.750000  1
  In  In20  1  0.884348  0.115652  0.250000  1
  In  In21  1  0.884348  0.768698  0.250000  1
  In  In22  1  0.231302  0.115652  0.250000  1
  In  In23  1  0.115652  0.884348  0.750000  1
  In  In24  1  0.115652  0.231302  0.750000  1
  In  In25  1  0.768698  0.884348  0.750000  1
  Ru  Ru26  1  0.333333  0.666667  0.250000  1
  Ru  Ru27  1  0.666667  0.333333  0.750000  1
