# generated using pymatgen
data_Nd6Al24Ir3Ru3RhAu
_symmetry_space_group_name_H-M   'P 1'
_cell_length_a   8.90544538
_cell_length_b   8.91409091
_cell_length_c   9.66055700
_cell_angle_alpha   89.98970306
_cell_angle_beta   89.95810315
_cell_angle_gamma   119.64043610
_symmetry_Int_Tables_number   1
_chemical_formula_structural   Nd6Al24Ir3Ru3RhAu
_chemical_formula_sum   'Nd6 Al24 Ir3 Ru3 Rh1 Au1'
_cell_volume   666.54191452
_cell_formula_units_Z   1
loop_
 _symmetry_equiv_pos_site_id
 _symmetry_equiv_pos_as_xyz
  1  'x, y, z'
loop_
 _atom_site_type_symbol
 _atom_site_label
 _atom_site_symmetry_multiplicity
 _atom_site_fract_x
 _atom_site_fract_y
 _atom_site_fract_z
 _atom_site_occupancy
  Nd  Nd0  1  0.188731  0.379780  0.247957  1
  Nd  Nd1  1  0.811269  0.620220  0.752043  1
  Nd  Nd2  1  0.620162  0.811646  0.248009  1
  Nd  Nd3  1  0.379838  0.188354  0.751991  1
  Nd  Nd4  1  0.190545  0.810357  0.253070  1
  Nd  Nd5  1  0.809455  0.189643  0.746930  1
  Al  Al6  1  0.329825  0.673880  0.023462  1
  Al  Al7  1  0.670175  0.326120  0.976538  1
  Al  Al8  1  0.666586  0.333380  0.522658  1
  Al  Al9  1  0.333414  0.666620  0.477342  1
  Al  Al10  1  0.162375  0.325563  0.572411  1
  Al  Al11  1  0.837625  0.674437  0.427589  1
  Al  Al12  1  0.674053  0.837422  0.572301  1
  Al  Al13  1  0.847402  0.677080  0.077145  1
  Al  Al14  1  0.325947  0.162578  0.427699  1
  Al  Al15  1  0.152598  0.322920  0.922855  1
  Al  Al16  1  0.163349  0.836540  0.575289  1
  Al  Al17  1  0.323517  0.151396  0.077252  1
  Al  Al18  1  0.836651  0.163460  0.424711  1
  Al  Al19  1  0.676483  0.848604  0.922748  1
  Al  Al20  1  0.835379  0.162244  0.075768  1
  Al  Al21  1  0.164621  0.837756  0.924232  1
  Al  Al22  1  0.562809  0.124956  0.248539  1
  Al  Al23  1  0.437191  0.875044  0.751461  1
  Al  Al24  1  0.874212  0.436926  0.250162  1
  Al  Al25  1  0.125788  0.563074  0.749838  1
  Al  Al26  1  0.565834  0.434518  0.257853  1
  Al  Al27  1  0.434166  0.565482  0.742147  1
  Al  Al28  1  0.999498  0.001882  0.250380  1
  Al  Al29  1  0.000502  0.998118  0.749620  1
  Ir  Ir30  1  0.000000  0.500000  0.000000  1
  Ir  Ir31  1  0.500000  0.000000  0.500000  1
  Ir  Ir32  1  0.000000  0.500000  0.500000  1
  Ru  Ru33  1  0.500000  0.000000  0.000000  1
  Ru  Ru34  1  0.000000  0.000000  0.000000  1
  Ru  Ru35  1  0.000000  0.000000  0.500000  1
  Rh  Rh36  1  0.500000  0.500000  0.500000  1
  Au  Au37  1  0.500000  0.500000  0.000000  1
