# generated using pymatgen
data_SrTb6CoBr12
_symmetry_space_group_name_H-M   'P 1'
_cell_length_a   9.29649940
_cell_length_b   9.29649871
_cell_length_c   9.29650000
_cell_angle_alpha   106.26942880
_cell_angle_beta   106.26941701
_cell_angle_gamma   106.26942425
_symmetry_Int_Tables_number   1
_chemical_formula_structural   SrTb6CoBr12
_chemical_formula_sum   'Sr1 Tb6 Co1 Br12'
_cell_volume   682.01595732
_cell_formula_units_Z   1
loop_
 _symmetry_equiv_pos_site_id
 _symmetry_equiv_pos_as_xyz
  1  'x, y, z'
loop_
 _atom_site_type_symbol
 _atom_site_label
 _atom_site_symmetry_multiplicity
 _atom_site_fract_x
 _atom_site_fract_y
 _atom_site_fract_z
 _atom_site_occupancy
  Sr  Sr0  1  0.500000  0.500000  0.500000  1
  Tb  Tb1  1  0.984719  0.903876  0.700107  1
  Tb  Tb2  1  0.015281  0.096124  0.299893  1
  Tb  Tb3  1  0.096124  0.299893  0.015281  1
  Tb  Tb4  1  0.299893  0.015281  0.096124  1
  Tb  Tb5  1  0.903876  0.700107  0.984719  1
  Tb  Tb6  1  0.700107  0.984719  0.903876  1
  Co  Co7  1  0.000000  0.000000  0.000000  1
  Br  Br8  1  0.557076  0.638065  0.860132  1
  Br  Br9  1  0.442924  0.361935  0.139868  1
  Br  Br10  1  0.322820  0.927374  0.780912  1
  Br  Br11  1  0.361935  0.139868  0.442924  1
  Br  Br12  1  0.927374  0.780912  0.322820  1
  Br  Br13  1  0.677180  0.072626  0.219088  1
  Br  Br14  1  0.072626  0.219088  0.677180  1
  Br  Br15  1  0.780912  0.322820  0.927374  1
  Br  Br16  1  0.219088  0.677180  0.072626  1
  Br  Br17  1  0.860132  0.557076  0.638065  1
  Br  Br18  1  0.139868  0.442924  0.361935  1
  Br  Br19  1  0.638065  0.860132  0.557076  1
