# generated using pymatgen
data_ThH6Os
_symmetry_space_group_name_H-M   'P 1'
_cell_length_a   4.66412449
_cell_length_b   4.66412507
_cell_length_c   4.66548978
_cell_angle_alpha   58.45470589
_cell_angle_beta   58.45472192
_cell_angle_gamma   58.45958098
_symmetry_Int_Tables_number   1
_chemical_formula_structural   ThH6Os
_chemical_formula_sum   'Th1 H6 Os1'
_cell_volume   69.23174289
_cell_formula_units_Z   1
loop_
 _symmetry_equiv_pos_site_id
 _symmetry_equiv_pos_as_xyz
  1  'x, y, z'
loop_
 _atom_site_type_symbol
 _atom_site_label
 _atom_site_symmetry_multiplicity
 _atom_site_fract_x
 _atom_site_fract_y
 _atom_site_fract_z
 _atom_site_occupancy
  Th  Th0  1  0.500000  0.500000  0.500000  1
  H  H1  1  0.557416  0.103343  0.103366  1
  H  H2  1  0.103343  0.557416  0.103366  1
  H  H3  1  0.896799  0.896799  0.442384  1
  H  H4  1  0.103201  0.103201  0.557615  1
  H  H5  1  0.896657  0.442583  0.896634  1
  H  H6  1  0.442583  0.896657  0.896634  1
  Os  Os7  1  0.000000  0.000000  0.000000  1
