# generated using pymatgen
data_Yb6RePtO12
_symmetry_space_group_name_H-M   'P 1'
_cell_length_a   5.82387536
_cell_length_b   5.46686497
_cell_length_c   9.60459763
_cell_angle_alpha   55.56032275
_cell_angle_beta   89.18855363
_cell_angle_gamma   89.77644697
_symmetry_Int_Tables_number   1
_chemical_formula_structural   Yb6RePtO12
_chemical_formula_sum   'Yb6 Re1 Pt1 O12'
_cell_volume   252.16700691
_cell_formula_units_Z   1
loop_
 _symmetry_equiv_pos_site_id
 _symmetry_equiv_pos_as_xyz
  1  'x, y, z'
loop_
 _atom_site_type_symbol
 _atom_site_label
 _atom_site_symmetry_multiplicity
 _atom_site_fract_x
 _atom_site_fract_y
 _atom_site_fract_z
 _atom_site_occupancy
  Yb  Yb0  1  0.573805  0.237149  0.240754  1
  Yb  Yb1  1  0.062418  0.790548  0.228048  1
  Yb  Yb2  1  0.500000  0.000000  0.000000  1
  Yb  Yb3  1  0.000000  0.000000  0.500000  1
  Yb  Yb4  1  0.937582  0.209452  0.771952  1
  Yb  Yb5  1  0.426195  0.762851  0.759246  1
  Re  Re6  1  0.500000  0.500000  0.500000  1
  Pt  Pt7  1  0.000000  0.500000  0.000000  1
  O  O8  1  0.549922  0.393757  0.723096  1
  O  O9  1  0.056400  0.612378  0.763421  1
  O  O10  1  0.450078  0.606243  0.276904  1
  O  O11  1  0.943600  0.387622  0.236579  1
  O  O12  1  0.775240  0.734904  0.428046  1
  O  O13  1  0.286305  0.257043  0.070631  1
  O  O14  1  0.224760  0.265096  0.571954  1
  O  O15  1  0.713695  0.742957  0.929369  1
  O  O16  1  0.186480  0.850362  0.947048  1
  O  O17  1  0.669471  0.162098  0.552449  1
  O  O18  1  0.813520  0.149638  0.052952  1
  O  O19  1  0.330529  0.837902  0.447551  1
