# generated using pymatgen
data_Ac7Lu13Pt16
_symmetry_space_group_name_H-M   'P 1'
_cell_length_a   7.60319443
_cell_length_b   7.66587986
_cell_length_c   14.87864100
_cell_angle_alpha   90.00547106
_cell_angle_beta   89.90976688
_cell_angle_gamma   89.96047052
_symmetry_Int_Tables_number   1
_chemical_formula_structural   Ac7Lu13Pt16
_chemical_formula_sum   'Ac7 Lu13 Pt16'
_cell_volume   867.20290925
_cell_formula_units_Z   1
loop_
 _symmetry_equiv_pos_site_id
 _symmetry_equiv_pos_as_xyz
  1  'x, y, z'
loop_
 _atom_site_type_symbol
 _atom_site_label
 _atom_site_symmetry_multiplicity
 _atom_site_fract_x
 _atom_site_fract_y
 _atom_site_fract_z
 _atom_site_occupancy
  Ac  Ac0  1  0.502396  0.674799  0.097562  1
  Ac  Ac1  1  0.497828  0.324456  0.594622  1
  Ac  Ac2  1  0.997722  0.175624  0.905152  1
  Ac  Ac3  1  0.997388  0.171018  0.591472  1
  Ac  Ac4  1  0.497430  0.325511  0.904679  1
  Ac  Ac5  1  0.502570  0.677618  0.406073  1
  Ac  Ac6  1  0.002317  0.824075  0.095355  1
  Lu  Lu7  1  0.681675  0.000461  0.254258  1
  Lu  Lu8  1  0.176721  0.502043  0.253664  1
  Lu  Lu9  1  0.823435  0.501003  0.748554  1
  Lu  Lu10  1  0.321825  0.998303  0.749111  1
  Lu  Lu11  1  0.655791  0.834159  0.624339  1
  Lu  Lu12  1  0.155899  0.665658  0.873586  1
  Lu  Lu13  1  0.844610  0.334504  0.374806  1
  Lu  Lu14  1  0.343925  0.166020  0.128431  1
  Lu  Lu15  1  0.337968  0.161649  0.376551  1
  Lu  Lu16  1  0.846469  0.332371  0.127982  1
  Lu  Lu17  1  0.151123  0.670294  0.621087  1
  Lu  Lu18  1  0.654694  0.833815  0.874240  1
  Lu  Lu19  1  0.997362  0.819933  0.400728  1
  Pt  Pt20  1  0.821035  0.639609  0.256015  1
  Pt  Pt21  1  0.310536  0.867243  0.253096  1
  Pt  Pt22  1  0.685785  0.132456  0.749182  1
  Pt  Pt23  1  0.185850  0.367610  0.748432  1
  Pt  Pt24  1  0.547135  0.368289  0.250944  1
  Pt  Pt25  1  0.043941  0.126617  0.253133  1
  Pt  Pt26  1  0.953623  0.866352  0.749933  1
  Pt  Pt27  1  0.453883  0.633805  0.748717  1
  Pt  Pt28  1  0.827171  0.549829  0.541074  1
  Pt  Pt29  1  0.324474  0.955809  0.955693  1
  Pt  Pt30  1  0.691896  0.033366  0.453070  1
  Pt  Pt31  1  0.175940  0.456013  0.044707  1
  Pt  Pt32  1  0.169002  0.467263  0.452243  1
  Pt  Pt33  1  0.674959  0.044529  0.044560  1
  Pt  Pt34  1  0.321674  0.954356  0.540855  1
  Pt  Pt35  1  0.823956  0.543538  0.956096  1
