# generated using pymatgen
data_Ca2Y2Al15(SiIr2)3
_symmetry_space_group_name_H-M   'P 1'
_cell_length_a   7.53712800
_cell_length_b   7.53776972
_cell_length_c   9.40037553
_cell_angle_alpha   89.93249563
_cell_angle_beta   89.94974005
_cell_angle_gamma   119.74155852
_symmetry_Int_Tables_number   1
_chemical_formula_structural   Ca2Y2Al15(SiIr2)3
_chemical_formula_sum   'Ca2 Y2 Al15 Si3 Ir6'
_cell_volume   463.71249211
_cell_formula_units_Z   1
loop_
 _symmetry_equiv_pos_site_id
 _symmetry_equiv_pos_as_xyz
  1  'x, y, z'
loop_
 _atom_site_type_symbol
 _atom_site_label
 _atom_site_symmetry_multiplicity
 _atom_site_fract_x
 _atom_site_fract_y
 _atom_site_fract_z
 _atom_site_occupancy
  Ca  Ca0  1  0.994193  0.668466  0.248078  1
  Ca  Ca1  1  0.005037  0.325922  0.753280  1
  Y  Y2  1  0.680947  0.002995  0.247416  1
  Y  Y3  1  0.323897  0.003786  0.749866  1
  Al  Al4  1  0.997013  0.666795  0.923870  1
  Al  Al5  1  0.998599  0.663370  0.573753  1
  Al  Al6  1  0.334631  0.998938  0.423557  1
  Al  Al7  1  0.002287  0.337589  0.429899  1
  Al  Al8  1  0.664732  0.999681  0.575998  1
  Al  Al9  1  0.660585  0.994955  0.921820  1
  Al  Al10  1  0.334433  0.999275  0.076546  1
  Al  Al11  1  0.335743  0.335810  0.556026  1
  Al  Al12  1  0.665576  0.665347  0.444196  1
  Al  Al13  1  0.665007  0.665087  0.057222  1
  Al  Al14  1  0.337962  0.335598  0.943886  1
  Al  Al15  1  0.334644  0.547104  0.250167  1
  Al  Al16  1  0.664356  0.451014  0.750484  1
  Al  Al17  1  0.545391  0.334791  0.250002  1
  Al  Al18  1  0.451067  0.663643  0.749602  1
  Si  Si19  1  0.131998  0.129659  0.250599  1
  Si  Si20  1  0.870548  0.870505  0.749958  1
  Si  Si21  1  0.002626  0.338652  0.072408  1
  Ir  Ir22  1  0.676879  0.327320  0.001935  1
  Ir  Ir23  1  0.322533  0.664849  0.999970  1
  Ir  Ir24  1  0.330500  0.672242  0.499373  1
  Ir  Ir25  1  0.669606  0.327563  0.499132  1
  Ir  Ir26  1  0.999371  0.008281  0.001767  1
  Ir  Ir27  1  0.999841  0.000764  0.499192  1
