# generated using pymatgen
data_TbY3AlIr
_symmetry_space_group_name_H-M   'P 1'
_cell_length_a   9.58915209
_cell_length_b   9.58915033
_cell_length_c   9.58914886
_cell_angle_alpha   59.94176414
_cell_angle_beta   59.94160502
_cell_angle_gamma   59.94185425
_symmetry_Int_Tables_number   1
_chemical_formula_structural   TbY3AlIr
_chemical_formula_sum   'Tb4 Y12 Al4 Ir4'
_cell_volume   622.66027517
_cell_formula_units_Z   4
loop_
 _symmetry_equiv_pos_site_id
 _symmetry_equiv_pos_as_xyz
  1  'x, y, z'
loop_
 _atom_site_type_symbol
 _atom_site_label
 _atom_site_symmetry_multiplicity
 _atom_site_fract_x
 _atom_site_fract_y
 _atom_site_fract_z
 _atom_site_occupancy
  Tb  Tb0  1  0.351225  0.351225  0.351225  1
  Tb  Tb1  1  0.353667  0.353668  0.941913  1
  Tb  Tb2  1  0.353668  0.941912  0.353668  1
  Tb  Tb3  1  0.941913  0.353668  0.353668  1
  Y  Y4  1  0.805834  0.193482  0.193482  1
  Y  Y5  1  0.192575  0.806504  0.806504  1
  Y  Y6  1  0.193482  0.805834  0.193482  1
  Y  Y7  1  0.806504  0.192575  0.806504  1
  Y  Y8  1  0.193482  0.193482  0.805834  1
  Y  Y9  1  0.806504  0.806504  0.192575  1
  Y  Y10  1  0.938944  0.561434  0.561434  1
  Y  Y11  1  0.561730  0.939061  0.939062  1
  Y  Y12  1  0.561434  0.938944  0.561435  1
  Y  Y13  1  0.939062  0.561730  0.939062  1
  Y  Y14  1  0.561434  0.561434  0.938944  1
  Y  Y15  1  0.939062  0.939061  0.561730  1
  Al  Al16  1  0.578458  0.578457  0.578458  1
  Al  Al17  1  0.577714  0.577714  0.265838  1
  Al  Al18  1  0.577714  0.265838  0.577714  1
  Al  Al19  1  0.265838  0.577714  0.577714  1
  Ir  Ir20  1  0.142699  0.142700  0.142698  1
  Ir  Ir21  1  0.142063  0.142063  0.572930  1
  Ir  Ir22  1  0.142063  0.572930  0.142063  1
  Ir  Ir23  1  0.572929  0.142064  0.142064  1
