# generated using pymatgen
data_La4Al18ZnIr5
_symmetry_space_group_name_H-M   'P 1'
_cell_length_a   7.69073829
_cell_length_b   7.69074904
_cell_length_c   9.66171486
_cell_angle_alpha   89.86905314
_cell_angle_beta   89.86877233
_cell_angle_gamma   119.24682921
_symmetry_Int_Tables_number   1
_chemical_formula_structural   La4Al18ZnIr5
_chemical_formula_sum   'La4 Al18 Zn1 Ir5'
_cell_volume   498.61271680
_cell_formula_units_Z   1
loop_
 _symmetry_equiv_pos_site_id
 _symmetry_equiv_pos_as_xyz
  1  'x, y, z'
loop_
 _atom_site_type_symbol
 _atom_site_label
 _atom_site_symmetry_multiplicity
 _atom_site_fract_x
 _atom_site_fract_y
 _atom_site_fract_z
 _atom_site_occupancy
  La  La0  1  0.995980  0.675168  0.248732  1
  La  La1  1  0.004020  0.324832  0.751268  1
  La  La2  1  0.675167  0.995981  0.248733  1
  La  La3  1  0.324833  0.004019  0.751267  1
  Al  Al4  1  0.140428  0.140428  0.258914  1
  Al  Al5  1  0.859572  0.859572  0.741086  1
  Al  Al6  1  0.006087  0.346255  0.076976  1
  Al  Al7  1  0.993913  0.653745  0.923024  1
  Al  Al8  1  0.998197  0.663351  0.569613  1
  Al  Al9  1  0.336649  0.001803  0.430388  1
  Al  Al10  1  0.001803  0.336649  0.430387  1
  Al  Al11  1  0.663351  0.998197  0.569612  1
  Al  Al12  1  0.653746  0.993913  0.923024  1
  Al  Al13  1  0.346254  0.006087  0.076976  1
  Al  Al14  1  0.334300  0.334300  0.544486  1
  Al  Al15  1  0.665700  0.665700  0.455514  1
  Al  Al16  1  0.654539  0.654539  0.055252  1
  Al  Al17  1  0.345461  0.345461  0.944748  1
  Al  Al18  1  0.340308  0.548189  0.251735  1
  Al  Al19  1  0.659692  0.451811  0.748265  1
  Al  Al20  1  0.548189  0.340308  0.251735  1
  Al  Al21  1  0.451811  0.659692  0.748265  1
  Zn  Zn22  1  0.000000  0.000000  0.000000  1
  Ir  Ir23  1  0.670775  0.329222  0.000001  1
  Ir  Ir24  1  0.329225  0.670778  0.999999  1
  Ir  Ir25  1  0.329423  0.670577  0.500000  1
  Ir  Ir26  1  0.670577  0.329423  0.500000  1
  Ir  Ir27  1  0.000000  0.000000  0.500000  1
