# generated using pymatgen
data_DyLu5TcIr
_symmetry_space_group_name_H-M   'P 1'
_cell_length_a   6.20706454
_cell_length_b   7.30328912
_cell_length_c   8.92613000
_cell_angle_alpha   90.00000000
_cell_angle_beta   90.00000000
_cell_angle_gamma   90.27072561
_symmetry_Int_Tables_number   1
_chemical_formula_structural   DyLu5TcIr
_chemical_formula_sum   'Dy2 Lu10 Tc2 Ir2'
_cell_volume   404.63469183
_cell_formula_units_Z   2
loop_
 _symmetry_equiv_pos_site_id
 _symmetry_equiv_pos_as_xyz
  1  'x, y, z'
loop_
 _atom_site_type_symbol
 _atom_site_label
 _atom_site_symmetry_multiplicity
 _atom_site_fract_x
 _atom_site_fract_y
 _atom_site_fract_z
 _atom_site_occupancy
  Dy  Dy0  1  0.625279  0.038399  0.250000  1
  Dy  Dy1  1  0.368065  0.960325  0.750000  1
  Lu  Lu2  1  0.330364  0.674713  0.064802  1
  Lu  Lu3  1  0.166186  0.178093  0.434974  1
  Lu  Lu4  1  0.667704  0.325655  0.560248  1
  Lu  Lu5  1  0.835620  0.822009  0.939311  1
  Lu  Lu6  1  0.667704  0.325655  0.939752  1
  Lu  Lu7  1  0.835620  0.822009  0.560689  1
  Lu  Lu8  1  0.330364  0.674713  0.435198  1
  Lu  Lu9  1  0.166186  0.178093  0.065026  1
  Lu  Lu10  1  0.875073  0.539001  0.250000  1
  Lu  Lu11  1  0.132437  0.460135  0.750000  1
  Tc  Tc12  1  0.038986  0.884272  0.250000  1
  Tc  Tc13  1  0.463422  0.386368  0.250000  1
  Ir  Ir14  1  0.951881  0.118152  0.750000  1
  Ir  Ir15  1  0.545109  0.612405  0.750000  1
