# generated using pymatgen
data_Tm4Al4Ir2PtRh
_symmetry_space_group_name_H-M   'P 1'
_cell_length_a   4.26567200
_cell_length_b   6.77204021
_cell_length_c   7.86070900
_cell_angle_alpha   89.98734698
_cell_angle_beta   90.00000000
_cell_angle_gamma   90.00000000
_symmetry_Int_Tables_number   1
_chemical_formula_structural   Tm4Al4Ir2PtRh
_chemical_formula_sum   'Tm4 Al4 Ir2 Pt1 Rh1'
_cell_volume   227.07467195
_cell_formula_units_Z   1
loop_
 _symmetry_equiv_pos_site_id
 _symmetry_equiv_pos_as_xyz
  1  'x, y, z'
loop_
 _atom_site_type_symbol
 _atom_site_label
 _atom_site_symmetry_multiplicity
 _atom_site_fract_x
 _atom_site_fract_y
 _atom_site_fract_z
 _atom_site_occupancy
  Tm  Tm0  1  0.250000  0.028149  0.676895  1
  Tm  Tm1  1  0.250000  0.535508  0.819690  1
  Tm  Tm2  1  0.750000  0.967288  0.321285  1
  Tm  Tm3  1  0.750000  0.472131  0.180842  1
  Al  Al4  1  0.250000  0.138750  0.061964  1
  Al  Al5  1  0.250000  0.640126  0.438566  1
  Al  Al6  1  0.750000  0.856952  0.938978  1
  Al  Al7  1  0.750000  0.361614  0.559824  1
  Ir  Ir8  1  0.250000  0.765517  0.121024  1
  Ir  Ir9  1  0.750000  0.735583  0.621775  1
  Pt  Pt10  1  0.750000  0.233476  0.879055  1
  Rh  Rh11  1  0.250000  0.264904  0.380101  1
