# generated using pymatgen
data_CaSm(H5Rh)2
_symmetry_space_group_name_H-M   'P 1'
_cell_length_a   4.44829400
_cell_length_b   4.79253410
_cell_length_c   11.91724400
_cell_angle_alpha   92.92835390
_cell_angle_beta   90.00000000
_cell_angle_gamma   90.00000000
_symmetry_Int_Tables_number   1
_chemical_formula_structural   CaSm(H5Rh)2
_chemical_formula_sum   'Ca2 Sm2 H20 Rh4'
_cell_volume   253.72721539
_cell_formula_units_Z   2
loop_
 _symmetry_equiv_pos_site_id
 _symmetry_equiv_pos_as_xyz
  1  'x, y, z'
loop_
 _atom_site_type_symbol
 _atom_site_label
 _atom_site_symmetry_multiplicity
 _atom_site_fract_x
 _atom_site_fract_y
 _atom_site_fract_z
 _atom_site_occupancy
  Ca  Ca0  1  0.258339  0.841810  0.144430  1
  Ca  Ca1  1  0.758339  0.658190  0.855570  1
  Sm  Sm2  1  0.292970  0.165315  0.652264  1
  Sm  Sm3  1  0.792970  0.334685  0.347736  1
  H  H4  1  0.547646  0.380950  0.515343  1
  H  H5  1  0.047646  0.119050  0.484657  1
  H  H6  1  0.898913  0.630519  0.035315  1
  H  H7  1  0.398913  0.869481  0.964685  1
  H  H8  1  0.113410  0.982650  0.815686  1
  H  H9  1  0.613410  0.517350  0.184314  1
  H  H10  1  0.336729  0.086934  0.321865  1
  H  H11  1  0.836729  0.413066  0.678135  1
  H  H12  1  0.232548  0.451226  0.839560  1
  H  H13  1  0.732548  0.048774  0.160440  1
  H  H14  1  0.315079  0.569997  0.329403  1
  H  H15  1  0.815079  0.930003  0.670597  1
  H  H16  1  0.600179  0.142364  0.824766  1
  H  H17  1  0.100179  0.357636  0.175234  1
  H  H18  1  0.895361  0.830076  0.320791  1
  H  H19  1  0.395361  0.669924  0.679209  1
  H  H20  1  0.987387  0.109776  0.992410  1
  H  H21  1  0.487387  0.390224  0.007590  1
  H  H22  1  0.517171  0.878895  0.496068  1
  H  H23  1  0.017171  0.621105  0.503932  1
  Rh  Rh24  1  0.309455  0.163440  0.909346  1
  Rh  Rh25  1  0.809455  0.336560  0.090654  1
  Rh  Rh26  1  0.194813  0.851848  0.408811  1
  Rh  Rh27  1  0.694813  0.648152  0.591189  1
