# generated using pymatgen
data_HoTm3Co5Si10Ru
_symmetry_space_group_name_H-M   'P 1'
_cell_length_a   7.92171898
_cell_length_b   7.92082963
_cell_length_c   7.92659485
_cell_angle_alpha   139.32946622
_cell_angle_beta   106.49082588
_cell_angle_gamma   87.52943957
_symmetry_Int_Tables_number   1
_chemical_formula_structural   HoTm3Co5Si10Ru
_chemical_formula_sum   'Ho1 Tm3 Co5 Si10 Ru1'
_cell_volume   298.77203916
_cell_formula_units_Z   1
loop_
 _symmetry_equiv_pos_site_id
 _symmetry_equiv_pos_as_xyz
  1  'x, y, z'
loop_
 _atom_site_type_symbol
 _atom_site_label
 _atom_site_symmetry_multiplicity
 _atom_site_fract_x
 _atom_site_fract_y
 _atom_site_fract_z
 _atom_site_occupancy
  Ho  Ho0  1  0.403762  0.146497  0.278873  1
  Tm  Tm1  1  0.596044  0.875111  0.743092  1
  Tm  Tm2  1  0.132502  0.353277  0.757265  1
  Tm  Tm3  1  0.867876  0.624967  0.220715  1
  Co  Co4  1  0.999572  0.749719  0.749881  1
  Co  Co5  1  0.256792  0.845460  0.381262  1
  Co  Co6  1  0.536295  0.652356  0.909801  1
  Co  Co7  1  0.464003  0.375799  0.118598  1
  Co  Co8  1  0.743289  0.126396  0.590648  1
  Si  Si9  1  0.779373  0.029503  0.250262  1
  Si  Si10  1  0.227390  0.977370  0.749774  1
  Si  Si11  1  0.773929  0.523493  0.749896  1
  Si  Si12  1  0.935364  0.083736  0.818591  1
  Si  Si13  1  0.064039  0.883333  0.148617  1
  Si  Si14  1  0.499543  0.249146  0.750471  1
  Si  Si15  1  0.500553  0.750158  0.250629  1
  Si  Si16  1  0.734817  0.416239  0.351105  1
  Si  Si17  1  0.264813  0.616355  0.680775  1
  Si  Si18  1  0.220262  0.470802  0.249877  1
  Ru  Ru19  1  0.999782  0.250284  0.249868  1
