# generated using pymatgen
data_Pr12NdTh3(CdIr)4
_symmetry_space_group_name_H-M   'P 1'
_cell_length_a   10.03063936
_cell_length_b   10.06052371
_cell_length_c   10.04868200
_cell_angle_alpha   60.03892878
_cell_angle_beta   59.94047989
_cell_angle_gamma   59.97398413
_symmetry_Int_Tables_number   1
_chemical_formula_structural   Pr12NdTh3(CdIr)4
_chemical_formula_sum   'Pr12 Nd1 Th3 Cd4 Ir4'
_cell_volume   716.78619413
_cell_formula_units_Z   1
loop_
 _symmetry_equiv_pos_site_id
 _symmetry_equiv_pos_as_xyz
  1  'x, y, z'
loop_
 _atom_site_type_symbol
 _atom_site_label
 _atom_site_symmetry_multiplicity
 _atom_site_fract_x
 _atom_site_fract_y
 _atom_site_fract_z
 _atom_site_occupancy
  Pr  Pr0  1  0.950686  0.349594  0.349860  1
  Pr  Pr1  1  0.809745  0.190379  0.191409  1
  Pr  Pr2  1  0.190821  0.809376  0.808811  1
  Pr  Pr3  1  0.190821  0.809376  0.190992  1
  Pr  Pr4  1  0.809745  0.190379  0.808468  1
  Pr  Pr5  1  0.190898  0.190671  0.809215  1
  Pr  Pr6  1  0.809187  0.808779  0.191018  1
  Pr  Pr7  1  0.940678  0.561675  0.562321  1
  Pr  Pr8  1  0.560948  0.939764  0.937620  1
  Pr  Pr9  1  0.560948  0.939764  0.561669  1
  Pr  Pr10  1  0.940678  0.561675  0.935326  1
  Pr  Pr11  1  0.561028  0.561484  0.938744  1
  Nd  Nd12  1  0.939904  0.937121  0.561488  1
  Th  Th13  1  0.344788  0.346316  0.346227  1
  Th  Th14  1  0.344788  0.346316  0.962669  1
  Th  Th15  1  0.344772  0.961275  0.346976  1
  Cd  Cd16  1  0.578289  0.580635  0.580469  1
  Cd  Cd17  1  0.578289  0.580635  0.260606  1
  Cd  Cd18  1  0.578875  0.259761  0.580681  1
  Cd  Cd19  1  0.258227  0.580900  0.580436  1
  Ir  Ir20  1  0.151473  0.141457  0.142156  1
  Ir  Ir21  1  0.151473  0.141457  0.564912  1
  Ir  Ir22  1  0.151493  0.565270  0.141618  1
  Ir  Ir23  1  0.561443  0.145940  0.146308  1
