# generated using pymatgen
data_Ho2Sc3In4CuRh
_symmetry_space_group_name_H-M   'P 1'
_cell_length_a   3.51913200
_cell_length_b   7.79553395
_cell_length_c   17.71562967
_cell_angle_alpha   89.79403261
_cell_angle_beta   90.00000000
_cell_angle_gamma   90.00000000
_symmetry_Int_Tables_number   1
_chemical_formula_structural   Ho2Sc3In4CuRh
_chemical_formula_sum   'Ho4 Sc6 In8 Cu2 Rh2'
_cell_volume   485.99881627
_cell_formula_units_Z   2
loop_
 _symmetry_equiv_pos_site_id
 _symmetry_equiv_pos_as_xyz
  1  'x, y, z'
loop_
 _atom_site_type_symbol
 _atom_site_label
 _atom_site_symmetry_multiplicity
 _atom_site_fract_x
 _atom_site_fract_y
 _atom_site_fract_z
 _atom_site_occupancy
  Ho  Ho0  1  0.000000  0.739805  0.780790  1
  Ho  Ho1  1  0.000000  0.260195  0.219210  1
  Ho  Ho2  1  0.000000  0.256225  0.719519  1
  Ho  Ho3  1  0.000000  0.743775  0.280481  1
  Sc  Sc4  1  0.000000  0.000000  0.000000  1
  Sc  Sc5  1  0.000000  0.500000  0.500000  1
  Sc  Sc6  1  0.000000  0.875680  0.582247  1
  Sc  Sc7  1  0.000000  0.124320  0.417753  1
  Sc  Sc8  1  0.000000  0.375825  0.914985  1
  Sc  Sc9  1  0.000000  0.624175  0.085015  1
  In  In10  1  0.500000  0.799917  0.436818  1
  In  In11  1  0.500000  0.200083  0.563182  1
  In  In12  1  0.500000  0.299105  0.062844  1
  In  In13  1  0.500000  0.700895  0.937156  1
  In  In14  1  0.500000  0.927155  0.147870  1
  In  In15  1  0.500000  0.072845  0.852130  1
  In  In16  1  0.500000  0.424117  0.355164  1
  In  In17  1  0.500000  0.575883  0.644836  1
  Cu  Cu18  1  0.500000  0.962534  0.693057  1
  Cu  Cu19  1  0.500000  0.037466  0.306943  1
  Rh  Rh20  1  0.500000  0.459841  0.808190  1
  Rh  Rh21  1  0.500000  0.540159  0.191810  1
