# generated using pymatgen
data_Ca3La7(Ga2Sn)2
_symmetry_space_group_name_H-M   'P 1'
_cell_length_a   8.22205600
_cell_length_b   8.24067037
_cell_length_c   14.91435000
_cell_angle_alpha   90.01717343
_cell_angle_beta   90.00000000
_cell_angle_gamma   90.00000000
_symmetry_Int_Tables_number   1
_chemical_formula_structural   Ca3La7(Ga2Sn)2
_chemical_formula_sum   'Ca6 La14 Ga8 Sn4'
_cell_volume   1010.52551608
_cell_formula_units_Z   2
loop_
 _symmetry_equiv_pos_site_id
 _symmetry_equiv_pos_as_xyz
  1  'x, y, z'
loop_
 _atom_site_type_symbol
 _atom_site_label
 _atom_site_symmetry_multiplicity
 _atom_site_fract_x
 _atom_site_fract_y
 _atom_site_fract_z
 _atom_site_occupancy
  Ca  Ca0  1  0.829678  0.837488  0.609983  1
  Ca  Ca1  1  0.170322  0.837488  0.109983  1
  Ca  Ca2  1  0.997737  0.503084  0.740825  1
  Ca  Ca3  1  0.002263  0.503084  0.240825  1
  Ca  Ca4  1  0.498312  0.998914  0.254925  1
  Ca  Ca5  1  0.501688  0.998914  0.754925  1
  La  La6  1  0.169259  0.823227  0.390403  1
  La  La7  1  0.831216  0.174882  0.391936  1
  La  La8  1  0.672823  0.666279  0.393370  1
  La  La9  1  0.670153  0.323608  0.605857  1
  La  La10  1  0.332433  0.674945  0.606537  1
  La  La11  1  0.667567  0.674945  0.106537  1
  La  La12  1  0.672739  0.330797  0.895609  1
  La  La13  1  0.830741  0.823227  0.890403  1
  La  La14  1  0.327261  0.330797  0.395609  1
  La  La15  1  0.176078  0.170506  0.607142  1
  La  La16  1  0.823922  0.170506  0.107142  1
  La  La17  1  0.327177  0.666279  0.893370  1
  La  La18  1  0.329847  0.323608  0.105857  1
  La  La19  1  0.168784  0.174882  0.891936  1
  Ga  Ga20  1  0.617843  0.380656  0.249104  1
  Ga  Ga21  1  0.122669  0.881795  0.750855  1
  Ga  Ga22  1  0.382157  0.380656  0.749104  1
  Ga  Ga23  1  0.384233  0.614970  0.252729  1
  Ga  Ga24  1  0.877331  0.881795  0.250855  1
  Ga  Ga25  1  0.615767  0.614970  0.752729  1
  Ga  Ga26  1  0.881774  0.121738  0.750777  1
  Ga  Ga27  1  0.118226  0.121738  0.250777  1
  Sn  Sn28  1  0.997987  0.501238  0.503810  1
  Sn  Sn29  1  0.500924  0.995872  0.496136  1
  Sn  Sn30  1  0.499076  0.995872  0.996136  1
  Sn  Sn31  1  0.002013  0.501238  0.003810  1
