# generated using pymatgen
data_Lu16Ni3Ag4Ir
_symmetry_space_group_name_H-M   'P 1'
_cell_length_a   9.27606992
_cell_length_b   9.27606994
_cell_length_c   9.27607073
_cell_angle_alpha   59.78388364
_cell_angle_beta   59.78388184
_cell_angle_gamma   59.78388068
_symmetry_Int_Tables_number   1
_chemical_formula_structural   Lu16Ni3Ag4Ir
_chemical_formula_sum   'Lu16 Ni3 Ag4 Ir1'
_cell_volume   561.61790915
_cell_formula_units_Z   1
loop_
 _symmetry_equiv_pos_site_id
 _symmetry_equiv_pos_as_xyz
  1  'x, y, z'
loop_
 _atom_site_type_symbol
 _atom_site_label
 _atom_site_symmetry_multiplicity
 _atom_site_fract_x
 _atom_site_fract_y
 _atom_site_fract_z
 _atom_site_occupancy
  Lu  Lu0  1  0.348841  0.348841  0.348841  1
  Lu  Lu1  1  0.355468  0.355468  0.943980  1
  Lu  Lu2  1  0.355468  0.943980  0.355468  1
  Lu  Lu3  1  0.943980  0.355468  0.355468  1
  Lu  Lu4  1  0.808608  0.188309  0.188309  1
  Lu  Lu5  1  0.188275  0.811380  0.811380  1
  Lu  Lu6  1  0.188309  0.808608  0.188309  1
  Lu  Lu7  1  0.811380  0.188275  0.811380  1
  Lu  Lu8  1  0.188309  0.188309  0.808608  1
  Lu  Lu9  1  0.811380  0.811380  0.188275  1
  Lu  Lu10  1  0.935246  0.565635  0.565635  1
  Lu  Lu11  1  0.560908  0.937281  0.937281  1
  Lu  Lu12  1  0.565635  0.935246  0.565635  1
  Lu  Lu13  1  0.937281  0.560908  0.937281  1
  Lu  Lu14  1  0.565635  0.565635  0.935246  1
  Lu  Lu15  1  0.937281  0.937281  0.560908  1
  Ni  Ni16  1  0.141807  0.141807  0.570951  1
  Ni  Ni17  1  0.141807  0.570951  0.141807  1
  Ni  Ni18  1  0.570951  0.141807  0.141807  1
  Ag  Ag19  1  0.583052  0.583052  0.583052  1
  Ag  Ag20  1  0.581776  0.581776  0.252533  1
  Ag  Ag21  1  0.581776  0.252533  0.581776  1
  Ag  Ag22  1  0.252533  0.581776  0.581776  1
  Ir  Ir23  1  0.144292  0.144292  0.144292  1
