# generated using pymatgen
data_K4Sn(GeS3)2
_symmetry_space_group_name_H-M   'P 1'
_cell_length_a   7.46172615
_cell_length_b   7.46172562
_cell_length_c   8.11789777
_cell_angle_alpha   82.46987192
_cell_angle_beta   82.46987104
_cell_angle_gamma   118.60589642
_symmetry_Int_Tables_number   1
_chemical_formula_structural   K4Sn(GeS3)2
_chemical_formula_sum   'K4 Sn1 Ge2 S6'
_cell_volume   383.51395431
_cell_formula_units_Z   1
loop_
 _symmetry_equiv_pos_site_id
 _symmetry_equiv_pos_as_xyz
  1  'x, y, z'
loop_
 _atom_site_type_symbol
 _atom_site_label
 _atom_site_symmetry_multiplicity
 _atom_site_fract_x
 _atom_site_fract_y
 _atom_site_fract_z
 _atom_site_occupancy
  K  K0  1  0.513496  0.486504  0.000000  1
  K  K1  1  0.669285  0.330715  0.500000  1
  K  K2  1  0.330549  0.669451  0.500000  1
  K  K3  1  0.187292  0.812708  0.000000  1
  Sn  Sn4  1  0.843570  0.156430  0.000000  1
  Ge  Ge5  1  0.057085  0.063633  0.342467  1
  Ge  Ge6  1  0.936367  0.942915  0.657533  1
  S  S7  1  0.080140  0.371615  0.242059  1
  S  S8  1  0.359597  0.074856  0.270803  1
  S  S9  1  0.925144  0.640403  0.729197  1
  S  S10  1  0.628385  0.919860  0.757941  1
  S  S11  1  0.802148  0.833059  0.223605  1
  S  S12  1  0.166941  0.197852  0.776395  1
