# generated using pymatgen
data_CdSeBr18
_symmetry_space_group_name_H-M   'P 1'
_cell_length_a   9.37186343
_cell_length_b   9.31980407
_cell_length_c   9.35950026
_cell_angle_alpha   88.76517916
_cell_angle_beta   88.83139052
_cell_angle_gamma   88.94495536
_symmetry_Int_Tables_number   1
_chemical_formula_structural   CdSeBr18
_chemical_formula_sum   'Cd1 Se1 Br18'
_cell_volume   817.00359073
_cell_formula_units_Z   1
loop_
 _symmetry_equiv_pos_site_id
 _symmetry_equiv_pos_as_xyz
  1  'x, y, z'
loop_
 _atom_site_type_symbol
 _atom_site_label
 _atom_site_symmetry_multiplicity
 _atom_site_fract_x
 _atom_site_fract_y
 _atom_site_fract_z
 _atom_site_occupancy
  Cd  Cd0  1  0.000000  0.000000  0.000000  1
  Se  Se1  1  0.500000  0.500000  0.500000  1
  Br  Br2  1  0.778726  0.464787  0.521313  1
  Br  Br3  1  0.522899  0.780544  0.463619  1
  Br  Br4  1  0.465839  0.522900  0.779100  1
  Br  Br5  1  0.221274  0.535213  0.478687  1
  Br  Br6  1  0.477101  0.219456  0.536381  1
  Br  Br7  1  0.534161  0.477100  0.220900  1
  Br  Br8  1  0.894259  0.376655  0.765515  1
  Br  Br9  1  0.767299  0.895301  0.375434  1
  Br  Br10  1  0.375793  0.767197  0.894541  1
  Br  Br11  1  0.105741  0.623345  0.234485  1
  Br  Br12  1  0.232701  0.104699  0.624566  1
  Br  Br13  1  0.624207  0.232803  0.105459  1
  Br  Br14  1  0.020786  0.965535  0.701236  1
  Br  Br15  1  0.701322  0.021451  0.965702  1
  Br  Br16  1  0.966426  0.699506  0.023055  1
  Br  Br17  1  0.979214  0.034465  0.298764  1
  Br  Br18  1  0.298678  0.978549  0.034298  1
  Br  Br19  1  0.033574  0.300494  0.976945  1
