# generated using pymatgen
data_ReTcSe4
_symmetry_space_group_name_H-M   'P 1'
_cell_length_a   6.66855156
_cell_length_b   6.78328392
_cell_length_c   7.34380738
_cell_angle_alpha   92.02954304
_cell_angle_beta   103.81628123
_cell_angle_gamma   118.79720315
_symmetry_Int_Tables_number   1
_chemical_formula_structural   ReTcSe4
_chemical_formula_sum   'Re2 Tc2 Se8'
_cell_volume   278.23615941
_cell_formula_units_Z   2
loop_
 _symmetry_equiv_pos_site_id
 _symmetry_equiv_pos_as_xyz
  1  'x, y, z'
loop_
 _atom_site_type_symbol
 _atom_site_label
 _atom_site_symmetry_multiplicity
 _atom_site_fract_x
 _atom_site_fract_y
 _atom_site_fract_z
 _atom_site_occupancy
  Re  Re0  1  0.488065  0.291380  0.497361  1
  Re  Re1  1  0.511935  0.708620  0.502639  1
  Tc  Tc2  1  0.064401  0.315601  0.491360  1
  Tc  Tc3  1  0.935599  0.684399  0.508640  1
  Se  Se4  1  0.258181  0.385467  0.231427  1
  Se  Se5  1  0.741819  0.614533  0.768573  1
  Se  Se6  1  0.728906  0.343532  0.262743  1
  Se  Se7  1  0.271094  0.656468  0.737257  1
  Se  Se8  1  0.220906  0.106579  0.703266  1
  Se  Se9  1  0.779094  0.893421  0.296734  1
  Se  Se10  1  0.751192  0.134291  0.679540  1
  Se  Se11  1  0.248808  0.865709  0.320460  1
