# generated using pymatgen
data_Sn4Sb7TePt6
_symmetry_space_group_name_H-M   'P 1'
_cell_length_a   4.02736400
_cell_length_b   8.50882014
_cell_length_c   12.96170180
_cell_angle_alpha   98.17707829
_cell_angle_beta   90.00000000
_cell_angle_gamma   90.00000000
_symmetry_Int_Tables_number   1
_chemical_formula_structural   Sn4Sb7TePt6
_chemical_formula_sum   'Sn4 Sb7 Te1 Pt6'
_cell_volume   439.65728583
_cell_formula_units_Z   1
loop_
 _symmetry_equiv_pos_site_id
 _symmetry_equiv_pos_as_xyz
  1  'x, y, z'
loop_
 _atom_site_type_symbol
 _atom_site_label
 _atom_site_symmetry_multiplicity
 _atom_site_fract_x
 _atom_site_fract_y
 _atom_site_fract_z
 _atom_site_occupancy
  Sn  Sn0  1  0.500000  0.327596  0.805069  1
  Sn  Sn1  1  0.500000  0.991775  0.142139  1
  Sn  Sn2  1  0.500000  0.662457  0.476932  1
  Sn  Sn3  1  0.500000  0.676006  0.192957  1
  Sb  Sb4  1  0.500000  0.342268  0.523998  1
  Sb  Sb5  1  0.500000  0.008539  0.857278  1
  Sb  Sb6  1  0.000000  0.979884  0.385477  1
  Sb  Sb7  1  0.000000  0.646583  0.719409  1
  Sb  Sb8  1  0.000000  0.683831  0.947010  1
  Sb  Sb9  1  0.000000  0.352443  0.285274  1
  Sb  Sb10  1  0.000000  0.015517  0.613040  1
  Te  Te11  1  0.000000  0.315492  0.055025  1
  Pt  Pt12  1  0.500000  0.832210  0.669193  1
  Pt  Pt13  1  0.500000  0.502225  0.998972  1
  Pt  Pt14  1  0.500000  0.167475  0.333763  1
  Pt  Pt15  1  0.000000  0.330918  0.664019  1
  Pt  Pt16  1  0.000000  0.999812  0.996774  1
  Pt  Pt17  1  0.000000  0.664965  0.333674  1
