# generated using pymatgen
data_Hf8Fe5Si14Ni3
_symmetry_space_group_name_H-M   'P 1'
_cell_length_a   9.46639559
_cell_length_b   9.46506006
_cell_length_c   9.45630205
_cell_angle_alpha   94.12845018
_cell_angle_beta   94.15739820
_cell_angle_gamma   148.81732079
_symmetry_Int_Tables_number   1
_chemical_formula_structural   Hf8Fe5Si14Ni3
_chemical_formula_sum   'Hf8 Fe5 Si14 Ni3'
_cell_volume   422.55225809
_cell_formula_units_Z   1
loop_
 _symmetry_equiv_pos_site_id
 _symmetry_equiv_pos_as_xyz
  1  'x, y, z'
loop_
 _atom_site_type_symbol
 _atom_site_label
 _atom_site_symmetry_multiplicity
 _atom_site_fract_x
 _atom_site_fract_y
 _atom_site_fract_z
 _atom_site_occupancy
  Hf  Hf0  1  0.136540  0.136312  0.276496  1
  Hf  Hf1  1  0.863710  0.863468  0.723486  1
  Hf  Hf2  1  0.862283  0.137813  0.000011  1
  Hf  Hf3  1  0.138062  0.861929  0.000004  1
  Hf  Hf4  1  0.504614  0.307896  0.802614  1
  Hf  Hf5  1  0.504616  0.699938  0.195808  1
  Hf  Hf6  1  0.692159  0.495423  0.197365  1
  Hf  Hf7  1  0.300059  0.495361  0.804171  1
  Fe  Fe8  1  0.401660  0.904076  0.801274  1
  Fe  Fe9  1  0.096040  0.598471  0.198730  1
  Fe  Fe10  1  0.096464  0.903505  0.499978  1
  Fe  Fe11  1  0.400437  0.599044  0.500009  1
  Fe  Fe12  1  0.607802  0.392367  0.500033  1
  Si  Si13  1  0.473283  0.067786  0.587518  1
  Si  Si14  1  0.463712  0.871546  0.407545  1
  Si  Si15  1  0.932228  0.526740  0.412481  1
  Si  Si16  1  0.128405  0.536201  0.592430  1
  Si  Si17  1  0.749657  0.749217  0.999864  1
  Si  Si18  1  0.250802  0.250360  0.000116  1
  Si  Si19  1  0.299697  0.297986  0.580587  1
  Si  Si20  1  0.701977  0.700218  0.419392  1
  Si  Si21  1  0.709240  0.290815  0.000024  1
  Si  Si22  1  0.290712  0.709432  0.000023  1
  Si  Si23  1  0.013654  0.312704  0.298816  1
  Si  Si24  1  0.009699  0.711668  0.698832  1
  Si  Si25  1  0.687313  0.986331  0.701165  1
  Si  Si26  1  0.288338  0.990315  0.301148  1
  Ni  Ni27  1  0.894715  0.105016  0.499945  1
  Ni  Ni28  1  0.897098  0.395028  0.789396  1
  Ni  Ni29  1  0.605026  0.103035  0.210738  1
