# generated using pymatgen
data_La20Ge8RuRh3
_symmetry_space_group_name_H-M   'P 1'
_cell_length_a   8.17987926
_cell_length_b   9.01159800
_cell_length_c   12.62829049
_cell_angle_alpha   90.00000000
_cell_angle_beta   89.91480903
_cell_angle_gamma   90.00000000
_symmetry_Int_Tables_number   1
_chemical_formula_structural   La20Ge8RuRh3
_chemical_formula_sum   'La20 Ge8 Ru1 Rh3'
_cell_volume   930.87804322
_cell_formula_units_Z   1
loop_
 _symmetry_equiv_pos_site_id
 _symmetry_equiv_pos_as_xyz
  1  'x, y, z'
loop_
 _atom_site_type_symbol
 _atom_site_label
 _atom_site_symmetry_multiplicity
 _atom_site_fract_x
 _atom_site_fract_y
 _atom_site_fract_z
 _atom_site_occupancy
  La  La0  1  0.680142  0.468613  0.073187  1
  La  La1  1  0.181458  0.533645  0.426196  1
  La  La2  1  0.319457  0.965654  0.926850  1
  La  La3  1  0.818594  0.033591  0.573761  1
  La  La4  1  0.319457  0.534346  0.926850  1
  La  La5  1  0.818594  0.466409  0.573761  1
  La  La6  1  0.680142  0.031387  0.073187  1
  La  La7  1  0.181458  0.966355  0.426196  1
  La  La8  1  0.956576  0.750000  0.000251  1
  La  La9  1  0.458113  0.250000  0.499613  1
  La  La10  1  0.042177  0.250000  0.999625  1
  La  La11  1  0.542146  0.750000  0.500534  1
  La  La12  1  0.356746  0.750000  0.204032  1
  La  La13  1  0.854579  0.250000  0.294697  1
  La  La14  1  0.645371  0.250000  0.794679  1
  La  La15  1  0.144955  0.750000  0.705103  1
  La  La16  1  0.833282  0.750000  0.283968  1
  La  La17  1  0.333422  0.250000  0.215856  1
  La  La18  1  0.166215  0.250000  0.715616  1
  La  La19  1  0.665637  0.750000  0.785710  1
  Ge  Ge20  1  0.562543  0.495236  0.329074  1
  Ge  Ge21  1  0.062622  0.504647  0.171089  1
  Ge  Ge22  1  0.437308  0.995352  0.671106  1
  Ge  Ge23  1  0.937597  0.004912  0.828853  1
  Ge  Ge24  1  0.437308  0.504648  0.671106  1
  Ge  Ge25  1  0.937597  0.495088  0.828853  1
  Ge  Ge26  1  0.562543  0.004764  0.329074  1
  Ge  Ge27  1  0.062622  0.995353  0.171089  1
  Ru  Ru28  1  0.579804  0.750000  0.016524  1
  Rh  Rh29  1  0.078280  0.250000  0.483703  1
  Rh  Rh30  1  0.421405  0.250000  0.983527  1
  Rh  Rh31  1  0.921852  0.750000  0.516330  1
