# generated using pymatgen
data_La2ErThCdIr
_symmetry_space_group_name_H-M   'P 1'
_cell_length_a   9.96993432
_cell_length_b   9.96993400
_cell_length_c   9.94404800
_cell_angle_alpha   60.08585794
_cell_angle_beta   60.08585902
_cell_angle_gamma   59.82829065
_symmetry_Int_Tables_number   1
_chemical_formula_structural   La2ErThCdIr
_chemical_formula_sum   'La8 Er4 Th4 Cd4 Ir4'
_cell_volume   698.91921198
_cell_formula_units_Z   4
loop_
 _symmetry_equiv_pos_site_id
 _symmetry_equiv_pos_as_xyz
  1  'x, y, z'
loop_
 _atom_site_type_symbol
 _atom_site_label
 _atom_site_symmetry_multiplicity
 _atom_site_fract_x
 _atom_site_fract_y
 _atom_site_fract_z
 _atom_site_occupancy
  La  La0  1  0.432957  0.432957  0.067043  1
  La  La1  1  0.067043  0.067043  0.432957  1
  La  La2  1  0.192158  0.807842  0.807842  1
  La  La3  1  0.807842  0.192158  0.192158  1
  La  La4  1  0.807842  0.192158  0.807842  1
  La  La5  1  0.192158  0.807842  0.192158  1
  La  La6  1  0.811119  0.811119  0.188881  1
  La  La7  1  0.188881  0.188881  0.811119  1
  Er  Er8  1  0.061751  0.438249  0.438249  1
  Er  Er9  1  0.438249  0.061751  0.061751  1
  Er  Er10  1  0.438249  0.061751  0.438249  1
  Er  Er11  1  0.061751  0.438249  0.061751  1
  Th  Th12  1  0.599449  0.599449  0.593585  1
  Th  Th13  1  0.599449  0.599449  0.207517  1
  Th  Th14  1  0.593585  0.207517  0.599449  1
  Th  Th15  1  0.207517  0.593585  0.599449  1
  Cd  Cd16  1  0.827870  0.827870  0.831038  1
  Cd  Cd17  1  0.827870  0.827870  0.513220  1
  Cd  Cd18  1  0.831038  0.513220  0.827870  1
  Cd  Cd19  1  0.513220  0.831038  0.827870  1
  Ir  Ir20  1  0.391951  0.391951  0.397558  1
  Ir  Ir21  1  0.391951  0.391951  0.818539  1
  Ir  Ir22  1  0.397558  0.818539  0.391951  1
  Ir  Ir23  1  0.818539  0.397558  0.391951  1
