# generated using pymatgen
data_Li4CaNd3Pd4
_symmetry_space_group_name_H-M   'P 1'
_cell_length_a   4.14633900
_cell_length_b   7.33165955
_cell_length_c   8.55905514
_cell_angle_alpha   89.82062785
_cell_angle_beta   90.00000000
_cell_angle_gamma   90.00000000
_symmetry_Int_Tables_number   1
_chemical_formula_structural   Li4CaNd3Pd4
_chemical_formula_sum   'Li4 Ca1 Nd3 Pd4'
_cell_volume   260.19011479
_cell_formula_units_Z   1
loop_
 _symmetry_equiv_pos_site_id
 _symmetry_equiv_pos_as_xyz
  1  'x, y, z'
loop_
 _atom_site_type_symbol
 _atom_site_label
 _atom_site_symmetry_multiplicity
 _atom_site_fract_x
 _atom_site_fract_y
 _atom_site_fract_z
 _atom_site_occupancy
  Li  Li0  1  0.750000  0.875259  0.438574  1
  Li  Li1  1  0.250000  0.132079  0.555602  1
  Li  Li2  1  0.250000  0.628121  0.945765  1
  Li  Li3  1  0.750000  0.362679  0.059161  1
  Ca  Ca4  1  0.250000  0.038181  0.183814  1
  Nd  Nd5  1  0.750000  0.463496  0.684998  1
  Nd  Nd6  1  0.750000  0.958552  0.818294  1
  Nd  Nd7  1  0.250000  0.541213  0.316128  1
  Pd  Pd8  1  0.750000  0.737430  0.118910  1
  Pd  Pd9  1  0.250000  0.252810  0.873755  1
  Pd  Pd10  1  0.750000  0.254301  0.385642  1
  Pd  Pd11  1  0.250000  0.755880  0.619356  1
