# generated using pymatgen
data_Dy3Y(TiAl3)2
_symmetry_space_group_name_H-M   'P 1'
_cell_length_a   9.53153626
_cell_length_b   9.53153582
_cell_length_c   9.53153645
_cell_angle_alpha   34.76490827
_cell_angle_beta   34.76491078
_cell_angle_gamma   34.76491696
_symmetry_Int_Tables_number   1
_chemical_formula_structural   Dy3Y(TiAl3)2
_chemical_formula_sum   'Dy3 Y1 Ti2 Al6'
_cell_volume   251.29206149
_cell_formula_units_Z   1
loop_
 _symmetry_equiv_pos_site_id
 _symmetry_equiv_pos_as_xyz
  1  'x, y, z'
loop_
 _atom_site_type_symbol
 _atom_site_label
 _atom_site_symmetry_multiplicity
 _atom_site_fract_x
 _atom_site_fract_y
 _atom_site_fract_z
 _atom_site_occupancy
  Dy  Dy0  1  0.313201  0.313201  0.313201  1
  Dy  Dy1  1  0.686672  0.686672  0.686672  1
  Dy  Dy2  1  0.186847  0.186847  0.186847  1
  Y  Y3  1  0.813260  0.813260  0.813260  1
  Ti  Ti4  1  0.500049  0.500049  0.500049  1
  Ti  Ti5  1  0.999989  0.999989  0.999989  1
  Al  Al6  1  0.249971  0.249971  0.749993  1
  Al  Al7  1  0.750065  0.750065  0.249917  1
  Al  Al8  1  0.249971  0.749993  0.249971  1
  Al  Al9  1  0.750065  0.249917  0.750065  1
  Al  Al10  1  0.749993  0.249971  0.249971  1
  Al  Al11  1  0.249917  0.750065  0.750065  1
