# generated using pymatgen
data_Nd3Dy3(AuO7)2
_symmetry_space_group_name_H-M   'P 1'
_cell_length_a   6.58827030
_cell_length_b   6.59529709
_cell_length_c   7.59384600
_cell_angle_alpha   90.00000000
_cell_angle_beta   90.00000000
_cell_angle_gamma   108.84183853
_symmetry_Int_Tables_number   1
_chemical_formula_structural   Nd3Dy3(AuO7)2
_chemical_formula_sum   'Nd3 Dy3 Au2 O14'
_cell_volume   312.28316255
_cell_formula_units_Z   1
loop_
 _symmetry_equiv_pos_site_id
 _symmetry_equiv_pos_as_xyz
  1  'x, y, z'
loop_
 _atom_site_type_symbol
 _atom_site_label
 _atom_site_symmetry_multiplicity
 _atom_site_fract_x
 _atom_site_fract_y
 _atom_site_fract_z
 _atom_site_occupancy
  Nd  Nd0  1  0.506772  0.506011  0.501670  1
  Nd  Nd1  1  0.506772  0.506011  0.998330  1
  Nd  Nd2  1  0.470267  0.004054  0.250000  1
  Dy  Dy3  1  0.000650  0.527534  0.250000  1
  Dy  Dy4  1  0.003579  0.470206  0.750000  1
  Dy  Dy5  1  0.526526  0.999950  0.750000  1
  Au  Au6  1  0.998811  0.998761  0.502112  1
  Au  Au7  1  0.998811  0.998761  0.997888  1
  O  O8  1  0.924910  0.078913  0.750000  1
  O  O9  1  0.067055  0.917948  0.250000  1
  O  O10  1  0.356393  0.633644  0.250000  1
  O  O11  1  0.646651  0.356696  0.750000  1
  O  O12  1  0.363193  0.638285  0.750000  1
  O  O13  1  0.643405  0.374963  0.250000  1
  O  O14  1  0.324245  0.080302  0.970011  1
  O  O15  1  0.672009  0.916869  0.483188  1
  O  O16  1  0.324245  0.080302  0.529989  1
  O  O17  1  0.672009  0.916869  0.016812  1
  O  O18  1  0.067445  0.324273  0.476198  1
  O  O19  1  0.929403  0.672689  0.974378  1
  O  O20  1  0.929403  0.672689  0.525622  1
  O  O21  1  0.067445  0.324273  0.023802  1
