# generated using pymatgen
data_Sc5(SeS2)2
_symmetry_space_group_name_H-M   'P 1'
_cell_length_a   6.45963496
_cell_length_b   6.49188170
_cell_length_c   6.49761027
_cell_angle_alpha   110.22054854
_cell_angle_beta   100.08520228
_cell_angle_gamma   59.74552842
_symmetry_Int_Tables_number   1
_chemical_formula_structural   Sc5(SeS2)2
_chemical_formula_sum   'Sc5 Se2 S4'
_cell_volume   220.85992223
_cell_formula_units_Z   1
loop_
 _symmetry_equiv_pos_site_id
 _symmetry_equiv_pos_as_xyz
  1  'x, y, z'
loop_
 _atom_site_type_symbol
 _atom_site_label
 _atom_site_symmetry_multiplicity
 _atom_site_fract_x
 _atom_site_fract_y
 _atom_site_fract_z
 _atom_site_occupancy
  Sc  Sc0  1  0.536405  0.908097  0.992027  1
  Sc  Sc1  1  0.890677  0.738388  0.474648  1
  Sc  Sc2  1  0.890801  0.233953  0.990945  1
  Sc  Sc3  1  0.213854  0.589100  0.996116  1
  Sc  Sc4  1  0.535555  0.417496  0.474415  1
  Se  Se5  1  0.888600  0.481701  0.728482  1
  Se  Se6  1  0.540080  0.156822  0.729906  1
  S  S7  1  0.552468  0.656318  0.234225  1
  S  S8  1  0.213740  0.328498  0.233367  1
  S  S9  1  0.213283  0.824060  0.735759  1
  S  S10  1  0.872731  0.995524  0.232601  1
