# generated using pymatgen
data_Pr9NdAlSi4Ge
_symmetry_space_group_name_H-M   'P 1'
_cell_length_a   7.86161600
_cell_length_b   9.14240160
_cell_length_c   7.86161600
_cell_angle_alpha   115.46461913
_cell_angle_beta   90.00000000
_cell_angle_gamma   115.46461913
_symmetry_Int_Tables_number   1
_chemical_formula_structural   Pr9NdAlSi4Ge
_chemical_formula_sum   'Pr9 Nd1 Al1 Si4 Ge1'
_cell_volume   448.59105594
_cell_formula_units_Z   1
loop_
 _symmetry_equiv_pos_site_id
 _symmetry_equiv_pos_as_xyz
  1  'x, y, z'
loop_
 _atom_site_type_symbol
 _atom_site_label
 _atom_site_symmetry_multiplicity
 _atom_site_fract_x
 _atom_site_fract_y
 _atom_site_fract_z
 _atom_site_occupancy
  Pr  Pr0  1  0.523180  0.046361  0.523180  1
  Pr  Pr1  1  0.526653  0.717026  0.673630  1
  Pr  Pr2  1  0.190375  0.717026  0.043398  1
  Pr  Pr3  1  0.673630  0.717026  0.190375  1
  Pr  Pr4  1  0.043398  0.717026  0.526653  1
  Pr  Pr5  1  0.456195  0.282944  0.309151  1
  Pr  Pr6  1  0.826747  0.282944  0.973791  1
  Pr  Pr7  1  0.309151  0.282944  0.826747  1
  Pr  Pr8  1  0.973791  0.282944  0.456195  1
  Nd  Nd9  1  0.977303  0.954607  0.977303  1
  Al  Al10  1  0.750527  0.501054  0.750527  1
  Si  Si11  1  0.885911  0.999631  0.614956  1
  Si  Si12  1  0.113720  0.999631  0.384674  1
  Si  Si13  1  0.614956  0.999631  0.113720  1
  Si  Si14  1  0.384674  0.999631  0.885911  1
  Ge  Ge15  1  0.249789  0.499578  0.249789  1
