# generated using pymatgen
data_Zr4Ti3MoP4
_symmetry_space_group_name_H-M   'P 1'
_cell_length_a   3.55055200
_cell_length_b   6.79815481
_cell_length_c   8.18614665
_cell_angle_alpha   90.14004303
_cell_angle_beta   90.00000000
_cell_angle_gamma   90.00000000
_symmetry_Int_Tables_number   1
_chemical_formula_structural   Zr4Ti3MoP4
_chemical_formula_sum   'Zr4 Ti3 Mo1 P4'
_cell_volume   197.59008638
_cell_formula_units_Z   1
loop_
 _symmetry_equiv_pos_site_id
 _symmetry_equiv_pos_as_xyz
  1  'x, y, z'
loop_
 _atom_site_type_symbol
 _atom_site_label
 _atom_site_symmetry_multiplicity
 _atom_site_fract_x
 _atom_site_fract_y
 _atom_site_fract_z
 _atom_site_occupancy
  Zr  Zr0  1  0.250000  0.035900  0.829636  1
  Zr  Zr1  1  0.750000  0.964832  0.169007  1
  Zr  Zr2  1  0.250000  0.535681  0.669321  1
  Zr  Zr3  1  0.750000  0.459489  0.331015  1
  Ti  Ti4  1  0.750000  0.364603  0.938906  1
  Ti  Ti5  1  0.250000  0.634123  0.061186  1
  Ti  Ti6  1  0.750000  0.868975  0.558606  1
  Mo  Mo7  1  0.250000  0.136168  0.441460  1
  P  P8  1  0.250000  0.761419  0.360750  1
  P  P9  1  0.750000  0.238623  0.641260  1
  P  P10  1  0.250000  0.261720  0.136196  1
  P  P11  1  0.750000  0.738466  0.862659  1
