# generated using pymatgen
data_Sm11Ho(SiBr3)4
_symmetry_space_group_name_H-M   'P 1'
_cell_length_a   10.27746417
_cell_length_b   10.27769441
_cell_length_c   10.28159930
_cell_angle_alpha   109.49544558
_cell_angle_beta   109.49588489
_cell_angle_gamma   109.45148605
_symmetry_Int_Tables_number   1
_chemical_formula_structural   Sm11Ho(SiBr3)4
_chemical_formula_sum   'Sm11 Ho1 Si4 Br12'
_cell_volume   835.72622483
_cell_formula_units_Z   1
loop_
 _symmetry_equiv_pos_site_id
 _symmetry_equiv_pos_as_xyz
  1  'x, y, z'
loop_
 _atom_site_type_symbol
 _atom_site_label
 _atom_site_symmetry_multiplicity
 _atom_site_fract_x
 _atom_site_fract_y
 _atom_site_fract_z
 _atom_site_occupancy
  Sm  Sm0  1  0.262395  0.012508  0.024659  1
  Sm  Sm1  1  0.025453  0.262925  0.013155  1
  Sm  Sm2  1  0.487626  0.750159  0.012977  1
  Sm  Sm3  1  0.750540  0.237972  0.262671  1
  Sm  Sm4  1  0.012322  0.024833  0.262789  1
  Sm  Sm5  1  0.012657  0.488183  0.750675  1
  Sm  Sm6  1  0.238011  0.262450  0.750712  1
  Sm  Sm7  1  0.261858  0.748890  0.237330  1
  Sm  Sm8  1  0.237789  0.475814  0.488239  1
  Sm  Sm9  1  0.475343  0.488202  0.237197  1
  Sm  Sm10  1  0.750560  0.012558  0.488462  1
  Ho  Ho11  1  0.485156  0.235225  0.470585  1
  Si  Si12  1  0.000112  0.250087  0.500161  1
  Si  Si13  1  0.250026  0.500018  0.000075  1
  Si  Si14  1  0.500234  0.002114  0.252362  1
  Si  Si15  1  0.252108  0.250264  0.252374  1
  Br  Br16  1  0.755112  0.745507  0.250304  1
  Br  Br17  1  0.504860  0.249755  0.995446  1
  Br  Br18  1  0.255432  0.000425  0.505395  1
  Br  Br19  1  0.509521  0.500419  0.750979  1
  Br  Br20  1  0.995387  0.990497  0.745554  1
  Br  Br21  1  0.745307  0.995306  0.990631  1
  Br  Br22  1  0.504797  0.754778  0.509556  1
  Br  Br23  1  0.749948  0.504920  0.505383  1
  Br  Br24  1  0.995181  0.504822  0.250305  1
  Br  Br25  1  0.990685  0.745741  0.995474  1
  Br  Br26  1  0.250163  0.755075  0.745553  1
  Br  Br27  1  0.741416  0.250552  0.751001  1
