# generated using pymatgen
data_Y2Sn(PIr2)6
_symmetry_space_group_name_H-M   'P 1'
_cell_length_a   9.72517600
_cell_length_b   9.72517696
_cell_length_c   4.00622600
_cell_angle_alpha   90.00000000
_cell_angle_beta   90.00000000
_cell_angle_gamma   119.99999176
_symmetry_Int_Tables_number   1
_chemical_formula_structural   Y2Sn(PIr2)6
_chemical_formula_sum   'Y2 Sn1 P6 Ir12'
_cell_volume   328.14145158
_cell_formula_units_Z   1
loop_
 _symmetry_equiv_pos_site_id
 _symmetry_equiv_pos_as_xyz
  1  'x, y, z'
loop_
 _atom_site_type_symbol
 _atom_site_label
 _atom_site_symmetry_multiplicity
 _atom_site_fract_x
 _atom_site_fract_y
 _atom_site_fract_z
 _atom_site_occupancy
  Y  Y0  1  0.333333  0.666667  0.764007  1
  Y  Y1  1  0.666667  0.333333  0.235993  1
  Sn  Sn2  1  0.000000  0.000000  0.500000  1
  P  P3  1  0.406515  0.281322  0.732883  1
  P  P4  1  0.718678  0.125194  0.732883  1
  P  P5  1  0.874806  0.593485  0.732883  1
  P  P6  1  0.593485  0.718678  0.267117  1
  P  P7  1  0.281322  0.874806  0.267117  1
  P  P8  1  0.125194  0.406515  0.267117  1
  Ir  Ir9  1  0.458704  0.068755  0.742129  1
  Ir  Ir10  1  0.931245  0.389949  0.742129  1
  Ir  Ir11  1  0.610051  0.541296  0.742129  1
  Ir  Ir12  1  0.541296  0.931245  0.257871  1
  Ir  Ir13  1  0.068755  0.610051  0.257871  1
  Ir  Ir14  1  0.389949  0.458704  0.257871  1
  Ir  Ir15  1  0.166683  0.290850  0.777880  1
  Ir  Ir16  1  0.709150  0.875833  0.777880  1
  Ir  Ir17  1  0.124167  0.833317  0.777880  1
  Ir  Ir18  1  0.833317  0.709150  0.222120  1
  Ir  Ir19  1  0.290850  0.124167  0.222120  1
  Ir  Ir20  1  0.875833  0.166683  0.222120  1
