# generated using pymatgen
data_Tb5Th3(ScIr3)2
_symmetry_space_group_name_H-M   'P 1'
_cell_length_a   11.02306806
_cell_length_b   10.97629400
_cell_length_c   6.28836703
_cell_angle_alpha   90.00000000
_cell_angle_beta   89.98836331
_cell_angle_gamma   90.00000000
_symmetry_Int_Tables_number   1
_chemical_formula_structural   Tb5Th3(ScIr3)2
_chemical_formula_sum   'Tb10 Th6 Sc4 Ir12'
_cell_volume   760.84482862
_cell_formula_units_Z   2
loop_
 _symmetry_equiv_pos_site_id
 _symmetry_equiv_pos_as_xyz
  1  'x, y, z'
loop_
 _atom_site_type_symbol
 _atom_site_label
 _atom_site_symmetry_multiplicity
 _atom_site_fract_x
 _atom_site_fract_y
 _atom_site_fract_z
 _atom_site_occupancy
  Tb  Tb0  1  0.409286  0.781979  0.377464  1
  Tb  Tb1  1  0.409286  0.218021  0.877464  1
  Tb  Tb2  1  0.210859  0.416038  0.620950  1
  Tb  Tb3  1  0.210859  0.583962  0.120950  1
  Tb  Tb4  1  0.791009  0.417493  0.114947  1
  Tb  Tb5  1  0.791009  0.582507  0.614947  1
  Tb  Tb6  1  0.917851  0.709836  0.115022  1
  Tb  Tb7  1  0.917851  0.290164  0.615022  1
  Tb  Tb8  1  0.082997  0.710267  0.615293  1
  Tb  Tb9  1  0.082997  0.289733  0.115293  1
  Th  Th10  1  0.284112  0.089166  0.378709  1
  Th  Th11  1  0.284112  0.910834  0.878709  1
  Th  Th12  1  0.714901  0.092555  0.878178  1
  Th  Th13  1  0.714901  0.907445  0.378178  1
  Th  Th14  1  0.586729  0.780363  0.880525  1
  Th  Th15  1  0.586729  0.219637  0.380525  1
  Sc  Sc16  1  0.998818  0.999464  0.507686  1
  Sc  Sc17  1  0.998818  0.000536  0.007686  1
  Sc  Sc18  1  0.498407  0.495466  0.011304  1
  Sc  Sc19  1  0.498407  0.504534  0.511304  1
  Ir  Ir20  1  0.847639  0.144889  0.250902  1
  Ir  Ir21  1  0.847639  0.855111  0.750902  1
  Ir  Ir22  1  0.150132  0.143409  0.749086  1
  Ir  Ir23  1  0.150132  0.856591  0.249086  1
  Ir  Ir24  1  0.648034  0.351011  0.748433  1
  Ir  Ir25  1  0.648034  0.648989  0.248433  1
  Ir  Ir26  1  0.356145  0.349034  0.261170  1
  Ir  Ir27  1  0.356145  0.650966  0.761170  1
  Ir  Ir28  1  0.500984  0.000814  0.113557  1
  Ir  Ir29  1  0.500984  0.999186  0.613557  1
  Ir  Ir30  1  0.002095  0.500189  0.876774  1
  Ir  Ir31  1  0.002095  0.499811  0.376774  1
