# generated using pymatgen
data_PrTeIO3
_symmetry_space_group_name_H-M   'P 1'
_cell_length_a   7.02351600
_cell_length_b   8.39743333
_cell_length_c   9.44379627
_cell_angle_alpha   73.51639709
_cell_angle_beta   90.00000000
_cell_angle_gamma   90.00000000
_symmetry_Int_Tables_number   1
_chemical_formula_structural   PrTeIO3
_chemical_formula_sum   'Pr4 Te4 I4 O12'
_cell_volume   534.09868742
_cell_formula_units_Z   4
loop_
 _symmetry_equiv_pos_site_id
 _symmetry_equiv_pos_as_xyz
  1  'x, y, z'
loop_
 _atom_site_type_symbol
 _atom_site_label
 _atom_site_symmetry_multiplicity
 _atom_site_fract_x
 _atom_site_fract_y
 _atom_site_fract_z
 _atom_site_occupancy
  Pr  Pr0  1  0.842819  0.320566  0.420217  1
  Pr  Pr1  1  0.157181  0.679434  0.579783  1
  Pr  Pr2  1  0.342819  0.179434  0.579783  1
  Pr  Pr3  1  0.657181  0.820566  0.420217  1
  Te  Te4  1  0.185109  0.021744  0.269436  1
  Te  Te5  1  0.814891  0.978256  0.730564  1
  Te  Te6  1  0.314891  0.521744  0.269436  1
  Te  Te7  1  0.685109  0.478256  0.730564  1
  I  I8  1  0.654020  0.156907  0.139697  1
  I  I9  1  0.845980  0.656907  0.139697  1
  I  I10  1  0.345980  0.843093  0.860303  1
  I  I11  1  0.154020  0.343093  0.860303  1
  O  O12  1  0.489701  0.618594  0.620215  1
  O  O13  1  0.337563  0.955692  0.448414  1
  O  O14  1  0.837563  0.544308  0.551586  1
  O  O15  1  0.878162  0.775409  0.690183  1
  O  O16  1  0.989701  0.881406  0.379785  1
  O  O17  1  0.662437  0.044308  0.551586  1
  O  O18  1  0.010299  0.118594  0.620215  1
  O  O19  1  0.378162  0.724591  0.309817  1
  O  O20  1  0.162437  0.455692  0.448414  1
  O  O21  1  0.510299  0.381406  0.379785  1
  O  O22  1  0.121838  0.224591  0.309817  1
  O  O23  1  0.621838  0.275409  0.690183  1
