# generated using pymatgen
data_CaYb3(CdN)2
_symmetry_space_group_name_H-M   'P 1'
_cell_length_a   10.46748520
_cell_length_b   10.46748493
_cell_length_c   5.00670200
_cell_angle_alpha   90.00000000
_cell_angle_beta   90.00000000
_cell_angle_gamma   161.41389727
_symmetry_Int_Tables_number   1
_chemical_formula_structural   CaYb3(CdN)2
_chemical_formula_sum   'Ca1 Yb3 Cd2 N2'
_cell_volume   174.84716273
_cell_formula_units_Z   1
loop_
 _symmetry_equiv_pos_site_id
 _symmetry_equiv_pos_as_xyz
  1  'x, y, z'
loop_
 _atom_site_type_symbol
 _atom_site_label
 _atom_site_symmetry_multiplicity
 _atom_site_fract_x
 _atom_site_fract_y
 _atom_site_fract_z
 _atom_site_occupancy
  Ca  Ca0  1  0.624372  0.375628  0.250000  1
  Yb  Yb1  1  0.219613  0.780387  0.750000  1
  Yb  Yb2  1  0.780778  0.219222  0.250000  1
  Yb  Yb3  1  0.375656  0.624344  0.750000  1
  Cd  Cd4  1  0.040674  0.959326  0.750000  1
  Cd  Cd5  1  0.957801  0.042199  0.250000  1
  N  N6  1  0.799182  0.200818  0.750000  1
  N  N7  1  0.201925  0.798075  0.250000  1
