# generated using pymatgen
data_Y8MoOsI8
_symmetry_space_group_name_H-M   'P 1'
_cell_length_a   11.46829258
_cell_length_b   11.46829371
_cell_length_c   6.21693200
_cell_angle_alpha   90.01776846
_cell_angle_beta   90.01777867
_cell_angle_gamma   88.36995164
_symmetry_Int_Tables_number   1
_chemical_formula_structural   Y8MoOsI8
_chemical_formula_sum   'Y8 Mo1 Os1 I8'
_cell_volume   817.33080526
_cell_formula_units_Z   1
loop_
 _symmetry_equiv_pos_site_id
 _symmetry_equiv_pos_as_xyz
  1  'x, y, z'
loop_
 _atom_site_type_symbol
 _atom_site_label
 _atom_site_symmetry_multiplicity
 _atom_site_fract_x
 _atom_site_fract_y
 _atom_site_fract_z
 _atom_site_occupancy
  Y  Y0  1  0.801625  0.084286  0.998998  1
  Y  Y1  1  0.084289  0.801624  0.499178  1
  Y  Y2  1  0.078912  0.195737  0.000389  1
  Y  Y3  1  0.195724  0.078902  0.500576  1
  Y  Y4  1  0.921098  0.804276  0.999424  1
  Y  Y5  1  0.915714  0.198375  0.501002  1
  Y  Y6  1  0.198376  0.915711  0.000822  1
  Y  Y7  1  0.804263  0.921088  0.499611  1
  Mo  Mo8  1  0.999826  0.000174  0.250000  1
  Os  Os9  1  0.000182  0.999818  0.750000  1
  I  I10  1  0.644855  0.152477  0.510599  1
  I  I11  1  0.858374  0.648346  0.505744  1
  I  I12  1  0.351654  0.141626  0.994256  1
  I  I13  1  0.141626  0.351657  0.494341  1
  I  I14  1  0.648343  0.858374  0.005659  1
  I  I15  1  0.355146  0.847530  0.489488  1
  I  I16  1  0.152470  0.644854  0.010512  1
  I  I17  1  0.847523  0.355145  0.989401  1
