# generated using pymatgen
data_Eu4Si10AgPt5
_symmetry_space_group_name_H-M   'P 1'
_cell_length_a   8.38094751
_cell_length_b   8.38094777
_cell_length_c   8.38094872
_cell_angle_alpha   137.69827995
_cell_angle_beta   105.23648896
_cell_angle_gamma   89.86165488
_symmetry_Int_Tables_number   1
_chemical_formula_structural   Eu4Si10AgPt5
_chemical_formula_sum   'Eu4 Si10 Ag1 Pt5'
_cell_volume   365.19187307
_cell_formula_units_Z   1
loop_
 _symmetry_equiv_pos_site_id
 _symmetry_equiv_pos_as_xyz
  1  'x, y, z'
loop_
 _atom_site_type_symbol
 _atom_site_label
 _atom_site_symmetry_multiplicity
 _atom_site_fract_x
 _atom_site_fract_y
 _atom_site_fract_z
 _atom_site_occupancy
  Eu  Eu0  1  0.107939  0.869480  0.232024  1
  Eu  Eu1  1  0.892061  0.124085  0.761541  1
  Eu  Eu2  1  0.637456  0.375915  0.267976  1
  Eu  Eu3  1  0.362544  0.630520  0.738459  1
  Si  Si4  1  0.000000  0.750000  0.750000  1
  Si  Si5  1  0.000000  0.250000  0.250000  1
  Si  Si6  1  0.269473  0.019473  0.750000  1
  Si  Si7  1  0.730527  0.480527  0.750000  1
  Si  Si8  1  0.734417  0.984417  0.250000  1
  Si  Si9  1  0.265583  0.515583  0.250000  1
  Si  Si10  1  0.769041  0.608307  0.141991  1
  Si  Si11  1  0.230959  0.372950  0.839266  1
  Si  Si12  1  0.466316  0.127050  0.358009  1
  Si  Si13  1  0.533684  0.891693  0.660734  1
  Ag  Ag14  1  0.500000  0.750000  0.250000  1
  Pt  Pt15  1  0.500000  0.250000  0.750000  1
  Pt  Pt16  1  0.023651  0.634709  0.388568  1
  Pt  Pt17  1  0.976349  0.364917  0.611058  1
  Pt  Pt18  1  0.246141  0.135083  0.111432  1
  Pt  Pt19  1  0.753859  0.865291  0.888942  1
