# generated using pymatgen
data_Tb3Er3Al19Si5Os8
_symmetry_space_group_name_H-M   'P 1'
_cell_length_a   8.70081300
_cell_length_b   8.68509522
_cell_length_c   9.58759400
_cell_angle_alpha   90.00000000
_cell_angle_beta   90.00000000
_cell_angle_gamma   120.05988765
_symmetry_Int_Tables_number   1
_chemical_formula_structural   Tb3Er3Al19Si5Os8
_chemical_formula_sum   'Tb3 Er3 Al19 Si5 Os8'
_cell_volume   627.06460392
_cell_formula_units_Z   1
loop_
 _symmetry_equiv_pos_site_id
 _symmetry_equiv_pos_as_xyz
  1  'x, y, z'
loop_
 _atom_site_type_symbol
 _atom_site_label
 _atom_site_symmetry_multiplicity
 _atom_site_fract_x
 _atom_site_fract_y
 _atom_site_fract_z
 _atom_site_occupancy
  Tb  Tb0  1  0.806772  0.613544  0.750000  1
  Tb  Tb1  1  0.388237  0.194484  0.750000  1
  Tb  Tb2  1  0.806248  0.194484  0.750000  1
  Er  Er3  1  0.195095  0.390193  0.250000  1
  Er  Er4  1  0.607052  0.805741  0.250000  1
  Er  Er5  1  0.198688  0.805741  0.250000  1
  Al  Al6  1  0.165008  0.330015  0.576951  1
  Al  Al7  1  0.834829  0.669657  0.421332  1
  Al  Al8  1  0.669375  0.835131  0.575479  1
  Al  Al9  1  0.834829  0.669657  0.078668  1
  Al  Al10  1  0.328811  0.165299  0.421567  1
  Al  Al11  1  0.165008  0.330015  0.923049  1
  Al  Al12  1  0.165756  0.835131  0.575479  1
  Al  Al13  1  0.328811  0.165299  0.078433  1
  Al  Al14  1  0.836488  0.165299  0.421567  1
  Al  Al15  1  0.669375  0.835131  0.924521  1
  Al  Al16  1  0.836488  0.165299  0.078433  1
  Al  Al17  1  0.165756  0.835131  0.924521  1
  Al  Al18  1  0.436840  0.873679  0.750000  1
  Al  Al19  1  0.873026  0.433426  0.250000  1
  Al  Al20  1  0.128261  0.564872  0.750000  1
  Al  Al21  1  0.560399  0.433426  0.250000  1
  Al  Al22  1  0.436610  0.564872  0.750000  1
  Al  Al23  1  0.999659  0.999318  0.250000  1
  Al  Al24  1  0.000603  0.001207  0.750000  1
  Si  Si25  1  0.332510  0.665020  0.039511  1
  Si  Si26  1  0.667379  0.334756  0.961782  1
  Si  Si27  1  0.667379  0.334756  0.538218  1
  Si  Si28  1  0.332510  0.665020  0.460489  1
  Si  Si29  1  0.563537  0.127074  0.250000  1
  Os  Os30  1  0.500375  0.000749  0.007307  1
  Os  Os31  1  0.999651  0.499327  0.001445  1
  Os  Os32  1  0.500375  0.000749  0.492693  1
  Os  Os33  1  0.499676  0.499327  0.001445  1
  Os  Os34  1  0.999651  0.499327  0.498555  1
  Os  Os35  1  0.499676  0.499327  0.498555  1
  Os  Os36  1  0.999630  0.999259  0.000095  1
  Os  Os37  1  0.999630  0.999259  0.499905  1
