# generated using pymatgen
data_Ho6Lu2Sc12Si15Bi
_symmetry_space_group_name_H-M   'P 1'
_cell_length_a   7.14745835
_cell_length_b   7.38609758
_cell_length_c   14.02665037
_cell_angle_alpha   89.96824596
_cell_angle_beta   88.62152579
_cell_angle_gamma   90.06369151
_symmetry_Int_Tables_number   1
_chemical_formula_structural   Ho6Lu2Sc12Si15Bi
_chemical_formula_sum   'Ho6 Lu2 Sc12 Si15 Bi1'
_cell_volume   740.27758689
_cell_formula_units_Z   1
loop_
 _symmetry_equiv_pos_site_id
 _symmetry_equiv_pos_as_xyz
  1  'x, y, z'
loop_
 _atom_site_type_symbol
 _atom_site_label
 _atom_site_symmetry_multiplicity
 _atom_site_fract_x
 _atom_site_fract_y
 _atom_site_fract_z
 _atom_site_occupancy
  Ho  Ho0  1  0.490008  0.676093  0.904777  1
  Ho  Ho1  1  0.995336  0.831551  0.598162  1
  Ho  Ho2  1  0.510367  0.323982  0.096452  1
  Ho  Ho3  1  0.997321  0.170501  0.399344  1
  Ho  Ho4  1  0.509923  0.316446  0.396721  1
  Ho  Ho5  1  0.513700  0.686936  0.601996  1
  Lu  Lu6  1  0.010587  0.177189  0.096416  1
  Lu  Lu7  1  0.989688  0.823931  0.904435  1
  Sc  Sc8  1  0.167279  0.501257  0.756690  1
  Sc  Sc9  1  0.832015  0.498542  0.250693  1
  Sc  Sc10  1  0.331433  0.002707  0.249889  1
  Sc  Sc11  1  0.670262  0.998132  0.751782  1
  Sc  Sc12  1  0.351879  0.155044  0.631694  1
  Sc  Sc13  1  0.655597  0.828117  0.372641  1
  Sc  Sc14  1  0.150949  0.682820  0.368398  1
  Sc  Sc15  1  0.666213  0.823506  0.123132  1
  Sc  Sc16  1  0.829570  0.326454  0.626566  1
  Sc  Sc17  1  0.331850  0.174781  0.876168  1
  Sc  Sc18  1  0.834592  0.321766  0.876041  1
  Sc  Sc19  1  0.165299  0.678375  0.124350  1
  Si  Si20  1  0.039984  0.117049  0.751848  1
  Si  Si21  1  0.957760  0.887184  0.245384  1
  Si  Si22  1  0.458234  0.616389  0.247004  1
  Si  Si23  1  0.538673  0.384412  0.753454  1
  Si  Si24  1  0.290511  0.866722  0.754226  1
  Si  Si25  1  0.709488  0.127506  0.245254  1
  Si  Si26  1  0.206547  0.372425  0.247629  1
  Si  Si27  1  0.796647  0.629602  0.752990  1
  Si  Si28  1  0.810129  0.541160  0.456700  1
  Si  Si29  1  0.325994  0.962470  0.459408  1
  Si  Si30  1  0.842988  0.534230  0.039508  1
  Si  Si31  1  0.675313  0.039721  0.538799  1
  Si  Si32  1  0.156463  0.465106  0.961978  1
  Si  Si33  1  0.659097  0.033647  0.960349  1
  Si  Si34  1  0.339628  0.966946  0.040187  1
  Bi  Bi35  1  0.188675  0.457301  0.538938  1
