# generated using pymatgen
data_Tb16Hg4IrPd3
_symmetry_space_group_name_H-M   'P 1'
_cell_length_a   9.69480402
_cell_length_b   9.70507608
_cell_length_c   9.69480300
_cell_angle_alpha   60.03499937
_cell_angle_beta   59.99999326
_cell_angle_gamma   60.03499964
_symmetry_Int_Tables_number   1
_chemical_formula_structural   Tb16Hg4IrPd3
_chemical_formula_sum   'Tb16 Hg4 Ir1 Pd3'
_cell_volume   645.34432305
_cell_formula_units_Z   1
loop_
 _symmetry_equiv_pos_site_id
 _symmetry_equiv_pos_as_xyz
  1  'x, y, z'
loop_
 _atom_site_type_symbol
 _atom_site_label
 _atom_site_symmetry_multiplicity
 _atom_site_fract_x
 _atom_site_fract_y
 _atom_site_fract_z
 _atom_site_occupancy
  Tb  Tb0  1  0.106196  0.681412  0.106196  1
  Tb  Tb1  1  0.939413  0.940667  0.559960  1
  Tb  Tb2  1  0.938649  0.556953  0.938649  1
  Tb  Tb3  1  0.315533  0.685095  0.315533  1
  Tb  Tb4  1  0.938649  0.556953  0.565748  1
  Tb  Tb5  1  0.311728  0.317589  0.685341  1
  Tb  Tb6  1  0.101003  0.107434  0.101003  1
  Tb  Tb7  1  0.565748  0.556953  0.938649  1
  Tb  Tb8  1  0.101003  0.107434  0.690561  1
  Tb  Tb9  1  0.685341  0.317589  0.685341  1
  Tb  Tb10  1  0.683840  0.685095  0.315533  1
  Tb  Tb11  1  0.685341  0.317589  0.311728  1
  Tb  Tb12  1  0.315533  0.685095  0.683840  1
  Tb  Tb13  1  0.559960  0.940667  0.559960  1
  Tb  Tb14  1  0.690561  0.107434  0.101003  1
  Tb  Tb15  1  0.559960  0.940667  0.939413  1
  Hg  Hg16  1  0.336586  0.335736  0.336586  1
  Hg  Hg17  1  0.991092  0.335736  0.336586  1
  Hg  Hg18  1  0.335802  0.992594  0.335802  1
  Hg  Hg19  1  0.336586  0.335736  0.991092  1
  Ir  Ir20  1  0.893521  0.319439  0.893521  1
  Pd  Pd21  1  0.895336  0.892044  0.895336  1
  Pd  Pd22  1  0.895336  0.892044  0.317284  1
  Pd  Pd23  1  0.317284  0.892044  0.895336  1
