# generated using pymatgen
data_CsRb3Cu2(BSe)18
_symmetry_space_group_name_H-M   'P 1'
_cell_length_a   9.97229908
_cell_length_b   10.99705083
_cell_length_c   11.05069374
_cell_angle_alpha   103.05812329
_cell_angle_beta   89.92475439
_cell_angle_gamma   115.75733145
_symmetry_Int_Tables_number   1
_chemical_formula_structural   CsRb3Cu2(BSe)18
_chemical_formula_sum   'Cs1 Rb3 Cu2 B18 Se18'
_cell_volume   1056.74949993
_cell_formula_units_Z   1
loop_
 _symmetry_equiv_pos_site_id
 _symmetry_equiv_pos_as_xyz
  1  'x, y, z'
loop_
 _atom_site_type_symbol
 _atom_site_label
 _atom_site_symmetry_multiplicity
 _atom_site_fract_x
 _atom_site_fract_y
 _atom_site_fract_z
 _atom_site_occupancy
  Cs  Cs0  1  0.176402  0.345592  0.508433  1
  Rb  Rb1  1  0.205905  0.838373  0.995118  1
  Rb  Rb2  1  0.793311  0.158346  0.006102  1
  Rb  Rb3  1  0.815082  0.652289  0.493447  1
  Cu  Cu4  1  0.674373  0.677709  0.905908  1
  Cu  Cu5  1  0.327002  0.320285  0.089661  1
  B  B6  1  0.489874  0.840264  0.446233  1
  B  B7  1  0.510307  0.160063  0.554302  1
  B  B8  1  0.338068  0.875281  0.412833  1
  B  B9  1  0.662398  0.125216  0.587969  1
  B  B10  1  0.510159  0.951132  0.346512  1
  B  B11  1  0.490468  0.049436  0.654124  1
  B  B12  1  0.662171  0.993977  0.457412  1
  B  B13  1  0.338211  0.006022  0.543145  1
  B  B14  1  0.585036  0.946826  0.595819  1
  B  B15  1  0.415651  0.053581  0.404649  1
  B  B16  1  0.386700  0.874799  0.567756  1
  B  B17  1  0.614205  0.125781  0.432958  1
  B  B18  1  0.259080  0.582742  0.278689  1
  B  B19  1  0.742616  0.419732  0.718369  1
  B  B20  1  0.454433  0.736427  0.743401  1
  B  B21  1  0.546948  0.266016  0.258512  1
  B  B22  1  0.739134  0.898264  0.204425  1
  B  B23  1  0.258839  0.097489  0.795900  1
  Se  Se24  1  0.456316  0.644042  0.368147  1
  Se  Se25  1  0.543885  0.356574  0.631159  1
  Se  Se26  1  0.163171  0.710348  0.302029  1
  Se  Se27  1  0.835838  0.290644  0.700114  1
  Se  Se28  1  0.541949  0.889221  0.167794  1
  Se  Se29  1  0.458407  0.111550  0.832684  1
  Se  Se30  1  0.835166  0.969214  0.379608  1
  Se  Se31  1  0.162718  0.025380  0.620865  1
  Se  Se32  1  0.656410  0.865299  0.713227  1
  Se  Se33  1  0.345217  0.134411  0.285888  1
  Se  Se34  1  0.274985  0.728009  0.660117  1
  Se  Se35  1  0.726323  0.274167  0.341950  1
  Se  Se36  1  0.147526  0.397192  0.170575  1
  Se  Se37  1  0.857112  0.609766  0.817736  1
  Se  Se38  1  0.851017  0.848445  0.075875  1
  Se  Se39  1  0.146218  0.144332  0.925481  1
  Se  Se40  1  0.424888  0.616159  0.856188  1
  Se  Se41  1  0.576485  0.389604  0.148887  1
