# generated using pymatgen
data_Ca3HoSc4(B6Os)4
_symmetry_space_group_name_H-M   'P 1'
_cell_length_a   3.54781200
_cell_length_b   8.99628295
_cell_length_c   11.39557779
_cell_angle_alpha   89.98368655
_cell_angle_beta   90.00000000
_cell_angle_gamma   90.00000000
_symmetry_Int_Tables_number   1
_chemical_formula_structural   Ca3HoSc4(B6Os)4
_chemical_formula_sum   'Ca3 Ho1 Sc4 B24 Os4'
_cell_volume   363.71401595
_cell_formula_units_Z   1
loop_
 _symmetry_equiv_pos_site_id
 _symmetry_equiv_pos_as_xyz
  1  'x, y, z'
loop_
 _atom_site_type_symbol
 _atom_site_label
 _atom_site_symmetry_multiplicity
 _atom_site_fract_x
 _atom_site_fract_y
 _atom_site_fract_z
 _atom_site_occupancy
  Ca  Ca0  1  0.000000  0.322033  0.414819  1
  Ca  Ca1  1  0.000000  0.677910  0.584975  1
  Ca  Ca2  1  0.000000  0.820679  0.085570  1
  Ho  Ho3  1  0.000000  0.178012  0.915066  1
  Sc  Sc4  1  0.000000  0.942569  0.369064  1
  Sc  Sc5  1  0.000000  0.056659  0.629636  1
  Sc  Sc6  1  0.000000  0.444321  0.129862  1
  Sc  Sc7  1  0.000000  0.556753  0.870920  1
  B  B8  1  0.500000  0.554187  0.432707  1
  B  B9  1  0.500000  0.445251  0.568265  1
  B  B10  1  0.500000  0.054777  0.066945  1
  B  B11  1  0.500000  0.945814  0.932584  1
  B  B12  1  0.500000  0.752674  0.417213  1
  B  B13  1  0.500000  0.247326  0.582811  1
  B  B14  1  0.500000  0.253087  0.081956  1
  B  B15  1  0.500000  0.747485  0.917596  1
  B  B16  1  0.500000  0.793922  0.264409  1
  B  B17  1  0.500000  0.205932  0.735974  1
  B  B18  1  0.500000  0.294222  0.234721  1
  B  B19  1  0.500000  0.706728  0.765000  1
  B  B20  1  0.500000  0.628929  0.183625  1
  B  B21  1  0.500000  0.370650  0.817515  1
  B  B22  1  0.500000  0.129097  0.315688  1
  B  B23  1  0.500000  0.871275  0.683064  1
  B  B24  1  0.500000  0.981413  0.212649  1
  B  B25  1  0.500000  0.018617  0.786582  1
  B  B26  1  0.500000  0.481610  0.286900  1
  B  B27  1  0.500000  0.518108  0.713991  1
  B  B28  1  0.500000  0.595577  0.026046  1
  B  B29  1  0.500000  0.403550  0.973934  1
  B  B30  1  0.500000  0.094617  0.473906  1
  B  B31  1  0.500000  0.905526  0.525317  1
  Os  Os32  1  0.000000  0.640585  0.317765  1
  Os  Os33  1  0.000000  0.357909  0.683746  1
  Os  Os34  1  0.000000  0.140305  0.180828  1
  Os  Os35  1  0.000000  0.861886  0.818353  1
