# generated using pymatgen
data_AlV8InSe16
_symmetry_space_group_name_H-M   'P 1'
_cell_length_a   7.29486600
_cell_length_b   7.29486600
_cell_length_c   10.34173500
_cell_angle_alpha   90.00000000
_cell_angle_beta   90.00000000
_cell_angle_gamma   90.00000000
_symmetry_Int_Tables_number   1
_chemical_formula_structural   AlV8InSe16
_chemical_formula_sum   'Al1 V8 In1 Se16'
_cell_volume   550.33615151
_cell_formula_units_Z   1
loop_
 _symmetry_equiv_pos_site_id
 _symmetry_equiv_pos_as_xyz
  1  'x, y, z'
loop_
 _atom_site_type_symbol
 _atom_site_label
 _atom_site_symmetry_multiplicity
 _atom_site_fract_x
 _atom_site_fract_y
 _atom_site_fract_z
 _atom_site_occupancy
  Al  Al0  1  0.500000  0.500000  0.500000  1
  V  V1  1  0.000000  0.792343  0.602066  1
  V  V2  1  0.500000  0.293445  0.104914  1
  V  V3  1  0.792343  0.000000  0.397934  1
  V  V4  1  0.293445  0.500000  0.895086  1
  V  V5  1  0.207657  0.000000  0.397934  1
  V  V6  1  0.706555  0.500000  0.895086  1
  V  V7  1  0.000000  0.207657  0.602066  1
  V  V8  1  0.500000  0.706555  0.104914  1
  In  In9  1  0.000000  0.000000  0.000000  1
  Se  Se10  1  0.000000  0.260461  0.369046  1
  Se  Se11  1  0.500000  0.762202  0.871175  1
  Se  Se12  1  0.260461  0.000000  0.630954  1
  Se  Se13  1  0.762202  0.500000  0.128825  1
  Se  Se14  1  0.739539  0.000000  0.630954  1
  Se  Se15  1  0.237798  0.500000  0.128825  1
  Se  Se16  1  0.000000  0.739539  0.369046  1
  Se  Se17  1  0.500000  0.237798  0.871175  1
  Se  Se18  1  0.000000  0.285571  0.854254  1
  Se  Se19  1  0.500000  0.771557  0.365797  1
  Se  Se20  1  0.771557  0.500000  0.634203  1
  Se  Se21  1  0.285571  0.000000  0.145746  1
  Se  Se22  1  0.228443  0.500000  0.634203  1
  Se  Se23  1  0.714429  0.000000  0.145746  1
  Se  Se24  1  0.000000  0.714429  0.854254  1
  Se  Se25  1  0.500000  0.228443  0.365797  1
