# generated using pymatgen
data_CaTb3(Mo2O7)2
_symmetry_space_group_name_H-M   'P 1'
_cell_length_a   7.34663738
_cell_length_b   7.43548247
_cell_length_c   7.34663700
_cell_angle_alpha   60.39448830
_cell_angle_beta   60.00000621
_cell_angle_gamma   60.39448370
_symmetry_Int_Tables_number   1
_chemical_formula_structural   CaTb3(Mo2O7)2
_chemical_formula_sum   'Ca1 Tb3 Mo4 O14'
_cell_volume   285.45347742
_cell_formula_units_Z   1
loop_
 _symmetry_equiv_pos_site_id
 _symmetry_equiv_pos_as_xyz
  1  'x, y, z'
loop_
 _atom_site_type_symbol
 _atom_site_label
 _atom_site_symmetry_multiplicity
 _atom_site_fract_x
 _atom_site_fract_y
 _atom_site_fract_z
 _atom_site_occupancy
  Ca  Ca0  1  0.125000  0.625000  0.125000  1
  Tb  Tb1  1  0.625000  0.125000  0.125000  1
  Tb  Tb2  1  0.125000  0.125000  0.625000  1
  Tb  Tb3  1  0.125000  0.125000  0.125000  1
  Mo  Mo4  1  0.125000  0.625000  0.625000  1
  Mo  Mo5  1  0.625000  0.125000  0.625000  1
  Mo  Mo6  1  0.625000  0.625000  0.125000  1
  Mo  Mo7  1  0.625000  0.625000  0.625000  1
  O  O8  1  0.695716  0.724268  0.290008  1
  O  O9  1  0.298073  0.285904  0.708011  1
  O  O10  1  0.708011  0.285904  0.708011  1
  O  O11  1  0.290008  0.724268  0.290008  1
  O  O12  1  0.290008  0.724268  0.695716  1
  O  O13  1  0.708011  0.285904  0.298073  1
  O  O14  1  0.554284  0.525732  0.959992  1
  O  O15  1  0.951927  0.964096  0.541989  1
  O  O16  1  0.541989  0.964096  0.541989  1
  O  O17  1  0.959992  0.525732  0.959992  1
  O  O18  1  0.959992  0.525732  0.554284  1
  O  O19  1  0.541989  0.964096  0.951927  1
  O  O20  1  0.252449  0.242655  0.252449  1
  O  O21  1  0.997551  0.007345  0.997551  1
