# generated using pymatgen
data_CeY2TaO7
_symmetry_space_group_name_H-M   'P 1'
_cell_length_a   6.53363837
_cell_length_b   6.53363731
_cell_length_c   7.61694500
_cell_angle_alpha   90.00000000
_cell_angle_beta   90.00000000
_cell_angle_gamma   109.17161039
_symmetry_Int_Tables_number   1
_chemical_formula_structural   CeY2TaO7
_chemical_formula_sum   'Ce2 Y4 Ta2 O14'
_cell_volume   307.12199790
_cell_formula_units_Z   2
loop_
 _symmetry_equiv_pos_site_id
 _symmetry_equiv_pos_as_xyz
  1  'x, y, z'
loop_
 _atom_site_type_symbol
 _atom_site_label
 _atom_site_symmetry_multiplicity
 _atom_site_fract_x
 _atom_site_fract_y
 _atom_site_fract_z
 _atom_site_occupancy
  Ce  Ce0  1  0.500000  0.500000  0.500000  1
  Ce  Ce1  1  0.500000  0.500000  0.000000  1
  Y  Y2  1  0.533243  0.000620  0.750000  1
  Y  Y3  1  0.000620  0.533243  0.250000  1
  Y  Y4  1  0.466757  0.999380  0.250000  1
  Y  Y5  1  0.999380  0.466757  0.750000  1
  Ta  Ta6  1  0.000000  0.000000  0.500000  1
  Ta  Ta7  1  0.000000  0.000000  0.000000  1
  O  O8  1  0.680778  0.932086  0.467876  1
  O  O9  1  0.932086  0.680778  0.532124  1
  O  O10  1  0.680778  0.932086  0.032124  1
  O  O11  1  0.932086  0.680778  0.967876  1
  O  O12  1  0.319222  0.067914  0.532124  1
  O  O13  1  0.067914  0.319222  0.467876  1
  O  O14  1  0.319222  0.067914  0.967876  1
  O  O15  1  0.067914  0.319222  0.032124  1
  O  O16  1  0.936509  0.063491  0.750000  1
  O  O17  1  0.063491  0.936509  0.250000  1
  O  O18  1  0.365601  0.634399  0.750000  1
  O  O19  1  0.634399  0.365601  0.250000  1
  O  O20  1  0.642417  0.357583  0.750000  1
  O  O21  1  0.357583  0.642417  0.250000  1
