# generated using pymatgen
data_GaSi15Mo3Pt12W
_symmetry_space_group_name_H-M   'P 1'
_cell_length_a   3.52502400
_cell_length_b   5.57515303
_cell_length_c   24.69399098
_cell_angle_alpha   90.03436763
_cell_angle_beta   90.00000000
_cell_angle_gamma   90.00000000
_symmetry_Int_Tables_number   1
_chemical_formula_structural   GaSi15Mo3Pt12W
_chemical_formula_sum   'Ga1 Si15 Mo3 Pt12 W1'
_cell_volume   485.29976175
_cell_formula_units_Z   1
loop_
 _symmetry_equiv_pos_site_id
 _symmetry_equiv_pos_as_xyz
  1  'x, y, z'
loop_
 _atom_site_type_symbol
 _atom_site_label
 _atom_site_symmetry_multiplicity
 _atom_site_fract_x
 _atom_site_fract_y
 _atom_site_fract_z
 _atom_site_occupancy
  Ga  Ga0  1  0.250000  0.183398  0.520265  1
  Si  Si1  1  0.750000  0.320571  0.019473  1
  Si  Si2  1  0.250000  0.679512  0.980562  1
  Si  Si3  1  0.750000  0.824118  0.480928  1
  Si  Si4  1  0.750000  0.320382  0.644868  1
  Si  Si5  1  0.250000  0.180848  0.145618  1
  Si  Si6  1  0.750000  0.818879  0.854654  1
  Si  Si7  1  0.250000  0.679658  0.353313  1
  Si  Si8  1  0.250000  0.665177  0.609949  1
  Si  Si9  1  0.750000  0.839062  0.109491  1
  Si  Si10  1  0.250000  0.161030  0.890586  1
  Si  Si11  1  0.750000  0.334991  0.389859  1
  Si  Si12  1  0.750000  0.829002  0.726919  1
  Si  Si13  1  0.250000  0.669638  0.225738  1
  Si  Si14  1  0.750000  0.327655  0.774142  1
  Si  Si15  1  0.250000  0.168620  0.273549  1
  Mo  Mo16  1  0.750000  0.995903  0.209675  1
  Mo  Mo17  1  0.250000  0.002716  0.790488  1
  Mo  Mo18  1  0.750000  0.494975  0.288938  1
  Pt  Pt19  1  0.750000  0.991829  0.578442  1
  Pt  Pt20  1  0.250000  0.497539  0.074272  1
  Pt  Pt21  1  0.750000  0.502317  0.925557  1
  Pt  Pt22  1  0.250000  0.999195  0.423450  1
  Pt  Pt23  1  0.250000  0.003480  0.672270  1
  Pt  Pt24  1  0.750000  0.496744  0.169361  1
  Pt  Pt25  1  0.250000  0.502677  0.830277  1
  Pt  Pt26  1  0.750000  0.995456  0.328776  1
  Pt  Pt27  1  0.750000  0.507625  0.549570  1
  Pt  Pt28  1  0.250000  0.996976  0.048386  1
  Pt  Pt29  1  0.750000  0.003021  0.951729  1
  Pt  Pt30  1  0.250000  0.504960  0.448440  1
  W  W31  1  0.250000  0.502048  0.710451  1
