# generated using pymatgen
data_Nb6TlCl15
_symmetry_space_group_name_H-M   'P 1'
_cell_length_a   9.48283800
_cell_length_b   13.70425500
_cell_length_c   18.20218900
_cell_angle_alpha   90.00000000
_cell_angle_beta   90.00000000
_cell_angle_gamma   90.00000000
_symmetry_Int_Tables_number   1
_chemical_formula_structural   Nb6TlCl15
_chemical_formula_sum   'Nb24 Tl4 Cl60'
_cell_volume   2365.46965938
_cell_formula_units_Z   4
loop_
 _symmetry_equiv_pos_site_id
 _symmetry_equiv_pos_as_xyz
  1  'x, y, z'
loop_
 _atom_site_type_symbol
 _atom_site_label
 _atom_site_symmetry_multiplicity
 _atom_site_fract_x
 _atom_site_fract_y
 _atom_site_fract_z
 _atom_site_occupancy
  Nb  Nb0  1  0.078874  0.500000  0.105216  1
  Nb  Nb1  1  0.921126  0.500000  0.894784  1
  Nb  Nb2  1  0.078874  0.500000  0.394784  1
  Nb  Nb3  1  0.921126  0.500000  0.605216  1
  Nb  Nb4  1  0.145828  0.391975  0.529080  1
  Nb  Nb5  1  0.854172  0.608025  0.470920  1
  Nb  Nb6  1  0.145828  0.608025  0.970920  1
  Nb  Nb7  1  0.854172  0.391975  0.470920  1
  Nb  Nb8  1  0.854172  0.391975  0.029080  1
  Nb  Nb9  1  0.145828  0.608025  0.529080  1
  Nb  Nb10  1  0.854172  0.608025  0.029080  1
  Nb  Nb11  1  0.145828  0.391975  0.970920  1
  Nb  Nb12  1  0.333095  0.108476  0.668521  1
  Nb  Nb13  1  0.666905  0.891524  0.331479  1
  Nb  Nb14  1  0.333095  0.891524  0.831479  1
  Nb  Nb15  1  0.666905  0.108476  0.331479  1
  Nb  Nb16  1  0.666905  0.108476  0.168521  1
  Nb  Nb17  1  0.333095  0.891524  0.668521  1
  Nb  Nb18  1  0.666905  0.891524  0.168521  1
  Nb  Nb19  1  0.333095  0.108476  0.831479  1
  Nb  Nb20  1  0.549241  0.000000  0.750000  1
  Nb  Nb21  1  0.450759  0.000000  0.250000  1
  Nb  Nb22  1  0.118680  0.000000  0.750000  1
  Nb  Nb23  1  0.881320  0.000000  0.250000  1
  Tl  Tl24  1  0.817563  0.255210  0.750000  1
  Tl  Tl25  1  0.182437  0.744790  0.250000  1
  Tl  Tl26  1  0.817563  0.744790  0.750000  1
  Tl  Tl27  1  0.182437  0.255210  0.250000  1
  Cl  Cl28  1  0.332198  0.250302  0.565303  1
  Cl  Cl29  1  0.667802  0.749698  0.434697  1
  Cl  Cl30  1  0.332198  0.749698  0.934697  1
  Cl  Cl31  1  0.667802  0.250302  0.434697  1
  Cl  Cl32  1  0.667802  0.250302  0.065304  1
  Cl  Cl33  1  0.332198  0.749698  0.565303  1
  Cl  Cl34  1  0.667802  0.749698  0.065304  1
  Cl  Cl35  1  0.332198  0.250302  0.934697  1
  Cl  Cl36  1  0.078585  0.376677  0.659089  1
  Cl  Cl37  1  0.921415  0.623323  0.340911  1
  Cl  Cl38  1  0.078585  0.623323  0.840911  1
  Cl  Cl39  1  0.921415  0.376677  0.340911  1
  Cl  Cl40  1  0.921415  0.376677  0.159089  1
  Cl  Cl41  1  0.078585  0.623323  0.659089  1
  Cl  Cl42  1  0.921415  0.623323  0.159089  1
  Cl  Cl43  1  0.078585  0.376677  0.840911  1
  Cl  Cl44  1  0.591903  0.123974  0.652332  1
  Cl  Cl45  1  0.408097  0.876026  0.347668  1
  Cl  Cl46  1  0.591903  0.876026  0.847668  1
  Cl  Cl47  1  0.408097  0.123974  0.347668  1
  Cl  Cl48  1  0.408097  0.123974  0.152332  1
  Cl  Cl49  1  0.591903  0.876026  0.652332  1
  Cl  Cl50  1  0.408097  0.876026  0.152332  1
  Cl  Cl51  1  0.591903  0.123974  0.847668  1
  Cl  Cl52  1  0.340213  0.500000  0.568911  1
  Cl  Cl53  1  0.659787  0.500000  0.431089  1
  Cl  Cl54  1  0.340213  0.500000  0.931089  1
  Cl  Cl55  1  0.659787  0.500000  0.068911  1
  Cl  Cl56  1  0.344406  0.252334  0.750000  1
  Cl  Cl57  1  0.655594  0.747666  0.250000  1
  Cl  Cl58  1  0.344406  0.747666  0.750000  1
  Cl  Cl59  1  0.655594  0.252334  0.250000  1
  Cl  Cl60  1  0.330422  0.000000  0.559944  1
  Cl  Cl61  1  0.669578  0.000000  0.440056  1
  Cl  Cl62  1  0.330422  0.000000  0.940056  1
  Cl  Cl63  1  0.669578  0.000000  0.059944  1
  Cl  Cl64  1  0.814355  0.500000  0.750000  1
  Cl  Cl65  1  0.185645  0.500000  0.250000  1
  Cl  Cl66  1  0.832760  0.000000  0.750000  1
  Cl  Cl67  1  0.167240  0.000000  0.250000  1
  Cl  Cl68  1  0.266449  0.374567  0.091915  1
  Cl  Cl69  1  0.733551  0.625433  0.908085  1
  Cl  Cl70  1  0.266449  0.625433  0.408085  1
  Cl  Cl71  1  0.733551  0.374567  0.908085  1
  Cl  Cl72  1  0.733551  0.374567  0.591915  1
  Cl  Cl73  1  0.266449  0.625433  0.091915  1
  Cl  Cl74  1  0.733551  0.625433  0.591915  1
  Cl  Cl75  1  0.266449  0.374567  0.408085  1
  Cl  Cl76  1  0.074895  0.123690  0.654459  1
  Cl  Cl77  1  0.925105  0.876310  0.345541  1
  Cl  Cl78  1  0.074895  0.876310  0.845541  1
  Cl  Cl79  1  0.925105  0.123690  0.345541  1
  Cl  Cl80  1  0.925105  0.123690  0.154459  1
  Cl  Cl81  1  0.074895  0.876310  0.654459  1
  Cl  Cl82  1  0.925105  0.876310  0.154459  1
  Cl  Cl83  1  0.074895  0.123690  0.845541  1
  Cl  Cl84  1  0.000000  0.248475  0.500000  1
  Cl  Cl85  1  0.000000  0.751525  0.500000  1
  Cl  Cl86  1  0.000000  0.751525  0.000000  1
  Cl  Cl87  1  0.000000  0.248475  0.000000  1
