# generated using pymatgen
data_Lu12Fe3HgAu
_symmetry_space_group_name_H-M   'P 1'
_cell_length_a   8.05738495
_cell_length_b   8.05738251
_cell_length_c   8.05738500
_cell_angle_alpha   107.58955704
_cell_angle_beta   109.84251952
_cell_angle_gamma   110.99999032
_symmetry_Int_Tables_number   1
_chemical_formula_structural   Lu12Fe3HgAu
_chemical_formula_sum   'Lu12 Fe3 Hg1 Au1'
_cell_volume   402.31330611
_cell_formula_units_Z   1
loop_
 _symmetry_equiv_pos_site_id
 _symmetry_equiv_pos_as_xyz
  1  'x, y, z'
loop_
 _atom_site_type_symbol
 _atom_site_label
 _atom_site_symmetry_multiplicity
 _atom_site_fract_x
 _atom_site_fract_y
 _atom_site_fract_z
 _atom_site_occupancy
  Lu  Lu0  1  0.310116  0.307686  0.617955  1
  Lu  Lu1  1  0.689884  0.692314  0.382045  1
  Lu  Lu2  1  0.689731  0.307686  0.997569  1
  Lu  Lu3  1  0.310269  0.692314  0.002431  1
  Lu  Lu4  1  0.187264  0.420420  0.233155  1
  Lu  Lu5  1  0.812736  0.579580  0.766845  1
  Lu  Lu6  1  0.187407  0.954243  0.766837  1
  Lu  Lu7  1  0.940911  0.190978  0.749895  1
  Lu  Lu8  1  0.812593  0.045757  0.233163  1
  Lu  Lu9  1  0.059089  0.809022  0.250105  1
  Lu  Lu10  1  0.441083  0.190978  0.250066  1
  Lu  Lu11  1  0.558917  0.809022  0.749934  1
  Fe  Fe12  1  0.380367  0.380529  0.000162  1
  Fe  Fe13  1  0.619633  0.619471  0.999838  1
  Fe  Fe14  1  0.000000  0.000000  0.000000  1
  Hg  Hg15  1  0.000000  0.500000  0.500000  1
  Au  Au16  1  0.500000  0.000000  0.500000  1
