# generated using pymatgen
data_HoTm7Re2(B12Os)2
_symmetry_space_group_name_H-M   'P 1'
_cell_length_a   3.63284200
_cell_length_b   9.09276794
_cell_length_c   11.46755406
_cell_angle_alpha   90.12819849
_cell_angle_beta   90.00000000
_cell_angle_gamma   90.00000000
_symmetry_Int_Tables_number   1
_chemical_formula_structural   HoTm7Re2(B12Os)2
_chemical_formula_sum   'Ho1 Tm7 Re2 B24 Os2'
_cell_volume   378.80205520
_cell_formula_units_Z   1
loop_
 _symmetry_equiv_pos_site_id
 _symmetry_equiv_pos_as_xyz
  1  'x, y, z'
loop_
 _atom_site_type_symbol
 _atom_site_label
 _atom_site_symmetry_multiplicity
 _atom_site_fract_x
 _atom_site_fract_y
 _atom_site_fract_z
 _atom_site_occupancy
  Ho  Ho0  1  0.000000  0.320312  0.412399  1
  Tm  Tm1  1  0.000000  0.679834  0.587692  1
  Tm  Tm2  1  0.000000  0.824366  0.084538  1
  Tm  Tm3  1  0.000000  0.175626  0.915438  1
  Tm  Tm4  1  0.000000  0.943324  0.370879  1
  Tm  Tm5  1  0.000000  0.056459  0.629179  1
  Tm  Tm6  1  0.000000  0.442735  0.128457  1
  Tm  Tm7  1  0.000000  0.557320  0.871485  1
  Re  Re8  1  0.000000  0.138103  0.179465  1
  Re  Re9  1  0.000000  0.861699  0.820316  1
  B  B10  1  0.500000  0.553780  0.433512  1
  B  B11  1  0.500000  0.446628  0.566722  1
  B  B12  1  0.500000  0.052839  0.066521  1
  B  B13  1  0.500000  0.947135  0.933451  1
  B  B14  1  0.500000  0.749278  0.419260  1
  B  B15  1  0.500000  0.250709  0.581120  1
  B  B16  1  0.500000  0.249285  0.080550  1
  B  B17  1  0.500000  0.750718  0.919391  1
  B  B18  1  0.500000  0.791301  0.265536  1
  B  B19  1  0.500000  0.208707  0.734514  1
  B  B20  1  0.500000  0.292196  0.234645  1
  B  B21  1  0.500000  0.707648  0.765049  1
  B  B22  1  0.500000  0.630755  0.185447  1
  B  B23  1  0.500000  0.369303  0.814541  1
  B  B24  1  0.500000  0.130850  0.315200  1
  B  B25  1  0.500000  0.868862  0.684580  1
  B  B26  1  0.500000  0.981595  0.212614  1
  B  B27  1  0.500000  0.018340  0.787372  1
  B  B28  1  0.500000  0.482469  0.287721  1
  B  B29  1  0.500000  0.517922  0.712144  1
  B  B30  1  0.500000  0.602871  0.028715  1
  B  B31  1  0.500000  0.397149  0.971264  1
  B  B32  1  0.500000  0.102524  0.471799  1
  B  B33  1  0.500000  0.897006  0.528324  1
  Os  Os34  1  0.000000  0.637769  0.321741  1
  Os  Os35  1  0.000000  0.362581  0.678418  1
