# generated using pymatgen
data_La7Tm13Si15Ni
_symmetry_space_group_name_H-M   'P 1'
_cell_length_a   7.77501896
_cell_length_b   7.72431143
_cell_length_c   14.30232821
_cell_angle_alpha   90.04361454
_cell_angle_beta   89.84649897
_cell_angle_gamma   90.25527392
_symmetry_Int_Tables_number   1
_chemical_formula_structural   La7Tm13Si15Ni
_chemical_formula_sum   'La7 Tm13 Si15 Ni1'
_cell_volume   858.93832657
_cell_formula_units_Z   1
loop_
 _symmetry_equiv_pos_site_id
 _symmetry_equiv_pos_as_xyz
  1  'x, y, z'
loop_
 _atom_site_type_symbol
 _atom_site_label
 _atom_site_symmetry_multiplicity
 _atom_site_fract_x
 _atom_site_fract_y
 _atom_site_fract_z
 _atom_site_occupancy
  La  La0  1  0.009212  0.359586  0.536720  1
  La  La1  1  0.646608  0.991096  0.961195  1
  La  La2  1  0.142917  0.512684  0.790852  1
  La  La3  1  0.855775  0.489826  0.291326  1
  La  La4  1  0.510094  0.144506  0.207904  1
  La  La5  1  0.489046  0.856815  0.709466  1
  La  La6  1  0.354609  0.007103  0.460172  1
  Tm  Tm7  1  0.358675  0.494183  0.376405  1
  Tm  Tm8  1  0.859894  0.001096  0.373060  1
  Tm  Tm9  1  0.995683  0.138050  0.123989  1
  Tm  Tm10  1  0.010314  0.858670  0.620950  1
  Tm  Tm11  1  0.643883  0.512328  0.878192  1
  Tm  Tm12  1  0.492529  0.358286  0.624120  1
  Tm  Tm13  1  0.509119  0.640030  0.123581  1
  Tm  Tm14  1  0.135851  0.993617  0.876984  1
  Tm  Tm15  1  0.998455  0.636666  0.043987  1
  Tm  Tm16  1  0.685090  0.684750  0.498932  1
  Tm  Tm17  1  0.817483  0.182590  0.749418  1
  Tm  Tm18  1  0.175199  0.810574  0.255246  1
  Tm  Tm19  1  0.316371  0.320969  0.999337  1
  Si  Si20  1  0.940622  0.295837  0.939085  1
  Si  Si21  1  0.709326  0.063463  0.562480  1
  Si  Si22  1  0.210270  0.438082  0.185639  1
  Si  Si23  1  0.786645  0.563315  0.688261  1
  Si  Si24  1  0.435630  0.213823  0.813407  1
  Si  Si25  1  0.562519  0.787146  0.310173  1
  Si  Si26  1  0.286100  0.931906  0.063815  1
  Si  Si27  1  0.848171  0.800665  0.807905  1
  Si  Si28  1  0.148303  0.204121  0.309231  1
  Si  Si29  1  0.798331  0.847237  0.183461  1
  Si  Si30  1  0.294475  0.646533  0.559173  1
  Si  Si31  1  0.711024  0.355592  0.060623  1
  Si  Si32  1  0.647436  0.291137  0.439079  1
  Si  Si33  1  0.342600  0.702063  0.944179  1
  Si  Si34  1  0.202662  0.152692  0.691820  1
  Ni  Ni35  1  0.069080  0.712962  0.439834  1
