# generated using pymatgen
data_PuH7Ru
_symmetry_space_group_name_H-M   'P 1'
_cell_length_a   4.67912517
_cell_length_b   4.63355882
_cell_length_c   7.84280400
_cell_angle_alpha   90.00000000
_cell_angle_beta   90.00000000
_cell_angle_gamma   62.74803697
_symmetry_Int_Tables_number   1
_chemical_formula_structural   PuH7Ru
_chemical_formula_sum   'Pu2 H14 Ru2'
_cell_volume   151.16567106
_cell_formula_units_Z   2
loop_
 _symmetry_equiv_pos_site_id
 _symmetry_equiv_pos_as_xyz
  1  'x, y, z'
loop_
 _atom_site_type_symbol
 _atom_site_label
 _atom_site_symmetry_multiplicity
 _atom_site_fract_x
 _atom_site_fract_y
 _atom_site_fract_z
 _atom_site_occupancy
  Pu  Pu0  1  0.000000  0.000000  0.000000  1
  Pu  Pu1  1  0.000000  0.000000  0.500000  1
  H  H2  1  0.835613  0.886516  0.250000  1
  H  H3  1  0.164387  0.113484  0.750000  1
  H  H4  1  0.693990  0.686776  0.461160  1
  H  H5  1  0.306010  0.313224  0.961160  1
  H  H6  1  0.306010  0.313224  0.538840  1
  H  H7  1  0.693990  0.686776  0.038840  1
  H  H8  1  0.488316  0.449919  0.348682  1
  H  H9  1  0.511684  0.550081  0.848682  1
  H  H10  1  0.511684  0.550081  0.651318  1
  H  H11  1  0.488316  0.449919  0.151318  1
  H  H12  1  0.299061  0.983359  0.250000  1
  H  H13  1  0.700939  0.016641  0.750000  1
  H  H14  1  0.021585  0.318670  0.250000  1
  H  H15  1  0.978415  0.681330  0.750000  1
  Ru  Ru16  1  0.654532  0.641579  0.250000  1
  Ru  Ru17  1  0.345468  0.358421  0.750000  1
