# generated using pymatgen
data_Y3ThCoHg
_symmetry_space_group_name_H-M   'P 1'
_cell_length_a   9.58266000
_cell_length_b   9.58265970
_cell_length_c   9.58266100
_cell_angle_alpha   59.99999898
_cell_angle_beta   60.00000001
_cell_angle_gamma   60.00000296
_symmetry_Int_Tables_number   1
_chemical_formula_structural   Y3ThCoHg
_chemical_formula_sum   'Y12 Th4 Co4 Hg4'
_cell_volume   622.21901453
_cell_formula_units_Z   4
loop_
 _symmetry_equiv_pos_site_id
 _symmetry_equiv_pos_as_xyz
  1  'x, y, z'
loop_
 _atom_site_type_symbol
 _atom_site_label
 _atom_site_symmetry_multiplicity
 _atom_site_fract_x
 _atom_site_fract_y
 _atom_site_fract_z
 _atom_site_occupancy
  Y  Y0  1  0.812165  0.187835  0.187835  1
  Y  Y1  1  0.187835  0.812165  0.812165  1
  Y  Y2  1  0.187835  0.812165  0.187835  1
  Y  Y3  1  0.812165  0.187835  0.812165  1
  Y  Y4  1  0.187835  0.187835  0.812165  1
  Y  Y5  1  0.812165  0.812165  0.187835  1
  Y  Y6  1  0.937008  0.562992  0.562992  1
  Y  Y7  1  0.562992  0.937008  0.937008  1
  Y  Y8  1  0.562992  0.937008  0.562992  1
  Y  Y9  1  0.937008  0.562992  0.937008  1
  Y  Y10  1  0.562992  0.562992  0.937008  1
  Y  Y11  1  0.937008  0.937008  0.562992  1
  Th  Th12  1  0.346542  0.346542  0.346542  1
  Th  Th13  1  0.346542  0.346542  0.960374  1
  Th  Th14  1  0.346542  0.960374  0.346542  1
  Th  Th15  1  0.960374  0.346542  0.346542  1
  Co  Co16  1  0.145423  0.145423  0.145423  1
  Co  Co17  1  0.145423  0.145423  0.563731  1
  Co  Co18  1  0.145423  0.563731  0.145423  1
  Co  Co19  1  0.563731  0.145423  0.145423  1
  Hg  Hg20  1  0.586018  0.586018  0.586018  1
  Hg  Hg21  1  0.586018  0.586018  0.241946  1
  Hg  Hg22  1  0.586018  0.241946  0.586018  1
  Hg  Hg23  1  0.241946  0.586018  0.586018  1
