# generated using pymatgen
data_TmSc3InPt11
_symmetry_space_group_name_H-M   'P 1'
_cell_length_a   4.08685900
_cell_length_b   5.73967137
_cell_length_c   11.44199110
_cell_angle_alpha   88.26607087
_cell_angle_beta   90.00000000
_cell_angle_gamma   90.00000000
_symmetry_Int_Tables_number   1
_chemical_formula_structural   TmSc3InPt11
_chemical_formula_sum   'Tm1 Sc3 In1 Pt11'
_cell_volume   268.27449494
_cell_formula_units_Z   1
loop_
 _symmetry_equiv_pos_site_id
 _symmetry_equiv_pos_as_xyz
  1  'x, y, z'
loop_
 _atom_site_type_symbol
 _atom_site_label
 _atom_site_symmetry_multiplicity
 _atom_site_fract_x
 _atom_site_fract_y
 _atom_site_fract_z
 _atom_site_occupancy
  Tm  Tm0  1  0.500000  0.756698  0.375834  1
  Sc  Sc1  1  0.500000  0.716727  0.862198  1
  Sc  Sc2  1  0.500000  0.282476  0.137635  1
  Sc  Sc3  1  0.500000  0.244145  0.624241  1
  In  In4  1  0.000000  0.000348  0.998495  1
  Pt  Pt5  1  0.000000  0.019009  0.246149  1
  Pt  Pt6  1  0.000000  0.984480  0.751808  1
  Pt  Pt7  1  0.000000  0.498913  0.998800  1
  Pt  Pt8  1  0.000000  0.496231  0.503583  1
  Pt  Pt9  1  0.000000  0.512271  0.246994  1
  Pt  Pt10  1  0.000000  0.484472  0.751226  1
  Pt  Pt11  1  0.500000  0.255457  0.377075  1
  Pt  Pt12  1  0.500000  0.233838  0.877912  1
  Pt  Pt13  1  0.500000  0.765701  0.117694  1
  Pt  Pt14  1  0.500000  0.745574  0.626872  1
  Pt  Pt15  1  0.000000  0.003660  0.503487  1
