# generated using pymatgen
data_Nd3Th11(Os2Ru)2
_symmetry_space_group_name_H-M   'P 1'
_cell_length_a   9.90683872
_cell_length_b   10.01845385
_cell_length_c   6.39282554
_cell_angle_alpha   89.80604717
_cell_angle_beta   90.00305070
_cell_angle_gamma   119.97772105
_symmetry_Int_Tables_number   1
_chemical_formula_structural   Nd3Th11(Os2Ru)2
_chemical_formula_sum   'Nd3 Th11 Os4 Ru2'
_cell_volume   549.60853565
_cell_formula_units_Z   1
loop_
 _symmetry_equiv_pos_site_id
 _symmetry_equiv_pos_as_xyz
  1  'x, y, z'
loop_
 _atom_site_type_symbol
 _atom_site_label
 _atom_site_symmetry_multiplicity
 _atom_site_fract_x
 _atom_site_fract_y
 _atom_site_fract_z
 _atom_site_occupancy
  Nd  Nd0  1  0.462168  0.536236  0.295654  1
  Nd  Nd1  1  0.073698  0.537211  0.293813  1
  Nd  Nd2  1  0.925936  0.461474  0.794616  1
  Th  Th3  1  0.251015  0.126856  0.508778  1
  Th  Th4  1  0.541326  0.078822  0.800096  1
  Th  Th5  1  0.747352  0.872914  0.010368  1
  Th  Th6  1  0.666226  0.333828  0.277370  1
  Th  Th7  1  0.126315  0.872370  0.003928  1
  Th  Th8  1  0.461204  0.923220  0.300960  1
  Th  Th9  1  0.538964  0.463278  0.798807  1
  Th  Th10  1  0.875651  0.127581  0.508289  1
  Th  Th11  1  0.124179  0.249520  0.007291  1
  Th  Th12  1  0.874784  0.749977  0.506957  1
  Th  Th13  1  0.334820  0.667317  0.776443  1
  Os  Os14  1  0.811372  0.630593  0.048488  1
  Os  Os15  1  0.809614  0.179753  0.053931  1
  Os  Os16  1  0.629368  0.818663  0.553897  1
  Os  Os17  1  0.371524  0.185580  0.043426  1
  Ru  Ru18  1  0.182818  0.360453  0.555811  1
  Ru  Ru19  1  0.191665  0.824352  0.545073  1
