# generated using pymatgen
data_Sc2In2C
_symmetry_space_group_name_H-M   'P 1'
_cell_length_a   3.40425900
_cell_length_b   3.40425808
_cell_length_c   9.87528100
_cell_angle_alpha   90.00000000
_cell_angle_beta   90.00000000
_cell_angle_gamma   119.99999923
_symmetry_Int_Tables_number   1
_chemical_formula_structural   Sc2In2C
_chemical_formula_sum   'Sc2 In2 C1'
_cell_volume   99.11175546
_cell_formula_units_Z   1
loop_
 _symmetry_equiv_pos_site_id
 _symmetry_equiv_pos_as_xyz
  1  'x, y, z'
loop_
 _atom_site_type_symbol
 _atom_site_label
 _atom_site_symmetry_multiplicity
 _atom_site_fract_x
 _atom_site_fract_y
 _atom_site_fract_z
 _atom_site_occupancy
  Sc  Sc0  1  0.333334  0.666668  0.378825  1
  Sc  Sc1  1  0.666666  0.333334  0.621176  1
  In  In2  1  0.666666  0.333334  0.123914  1
  In  In3  1  0.333334  0.666668  0.876086  1
  C  C4  1  0.000000  0.000000  0.500000  1
