# generated using pymatgen
data_Tb7Ho(LuRu2)2
_symmetry_space_group_name_H-M   'P 1'
_cell_length_a   6.35544753
_cell_length_b   7.23792274
_cell_length_c   8.48277390
_cell_angle_alpha   96.65052653
_cell_angle_beta   112.09689677
_cell_angle_gamma   89.86784762
_symmetry_Int_Tables_number   1
_chemical_formula_structural   Tb7Ho(LuRu2)2
_chemical_formula_sum   'Tb7 Ho1 Lu2 Ru4'
_cell_volume   358.75441119
_cell_formula_units_Z   1
loop_
 _symmetry_equiv_pos_site_id
 _symmetry_equiv_pos_as_xyz
  1  'x, y, z'
loop_
 _atom_site_type_symbol
 _atom_site_label
 _atom_site_symmetry_multiplicity
 _atom_site_fract_x
 _atom_site_fract_y
 _atom_site_fract_z
 _atom_site_occupancy
  Tb  Tb0  1  0.523350  0.083108  0.814742  1
  Tb  Tb1  1  0.476008  0.916467  0.185354  1
  Tb  Tb2  1  0.708838  0.416889  0.185757  1
  Tb  Tb3  1  0.291814  0.583639  0.814120  1
  Tb  Tb4  1  0.295613  0.312409  0.431882  1
  Tb  Tb5  1  0.703645  0.687711  0.567915  1
  Tb  Tb6  1  0.864016  0.186902  0.567727  1
  Ho  Ho7  1  0.135747  0.813187  0.431695  1
  Lu  Lu8  1  0.076460  0.250606  0.000024  1
  Lu  Lu9  1  0.923826  0.749394  0.000500  1
  Ru  Ru10  1  0.319057  0.575701  0.217921  1
  Ru  Ru11  1  0.680981  0.424650  0.782843  1
  Ru  Ru12  1  0.102114  0.925382  0.781786  1
  Ru  Ru13  1  0.898532  0.073955  0.217734  1
