# generated using pymatgen
data_Pr4Cd2AgPd3
_symmetry_space_group_name_H-M   'P 1'
_cell_length_a   7.94524423
_cell_length_b   7.94524423
_cell_length_c   3.99259000
_cell_angle_alpha   90.00000000
_cell_angle_beta   90.00000000
_cell_angle_gamma   90.20908542
_symmetry_Int_Tables_number   1
_chemical_formula_structural   Pr4Cd2AgPd3
_chemical_formula_sum   'Pr4 Cd2 Ag1 Pd3'
_cell_volume   252.03817466
_cell_formula_units_Z   1
loop_
 _symmetry_equiv_pos_site_id
 _symmetry_equiv_pos_as_xyz
  1  'x, y, z'
loop_
 _atom_site_type_symbol
 _atom_site_label
 _atom_site_symmetry_multiplicity
 _atom_site_fract_x
 _atom_site_fract_y
 _atom_site_fract_z
 _atom_site_occupancy
  Pr  Pr0  1  0.329285  0.813348  0.500000  1
  Pr  Pr1  1  0.824080  0.675920  0.500000  1
  Pr  Pr2  1  0.162521  0.337479  0.500000  1
  Pr  Pr3  1  0.686652  0.170715  0.500000  1
  Cd  Cd4  1  0.999854  0.999051  0.000000  1
  Cd  Cd5  1  0.500949  0.500146  0.000000  1
  Ag  Ag6  1  0.374223  0.125777  0.000000  1
  Pd  Pd7  1  0.871325  0.375206  0.000000  1
  Pd  Pd8  1  0.124794  0.628675  0.000000  1
  Pd  Pd9  1  0.626317  0.873683  0.000000  1
