# generated using pymatgen
data_Pr6HoErO12
_symmetry_space_group_name_H-M   'P 1'
_cell_length_a   6.99140180
_cell_length_b   6.99140107
_cell_length_c   6.99140101
_cell_angle_alpha   91.98197762
_cell_angle_beta   91.98198194
_cell_angle_gamma   91.98197404
_symmetry_Int_Tables_number   1
_chemical_formula_structural   Pr6HoErO12
_chemical_formula_sum   'Pr6 Ho1 Er1 O12'
_cell_volume   341.10968356
_cell_formula_units_Z   1
loop_
 _symmetry_equiv_pos_site_id
 _symmetry_equiv_pos_as_xyz
  1  'x, y, z'
loop_
 _atom_site_type_symbol
 _atom_site_label
 _atom_site_symmetry_multiplicity
 _atom_site_fract_x
 _atom_site_fract_y
 _atom_site_fract_z
 _atom_site_occupancy
  Pr  Pr0  1  0.746916  0.935390  0.442361  1
  Pr  Pr1  1  0.442361  0.746916  0.935390  1
  Pr  Pr2  1  0.064610  0.557639  0.253084  1
  Pr  Pr3  1  0.935390  0.442361  0.746916  1
  Pr  Pr4  1  0.557639  0.253084  0.064610  1
  Pr  Pr5  1  0.253084  0.064610  0.557639  1
  Ho  Ho6  1  0.000000  0.000000  0.000000  1
  Er  Er7  1  0.500000  0.500000  0.500000  1
  O  O8  1  0.065369  0.911944  0.307403  1
  O  O9  1  0.692597  0.934631  0.088056  1
  O  O10  1  0.465326  0.806952  0.595110  1
  O  O11  1  0.088056  0.692597  0.934631  1
  O  O12  1  0.806952  0.595110  0.465326  1
  O  O13  1  0.404890  0.534674  0.193048  1
  O  O14  1  0.595110  0.465326  0.806952  1
  O  O15  1  0.193048  0.404890  0.534674  1
  O  O16  1  0.911944  0.307403  0.065369  1
  O  O17  1  0.534674  0.193048  0.404890  1
  O  O18  1  0.307403  0.065369  0.911944  1
  O  O19  1  0.934631  0.088056  0.692597  1
