# generated using pymatgen
data_Pr8Y12Si15B
_symmetry_space_group_name_H-M   'P 1'
_cell_length_a   7.55544210
_cell_length_b   7.78940230
_cell_length_c   14.82650906
_cell_angle_alpha   89.63015385
_cell_angle_beta   90.70059050
_cell_angle_gamma   89.95234924
_symmetry_Int_Tables_number   1
_chemical_formula_structural   Pr8Y12Si15B
_chemical_formula_sum   'Pr8 Y12 Si15 B1'
_cell_volume   872.49154720
_cell_formula_units_Z   1
loop_
 _symmetry_equiv_pos_site_id
 _symmetry_equiv_pos_as_xyz
  1  'x, y, z'
loop_
 _atom_site_type_symbol
 _atom_site_label
 _atom_site_symmetry_multiplicity
 _atom_site_fract_x
 _atom_site_fract_y
 _atom_site_fract_z
 _atom_site_occupancy
  Pr  Pr0  1  0.030506  0.183749  0.403719  1
  Pr  Pr1  1  0.538437  0.315193  0.399048  1
  Pr  Pr2  1  0.472171  0.680304  0.900246  1
  Pr  Pr3  1  0.462826  0.676732  0.596815  1
  Pr  Pr4  1  0.971648  0.817017  0.597510  1
  Pr  Pr5  1  0.973598  0.821772  0.900103  1
  Pr  Pr6  1  0.528160  0.319620  0.098240  1
  Pr  Pr7  1  0.028006  0.177771  0.098904  1
  Y  Y8  1  0.304488  0.201379  0.613453  1
  Y  Y9  1  0.685803  0.817281  0.380245  1
  Y  Y10  1  0.643656  0.992775  0.747039  1
  Y  Y11  1  0.192856  0.662505  0.386221  1
  Y  Y12  1  0.816830  0.321667  0.876202  1
  Y  Y13  1  0.818947  0.325715  0.621862  1
  Y  Y14  1  0.857829  0.489464  0.250808  1
  Y  Y15  1  0.353625  0.006105  0.250857  1
  Y  Y16  1  0.317117  0.179034  0.876232  1
  Y  Y17  1  0.183376  0.677937  0.123338  1
  Y  Y18  1  0.685333  0.820996  0.123895  1
  Y  Y19  1  0.143730  0.511853  0.744472  1
  Si  Si20  1  0.263430  0.885610  0.746956  1
  Si  Si21  1  0.480526  0.609988  0.251683  1
  Si  Si22  1  0.023148  0.113523  0.748386  1
  Si  Si23  1  0.519530  0.388964  0.748244  1
  Si  Si24  1  0.981771  0.882186  0.254378  1
  Si  Si25  1  0.738998  0.117248  0.251263  1
  Si  Si26  1  0.858009  0.530686  0.039293  1
  Si  Si27  1  0.359158  0.968665  0.039963  1
  Si  Si28  1  0.142940  0.469112  0.959981  1
  Si  Si29  1  0.638910  0.030588  0.541585  1
  Si  Si30  1  0.359893  0.970463  0.459018  1
  Si  Si31  1  0.874925  0.527236  0.464320  1
  Si  Si32  1  0.761074  0.622098  0.749543  1
  Si  Si33  1  0.238209  0.376752  0.250400  1
  Si  Si34  1  0.643772  0.029696  0.959593  1
  B  B35  1  0.106766  0.478316  0.546185  1
