# generated using pymatgen
data_Hf4ZrNiAs3
_symmetry_space_group_name_H-M   'P 1'
_cell_length_a   3.69157800
_cell_length_b   10.40929800
_cell_length_c   17.49706900
_cell_angle_alpha   90.00000000
_cell_angle_beta   90.00000000
_cell_angle_gamma   90.00000000
_symmetry_Int_Tables_number   1
_chemical_formula_structural   Hf4ZrNiAs3
_chemical_formula_sum   'Hf16 Zr4 Ni4 As12'
_cell_volume   672.35524235
_cell_formula_units_Z   4
loop_
 _symmetry_equiv_pos_site_id
 _symmetry_equiv_pos_as_xyz
  1  'x, y, z'
loop_
 _atom_site_type_symbol
 _atom_site_label
 _atom_site_symmetry_multiplicity
 _atom_site_fract_x
 _atom_site_fract_y
 _atom_site_fract_z
 _atom_site_occupancy
  Hf  Hf0  1  0.250000  0.879832  0.478066  1
  Hf  Hf1  1  0.750000  0.120168  0.521934  1
  Hf  Hf2  1  0.750000  0.379832  0.021934  1
  Hf  Hf3  1  0.250000  0.620168  0.978066  1
  Hf  Hf4  1  0.250000  0.939550  0.079222  1
  Hf  Hf5  1  0.750000  0.060450  0.920778  1
  Hf  Hf6  1  0.750000  0.439550  0.420778  1
  Hf  Hf7  1  0.250000  0.560450  0.579222  1
  Hf  Hf8  1  0.250000  0.241832  0.168315  1
  Hf  Hf9  1  0.750000  0.758168  0.831685  1
  Hf  Hf10  1  0.750000  0.741832  0.331685  1
  Hf  Hf11  1  0.250000  0.258168  0.668315  1
  Hf  Hf12  1  0.250000  0.513727  0.274605  1
  Hf  Hf13  1  0.750000  0.486273  0.725395  1
  Hf  Hf14  1  0.750000  0.013727  0.225395  1
  Hf  Hf15  1  0.250000  0.986273  0.774605  1
  Zr  Zr16  1  0.250000  0.184982  0.368199  1
  Zr  Zr17  1  0.750000  0.815018  0.631801  1
  Zr  Zr18  1  0.750000  0.684982  0.131801  1
  Zr  Zr19  1  0.250000  0.315018  0.868199  1
  Ni  Ni20  1  0.250000  0.630067  0.410613  1
  Ni  Ni21  1  0.750000  0.369933  0.589387  1
  Ni  Ni22  1  0.750000  0.130067  0.089387  1
  Ni  Ni23  1  0.250000  0.869933  0.910613  1
  As  As24  1  0.250000  0.488933  0.118158  1
  As  As25  1  0.750000  0.511067  0.881842  1
  As  As26  1  0.750000  0.988933  0.381842  1
  As  As27  1  0.250000  0.011067  0.618158  1
  As  As28  1  0.250000  0.813965  0.220884  1
  As  As29  1  0.750000  0.186035  0.779116  1
  As  As30  1  0.750000  0.313965  0.279116  1
  As  As31  1  0.250000  0.686035  0.720884  1
  As  As32  1  0.250000  0.187451  0.008200  1
  As  As33  1  0.750000  0.812549  0.991800  1
  As  As34  1  0.750000  0.687451  0.491800  1
  As  As35  1  0.250000  0.312549  0.508200  1
