# generated using pymatgen
data_Hf4Co6ReOs
_symmetry_space_group_name_H-M   'P 1'
_cell_length_a   4.92765600
_cell_length_b   4.92765576
_cell_length_c   8.14654400
_cell_angle_alpha   90.00000000
_cell_angle_beta   90.00000000
_cell_angle_gamma   120.00000161
_symmetry_Int_Tables_number   1
_chemical_formula_structural   Hf4Co6ReOs
_chemical_formula_sum   'Hf4 Co6 Re1 Os1'
_cell_volume   171.31081262
_cell_formula_units_Z   1
loop_
 _symmetry_equiv_pos_site_id
 _symmetry_equiv_pos_as_xyz
  1  'x, y, z'
loop_
 _atom_site_type_symbol
 _atom_site_label
 _atom_site_symmetry_multiplicity
 _atom_site_fract_x
 _atom_site_fract_y
 _atom_site_fract_z
 _atom_site_occupancy
  Hf  Hf0  1  0.333333  0.666667  0.431354  1
  Hf  Hf1  1  0.666667  0.333333  0.568646  1
  Hf  Hf2  1  0.666667  0.333333  0.936260  1
  Hf  Hf3  1  0.333333  0.666667  0.063740  1
  Co  Co4  1  0.828934  0.171066  0.251271  1
  Co  Co5  1  0.828934  0.657868  0.251271  1
  Co  Co6  1  0.342132  0.171066  0.251271  1
  Co  Co7  1  0.171066  0.828934  0.748729  1
  Co  Co8  1  0.171066  0.342132  0.748729  1
  Co  Co9  1  0.657868  0.828934  0.748729  1
  Re  Re10  1  0.000000  0.000000  0.500000  1
  Os  Os11  1  0.000000  0.000000  0.000000  1
