# generated using pymatgen
data_DyLu7Tl3Os
_symmetry_space_group_name_H-M   'P 1'
_cell_length_a   10.07852700
_cell_length_b   10.07852502
_cell_length_c   7.12843500
_cell_angle_alpha   90.00000000
_cell_angle_beta   90.00000000
_cell_angle_gamma   119.99999664
_symmetry_Int_Tables_number   1
_chemical_formula_structural   DyLu7Tl3Os
_chemical_formula_sum   'Dy2 Lu14 Tl6 Os2'
_cell_volume   627.07412727
_cell_formula_units_Z   2
loop_
 _symmetry_equiv_pos_site_id
 _symmetry_equiv_pos_as_xyz
  1  'x, y, z'
loop_
 _atom_site_type_symbol
 _atom_site_label
 _atom_site_symmetry_multiplicity
 _atom_site_fract_x
 _atom_site_fract_y
 _atom_site_fract_z
 _atom_site_occupancy
  Dy  Dy0  1  0.000000  0.000000  0.230967  1
  Dy  Dy1  1  0.000000  0.000000  0.730967  1
  Lu  Lu2  1  0.177452  0.822548  0.511198  1
  Lu  Lu3  1  0.645094  0.822548  0.511198  1
  Lu  Lu4  1  0.177452  0.354906  0.511198  1
  Lu  Lu5  1  0.822548  0.177452  0.011198  1
  Lu  Lu6  1  0.354906  0.177452  0.011198  1
  Lu  Lu7  1  0.822548  0.645094  0.011198  1
  Lu  Lu8  1  0.333333  0.666667  0.828397  1
  Lu  Lu9  1  0.666667  0.333333  0.328397  1
  Lu  Lu10  1  0.464251  0.535749  0.211260  1
  Lu  Lu11  1  0.071498  0.535749  0.211260  1
  Lu  Lu12  1  0.464251  0.928502  0.211260  1
  Lu  Lu13  1  0.535749  0.464251  0.711260  1
  Lu  Lu14  1  0.928502  0.464251  0.711260  1
  Lu  Lu15  1  0.535749  0.071498  0.711260  1
  Tl  Tl16  1  0.164826  0.835174  0.956778  1
  Tl  Tl17  1  0.670349  0.835174  0.956778  1
  Tl  Tl18  1  0.164826  0.329651  0.956778  1
  Tl  Tl19  1  0.835174  0.164826  0.456778  1
  Tl  Tl20  1  0.329651  0.164826  0.456778  1
  Tl  Tl21  1  0.835174  0.670349  0.456778  1
  Os  Os22  1  0.333333  0.666667  0.440348  1
  Os  Os23  1  0.666667  0.333333  0.940348  1
