# generated using pymatgen
data_Tm2Pa(InIr)3
_symmetry_space_group_name_H-M   'P 1'
_cell_length_a   7.78846500
_cell_length_b   7.52006570
_cell_length_c   3.82196900
_cell_angle_alpha   90.00000000
_cell_angle_beta   90.00000000
_cell_angle_gamma   121.18784091
_symmetry_Int_Tables_number   1
_chemical_formula_structural   Tm2Pa(InIr)3
_chemical_formula_sum   'Tm2 Pa1 In3 Ir3'
_cell_volume   191.49946774
_cell_formula_units_Z   1
loop_
 _symmetry_equiv_pos_site_id
 _symmetry_equiv_pos_as_xyz
  1  'x, y, z'
loop_
 _atom_site_type_symbol
 _atom_site_label
 _atom_site_symmetry_multiplicity
 _atom_site_fract_x
 _atom_site_fract_y
 _atom_site_fract_z
 _atom_site_occupancy
  Tm  Tm0  1  0.999428  0.402310  0.500000  1
  Tm  Tm1  1  0.597118  0.597690  0.500000  1
  Pa  Pa2  1  0.416460  0.000000  0.500000  1
  In  In3  1  0.755739  0.000000  0.000000  1
  In  In4  1  0.259931  0.272882  0.000000  1
  In  In5  1  0.987049  0.727118  0.000000  1
  Ir  Ir6  1  0.639165  0.304177  0.000000  1
  Ir  Ir7  1  0.334987  0.695822  0.000000  1
  Ir  Ir8  1  0.010121  0.000000  0.500000  1
