# generated using pymatgen
data_HoEr3(GaRh)4
_symmetry_space_group_name_H-M   'P 1'
_cell_length_a   4.30413700
_cell_length_b   6.79245500
_cell_length_c   7.74102136
_cell_angle_alpha   89.91133755
_cell_angle_beta   90.00000000
_cell_angle_gamma   90.00000000
_symmetry_Int_Tables_number   1
_chemical_formula_structural   HoEr3(GaRh)4
_chemical_formula_sum   'Ho1 Er3 Ga4 Rh4'
_cell_volume   226.31357332
_cell_formula_units_Z   1
loop_
 _symmetry_equiv_pos_site_id
 _symmetry_equiv_pos_as_xyz
  1  'x, y, z'
loop_
 _atom_site_type_symbol
 _atom_site_label
 _atom_site_symmetry_multiplicity
 _atom_site_fract_x
 _atom_site_fract_y
 _atom_site_fract_z
 _atom_site_occupancy
  Ho  Ho0  1  0.250000  0.975958  0.308682  1
  Er  Er1  1  0.250000  0.475693  0.191072  1
  Er  Er2  1  0.750000  0.024229  0.691653  1
  Er  Er3  1  0.750000  0.524138  0.808573  1
  Ga  Ga4  1  0.250000  0.340863  0.571424  1
  Ga  Ga5  1  0.250000  0.840337  0.928433  1
  Ga  Ga6  1  0.750000  0.659119  0.428900  1
  Ga  Ga7  1  0.750000  0.159865  0.071101  1
  Rh  Rh8  1  0.250000  0.231341  0.894645  1
  Rh  Rh9  1  0.250000  0.731028  0.605722  1
  Rh  Rh10  1  0.750000  0.768252  0.104951  1
  Rh  Rh11  1  0.750000  0.269175  0.394845  1
