# generated using pymatgen
data_Th3Ga3Pd2Rh
_symmetry_space_group_name_H-M   'P 1'
_cell_length_a   7.35407000
_cell_length_b   7.35407098
_cell_length_c   4.09642000
_cell_angle_alpha   90.00000000
_cell_angle_beta   90.00000000
_cell_angle_gamma   120.00000457
_symmetry_Int_Tables_number   1
_chemical_formula_structural   Th3Ga3Pd2Rh
_chemical_formula_sum   'Th3 Ga3 Pd2 Rh1'
_cell_volume   191.86275064
_cell_formula_units_Z   1
loop_
 _symmetry_equiv_pos_site_id
 _symmetry_equiv_pos_as_xyz
  1  'x, y, z'
loop_
 _atom_site_type_symbol
 _atom_site_label
 _atom_site_symmetry_multiplicity
 _atom_site_fract_x
 _atom_site_fract_y
 _atom_site_fract_z
 _atom_site_occupancy
  Th  Th0  1  0.993299  0.412942  0.500000  1
  Th  Th1  1  0.587058  0.580357  0.500000  1
  Th  Th2  1  0.419643  0.006701  0.500000  1
  Ga  Ga3  1  0.998730  0.756062  0.000000  1
  Ga  Ga4  1  0.243938  0.242667  0.000000  1
  Ga  Ga5  1  0.757333  0.001270  0.000000  1
  Pd  Pd6  1  0.333333  0.666667  0.000000  1
  Pd  Pd7  1  0.000000  0.000000  0.500000  1
  Rh  Rh8  1  0.666667  0.333333  0.000000  1
