# generated using pymatgen
data_Tb7Pr9(MgSn4)4
_symmetry_space_group_name_H-M   'P 1'
_cell_length_a   7.84093900
_cell_length_b   8.39569710
_cell_length_c   15.48307700
_cell_angle_alpha   89.94466758
_cell_angle_beta   89.99891853
_cell_angle_gamma   90.15865332
_symmetry_Int_Tables_number   1
_chemical_formula_structural   Tb7Pr9(MgSn4)4
_chemical_formula_sum   'Tb7 Pr9 Mg4 Sn16'
_cell_volume   1019.24888055
_cell_formula_units_Z   1
loop_
 _symmetry_equiv_pos_site_id
 _symmetry_equiv_pos_as_xyz
  1  'x, y, z'
loop_
 _atom_site_type_symbol
 _atom_site_label
 _atom_site_symmetry_multiplicity
 _atom_site_fract_x
 _atom_site_fract_y
 _atom_site_fract_z
 _atom_site_occupancy
  Tb  Tb0  1  0.664936  0.829257  0.371486  1
  Tb  Tb1  1  0.163747  0.670145  0.370372  1
  Tb  Tb2  1  0.664905  0.829833  0.127448  1
  Tb  Tb3  1  0.835288  0.329516  0.628296  1
  Tb  Tb4  1  0.334550  0.169991  0.873161  1
  Tb  Tb5  1  0.836406  0.329573  0.873017  1
  Tb  Tb6  1  0.164573  0.670122  0.127589  1
  Pr  Pr7  1  0.001075  0.182210  0.095185  1
  Pr  Pr8  1  0.998627  0.817888  0.906578  1
  Pr  Pr9  1  0.499783  0.682183  0.906580  1
  Pr  Pr10  1  0.998846  0.818630  0.594518  1
  Pr  Pr11  1  0.500800  0.317997  0.095181  1
  Pr  Pr12  1  0.001334  0.181747  0.403874  1
  Pr  Pr13  1  0.501750  0.317558  0.403435  1
  Pr  Pr14  1  0.498949  0.682501  0.595088  1
  Pr  Pr15  1  0.335897  0.172099  0.627087  1
  Mg  Mg16  1  0.161639  0.505940  0.751198  1
  Mg  Mg17  1  0.837924  0.495571  0.249671  1
  Mg  Mg18  1  0.338353  0.003815  0.249575  1
  Mg  Mg19  1  0.661501  0.993181  0.751600  1
  Sn  Sn20  1  0.021005  0.098874  0.752470  1
  Sn  Sn21  1  0.975437  0.897798  0.249371  1
  Sn  Sn22  1  0.475901  0.602467  0.249405  1
  Sn  Sn23  1  0.526164  0.402203  0.752595  1
  Sn  Sn24  1  0.172591  0.464739  0.536624  1
  Sn  Sn25  1  0.823146  0.539351  0.460843  1
  Sn  Sn26  1  0.324478  0.958780  0.457999  1
  Sn  Sn27  1  0.823566  0.539174  0.039036  1
  Sn  Sn28  1  0.681028  0.038339  0.536963  1
  Sn  Sn29  1  0.176387  0.460719  0.961659  1
  Sn  Sn30  1  0.675332  0.039174  0.961534  1
  Sn  Sn31  1  0.323570  0.961014  0.039356  1
  Sn  Sn32  1  0.298864  0.855391  0.751536  1
  Sn  Sn33  1  0.699891  0.140854  0.249383  1
  Sn  Sn34  1  0.199838  0.359239  0.249562  1
  Sn  Sn35  1  0.801922  0.642132  0.750726  1
