# generated using pymatgen
data_DyY3NiB16Ir3
_symmetry_space_group_name_H-M   'P 1'
_cell_length_a   6.98783959
_cell_length_b   6.98771764
_cell_length_c   6.98783835
_cell_angle_alpha   111.32772974
_cell_angle_beta   112.30299111
_cell_angle_gamma   104.88052490
_symmetry_Int_Tables_number   1
_chemical_formula_structural   DyY3NiB16Ir3
_chemical_formula_sum   'Dy1 Y3 Ni1 B16 Ir3'
_cell_volume   261.38899068
_cell_formula_units_Z   1
loop_
 _symmetry_equiv_pos_site_id
 _symmetry_equiv_pos_as_xyz
  1  'x, y, z'
loop_
 _atom_site_type_symbol
 _atom_site_label
 _atom_site_symmetry_multiplicity
 _atom_site_fract_x
 _atom_site_fract_y
 _atom_site_fract_z
 _atom_site_occupancy
  Dy  Dy0  1  0.248542  0.749188  0.500645  1
  Y  Y1  1  0.787421  0.790274  0.002853  1
  Y  Y2  1  0.212586  0.215448  0.002861  1
  Y  Y3  1  0.751381  0.252090  0.500709  1
  Ni  Ni4  1  0.499866  0.256515  0.756649  1
  B  B5  1  0.270093  0.108624  0.378850  1
  B  B6  1  0.735367  0.893809  0.629327  1
  B  B7  1  0.264482  0.893809  0.158442  1
  B  B8  1  0.729773  0.108624  0.838531  1
  B  B9  1  0.108220  0.731903  0.839983  1
  B  B10  1  0.891106  0.264634  0.155579  1
  B  B11  1  0.109055  0.264634  0.373528  1
  B  B12  1  0.891921  0.731903  0.623683  1
  B  B13  1  0.118024  0.112751  0.531655  1
  B  B14  1  0.584633  0.584288  0.474758  1
  B  B15  1  0.109532  0.584288  0.999656  1
  B  B16  1  0.581095  0.112751  0.994727  1
  B  B17  1  0.890608  0.889980  0.474753  1
  B  B18  1  0.418765  0.413778  0.531635  1
  B  B19  1  0.882142  0.413778  0.995013  1
  B  B20  1  0.415227  0.889980  0.999372  1
  Ir  Ir21  1  0.266851  0.496923  0.763492  1
  Ir  Ir22  1  0.733431  0.496923  0.230071  1
  Ir  Ir23  1  0.499879  0.743106  0.243227  1
