# generated using pymatgen
data_Ce12MnFe6Si5
_symmetry_space_group_name_H-M   'P 1'
_cell_length_a   7.48166100
_cell_length_b   7.48166033
_cell_length_c   9.59643700
_cell_angle_alpha   90.00000000
_cell_angle_beta   90.00000000
_cell_angle_gamma   119.99999855
_symmetry_Int_Tables_number   1
_chemical_formula_structural   Ce12MnFe6Si5
_chemical_formula_sum   'Ce12 Mn1 Fe6 Si5'
_cell_volume   465.19674538
_cell_formula_units_Z   1
loop_
 _symmetry_equiv_pos_site_id
 _symmetry_equiv_pos_as_xyz
  1  'x, y, z'
loop_
 _atom_site_type_symbol
 _atom_site_label
 _atom_site_symmetry_multiplicity
 _atom_site_fract_x
 _atom_site_fract_y
 _atom_site_fract_z
 _atom_site_occupancy
  Ce  Ce0  1  0.000000  0.575246  0.490434  1
  Ce  Ce1  1  0.575246  0.000000  0.490434  1
  Ce  Ce2  1  0.424754  0.424754  0.490434  1
  Ce  Ce3  1  0.000000  0.424247  0.001534  1
  Ce  Ce4  1  0.424247  0.000000  0.001534  1
  Ce  Ce5  1  0.575753  0.575753  0.001534  1
  Ce  Ce6  1  0.000000  0.763359  0.167273  1
  Ce  Ce7  1  0.763359  0.000000  0.167273  1
  Ce  Ce8  1  0.236641  0.236641  0.167273  1
  Ce  Ce9  1  0.000000  0.243807  0.691326  1
  Ce  Ce10  1  0.243807  0.000000  0.691326  1
  Ce  Ce11  1  0.756193  0.756193  0.691326  1
  Mn  Mn12  1  0.000000  0.000000  0.927437  1
  Fe  Fe13  1  0.000000  0.353625  0.343938  1
  Fe  Fe14  1  0.353625  0.000000  0.343938  1
  Fe  Fe15  1  0.646375  0.646375  0.343938  1
  Fe  Fe16  1  0.000000  0.638428  0.844019  1
  Fe  Fe17  1  0.638428  0.000000  0.844019  1
  Fe  Fe18  1  0.361572  0.361572  0.844019  1
  Si  Si19  1  0.666667  0.333333  0.262179  1
  Si  Si20  1  0.333333  0.666667  0.262179  1
  Si  Si21  1  0.333333  0.666667  0.767353  1
  Si  Si22  1  0.666667  0.333333  0.767353  1
  Si  Si23  1  0.000000  0.000000  0.427180  1
