# generated using pymatgen
data_Nd6Tm10Cd4TcPt3
_symmetry_space_group_name_H-M   'P 1'
_cell_length_a   9.73940808
_cell_length_b   9.73940742
_cell_length_c   9.73940633
_cell_angle_alpha   59.59490146
_cell_angle_beta   59.59490268
_cell_angle_gamma   59.59490798
_symmetry_Int_Tables_number   1
_chemical_formula_structural   Nd6Tm10Cd4TcPt3
_chemical_formula_sum   'Nd6 Tm10 Cd4 Tc1 Pt3'
_cell_volume   647.23982268
_cell_formula_units_Z   1
loop_
 _symmetry_equiv_pos_site_id
 _symmetry_equiv_pos_as_xyz
  1  'x, y, z'
loop_
 _atom_site_type_symbol
 _atom_site_label
 _atom_site_symmetry_multiplicity
 _atom_site_fract_x
 _atom_site_fract_y
 _atom_site_fract_z
 _atom_site_occupancy
  Nd  Nd0  1  0.937853  0.561576  0.561576  1
  Nd  Nd1  1  0.553619  0.941248  0.941248  1
  Nd  Nd2  1  0.561576  0.937853  0.561576  1
  Nd  Nd3  1  0.941248  0.553619  0.941248  1
  Nd  Nd4  1  0.561576  0.561576  0.937853  1
  Nd  Nd5  1  0.941248  0.941248  0.553619  1
  Tm  Tm6  1  0.350599  0.350599  0.350599  1
  Tm  Tm7  1  0.348925  0.348925  0.954568  1
  Tm  Tm8  1  0.348925  0.954568  0.348925  1
  Tm  Tm9  1  0.954568  0.348925  0.348925  1
  Tm  Tm10  1  0.817761  0.184984  0.184984  1
  Tm  Tm11  1  0.183902  0.812410  0.812410  1
  Tm  Tm12  1  0.184984  0.817761  0.184984  1
  Tm  Tm13  1  0.812410  0.183902  0.812410  1
  Tm  Tm14  1  0.184984  0.184984  0.817761  1
  Tm  Tm15  1  0.812410  0.812410  0.183902  1
  Cd  Cd16  1  0.578840  0.578840  0.578840  1
  Cd  Cd17  1  0.579271  0.579271  0.260177  1
  Cd  Cd18  1  0.579271  0.260177  0.579271  1
  Cd  Cd19  1  0.260177  0.579271  0.579271  1
  Tc  Tc20  1  0.143744  0.143744  0.143744  1
  Pt  Pt21  1  0.143683  0.143683  0.574743  1
  Pt  Pt22  1  0.143683  0.574743  0.143683  1
  Pt  Pt23  1  0.574743  0.143683  0.143683  1
