# generated using pymatgen
data_Sc5Ta(Co2Sn)6
_symmetry_space_group_name_H-M   'P 1'
_cell_length_a   4.39395500
_cell_length_b   6.22164901
_cell_length_c   13.16194301
_cell_angle_alpha   90.00503020
_cell_angle_beta   89.99853844
_cell_angle_gamma   90.00028161
_symmetry_Int_Tables_number   1
_chemical_formula_structural   Sc5Ta(Co2Sn)6
_chemical_formula_sum   'Sc5 Ta1 Co12 Sn6'
_cell_volume   359.81653412
_cell_formula_units_Z   1
loop_
 _symmetry_equiv_pos_site_id
 _symmetry_equiv_pos_as_xyz
  1  'x, y, z'
loop_
 _atom_site_type_symbol
 _atom_site_label
 _atom_site_symmetry_multiplicity
 _atom_site_fract_x
 _atom_site_fract_y
 _atom_site_fract_z
 _atom_site_occupancy
  Sc  Sc0  1  0.500221  0.500044  0.166845  1
  Sc  Sc1  1  0.000218  0.000049  0.334168  1
  Sc  Sc2  1  0.500000  0.500000  0.500000  1
  Sc  Sc3  1  0.999780  0.999951  0.665833  1
  Sc  Sc4  1  0.499780  0.499956  0.833155  1
  Ta  Ta5  1  0.000000  0.000000  0.000000  1
  Co  Co6  1  0.500000  0.233602  0.999997  1
  Co  Co7  1  0.500000  0.766397  0.000003  1
  Co  Co8  1  0.000308  0.243185  0.160873  1
  Co  Co9  1  0.000309  0.756816  0.160877  1
  Co  Co10  1  0.500285  0.251135  0.333296  1
  Co  Co11  1  0.500286  0.748867  0.333292  1
  Co  Co12  1  0.999999  0.250290  0.500003  1
  Co  Co13  1  0.000001  0.749710  0.499997  1
  Co  Co14  1  0.499715  0.251132  0.666708  1
  Co  Co15  1  0.499716  0.748864  0.666704  1
  Co  Co16  1  0.999692  0.243183  0.839123  1
  Co  Co17  1  0.999693  0.756814  0.839127  1
  Sn  Sn18  1  0.000000  0.500000  0.000000  1
  Sn  Sn19  1  0.500319  0.000037  0.169803  1
  Sn  Sn20  1  0.000240  0.499962  0.332220  1
  Sn  Sn21  1  0.500000  0.000000  0.500000  1
  Sn  Sn22  1  0.999761  0.500038  0.667781  1
  Sn  Sn23  1  0.499679  0.999963  0.830197  1
