# generated using pymatgen
data_NaAc2PrB24
_symmetry_space_group_name_H-M   'P 1'
_cell_length_a   7.22293463
_cell_length_b   7.22293317
_cell_length_c   5.93589300
_cell_angle_alpha   90.00000000
_cell_angle_beta   90.00000000
_cell_angle_gamma   109.22482028
_symmetry_Int_Tables_number   1
_chemical_formula_structural   NaAc2PrB24
_chemical_formula_sum   'Na1 Ac2 Pr1 B24'
_cell_volume   292.41045427
_cell_formula_units_Z   1
loop_
 _symmetry_equiv_pos_site_id
 _symmetry_equiv_pos_as_xyz
  1  'x, y, z'
loop_
 _atom_site_type_symbol
 _atom_site_label
 _atom_site_symmetry_multiplicity
 _atom_site_fract_x
 _atom_site_fract_y
 _atom_site_fract_z
 _atom_site_occupancy
  Na  Na0  1  0.000000  0.000000  0.000000  1
  Ac  Ac1  1  0.751529  0.248471  0.500000  1
  Ac  Ac2  1  0.248471  0.751529  0.500000  1
  Pr  Pr3  1  0.500000  0.500000  0.000000  1
  B  B4  1  0.175727  0.324489  0.650094  1
  B  B5  1  0.924651  0.575700  0.147735  1
  B  B6  1  0.675511  0.824273  0.650094  1
  B  B7  1  0.424300  0.075349  0.147735  1
  B  B8  1  0.175727  0.324489  0.349906  1
  B  B9  1  0.924651  0.575700  0.852265  1
  B  B10  1  0.675511  0.824273  0.349906  1
  B  B11  1  0.424300  0.075349  0.852265  1
  B  B12  1  0.399443  0.399443  0.500000  1
  B  B13  1  0.148455  0.650385  0.000000  1
  B  B14  1  0.899039  0.899039  0.500000  1
  B  B15  1  0.650385  0.148455  0.000000  1
  B  B16  1  0.324489  0.175727  0.650094  1
  B  B17  1  0.075349  0.424300  0.147735  1
  B  B18  1  0.824273  0.675511  0.650094  1
  B  B19  1  0.575700  0.924651  0.147735  1
  B  B20  1  0.100961  0.100961  0.500000  1
  B  B21  1  0.851545  0.349615  0.000000  1
  B  B22  1  0.600557  0.600557  0.500000  1
  B  B23  1  0.349615  0.851545  0.000000  1
  B  B24  1  0.324489  0.175727  0.349906  1
  B  B25  1  0.075349  0.424300  0.852265  1
  B  B26  1  0.824273  0.675511  0.349906  1
  B  B27  1  0.575700  0.924651  0.852265  1
