# generated using pymatgen
data_Pr4Al3OsI2
_symmetry_space_group_name_H-M   'P 1'
_cell_length_a   4.35386100
_cell_length_b   4.35386142
_cell_length_c   17.58877600
_cell_angle_alpha   90.00000000
_cell_angle_beta   90.00000000
_cell_angle_gamma   119.99998924
_symmetry_Int_Tables_number   1
_chemical_formula_structural   Pr4Al3OsI2
_chemical_formula_sum   'Pr4 Al3 Os1 I2'
_cell_volume   288.74565510
_cell_formula_units_Z   1
loop_
 _symmetry_equiv_pos_site_id
 _symmetry_equiv_pos_as_xyz
  1  'x, y, z'
loop_
 _atom_site_type_symbol
 _atom_site_label
 _atom_site_symmetry_multiplicity
 _atom_site_fract_x
 _atom_site_fract_y
 _atom_site_fract_z
 _atom_site_occupancy
  Pr  Pr0  1  0.000000  0.000000  0.606109  1
  Pr  Pr1  1  0.000000  0.000000  0.395050  1
  Pr  Pr2  1  0.000000  0.000000  0.117597  1
  Pr  Pr3  1  0.000000  0.000000  0.881353  1
  Al  Al4  1  0.666667  0.333333  0.500364  1
  Al  Al5  1  0.333333  0.666667  0.006935  1
  Al  Al6  1  0.666667  0.333333  0.992350  1
  Os  Os7  1  0.333333  0.666667  0.500011  1
  I  I8  1  0.666667  0.333333  0.247501  1
  I  I9  1  0.333333  0.666667  0.752729  1
