# generated using pymatgen
data_Sr5MgOs3O16
_symmetry_space_group_name_H-M   'P 1'
_cell_length_a   5.73013198
_cell_length_b   5.73242086
_cell_length_c   10.29830118
_cell_angle_alpha   93.61254799
_cell_angle_beta   93.58432173
_cell_angle_gamma   90.42595530
_symmetry_Int_Tables_number   1
_chemical_formula_structural   Sr5MgOs3O16
_chemical_formula_sum   'Sr5 Mg1 Os3 O16'
_cell_volume   336.91921401
_cell_formula_units_Z   1
loop_
 _symmetry_equiv_pos_site_id
 _symmetry_equiv_pos_as_xyz
  1  'x, y, z'
loop_
 _atom_site_type_symbol
 _atom_site_label
 _atom_site_symmetry_multiplicity
 _atom_site_fract_x
 _atom_site_fract_y
 _atom_site_fract_z
 _atom_site_occupancy
  Sr  Sr0  1  0.516243  0.029140  0.192811  1
  Sr  Sr1  1  0.029729  0.515773  0.193121  1
  Sr  Sr2  1  0.000058  0.000026  0.500012  1
  Sr  Sr3  1  0.970299  0.484288  0.806901  1
  Sr  Sr4  1  0.483774  0.970872  0.807239  1
  Mg  Mg5  1  0.499984  0.499990  0.000026  1
  Os  Os6  1  0.999992  0.000021  0.000004  1
  Os  Os7  1  0.561156  0.561016  0.385798  1
  Os  Os8  1  0.438841  0.438900  0.614167  1
  O  O9  1  0.757321  0.237092  0.999837  1
  O  O10  1  0.768097  0.763019  0.030312  1
  O  O11  1  0.060263  0.061200  0.177839  1
  O  O12  1  0.468397  0.467828  0.197483  1
  O  O13  1  0.771532  0.771669  0.323209  1
  O  O14  1  0.307565  0.755328  0.372674  1
  O  O15  1  0.756152  0.308015  0.372870  1
  O  O16  1  0.317324  0.316735  0.441238  1
  O  O17  1  0.682624  0.683203  0.558696  1
  O  O18  1  0.243823  0.692005  0.627125  1
  O  O19  1  0.692467  0.244627  0.627298  1
  O  O20  1  0.228389  0.228235  0.676816  1
  O  O21  1  0.531607  0.532136  0.802528  1
  O  O22  1  0.939770  0.938864  0.822163  1
  O  O23  1  0.231898  0.237043  0.969682  1
  O  O24  1  0.242694  0.762965  0.000162  1
