# generated using pymatgen
data_Er3Hf5Ir4
_symmetry_space_group_name_H-M   'P 1'
_cell_length_a   4.55810300
_cell_length_b   6.88552122
_cell_length_c   8.18094739
_cell_angle_alpha   90.78272722
_cell_angle_beta   90.00000000
_cell_angle_gamma   90.00000000
_symmetry_Int_Tables_number   1
_chemical_formula_structural   Er3Hf5Ir4
_chemical_formula_sum   'Er3 Hf5 Ir4'
_cell_volume   256.73437936
_cell_formula_units_Z   1
loop_
 _symmetry_equiv_pos_site_id
 _symmetry_equiv_pos_as_xyz
  1  'x, y, z'
loop_
 _atom_site_type_symbol
 _atom_site_label
 _atom_site_symmetry_multiplicity
 _atom_site_fract_x
 _atom_site_fract_y
 _atom_site_fract_z
 _atom_site_occupancy
  Er  Er0  1  0.250000  0.486507  0.176466  1
  Er  Er1  1  0.750000  0.016041  0.680219  1
  Er  Er2  1  0.250000  0.986446  0.321527  1
  Hf  Hf3  1  0.750000  0.643618  0.428996  1
  Hf  Hf4  1  0.250000  0.360388  0.579722  1
  Hf  Hf5  1  0.750000  0.145262  0.073096  1
  Hf  Hf6  1  0.250000  0.850342  0.922690  1
  Hf  Hf7  1  0.750000  0.511112  0.828392  1
  Ir  Ir8  1  0.750000  0.264348  0.407467  1
  Ir  Ir9  1  0.250000  0.736398  0.593738  1
  Ir  Ir10  1  0.750000  0.756652  0.083660  1
  Ir  Ir11  1  0.250000  0.242888  0.904024  1
