# generated using pymatgen
data_Nd2Y3Si12Ir19
_symmetry_space_group_name_H-M   'P 1'
_cell_length_a   12.87521300
_cell_length_b   12.87521415
_cell_length_c   4.00439400
_cell_angle_alpha   90.00000000
_cell_angle_beta   90.00000000
_cell_angle_gamma   120.00000475
_symmetry_Int_Tables_number   1
_chemical_formula_structural   Nd2Y3Si12Ir19
_chemical_formula_sum   'Nd2 Y3 Si12 Ir19'
_cell_volume   574.87880444
_cell_formula_units_Z   1
loop_
 _symmetry_equiv_pos_site_id
 _symmetry_equiv_pos_as_xyz
  1  'x, y, z'
loop_
 _atom_site_type_symbol
 _atom_site_label
 _atom_site_symmetry_multiplicity
 _atom_site_fract_x
 _atom_site_fract_y
 _atom_site_fract_z
 _atom_site_occupancy
  Nd  Nd0  1  0.333333  0.666667  0.000000  1
  Nd  Nd1  1  0.666667  0.333333  0.000000  1
  Y  Y2  1  0.000000  0.814517  0.500000  1
  Y  Y3  1  0.185483  0.185483  0.500000  1
  Y  Y4  1  0.814517  0.000000  0.500000  1
  Si  Si5  1  0.000000  0.181052  0.000000  1
  Si  Si6  1  0.818948  0.818948  0.000000  1
  Si  Si7  1  0.181052  0.000000  0.000000  1
  Si  Si8  1  0.521201  0.688179  0.500000  1
  Si  Si9  1  0.311821  0.833022  0.500000  1
  Si  Si10  1  0.166978  0.478799  0.500000  1
  Si  Si11  1  0.478799  0.166978  0.500000  1
  Si  Si12  1  0.688179  0.521201  0.500000  1
  Si  Si13  1  0.833022  0.311821  0.500000  1
  Si  Si14  1  0.000000  0.631461  0.000000  1
  Si  Si15  1  0.368539  0.368539  0.000000  1
  Si  Si16  1  0.631461  0.000000  0.000000  1
  Ir  Ir17  1  0.000000  0.281751  0.500000  1
  Ir  Ir18  1  0.718249  0.718249  0.500000  1
  Ir  Ir19  1  0.281751  0.000000  0.500000  1
  Ir  Ir20  1  0.624682  0.806767  0.000000  1
  Ir  Ir21  1  0.193233  0.817915  0.000000  1
  Ir  Ir22  1  0.182085  0.375318  0.000000  1
  Ir  Ir23  1  0.375318  0.182085  0.000000  1
  Ir  Ir24  1  0.806767  0.624682  0.000000  1
  Ir  Ir25  1  0.817915  0.193233  0.000000  1
  Ir  Ir26  1  0.513474  0.874873  0.500000  1
  Ir  Ir27  1  0.125127  0.638601  0.500000  1
  Ir  Ir28  1  0.361399  0.486526  0.500000  1
  Ir  Ir29  1  0.486526  0.361399  0.500000  1
  Ir  Ir30  1  0.874873  0.513474  0.500000  1
  Ir  Ir31  1  0.638601  0.125127  0.500000  1
  Ir  Ir32  1  0.000000  0.000000  0.000000  1
  Ir  Ir33  1  0.000000  0.446962  0.000000  1
  Ir  Ir34  1  0.553038  0.553038  0.000000  1
  Ir  Ir35  1  0.446962  0.000000  0.000000  1
