# generated using pymatgen
data_DyNp4Ga15
_symmetry_space_group_name_H-M   'P 1'
_cell_length_a   12.52348531
_cell_length_b   12.52348554
_cell_length_c   12.52348459
_cell_angle_alpha   28.17318697
_cell_angle_beta   28.17318563
_cell_angle_gamma   28.17318439
_symmetry_Int_Tables_number   1
_chemical_formula_structural   DyNp4Ga15
_chemical_formula_sum   'Dy1 Np4 Ga15'
_cell_volume   386.81065496
_cell_formula_units_Z   1
loop_
 _symmetry_equiv_pos_site_id
 _symmetry_equiv_pos_as_xyz
  1  'x, y, z'
loop_
 _atom_site_type_symbol
 _atom_site_label
 _atom_site_symmetry_multiplicity
 _atom_site_fract_x
 _atom_site_fract_y
 _atom_site_fract_z
 _atom_site_occupancy
  Dy  Dy0  1  0.000000  0.000000  0.000000  1
  Np  Np1  1  0.130111  0.130111  0.130111  1
  Np  Np2  1  0.869889  0.869889  0.869889  1
  Np  Np3  1  0.400458  0.400458  0.400458  1
  Np  Np4  1  0.599542  0.599542  0.599542  1
  Ga  Ga5  1  0.428080  0.885059  0.885059  1
  Ga  Ga6  1  0.885059  0.885059  0.428080  1
  Ga  Ga7  1  0.885059  0.428080  0.885059  1
  Ga  Ga8  1  0.114941  0.571920  0.114941  1
  Ga  Ga9  1  0.114941  0.114941  0.571920  1
  Ga  Ga10  1  0.571920  0.114941  0.114941  1
  Ga  Ga11  1  0.129690  0.636435  0.636435  1
  Ga  Ga12  1  0.636435  0.636435  0.129690  1
  Ga  Ga13  1  0.636435  0.129690  0.636435  1
  Ga  Ga14  1  0.363565  0.870310  0.363565  1
  Ga  Ga15  1  0.363565  0.363565  0.870310  1
  Ga  Ga16  1  0.870310  0.363565  0.363565  1
  Ga  Ga17  1  0.500000  0.500000  0.000000  1
  Ga  Ga18  1  0.500000  0.000000  0.500000  1
  Ga  Ga19  1  0.000000  0.500000  0.500000  1
