# generated using pymatgen
data_Yb3Pu(Ga12Cu)2
_symmetry_space_group_name_H-M   'P 1'
_cell_length_a   6.16312400
_cell_length_b   6.16312450
_cell_length_c   15.28966900
_cell_angle_alpha   90.00000000
_cell_angle_beta   90.00000000
_cell_angle_gamma   90.38132860
_symmetry_Int_Tables_number   1
_chemical_formula_structural   Yb3Pu(Ga12Cu)2
_chemical_formula_sum   'Yb3 Pu1 Ga24 Cu2'
_cell_volume   580.75146154
_cell_formula_units_Z   1
loop_
 _symmetry_equiv_pos_site_id
 _symmetry_equiv_pos_as_xyz
  1  'x, y, z'
loop_
 _atom_site_type_symbol
 _atom_site_label
 _atom_site_symmetry_multiplicity
 _atom_site_fract_x
 _atom_site_fract_y
 _atom_site_fract_z
 _atom_site_occupancy
  Yb  Yb0  1  0.500000  0.000000  0.757729  1
  Yb  Yb1  1  0.000000  0.500000  0.242069  1
  Yb  Yb2  1  0.500000  0.000000  0.241424  1
  Pu  Pu3  1  0.000000  0.500000  0.759861  1
  Ga  Ga4  1  0.668904  0.168904  0.429619  1
  Ga  Ga5  1  0.666048  0.833952  0.569347  1
  Ga  Ga6  1  0.167594  0.667594  0.571367  1
  Ga  Ga7  1  0.832406  0.332406  0.571367  1
  Ga  Ga8  1  0.500000  0.500000  0.182332  1
  Ga  Ga9  1  0.500000  0.500000  0.817282  1
  Ga  Ga10  1  0.000000  0.000000  0.817282  1
  Ga  Ga11  1  0.000000  0.000000  0.182332  1
  Ga  Ga12  1  0.500000  0.500000  0.343432  1
  Ga  Ga13  1  0.500000  0.500000  0.656249  1
  Ga  Ga14  1  0.000000  0.000000  0.656249  1
  Ga  Ga15  1  0.000000  0.000000  0.343432  1
  Ga  Ga16  1  0.250932  0.750932  0.913356  1
  Ga  Ga17  1  0.250777  0.249223  0.913850  1
  Ga  Ga18  1  0.749223  0.750777  0.913850  1
  Ga  Ga19  1  0.249365  0.250635  0.086696  1
  Ga  Ga20  1  0.750635  0.749365  0.086696  1
  Ga  Ga21  1  0.749068  0.249068  0.913356  1
  Ga  Ga22  1  0.750344  0.250344  0.087027  1
  Ga  Ga23  1  0.249656  0.749656  0.087027  1
  Ga  Ga24  1  0.331096  0.831096  0.429619  1
  Ga  Ga25  1  0.166640  0.333360  0.429857  1
  Ga  Ga26  1  0.833360  0.666640  0.429857  1
  Ga  Ga27  1  0.333952  0.166048  0.569347  1
  Cu  Cu28  1  0.500000  0.000000  0.999491  1
  Cu  Cu29  1  0.000000  0.500000  0.998599  1
