# generated using pymatgen
data_TaNb3VB4Mo
_symmetry_space_group_name_H-M   'P 1'
_cell_length_a   6.08641577
_cell_length_b   6.08473077
_cell_length_c   3.27332200
_cell_angle_alpha   90.00000000
_cell_angle_beta   90.00000000
_cell_angle_gamma   90.08731488
_symmetry_Int_Tables_number   1
_chemical_formula_structural   TaNb3VB4Mo
_chemical_formula_sum   'Ta1 Nb3 V1 B4 Mo1'
_cell_volume   121.22472502
_cell_formula_units_Z   1
loop_
 _symmetry_equiv_pos_site_id
 _symmetry_equiv_pos_as_xyz
  1  'x, y, z'
loop_
 _atom_site_type_symbol
 _atom_site_label
 _atom_site_symmetry_multiplicity
 _atom_site_fract_x
 _atom_site_fract_y
 _atom_site_fract_z
 _atom_site_occupancy
  Ta  Ta0  1  0.681970  0.177623  0.500000  1
  Nb  Nb1  1  0.318213  0.822502  0.500000  1
  Nb  Nb2  1  0.177058  0.317554  0.500000  1
  Nb  Nb3  1  0.822244  0.682183  0.500000  1
  V  V4  1  0.000244  0.999908  0.000000  1
  B  B5  1  0.107202  0.609007  0.000000  1
  B  B6  1  0.891278  0.389261  0.000000  1
  B  B7  1  0.610068  0.893666  0.000000  1
  B  B8  1  0.391840  0.108193  0.000000  1
  Mo  Mo9  1  0.499880  0.500103  0.000000  1
