# generated using pymatgen
data_Y4TcMoRu6
_symmetry_space_group_name_H-M   'P 1'
_cell_length_a   5.43173869
_cell_length_b   5.32518707
_cell_length_c   9.10391900
_cell_angle_alpha   90.00000000
_cell_angle_beta   90.00000000
_cell_angle_gamma   123.19145311
_symmetry_Int_Tables_number   1
_chemical_formula_structural   Y4TcMoRu6
_chemical_formula_sum   'Y4 Tc1 Mo1 Ru6'
_cell_volume   220.36755839
_cell_formula_units_Z   1
loop_
 _symmetry_equiv_pos_site_id
 _symmetry_equiv_pos_as_xyz
  1  'x, y, z'
loop_
 _atom_site_type_symbol
 _atom_site_label
 _atom_site_symmetry_multiplicity
 _atom_site_fract_x
 _atom_site_fract_y
 _atom_site_fract_z
 _atom_site_occupancy
  Y  Y0  1  0.340429  0.669879  0.433207  1
  Y  Y1  1  0.670279  0.344064  0.563941  1
  Y  Y2  1  0.670279  0.344064  0.936059  1
  Y  Y3  1  0.340429  0.669879  0.066793  1
  Tc  Tc4  1  0.323364  0.161793  0.250000  1
  Mo  Mo5  1  0.157131  0.320918  0.750000  1
  Ru  Ru6  1  0.168051  0.821252  0.750000  1
  Ru  Ru7  1  0.817339  0.646607  0.250000  1
  Ru  Ru8  1  0.650617  0.819061  0.750000  1
  Ru  Ru9  1  0.019226  0.017980  0.001647  1
  Ru  Ru10  1  0.823633  0.166522  0.250000  1
  Ru  Ru11  1  0.019226  0.017980  0.498353  1
