# generated using pymatgen
data_Ho6Al16Os6Rh
_symmetry_space_group_name_H-M   'P 1'
_cell_length_a   8.92688149
_cell_length_b   8.92688152
_cell_length_c   8.92688000
_cell_angle_alpha   59.99999824
_cell_angle_beta   59.99999811
_cell_angle_gamma   59.99999673
_symmetry_Int_Tables_number   1
_chemical_formula_structural   Ho6Al16Os6Rh
_chemical_formula_sum   'Ho6 Al16 Os6 Rh1'
_cell_volume   503.01879956
_cell_formula_units_Z   1
loop_
 _symmetry_equiv_pos_site_id
 _symmetry_equiv_pos_as_xyz
  1  'x, y, z'
loop_
 _atom_site_type_symbol
 _atom_site_label
 _atom_site_symmetry_multiplicity
 _atom_site_fract_x
 _atom_site_fract_y
 _atom_site_fract_z
 _atom_site_occupancy
  Ho  Ho0  1  0.210913  0.789087  0.789087  1
  Ho  Ho1  1  0.789087  0.210913  0.210913  1
  Ho  Ho2  1  0.789087  0.210913  0.789087  1
  Ho  Ho3  1  0.789087  0.789087  0.210913  1
  Ho  Ho4  1  0.210913  0.789087  0.210913  1
  Ho  Ho5  1  0.210913  0.210913  0.789087  1
  Al  Al6  1  0.832705  0.832705  0.832705  1
  Al  Al7  1  0.832705  0.832705  0.501884  1
  Al  Al8  1  0.501884  0.832705  0.832705  1
  Al  Al9  1  0.832705  0.501884  0.832705  1
  Al  Al10  1  0.167295  0.167295  0.167295  1
  Al  Al11  1  0.167295  0.167295  0.498116  1
  Al  Al12  1  0.167295  0.498116  0.167295  1
  Al  Al13  1  0.498116  0.167295  0.167295  1
  Al  Al14  1  0.622277  0.622277  0.622277  1
  Al  Al15  1  0.622277  0.622277  0.133168  1
  Al  Al16  1  0.133168  0.622277  0.622277  1
  Al  Al17  1  0.622277  0.133168  0.622277  1
  Al  Al18  1  0.377723  0.377723  0.377723  1
  Al  Al19  1  0.377723  0.377723  0.866832  1
  Al  Al20  1  0.377723  0.866832  0.377723  1
  Al  Al21  1  0.866832  0.377723  0.377723  1
  Os  Os22  1  0.000000  0.500000  0.500000  1
  Os  Os23  1  0.500000  0.000000  0.000000  1
  Os  Os24  1  0.500000  0.000000  0.500000  1
  Os  Os25  1  0.500000  0.500000  0.000000  1
  Os  Os26  1  0.000000  0.500000  0.000000  1
  Os  Os27  1  0.000000  0.000000  0.500000  1
  Rh  Rh28  1  0.500000  0.500000  0.500000  1
