# generated using pymatgen
data_Ho7TmV4O20
_symmetry_space_group_name_H-M   'P 1'
_cell_length_a   3.71201100
_cell_length_b   10.32383489
_cell_length_c   11.22927605
_cell_angle_alpha   90.06924083
_cell_angle_beta   90.00000000
_cell_angle_gamma   90.00000000
_symmetry_Int_Tables_number   1
_chemical_formula_structural   Ho7TmV4O20
_chemical_formula_sum   'Ho7 Tm1 V4 O20'
_cell_volume   430.33012100
_cell_formula_units_Z   1
loop_
 _symmetry_equiv_pos_site_id
 _symmetry_equiv_pos_as_xyz
  1  'x, y, z'
loop_
 _atom_site_type_symbol
 _atom_site_label
 _atom_site_symmetry_multiplicity
 _atom_site_fract_x
 _atom_site_fract_y
 _atom_site_fract_z
 _atom_site_occupancy
  Ho  Ho0  1  0.250000  0.121750  0.772371  1
  Ho  Ho1  1  0.250000  0.136111  0.443652  1
  Ho  Ho2  1  0.750000  0.362961  0.944955  1
  Ho  Ho3  1  0.750000  0.378271  0.272509  1
  Ho  Ho4  1  0.250000  0.621730  0.727530  1
  Ho  Ho5  1  0.250000  0.637487  0.056049  1
  Ho  Ho6  1  0.750000  0.862930  0.554989  1
  Tm  Tm7  1  0.750000  0.877424  0.227929  1
  V  V8  1  0.250000  0.167004  0.117092  1
  V  V9  1  0.750000  0.331884  0.616480  1
  V  V10  1  0.250000  0.668588  0.382728  1
  V  V11  1  0.750000  0.832220  0.883855  1
  O  O12  1  0.250000  0.994988  0.604949  1
  O  O13  1  0.250000  0.003456  0.154397  1
  O  O14  1  0.750000  0.232661  0.114231  1
  O  O15  1  0.750000  0.244907  0.767864  1
  O  O16  1  0.250000  0.225718  0.955608  1
  O  O17  1  0.750000  0.272946  0.455279  1
  O  O18  1  0.250000  0.255191  0.267992  1
  O  O19  1  0.250000  0.266548  0.613775  1
  O  O20  1  0.750000  0.495993  0.652325  1
  O  O21  1  0.750000  0.505330  0.105672  1
  O  O22  1  0.250000  0.495204  0.894774  1
  O  O23  1  0.250000  0.504661  0.346433  1
  O  O24  1  0.750000  0.733578  0.384682  1
  O  O25  1  0.750000  0.745227  0.732264  1
  O  O26  1  0.250000  0.726247  0.544293  1
  O  O27  1  0.750000  0.775101  0.046070  1
  O  O28  1  0.250000  0.757429  0.232471  1
  O  O29  1  0.250000  0.766926  0.886428  1
  O  O30  1  0.750000  0.995798  0.847426  1
  O  O31  1  0.750000  0.003728  0.392928  1
