# generated using pymatgen
data_Ba4Si6AgHg
_symmetry_space_group_name_H-M   'P 1'
_cell_length_a   12.56612348
_cell_length_b   10.95489299
_cell_length_c   8.67170707
_cell_angle_alpha   78.67788942
_cell_angle_beta   58.73920413
_cell_angle_gamma   42.58290726
_symmetry_Int_Tables_number   1
_chemical_formula_structural   Ba4Si6AgHg
_chemical_formula_sum   'Ba8 Si12 Ag2 Hg2'
_cell_volume   653.90503124
_cell_formula_units_Z   2
loop_
 _symmetry_equiv_pos_site_id
 _symmetry_equiv_pos_as_xyz
  1  'x, y, z'
loop_
 _atom_site_type_symbol
 _atom_site_label
 _atom_site_symmetry_multiplicity
 _atom_site_fract_x
 _atom_site_fract_y
 _atom_site_fract_z
 _atom_site_occupancy
  Ba  Ba0  1  0.126398  0.122028  0.874648  1
  Ba  Ba1  1  0.874649  0.876926  0.126397  1
  Ba  Ba2  1  0.127973  0.123603  0.373074  1
  Ba  Ba3  1  0.373075  0.375352  0.127972  1
  Ba  Ba4  1  0.622939  0.624116  0.376252  1
  Ba  Ba5  1  0.376252  0.376693  0.622939  1
  Ba  Ba6  1  0.625885  0.627061  0.873307  1
  Ba  Ba7  1  0.873308  0.873749  0.625884  1
  Si  Si8  1  0.909128  0.596368  0.434744  1
  Si  Si9  1  0.069629  0.424439  0.591726  1
  Si  Si10  1  0.434744  0.059761  0.909128  1
  Si  Si11  1  0.591726  0.914206  0.069629  1
  Si  Si12  1  0.335794  0.658274  0.825561  1
  Si  Si13  1  0.653632  0.340872  0.190239  1
  Si  Si14  1  0.825561  0.180371  0.335794  1
  Si  Si15  1  0.190239  0.815256  0.653632  1
  Si  Si16  1  0.906925  0.593076  0.906924  1
  Si  Si17  1  0.588072  0.911929  0.588071  1
  Si  Si18  1  0.338072  0.661929  0.338072  1
  Si  Si19  1  0.656924  0.343076  0.656924  1
  Ag  Ag20  1  0.167016  0.832984  0.167016  1
  Ag  Ag21  1  0.417016  0.082984  0.417016  1
  Hg  Hg22  1  0.082524  0.417476  0.082524  1
  Hg  Hg23  1  0.832524  0.167476  0.832524  1
