# generated using pymatgen
data_Dy4YTm2Co6Sn23
_symmetry_space_group_name_H-M   'P 1'
_cell_length_a   9.69032421
_cell_length_b   9.69336806
_cell_length_c   9.95403007
_cell_angle_alpha   90.00000093
_cell_angle_beta   90.01155483
_cell_angle_gamma   120.01039413
_symmetry_Int_Tables_number   1
_chemical_formula_structural   Dy4YTm2Co6Sn23
_chemical_formula_sum   'Dy4 Y1 Tm2 Co6 Sn23'
_cell_volume   809.64955593
_cell_formula_units_Z   1
loop_
 _symmetry_equiv_pos_site_id
 _symmetry_equiv_pos_as_xyz
  1  'x, y, z'
loop_
 _atom_site_type_symbol
 _atom_site_label
 _atom_site_symmetry_multiplicity
 _atom_site_fract_x
 _atom_site_fract_y
 _atom_site_fract_z
 _atom_site_occupancy
  Dy  Dy0  1  0.043073  0.521537  0.306198  1
  Dy  Dy1  1  0.478458  0.956881  0.306441  1
  Dy  Dy2  1  0.478458  0.521576  0.306441  1
  Dy  Dy3  1  0.956857  0.478429  0.693816  1
  Y  Y4  1  0.000050  0.000025  0.999818  1
  Tm  Tm5  1  0.521110  0.042148  0.693919  1
  Tm  Tm6  1  0.521110  0.478962  0.693919  1
  Co  Co7  1  0.168290  0.832896  0.803041  1
  Co  Co8  1  0.664178  0.832089  0.802882  1
  Co  Co9  1  0.168290  0.335394  0.803041  1
  Co  Co10  1  0.832397  0.167630  0.196617  1
  Co  Co11  1  0.335216  0.167608  0.196697  1
  Co  Co12  1  0.832397  0.664767  0.196617  1
  Sn  Sn13  1  0.000160  0.000080  0.500057  1
  Sn  Sn14  1  0.118137  0.881948  0.274754  1
  Sn  Sn15  1  0.763690  0.881845  0.274723  1
  Sn  Sn16  1  0.118137  0.236191  0.274754  1
  Sn  Sn17  1  0.881120  0.117946  0.725116  1
  Sn  Sn18  1  0.237522  0.118761  0.725016  1
  Sn  Sn19  1  0.881120  0.763173  0.725116  1
  Sn  Sn20  1  0.346146  0.000090  0.999777  1
  Sn  Sn21  1  0.653881  0.653948  0.999765  1
  Sn  Sn22  1  0.000045  0.346003  0.999897  1
  Sn  Sn23  1  0.346146  0.346056  0.999777  1
  Sn  Sn24  1  0.000045  0.654042  0.999897  1
  Sn  Sn25  1  0.653881  0.999933  0.999765  1
  Sn  Sn26  1  0.780782  0.562225  0.451692  1
  Sn  Sn27  1  0.780782  0.218556  0.451692  1
  Sn  Sn28  1  0.437917  0.218958  0.452132  1
  Sn  Sn29  1  0.219742  0.437859  0.549286  1
  Sn  Sn30  1  0.219742  0.781885  0.549286  1
  Sn  Sn31  1  0.562131  0.781066  0.549749  1
  Sn  Sn32  1  0.666632  0.333315  0.182145  1
  Sn  Sn33  1  0.333650  0.666825  0.817655  1
  Sn  Sn34  1  0.665308  0.332653  0.881008  1
  Sn  Sn35  1  0.333397  0.666699  0.117495  1
