# generated using pymatgen
data_Rb2MnTcP2
_symmetry_space_group_name_H-M   'P 1'
_cell_length_a   3.98569200
_cell_length_b   3.98569200
_cell_length_c   11.53875800
_cell_angle_alpha   90.00000000
_cell_angle_beta   90.00000000
_cell_angle_gamma   90.00000000
_symmetry_Int_Tables_number   1
_chemical_formula_structural   Rb2MnTcP2
_chemical_formula_sum   'Rb2 Mn1 Tc1 P2'
_cell_volume   183.30171781
_cell_formula_units_Z   1
loop_
 _symmetry_equiv_pos_site_id
 _symmetry_equiv_pos_as_xyz
  1  'x, y, z'
loop_
 _atom_site_type_symbol
 _atom_site_label
 _atom_site_symmetry_multiplicity
 _atom_site_fract_x
 _atom_site_fract_y
 _atom_site_fract_z
 _atom_site_occupancy
  Rb  Rb0  1  0.000000  0.500000  0.284696  1
  Rb  Rb1  1  0.500000  0.000000  0.715304  1
  Mn  Mn2  1  0.500000  0.500000  0.000000  1
  Tc  Tc3  1  0.000000  0.000000  0.000000  1
  P  P4  1  0.000000  0.500000  0.890269  1
  P  P5  1  0.500000  0.000000  0.109731  1
