# generated using pymatgen
data_Zr6Ta4Al12IrRu6
_symmetry_space_group_name_H-M   'P 1'
_cell_length_a   8.84574672
_cell_length_b   8.83941928
_cell_length_c   8.83941812
_cell_angle_alpha   60.07845932
_cell_angle_beta   59.97631015
_cell_angle_gamma   59.97631444
_symmetry_Int_Tables_number   1
_chemical_formula_structural   Zr6Ta4Al12IrRu6
_chemical_formula_sum   'Zr6 Ta4 Al12 Ir1 Ru6'
_cell_volume   488.84142063
_cell_formula_units_Z   1
loop_
 _symmetry_equiv_pos_site_id
 _symmetry_equiv_pos_as_xyz
  1  'x, y, z'
loop_
 _atom_site_type_symbol
 _atom_site_label
 _atom_site_symmetry_multiplicity
 _atom_site_fract_x
 _atom_site_fract_y
 _atom_site_fract_z
 _atom_site_occupancy
  Zr  Zr0  1  0.697397  0.696846  0.303262  1
  Zr  Zr1  1  0.302494  0.696846  0.303262  1
  Zr  Zr2  1  0.695026  0.304974  0.304974  1
  Zr  Zr3  1  0.302494  0.303262  0.696846  1
  Zr  Zr4  1  0.697397  0.303262  0.696846  1
  Zr  Zr5  1  0.305722  0.694278  0.694278  1
  Ta  Ta6  1  0.879506  0.879191  0.361800  1
  Ta  Ta7  1  0.879506  0.361800  0.879191  1
  Ta  Ta8  1  0.361603  0.878505  0.878505  1
  Ta  Ta9  1  0.881388  0.878505  0.878505  1
  Al  Al10  1  0.120666  0.121233  0.637433  1
  Al  Al11  1  0.120666  0.637433  0.121233  1
  Al  Al12  1  0.637552  0.121565  0.121565  1
  Al  Al13  1  0.119316  0.121565  0.121565  1
  Al  Al14  1  0.661517  0.659983  0.016983  1
  Al  Al15  1  0.661517  0.016983  0.659983  1
  Al  Al16  1  0.014829  0.661417  0.661417  1
  Al  Al17  1  0.662337  0.661417  0.661417  1
  Al  Al18  1  0.334629  0.336379  0.994363  1
  Al  Al19  1  0.334629  0.994363  0.336379  1
  Al  Al20  1  0.995466  0.334941  0.334941  1
  Al  Al21  1  0.334653  0.334941  0.334941  1
  Ir  Ir22  1  0.502380  0.997620  0.997620  1
  Ru  Ru23  1  0.000299  0.999701  0.999701  1
  Ru  Ru24  1  0.997067  0.996677  0.503420  1
  Ru  Ru25  1  0.502835  0.996677  0.503420  1
  Ru  Ru26  1  0.997208  0.502792  0.502792  1
  Ru  Ru27  1  0.502835  0.503420  0.996677  1
  Ru  Ru28  1  0.997067  0.503420  0.996677  1
