# generated using pymatgen
data_Ba2HgBi3Rh2
_symmetry_space_group_name_H-M   'P 1'
_cell_length_a   10.18158334
_cell_length_b   10.18158348
_cell_length_c   4.89266400
_cell_angle_alpha   90.00000000
_cell_angle_beta   90.00000000
_cell_angle_gamma   151.42013732
_symmetry_Int_Tables_number   1
_chemical_formula_structural   Ba2HgBi3Rh2
_chemical_formula_sum   'Ba2 Hg1 Bi3 Rh2'
_cell_volume   242.63419332
_cell_formula_units_Z   1
loop_
 _symmetry_equiv_pos_site_id
 _symmetry_equiv_pos_as_xyz
  1  'x, y, z'
loop_
 _atom_site_type_symbol
 _atom_site_label
 _atom_site_symmetry_multiplicity
 _atom_site_fract_x
 _atom_site_fract_y
 _atom_site_fract_z
 _atom_site_occupancy
  Ba  Ba0  1  0.611118  0.388882  0.250000  1
  Ba  Ba1  1  0.390849  0.609151  0.750000  1
  Hg  Hg2  1  0.951915  0.048085  0.250000  1
  Bi  Bi3  1  0.253221  0.746779  0.250000  1
  Bi  Bi4  1  0.747288  0.252712  0.750000  1
  Bi  Bi5  1  0.046030  0.953970  0.750000  1
  Rh  Rh6  1  0.814245  0.185756  0.250000  1
  Rh  Rh7  1  0.185335  0.814666  0.750000  1
