# generated using pymatgen
data_NaEu(CO3)2
_symmetry_space_group_name_H-M   'P 1'
_cell_length_a   6.44427928
_cell_length_b   6.45921032
_cell_length_c   6.45732554
_cell_angle_alpha   46.39734306
_cell_angle_beta   46.44779978
_cell_angle_gamma   46.44164399
_symmetry_Int_Tables_number   1
_chemical_formula_structural   NaEu(CO3)2
_chemical_formula_sum   'Na1 Eu1 C2 O6'
_cell_volume   128.81434083
_cell_formula_units_Z   1
loop_
 _symmetry_equiv_pos_site_id
 _symmetry_equiv_pos_as_xyz
  1  'x, y, z'
loop_
 _atom_site_type_symbol
 _atom_site_label
 _atom_site_symmetry_multiplicity
 _atom_site_fract_x
 _atom_site_fract_y
 _atom_site_fract_z
 _atom_site_occupancy
  Na  Na0  1  0.500000  0.500000  0.500000  1
  Eu  Eu1  1  0.000000  0.000000  0.000000  1
  C  C2  1  0.251465  0.252459  0.251893  1
  C  C3  1  0.748535  0.747541  0.748107  1
  O  O4  1  0.747004  0.493176  0.002550  1
  O  O5  1  0.506214  0.997443  0.253188  1
  O  O6  1  0.997118  0.253305  0.506533  1
  O  O7  1  0.002882  0.746695  0.493467  1
  O  O8  1  0.493786  0.002557  0.746812  1
  O  O9  1  0.252996  0.506824  0.997451  1
