# generated using pymatgen
data_Rb2BiSb3Au4
_symmetry_space_group_name_H-M   'P 1'
_cell_length_a   4.96226400
_cell_length_b   5.00271215
_cell_length_c   11.38716631
_cell_angle_alpha   89.17245515
_cell_angle_beta   90.00000000
_cell_angle_gamma   90.00000000
_symmetry_Int_Tables_number   1
_chemical_formula_structural   Rb2BiSb3Au4
_chemical_formula_sum   'Rb2 Bi1 Sb3 Au4'
_cell_volume   282.65439503
_cell_formula_units_Z   1
loop_
 _symmetry_equiv_pos_site_id
 _symmetry_equiv_pos_as_xyz
  1  'x, y, z'
loop_
 _atom_site_type_symbol
 _atom_site_label
 _atom_site_symmetry_multiplicity
 _atom_site_fract_x
 _atom_site_fract_y
 _atom_site_fract_z
 _atom_site_occupancy
  Rb  Rb0  1  0.250000  0.742924  0.757024  1
  Rb  Rb1  1  0.750000  0.256979  0.242795  1
  Bi  Bi2  1  0.750000  0.750647  0.499244  1
  Sb  Sb3  1  0.250000  0.248448  0.500906  1
  Sb  Sb4  1  0.250000  0.782077  0.122379  1
  Sb  Sb5  1  0.750000  0.217464  0.877665  1
  Au  Au6  1  0.750000  0.708982  0.000947  1
  Au  Au7  1  0.750000  0.246902  0.635591  1
  Au  Au8  1  0.250000  0.754108  0.364517  1
  Au  Au9  1  0.250000  0.291468  0.998934  1
