# generated using pymatgen
data_Er4MnV3B16
_symmetry_space_group_name_H-M   'P 1'
_cell_length_a   3.42361500
_cell_length_b   5.94791139
_cell_length_c   11.50826169
_cell_angle_alpha   89.92164145
_cell_angle_beta   90.00000000
_cell_angle_gamma   90.00000000
_symmetry_Int_Tables_number   1
_chemical_formula_structural   Er4MnV3B16
_chemical_formula_sum   'Er4 Mn1 V3 B16'
_cell_volume   234.34664115
_cell_formula_units_Z   1
loop_
 _symmetry_equiv_pos_site_id
 _symmetry_equiv_pos_as_xyz
  1  'x, y, z'
loop_
 _atom_site_type_symbol
 _atom_site_label
 _atom_site_symmetry_multiplicity
 _atom_site_fract_x
 _atom_site_fract_y
 _atom_site_fract_z
 _atom_site_occupancy
  Er  Er0  1  0.000000  0.625219  0.350679  1
  Er  Er1  1  0.000000  0.375485  0.650436  1
  Er  Er2  1  0.000000  0.124379  0.151982  1
  Er  Er3  1  0.000000  0.875990  0.847047  1
  Mn  Mn4  1  0.000000  0.875339  0.580921  1
  V  V5  1  0.000000  0.627368  0.082830  1
  V  V6  1  0.000000  0.372629  0.914949  1
  V  V7  1  0.000000  0.125283  0.420141  1
  B  B8  1  0.500000  0.786257  0.186829  1
  B  B9  1  0.500000  0.212968  0.812402  1
  B  B10  1  0.500000  0.284602  0.315525  1
  B  B11  1  0.500000  0.719806  0.682012  1
  B  B12  1  0.500000  0.865337  0.032629  1
  B  B13  1  0.500000  0.134505  0.967049  1
  B  B14  1  0.500000  0.365084  0.469064  1
  B  B15  1  0.500000  0.638204  0.533339  1
  B  B16  1  0.500000  0.883744  0.455255  1
  B  B17  1  0.500000  0.110217  0.548984  1
  B  B18  1  0.500000  0.384161  0.047601  1
  B  B19  1  0.500000  0.615464  0.951815  1
  B  B20  1  0.500000  0.975857  0.308774  1
  B  B21  1  0.500000  0.020633  0.690654  1
  B  B22  1  0.500000  0.475513  0.193456  1
  B  B23  1  0.500000  0.525955  0.805626  1
