# generated using pymatgen
data_SmTcNi4P3
_symmetry_space_group_name_H-M   'P 1'
_cell_length_a   3.74303700
_cell_length_b   10.60701800
_cell_length_c   11.98860700
_cell_angle_alpha   90.00000000
_cell_angle_beta   90.00000000
_cell_angle_gamma   90.00000000
_symmetry_Int_Tables_number   1
_chemical_formula_structural   SmTcNi4P3
_chemical_formula_sum   'Sm4 Tc4 Ni16 P12'
_cell_volume   475.97719987
_cell_formula_units_Z   4
loop_
 _symmetry_equiv_pos_site_id
 _symmetry_equiv_pos_as_xyz
  1  'x, y, z'
loop_
 _atom_site_type_symbol
 _atom_site_label
 _atom_site_symmetry_multiplicity
 _atom_site_fract_x
 _atom_site_fract_y
 _atom_site_fract_z
 _atom_site_occupancy
  Sm  Sm0  1  0.250000  0.587460  0.705597  1
  Sm  Sm1  1  0.250000  0.912540  0.205597  1
  Sm  Sm2  1  0.750000  0.412540  0.294403  1
  Sm  Sm3  1  0.750000  0.087460  0.794403  1
  Tc  Tc4  1  0.250000  0.711631  0.988799  1
  Tc  Tc5  1  0.250000  0.788369  0.488799  1
  Tc  Tc6  1  0.750000  0.288369  0.011201  1
  Tc  Tc7  1  0.750000  0.211631  0.511201  1
  Ni  Ni8  1  0.250000  0.409620  0.489990  1
  Ni  Ni9  1  0.250000  0.090380  0.989990  1
  Ni  Ni10  1  0.750000  0.590380  0.510010  1
  Ni  Ni11  1  0.750000  0.909620  0.010010  1
  Ni  Ni12  1  0.250000  0.220730  0.177850  1
  Ni  Ni13  1  0.250000  0.279270  0.677850  1
  Ni  Ni14  1  0.750000  0.779270  0.822150  1
  Ni  Ni15  1  0.750000  0.720730  0.322150  1
  Ni  Ni16  1  0.250000  0.886263  0.702877  1
  Ni  Ni17  1  0.250000  0.613737  0.202877  1
  Ni  Ni18  1  0.750000  0.113737  0.297123  1
  Ni  Ni19  1  0.750000  0.386263  0.797123  1
  Ni  Ni20  1  0.250000  0.465527  0.930858  1
  Ni  Ni21  1  0.250000  0.034473  0.430858  1
  Ni  Ni22  1  0.750000  0.534473  0.069142  1
  Ni  Ni23  1  0.750000  0.965527  0.569142  1
  P  P24  1  0.250000  0.417577  0.110565  1
  P  P25  1  0.250000  0.082423  0.610565  1
  P  P26  1  0.750000  0.582423  0.889435  1
  P  P27  1  0.750000  0.917577  0.389435  1
  P  P28  1  0.250000  0.271572  0.870520  1
  P  P29  1  0.250000  0.228428  0.370520  1
  P  P30  1  0.750000  0.728428  0.129480  1
  P  P31  1  0.750000  0.771572  0.629480  1
  P  P32  1  0.250000  0.599323  0.390648  1
  P  P33  1  0.250000  0.900677  0.890648  1
  P  P34  1  0.750000  0.400677  0.609352  1
  P  P35  1  0.750000  0.099323  0.109352  1
