# generated using pymatgen
data_Tm23ZrTe12
_symmetry_space_group_name_H-M   'P 1'
_cell_length_a   4.01089100
_cell_length_b   11.38182782
_cell_length_c   21.94788600
_cell_angle_alpha   89.95307836
_cell_angle_beta   90.00000000
_cell_angle_gamma   90.00000000
_symmetry_Int_Tables_number   1
_chemical_formula_structural   Tm23ZrTe12
_chemical_formula_sum   'Tm23 Zr1 Te12'
_cell_volume   1001.94855027
_cell_formula_units_Z   1
loop_
 _symmetry_equiv_pos_site_id
 _symmetry_equiv_pos_as_xyz
  1  'x, y, z'
loop_
 _atom_site_type_symbol
 _atom_site_label
 _atom_site_symmetry_multiplicity
 _atom_site_fract_x
 _atom_site_fract_y
 _atom_site_fract_z
 _atom_site_occupancy
  Tm  Tm0  1  0.250000  0.148902  0.394315  1
  Tm  Tm1  1  0.750000  0.853880  0.604385  1
  Tm  Tm2  1  0.750000  0.650383  0.108323  1
  Tm  Tm3  1  0.250000  0.349214  0.891307  1
  Tm  Tm4  1  0.250000  0.453593  0.340188  1
  Tm  Tm5  1  0.750000  0.546911  0.658911  1
  Tm  Tm6  1  0.750000  0.952322  0.161919  1
  Tm  Tm7  1  0.250000  0.047813  0.838296  1
  Tm  Tm8  1  0.250000  0.733656  0.232195  1
  Tm  Tm9  1  0.750000  0.265507  0.767108  1
  Tm  Tm10  1  0.750000  0.232919  0.269738  1
  Tm  Tm11  1  0.250000  0.765565  0.729666  1
  Tm  Tm12  1  0.250000  0.115370  0.034568  1
  Tm  Tm13  1  0.750000  0.884731  0.965387  1
  Tm  Tm14  1  0.750000  0.620296  0.466421  1
  Tm  Tm15  1  0.250000  0.387926  0.534939  1
  Tm  Tm16  1  0.250000  0.416676  0.144913  1
  Tm  Tm17  1  0.750000  0.583278  0.855251  1
  Tm  Tm18  1  0.750000  0.917516  0.360435  1
  Tm  Tm19  1  0.250000  0.083950  0.644005  1
  Tm  Tm20  1  0.250000  0.612793  0.982972  1
  Tm  Tm21  1  0.750000  0.386773  0.017154  1
  Tm  Tm22  1  0.750000  0.102044  0.514939  1
  Zr  Zr23  1  0.250000  0.884640  0.481877  1
  Te  Te24  1  0.250000  0.850810  0.068972  1
  Te  Te25  1  0.750000  0.149402  0.931071  1
  Te  Te26  1  0.750000  0.351473  0.432587  1
  Te  Te27  1  0.250000  0.654620  0.568771  1
  Te  Te28  1  0.250000  0.712086  0.372402  1
  Te  Te29  1  0.750000  0.287138  0.626528  1
  Te  Te30  1  0.750000  0.210109  0.129048  1
  Te  Te31  1  0.250000  0.789876  0.871028  1
  Te  Te32  1  0.250000  0.017527  0.263124  1
  Te  Te33  1  0.750000  0.980247  0.737564  1
  Te  Te34  1  0.750000  0.519161  0.239569  1
  Te  Te35  1  0.250000  0.480892  0.760125  1
