# generated using pymatgen
data_Li2La3Pr13(CdIr2)2
_symmetry_space_group_name_H-M   'P 1'
_cell_length_a   10.08277979
_cell_length_b   10.09433873
_cell_length_c   10.04944300
_cell_angle_alpha   60.14702045
_cell_angle_beta   60.10931497
_cell_angle_gamma   60.25482176
_symmetry_Int_Tables_number   1
_chemical_formula_structural   Li2La3Pr13(CdIr2)2
_chemical_formula_sum   'Li2 La3 Pr13 Cd2 Ir4'
_cell_volume   726.03293347
_cell_formula_units_Z   1
loop_
 _symmetry_equiv_pos_site_id
 _symmetry_equiv_pos_as_xyz
  1  'x, y, z'
loop_
 _atom_site_type_symbol
 _atom_site_label
 _atom_site_symmetry_multiplicity
 _atom_site_fract_x
 _atom_site_fract_y
 _atom_site_fract_z
 _atom_site_occupancy
  Li  Li0  1  0.572346  0.571014  0.576514  1
  Li  Li1  1  0.572346  0.571014  0.280124  1
  La  La2  1  0.346551  0.347443  0.347711  1
  La  La3  1  0.346551  0.347443  0.958294  1
  La  La4  1  0.345657  0.961813  0.346265  1
  Pr  Pr5  1  0.957161  0.347468  0.347685  1
  Pr  Pr6  1  0.812883  0.188171  0.189088  1
  Pr  Pr7  1  0.188374  0.812429  0.810154  1
  Pr  Pr8  1  0.188374  0.812429  0.189043  1
  Pr  Pr9  1  0.812883  0.188171  0.809858  1
  Pr  Pr10  1  0.191554  0.191686  0.808380  1
  Pr  Pr11  1  0.816163  0.814767  0.184535  1
  Pr  Pr12  1  0.938334  0.562181  0.562612  1
  Pr  Pr13  1  0.561977  0.938152  0.936567  1
  Pr  Pr14  1  0.561977  0.938152  0.563304  1
  Pr  Pr15  1  0.938334  0.562181  0.936873  1
  Pr  Pr16  1  0.562690  0.563552  0.936879  1
  Pr  Pr17  1  0.937861  0.938538  0.561801  1
  Cd  Cd18  1  0.584024  0.256622  0.579677  1
  Cd  Cd19  1  0.255846  0.582731  0.580711  1
  Ir  Ir20  1  0.144099  0.142462  0.140072  1
  Ir  Ir21  1  0.144099  0.142462  0.573366  1
  Ir  Ir22  1  0.145681  0.574825  0.139747  1
  Ir  Ir23  1  0.574232  0.144292  0.140738  1
