# generated using pymatgen
data_TbHo15In4Ir3Pt
_symmetry_space_group_name_H-M   'P 1'
_cell_length_a   9.64173374
_cell_length_b   9.64659868
_cell_length_c   9.62715100
_cell_angle_alpha   60.06667025
_cell_angle_beta   60.05002263
_cell_angle_gamma   60.05235844
_symmetry_Int_Tables_number   1
_chemical_formula_structural   TbHo15In4Ir3Pt
_chemical_formula_sum   'Tb1 Ho15 In4 Ir3 Pt1'
_cell_volume   633.96665443
_cell_formula_units_Z   1
loop_
 _symmetry_equiv_pos_site_id
 _symmetry_equiv_pos_as_xyz
  1  'x, y, z'
loop_
 _atom_site_type_symbol
 _atom_site_label
 _atom_site_symmetry_multiplicity
 _atom_site_fract_x
 _atom_site_fract_y
 _atom_site_fract_z
 _atom_site_occupancy
  Tb  Tb0  1  0.439260  0.435171  0.062784  1
  Ho  Ho1  1  0.653155  0.648756  0.047676  1
  Ho  Ho2  1  0.188047  0.809625  0.193831  1
  Ho  Ho3  1  0.060148  0.438908  0.060538  1
  Ho  Ho4  1  0.188047  0.809625  0.808496  1
  Ho  Ho5  1  0.060148  0.438908  0.440406  1
  Ho  Ho6  1  0.810529  0.190882  0.190164  1
  Ho  Ho7  1  0.653155  0.648756  0.650414  1
  Ho  Ho8  1  0.810529  0.190882  0.808426  1
  Ho  Ho9  1  0.188022  0.194738  0.808620  1
  Ho  Ho10  1  0.046138  0.650710  0.651576  1
  Ho  Ho11  1  0.440613  0.060058  0.061237  1
  Ho  Ho12  1  0.060736  0.059711  0.439776  1
  Ho  Ho13  1  0.652506  0.050348  0.648574  1
  Ho  Ho14  1  0.810115  0.808935  0.190475  1
  Ho  Ho15  1  0.440613  0.060058  0.438093  1
  In  In16  1  0.416355  0.417641  0.417491  1
  In  In17  1  0.416355  0.417641  0.748516  1
  In  In18  1  0.416514  0.748835  0.417326  1
  In  In19  1  0.749611  0.417121  0.416635  1
  Ir  Ir20  1  0.857684  0.859271  0.858459  1
  Ir  Ir21  1  0.858730  0.424433  0.858418  1
  Ir  Ir22  1  0.857684  0.859271  0.424586  1
  Pt  Pt23  1  0.425304  0.859722  0.857487  1
