# generated using pymatgen
data_LaNd3Ga7(GeRh2)3
_symmetry_space_group_name_H-M   'P 1'
_cell_length_a   8.65354667
_cell_length_b   8.68202241
_cell_length_c   8.68202287
_cell_angle_alpha   140.81549942
_cell_angle_beta   108.30725269
_cell_angle_gamma   84.92336544
_symmetry_Int_Tables_number   1
_chemical_formula_structural   LaNd3Ga7(GeRh2)3
_chemical_formula_sum   'La1 Nd3 Ga7 Ge3 Rh6'
_cell_volume   377.97987868
_cell_formula_units_Z   1
loop_
 _symmetry_equiv_pos_site_id
 _symmetry_equiv_pos_as_xyz
  1  'x, y, z'
loop_
 _atom_site_type_symbol
 _atom_site_label
 _atom_site_symmetry_multiplicity
 _atom_site_fract_x
 _atom_site_fract_y
 _atom_site_fract_z
 _atom_site_occupancy
  La  La0  1  0.909004  0.638278  0.270725  1
  Nd  Nd1  1  0.362047  0.130961  0.231086  1
  Nd  Nd2  1  0.636462  0.864605  0.771857  1
  Nd  Nd3  1  0.097047  0.366716  0.730332  1
  Ga  Ga4  1  0.999762  0.251303  0.250396  1
  Ga  Ga5  1  0.999762  0.749367  0.748459  1
  Ga  Ga6  1  0.712849  0.965969  0.250736  1
  Ga  Ga7  1  0.288599  0.537530  0.252058  1
  Ga  Ga8  1  0.288599  0.036541  0.751069  1
  Ga  Ga9  1  0.712849  0.462112  0.746879  1
  Ga  Ga10  1  0.572992  0.406255  0.166737  1
  Ge  Ge11  1  0.235879  0.902492  0.333387  1
  Ge  Ge12  1  0.757115  0.092582  0.664534  1
  Ge  Ge13  1  0.430170  0.594754  0.835416  1
  Rh  Rh14  1  0.953132  0.856649  0.096483  1
  Rh  Rh15  1  0.497231  0.751209  0.248656  1
  Rh  Rh16  1  0.759678  0.356441  0.403238  1
  Rh  Rh17  1  0.244730  0.643537  0.601192  1
  Rh  Rh18  1  0.044861  0.144126  0.900735  1
  Rh  Rh19  1  0.497231  0.248575  0.746023  1
