# generated using pymatgen
data_Ba4Sr2AlGa3As8
_symmetry_space_group_name_H-M   'P 1'
_cell_length_a   8.83198157
_cell_length_b   8.83693202
_cell_length_c   7.07587095
_cell_angle_alpha   91.79188350
_cell_angle_beta   91.36329750
_cell_angle_gamma   76.34987519
_symmetry_Int_Tables_number   1
_chemical_formula_structural   Ba4Sr2AlGa3As8
_chemical_formula_sum   'Ba4 Sr2 Al1 Ga3 As8'
_cell_volume   536.31739642
_cell_formula_units_Z   1
loop_
 _symmetry_equiv_pos_site_id
 _symmetry_equiv_pos_as_xyz
  1  'x, y, z'
loop_
 _atom_site_type_symbol
 _atom_site_label
 _atom_site_symmetry_multiplicity
 _atom_site_fract_x
 _atom_site_fract_y
 _atom_site_fract_z
 _atom_site_occupancy
  Ba  Ba0  1  0.743169  0.997192  0.944502  1
  Ba  Ba1  1  0.996922  0.259216  0.555518  1
  Ba  Ba2  1  0.254240  0.000725  0.049461  1
  Ba  Ba3  1  0.006698  0.742500  0.444572  1
  Sr  Sr4  1  0.600926  0.398300  0.252112  1
  Sr  Sr5  1  0.402698  0.598761  0.753931  1
  Al  Al6  1  0.578110  0.828427  0.426978  1
  Ga  Ga7  1  0.176031  0.420027  0.075514  1
  Ga  Ga8  1  0.421516  0.173459  0.574156  1
  Ga  Ga9  1  0.820869  0.580315  0.923908  1
  As  As10  1  0.701307  0.060791  0.461928  1
  As  As11  1  0.936284  0.302414  0.034531  1
  As  As12  1  0.300225  0.937143  0.533958  1
  As  As13  1  0.061627  0.697400  0.963592  1
  As  As14  1  0.575092  0.730034  0.091127  1
  As  As15  1  0.271170  0.419640  0.417517  1
  As  As16  1  0.423804  0.269097  0.915770  1
  As  As17  1  0.729313  0.584558  0.580923  1
