# generated using pymatgen
data_Ho7Er9Cd4Os3Pd
_symmetry_space_group_name_H-M   'P 1'
_cell_length_a   9.49975666
_cell_length_b   9.69004257
_cell_length_c   9.68965100
_cell_angle_alpha   60.00133333
_cell_angle_beta   59.33652011
_cell_angle_gamma   59.34390404
_symmetry_Int_Tables_number   1
_chemical_formula_structural   Ho7Er9Cd4Os3Pd
_chemical_formula_sum   'Ho7 Er9 Cd4 Os3 Pd1'
_cell_volume   624.35520193
_cell_formula_units_Z   1
loop_
 _symmetry_equiv_pos_site_id
 _symmetry_equiv_pos_as_xyz
  1  'x, y, z'
loop_
 _atom_site_type_symbol
 _atom_site_label
 _atom_site_symmetry_multiplicity
 _atom_site_fract_x
 _atom_site_fract_y
 _atom_site_fract_z
 _atom_site_occupancy
  Ho  Ho0  1  0.816371  0.804732  0.189449  1
  Ho  Ho1  1  0.933287  0.563551  0.563661  1
  Ho  Ho2  1  0.551983  0.940781  0.940689  1
  Ho  Ho3  1  0.551983  0.940781  0.566547  1
  Ho  Ho4  1  0.933287  0.563551  0.939500  1
  Ho  Ho5  1  0.552013  0.566449  0.940769  1
  Ho  Ho6  1  0.933239  0.939570  0.563595  1
  Er  Er7  1  0.346659  0.352554  0.352534  1
  Er  Er8  1  0.346659  0.352554  0.948255  1
  Er  Er9  1  0.346542  0.948329  0.352565  1
  Er  Er10  1  0.973250  0.342145  0.342303  1
  Er  Er11  1  0.816510  0.189443  0.189342  1
  Er  Er12  1  0.183706  0.811481  0.811326  1
  Er  Er13  1  0.183706  0.811481  0.193487  1
  Er  Er14  1  0.816510  0.189443  0.804705  1
  Er  Er15  1  0.183552  0.193454  0.811497  1
  Cd  Cd16  1  0.581114  0.578795  0.578860  1
  Cd  Cd17  1  0.581114  0.578795  0.261229  1
  Cd  Cd18  1  0.581134  0.261189  0.578838  1
  Cd  Cd19  1  0.254586  0.581799  0.581807  1
  Os  Os20  1  0.153115  0.135440  0.135491  1
  Os  Os21  1  0.153115  0.135440  0.575954  1
  Os  Os22  1  0.153211  0.575848  0.135470  1
  Pd  Pd23  1  0.573351  0.142395  0.142126  1
