# generated using pymatgen
data_Cs2TaFeTe4
_symmetry_space_group_name_H-M   'P 1'
_cell_length_a   15.80678632
_cell_length_b   14.05681760
_cell_length_c   8.43149126
_cell_angle_alpha   85.44381021
_cell_angle_beta   62.43416906
_cell_angle_gamma   32.12200891
_symmetry_Int_Tables_number   1
_chemical_formula_structural   Cs2TaFeTe4
_chemical_formula_sum   'Cs4 Ta2 Fe2 Te8'
_cell_volume   661.11550806
_cell_formula_units_Z   2
loop_
 _symmetry_equiv_pos_site_id
 _symmetry_equiv_pos_as_xyz
  1  'x, y, z'
loop_
 _atom_site_type_symbol
 _atom_site_label
 _atom_site_symmetry_multiplicity
 _atom_site_fract_x
 _atom_site_fract_y
 _atom_site_fract_z
 _atom_site_occupancy
  Cs  Cs0  1  0.819339  0.819339  0.180661  1
  Cs  Cs1  1  0.180661  0.180661  0.819339  1
  Cs  Cs2  1  0.430661  0.430661  0.069339  1
  Cs  Cs3  1  0.069339  0.069339  0.430661  1
  Ta  Ta4  1  0.250000  0.250000  0.250000  1
  Ta  Ta5  1  0.000000  0.000000  0.000000  1
  Fe  Fe6  1  0.750000  0.750000  0.750000  1
  Fe  Fe7  1  0.500000  0.500000  0.500000  1
  Te  Te8  1  0.404439  0.706661  0.787001  1
  Te  Te9  1  0.101899  0.787001  0.706661  1
  Te  Te10  1  0.787001  0.101899  0.404439  1
  Te  Te11  1  0.706661  0.404439  0.101899  1
  Te  Te12  1  0.845561  0.543339  0.462999  1
  Te  Te13  1  0.148101  0.462999  0.543339  1
  Te  Te14  1  0.462999  0.148101  0.845561  1
  Te  Te15  1  0.543339  0.845561  0.148101  1
