# generated using pymatgen
data_Nb12Ni8Mo4CN3
_symmetry_space_group_name_H-M   'P 1'
_cell_length_a   8.18669291
_cell_length_b   8.18734617
_cell_length_c   8.18744607
_cell_angle_alpha   59.99011109
_cell_angle_beta   59.98267421
_cell_angle_gamma   59.97946157
_symmetry_Int_Tables_number   1
_chemical_formula_structural   Nb12Ni8Mo4CN3
_chemical_formula_sum   'Nb12 Ni8 Mo4 C1 N3'
_cell_volume   387.90762957
_cell_formula_units_Z   1
loop_
 _symmetry_equiv_pos_site_id
 _symmetry_equiv_pos_as_xyz
  1  'x, y, z'
loop_
 _atom_site_type_symbol
 _atom_site_label
 _atom_site_symmetry_multiplicity
 _atom_site_fract_x
 _atom_site_fract_y
 _atom_site_fract_z
 _atom_site_occupancy
  Nb  Nb0  1  0.311571  0.687767  0.687823  1
  Nb  Nb1  1  0.562208  0.562057  0.938563  1
  Nb  Nb2  1  0.313261  0.687374  0.313244  1
  Nb  Nb3  1  0.313244  0.313217  0.687390  1
  Nb  Nb4  1  0.687305  0.313253  0.313258  1
  Nb  Nb5  1  0.936756  0.936783  0.562610  1
  Nb  Nb6  1  0.936739  0.562626  0.936756  1
  Nb  Nb7  1  0.938429  0.562233  0.562177  1
  Nb  Nb8  1  0.562695  0.936747  0.936742  1
  Nb  Nb9  1  0.687792  0.687943  0.311437  1
  Nb  Nb10  1  0.687732  0.311499  0.687946  1
  Nb  Nb11  1  0.562268  0.938501  0.562054  1
  Ni  Ni12  1  0.011921  0.329311  0.329253  1
  Ni  Ni13  1  0.920692  0.920767  0.920769  1
  Ni  Ni14  1  0.329379  0.329284  0.011769  1
  Ni  Ni15  1  0.920621  0.920716  0.238231  1
  Ni  Ni16  1  0.238079  0.920689  0.920747  1
  Ni  Ni17  1  0.329403  0.011840  0.329251  1
  Ni  Ni18  1  0.920597  0.238160  0.920749  1
  Ni  Ni19  1  0.329308  0.329233  0.329231  1
  Mo  Mo20  1  0.125000  0.125000  0.625000  1
  Mo  Mo21  1  0.125000  0.125000  0.125000  1
  Mo  Mo22  1  0.625000  0.125000  0.125000  1
  Mo  Mo23  1  0.125000  0.625000  0.125000  1
  C  C24  1  0.625000  0.625000  0.625000  1
  N  N25  1  0.625000  0.125000  0.625000  1
  N  N26  1  0.625000  0.625000  0.125000  1
  N  N27  1  0.125000  0.625000  0.625000  1
