# generated using pymatgen
data_RbMgScFeH8
_symmetry_space_group_name_H-M   'P 1'
_cell_length_a   4.44820400
_cell_length_b   4.44820566
_cell_length_c   8.30046100
_cell_angle_alpha   90.00000000
_cell_angle_beta   90.00000000
_cell_angle_gamma   120.00000256
_symmetry_Int_Tables_number   1
_chemical_formula_structural   RbMgScFeH8
_chemical_formula_sum   'Rb1 Mg1 Sc1 Fe1 H8'
_cell_volume   142.23366084
_cell_formula_units_Z   1
loop_
 _symmetry_equiv_pos_site_id
 _symmetry_equiv_pos_as_xyz
  1  'x, y, z'
loop_
 _atom_site_type_symbol
 _atom_site_label
 _atom_site_symmetry_multiplicity
 _atom_site_fract_x
 _atom_site_fract_y
 _atom_site_fract_z
 _atom_site_occupancy
  Rb  Rb0  1  0.000000  0.000000  0.503865  1
  Mg  Mg1  1  0.666667  0.333333  0.871330  1
  Sc  Sc2  1  0.333333  0.666667  0.103241  1
  Fe  Fe3  1  0.000000  0.000000  0.006242  1
  H  H4  1  0.331097  0.165548  0.117399  1
  H  H5  1  0.834452  0.668903  0.117399  1
  H  H6  1  0.834452  0.165548  0.117399  1
  H  H7  1  0.673564  0.836782  0.890934  1
  H  H8  1  0.163218  0.326436  0.890934  1
  H  H9  1  0.163218  0.836782  0.890934  1
  H  H10  1  0.666667  0.333333  0.654384  1
  H  H11  1  0.333333  0.666667  0.335940  1
