# generated using pymatgen
data_Tb11Pr8Si16Hg
_symmetry_space_group_name_H-M   'P 1'
_cell_length_a   7.51407183
_cell_length_b   7.81941542
_cell_length_c   14.92598300
_cell_angle_alpha   90.00000000
_cell_angle_beta   90.00000000
_cell_angle_gamma   90.00823548
_symmetry_Int_Tables_number   1
_chemical_formula_structural   Tb11Pr8Si16Hg
_chemical_formula_sum   'Tb11 Pr8 Si16 Hg1'
_cell_volume   876.98581161
_cell_formula_units_Z   1
loop_
 _symmetry_equiv_pos_site_id
 _symmetry_equiv_pos_as_xyz
  1  'x, y, z'
loop_
 _atom_site_type_symbol
 _atom_site_label
 _atom_site_symmetry_multiplicity
 _atom_site_fract_x
 _atom_site_fract_y
 _atom_site_fract_z
 _atom_site_occupancy
  Tb  Tb0  1  0.314775  0.187882  0.625171  1
  Tb  Tb1  1  0.680240  0.821943  0.378370  1
  Tb  Tb2  1  0.646917  0.994379  0.750000  1
  Tb  Tb3  1  0.180231  0.684060  0.375831  1
  Tb  Tb4  1  0.833769  0.325192  0.874569  1
  Tb  Tb5  1  0.833769  0.325192  0.625431  1
  Tb  Tb6  1  0.846962  0.487422  0.250000  1
  Tb  Tb7  1  0.350484  0.013183  0.250000  1
  Tb  Tb8  1  0.314775  0.187882  0.874829  1
  Tb  Tb9  1  0.180231  0.684060  0.124169  1
  Tb  Tb10  1  0.680240  0.821943  0.121630  1
  Pr  Pr11  1  0.022808  0.177531  0.402356  1
  Pr  Pr12  1  0.523322  0.320838  0.402936  1
  Pr  Pr13  1  0.466595  0.677327  0.897479  1
  Pr  Pr14  1  0.466595  0.677327  0.602521  1
  Pr  Pr15  1  0.978110  0.809883  0.602157  1
  Pr  Pr16  1  0.978110  0.809883  0.897843  1
  Pr  Pr17  1  0.523322  0.320838  0.097064  1
  Pr  Pr18  1  0.022808  0.177531  0.097644  1
  Si  Si19  1  0.271537  0.890335  0.750000  1
  Si  Si20  1  0.473831  0.613028  0.250000  1
  Si  Si21  1  0.020072  0.086089  0.750000  1
  Si  Si22  1  0.538684  0.386897  0.750000  1
  Si  Si23  1  0.149293  0.463675  0.528795  1
  Si  Si24  1  0.972427  0.892320  0.250000  1
  Si  Si25  1  0.731416  0.120035  0.250000  1
  Si  Si26  1  0.857319  0.530129  0.040054  1
  Si  Si27  1  0.356793  0.970953  0.036370  1
  Si  Si28  1  0.149293  0.463675  0.971205  1
  Si  Si29  1  0.644410  0.029052  0.542870  1
  Si  Si30  1  0.356793  0.970953  0.463630  1
  Si  Si31  1  0.857319  0.530129  0.459946  1
  Si  Si32  1  0.752703  0.624476  0.750000  1
  Si  Si33  1  0.231546  0.381366  0.250000  1
  Si  Si34  1  0.644410  0.029052  0.957130  1
  Hg  Hg35  1  0.148089  0.513535  0.750000  1
