# generated using pymatgen
data_TaNb3(NiB2)4
_symmetry_space_group_name_H-M   'P 1'
_cell_length_a   3.13312700
_cell_length_b   6.04476704
_cell_length_c   8.19837106
_cell_angle_alpha   90.01338703
_cell_angle_beta   90.00000000
_cell_angle_gamma   90.00000000
_symmetry_Int_Tables_number   1
_chemical_formula_structural   TaNb3(NiB2)4
_chemical_formula_sum   'Ta1 Nb3 Ni4 B8'
_cell_volume   155.26913232
_cell_formula_units_Z   1
loop_
 _symmetry_equiv_pos_site_id
 _symmetry_equiv_pos_as_xyz
  1  'x, y, z'
loop_
 _atom_site_type_symbol
 _atom_site_label
 _atom_site_symmetry_multiplicity
 _atom_site_fract_x
 _atom_site_fract_y
 _atom_site_fract_z
 _atom_site_occupancy
  Ta  Ta0  1  0.750000  0.368006  0.367234  1
  Nb  Nb1  1  0.250000  0.131725  0.867431  1
  Nb  Nb2  1  0.750000  0.868743  0.132342  1
  Nb  Nb3  1  0.250000  0.631499  0.632164  1
  Ni  Ni4  1  0.750000  0.500099  0.884670  1
  Ni  Ni5  1  0.750000  0.999819  0.615337  1
  Ni  Ni6  1  0.250000  0.499867  0.116119  1
  Ni  Ni7  1  0.250000  0.001070  0.384616  1
  B  B8  1  0.250000  0.173238  0.168581  1
  B  B9  1  0.750000  0.827101  0.832127  1
  B  B10  1  0.250000  0.672079  0.332609  1
  B  B11  1  0.750000  0.327238  0.667435  1
  B  B12  1  0.250000  0.241341  0.575936  1
  B  B13  1  0.750000  0.259395  0.077251  1
  B  B14  1  0.250000  0.740505  0.923120  1
  B  B15  1  0.750000  0.758273  0.423027  1
