# generated using pymatgen
data_K2BaThB24
_symmetry_space_group_name_H-M   'P 1'
_cell_length_a   7.27709932
_cell_length_b   7.27709874
_cell_length_c   5.94640600
_cell_angle_alpha   90.00000000
_cell_angle_beta   90.00000000
_cell_angle_gamma   109.36761428
_symmetry_Int_Tables_number   1
_chemical_formula_structural   K2BaThB24
_chemical_formula_sum   'K2 Ba1 Th1 B24'
_cell_volume   297.07884199
_cell_formula_units_Z   1
loop_
 _symmetry_equiv_pos_site_id
 _symmetry_equiv_pos_as_xyz
  1  'x, y, z'
loop_
 _atom_site_type_symbol
 _atom_site_label
 _atom_site_symmetry_multiplicity
 _atom_site_fract_x
 _atom_site_fract_y
 _atom_site_fract_z
 _atom_site_occupancy
  K  K0  1  0.751341  0.248659  0.500000  1
  K  K1  1  0.248659  0.751341  0.500000  1
  Ba  Ba2  1  0.000000  0.000000  0.000000  1
  Th  Th3  1  0.500000  0.500000  0.000000  1
  B  B4  1  0.178815  0.328464  0.647510  1
  B  B5  1  0.924626  0.572368  0.149349  1
  B  B6  1  0.671536  0.821185  0.647510  1
  B  B7  1  0.427632  0.075374  0.149349  1
  B  B8  1  0.178815  0.328464  0.352490  1
  B  B9  1  0.924626  0.572368  0.850651  1
  B  B10  1  0.671536  0.821185  0.352490  1
  B  B11  1  0.427632  0.075374  0.850651  1
  B  B12  1  0.400528  0.400528  0.500000  1
  B  B13  1  0.147827  0.649456  0.000000  1
  B  B14  1  0.896359  0.896359  0.500000  1
  B  B15  1  0.649456  0.147827  0.000000  1
  B  B16  1  0.328464  0.178815  0.647510  1
  B  B17  1  0.075374  0.427632  0.149349  1
  B  B18  1  0.821185  0.671536  0.647510  1
  B  B19  1  0.572368  0.924626  0.149349  1
  B  B20  1  0.103641  0.103641  0.500000  1
  B  B21  1  0.852173  0.350544  0.000000  1
  B  B22  1  0.599472  0.599472  0.500000  1
  B  B23  1  0.350544  0.852173  0.000000  1
  B  B24  1  0.328464  0.178815  0.352490  1
  B  B25  1  0.075374  0.427632  0.850651  1
  B  B26  1  0.821185  0.671536  0.352490  1
  B  B27  1  0.572368  0.924626  0.850651  1
