# generated using pymatgen
data_Np5PaO12
_symmetry_space_group_name_H-M   'P 1'
_cell_length_a   6.63809085
_cell_length_b   6.63809099
_cell_length_c   7.66387004
_cell_angle_alpha   73.24009290
_cell_angle_beta   73.24008880
_cell_angle_gamma   48.21286005
_symmetry_Int_Tables_number   1
_chemical_formula_structural   Np5PaO12
_chemical_formula_sum   'Np5 Pa1 O12'
_cell_volume   238.90462356
_cell_formula_units_Z   1
loop_
 _symmetry_equiv_pos_site_id
 _symmetry_equiv_pos_as_xyz
  1  'x, y, z'
loop_
 _atom_site_type_symbol
 _atom_site_label
 _atom_site_symmetry_multiplicity
 _atom_site_fract_x
 _atom_site_fract_y
 _atom_site_fract_z
 _atom_site_occupancy
  Np  Np0  1  0.000545  0.999455  0.000000  1
  Np  Np1  1  0.666188  0.666725  0.668323  1
  Np  Np2  1  0.331872  0.331742  0.835625  1
  Np  Np3  1  0.333275  0.333812  0.331677  1
  Np  Np4  1  0.668258  0.668128  0.164375  1
  Pa  Pa5  1  0.999796  0.000204  0.500000  1
  O  O6  1  0.416350  0.915622  0.916720  1
  O  O7  1  0.915102  0.415900  0.916494  1
  O  O8  1  0.081189  0.590551  0.581745  1
  O  O9  1  0.248305  0.751722  0.746570  1
  O  O10  1  0.587389  0.083271  0.581533  1
  O  O11  1  0.754220  0.245419  0.745785  1
  O  O12  1  0.754581  0.245780  0.254215  1
  O  O13  1  0.916729  0.412611  0.418467  1
  O  O14  1  0.409449  0.918811  0.418255  1
  O  O15  1  0.248278  0.751695  0.253430  1
  O  O16  1  0.584100  0.084898  0.083506  1
  O  O17  1  0.084378  0.583650  0.083280  1
