# generated using pymatgen
data_Nd2Ga4GeIr3
_symmetry_space_group_name_H-M   'P 1'
_cell_length_a   8.59865810
_cell_length_b   8.71507561
_cell_length_c   8.71507490
_cell_angle_alpha   140.94159188
_cell_angle_beta   108.53370398
_cell_angle_gamma   84.75926873
_symmetry_Int_Tables_number   1
_chemical_formula_structural   Nd2Ga4GeIr3
_chemical_formula_sum   'Nd4 Ga8 Ge2 Ir6'
_cell_volume   376.73239424
_cell_formula_units_Z   2
loop_
 _symmetry_equiv_pos_site_id
 _symmetry_equiv_pos_as_xyz
  1  'x, y, z'
loop_
 _atom_site_type_symbol
 _atom_site_label
 _atom_site_symmetry_multiplicity
 _atom_site_fract_x
 _atom_site_fract_y
 _atom_site_fract_z
 _atom_site_occupancy
  Nd  Nd0  1  0.864733  0.635051  0.229682  1
  Nd  Nd1  1  0.135267  0.364949  0.770318  1
  Nd  Nd2  1  0.408182  0.137477  0.270705  1
  Nd  Nd3  1  0.591818  0.862523  0.729295  1
  Ga  Ga4  1  0.500000  0.752053  0.252053  1
  Ga  Ga5  1  0.500000  0.247947  0.747947  1
  Ga  Ga6  1  0.209177  0.959570  0.748880  1
  Ga  Ga7  1  0.790823  0.539703  0.750393  1
  Ga  Ga8  1  0.790823  0.040430  0.251120  1
  Ga  Ga9  1  0.209177  0.460297  0.249607  1
  Ga  Ga10  1  0.079404  0.909442  0.169963  1
  Ga  Ga11  1  0.920596  0.090558  0.830037  1
  Ge  Ge12  1  0.739242  0.407662  0.331581  1
  Ge  Ge13  1  0.260758  0.592338  0.668419  1
  Ir  Ir14  1  0.000000  0.749697  0.749697  1
  Ir  Ir15  1  0.000000  0.250303  0.250303  1
  Ir  Ir16  1  0.253865  0.851940  0.401926  1
  Ir  Ir17  1  0.746135  0.148060  0.598074  1
  Ir  Ir18  1  0.452087  0.353901  0.098185  1
  Ir  Ir19  1  0.547913  0.646099  0.901815  1
