# generated using pymatgen
data_Y19Tm(GaBi2)4
_symmetry_space_group_name_H-M   'P 1'
_cell_length_a   12.10677014
_cell_length_b   9.31570203
_cell_length_c   8.13106607
_cell_angle_alpha   89.99884463
_cell_angle_beta   89.98484602
_cell_angle_gamma   90.00881106
_symmetry_Int_Tables_number   1
_chemical_formula_structural   Y19Tm(GaBi2)4
_chemical_formula_sum   'Y19 Tm1 Ga4 Bi8'
_cell_volume   917.04649521
_cell_formula_units_Z   1
loop_
 _symmetry_equiv_pos_site_id
 _symmetry_equiv_pos_as_xyz
  1  'x, y, z'
loop_
 _atom_site_type_symbol
 _atom_site_label
 _atom_site_symmetry_multiplicity
 _atom_site_fract_x
 _atom_site_fract_y
 _atom_site_fract_z
 _atom_site_occupancy
  Y  Y0  1  0.063336  0.447680  0.180876  1
  Y  Y1  1  0.436715  0.552223  0.680824  1
  Y  Y2  1  0.936656  0.947755  0.819195  1
  Y  Y3  1  0.436866  0.947899  0.680578  1
  Y  Y4  1  0.936641  0.552203  0.819107  1
  Y  Y5  1  0.563304  0.447345  0.319004  1
  Y  Y6  1  0.063354  0.052368  0.180833  1
  Y  Y7  1  0.715533  0.249835  0.671183  1
  Y  Y8  1  0.215610  0.249951  0.828648  1
  Y  Y9  1  0.284282  0.749982  0.328529  1
  Y  Y10  1  0.784283  0.750087  0.171504  1
  Y  Y11  1  0.502638  0.249793  0.963192  1
  Y  Y12  1  0.002575  0.249928  0.537117  1
  Y  Y13  1  0.497542  0.750220  0.037622  1
  Y  Y14  1  0.997444  0.749998  0.462669  1
  Y  Y15  1  0.794695  0.249737  0.144067  1
  Y  Y16  1  0.295254  0.249769  0.356009  1
  Y  Y17  1  0.204932  0.750004  0.856218  1
  Y  Y18  1  0.704948  0.749972  0.643813  1
  Tm  Tm19  1  0.563181  0.052936  0.319854  1
  Ga  Ga20  1  0.975753  0.250026  0.907187  1
  Ga  Ga21  1  0.475942  0.249586  0.592603  1
  Ga  Ga22  1  0.024283  0.749998  0.093023  1
  Ga  Ga23  1  0.524596  0.750928  0.406556  1
  Bi  Bi24  1  0.824890  0.009339  0.436840  1
  Bi  Bi25  1  0.325153  0.490620  0.062950  1
  Bi  Bi26  1  0.174862  0.509278  0.562903  1
  Bi  Bi27  1  0.674764  0.990636  0.937288  1
  Bi  Bi28  1  0.174854  0.990699  0.562897  1
  Bi  Bi29  1  0.674872  0.509256  0.937050  1
  Bi  Bi30  1  0.825071  0.490605  0.437047  1
  Bi  Bi31  1  0.325171  0.009344  0.062815  1
