# generated using pymatgen
data_K2Cd3Ag2
_symmetry_space_group_name_H-M   'P 1'
_cell_length_a   6.66525110
_cell_length_b   6.66525151
_cell_length_c   8.19848093
_cell_angle_alpha   118.00395692
_cell_angle_beta   118.00395666
_cell_angle_gamma   42.11432181
_symmetry_Int_Tables_number   1
_chemical_formula_structural   K2Cd3Ag2
_chemical_formula_sum   'K2 Cd3 Ag2'
_cell_volume   211.08499601
_cell_formula_units_Z   1
loop_
 _symmetry_equiv_pos_site_id
 _symmetry_equiv_pos_as_xyz
  1  'x, y, z'
loop_
 _atom_site_type_symbol
 _atom_site_label
 _atom_site_symmetry_multiplicity
 _atom_site_fract_x
 _atom_site_fract_y
 _atom_site_fract_z
 _atom_site_occupancy
  K  K0  1  0.859307  0.859307  0.235075  1
  K  K1  1  0.140693  0.140693  0.764925  1
  Cd  Cd2  1  0.500000  0.500000  0.000000  1
  Cd  Cd3  1  0.658428  0.658428  0.430207  1
  Cd  Cd4  1  0.341572  0.341572  0.569794  1
  Ag  Ag5  1  0.117442  0.117442  0.196425  1
  Ag  Ag6  1  0.882558  0.882558  0.803575  1
