# generated using pymatgen
data_Sc4Cd3Os
_symmetry_space_group_name_H-M   'P 1'
_cell_length_a   6.92543300
_cell_length_b   6.87079500
_cell_length_c   6.92729100
_cell_angle_alpha   90.00010007
_cell_angle_beta   90.00046330
_cell_angle_gamma   89.99973315
_symmetry_Int_Tables_number   1
_chemical_formula_structural   Sc4Cd3Os
_chemical_formula_sum   'Sc8 Cd6 Os2'
_cell_volume   329.62288390
_cell_formula_units_Z   2
loop_
 _symmetry_equiv_pos_site_id
 _symmetry_equiv_pos_as_xyz
  1  'x, y, z'
loop_
 _atom_site_type_symbol
 _atom_site_label
 _atom_site_symmetry_multiplicity
 _atom_site_fract_x
 _atom_site_fract_y
 _atom_site_fract_z
 _atom_site_occupancy
  Sc  Sc0  1  0.231256  0.999998  0.268754  1
  Sc  Sc1  1  0.231253  0.500019  0.268753  1
  Sc  Sc2  1  0.768749  0.000009  0.268756  1
  Sc  Sc3  1  0.768748  0.499989  0.268758  1
  Sc  Sc4  1  0.231251  0.999991  0.731244  1
  Sc  Sc5  1  0.231252  0.500012  0.731242  1
  Sc  Sc6  1  0.768744  0.000002  0.731245  1
  Sc  Sc7  1  0.768747  0.499980  0.731246  1
  Cd  Cd8  1  0.000011  0.250001  0.999999  1
  Cd  Cd9  1  0.999989  0.749998  0.000001  1
  Cd  Cd10  1  0.499973  0.249998  0.499999  1
  Cd  Cd11  1  0.500027  0.750001  0.500001  1
  Cd  Cd12  1  0.499985  0.250000  0.000000  1
  Cd  Cd13  1  0.500015  0.749999  0.000000  1
  Os  Os14  1  0.999993  0.750001  0.500000  1
  Os  Os15  1  0.000007  0.249998  0.500001  1
