# generated using pymatgen
data_MnZn9Pd10
_symmetry_space_group_name_H-M   'P 1'
_cell_length_a   7.36633412
_cell_length_b   7.36635803
_cell_length_c   7.36632012
_cell_angle_alpha   102.53955966
_cell_angle_beta   102.53871310
_cell_angle_gamma   124.45706571
_symmetry_Int_Tables_number   1
_chemical_formula_structural   MnZn9Pd10
_chemical_formula_sum   'Mn1 Zn9 Pd10'
_cell_volume   291.62395636
_cell_formula_units_Z   1
loop_
 _symmetry_equiv_pos_site_id
 _symmetry_equiv_pos_as_xyz
  1  'x, y, z'
loop_
 _atom_site_type_symbol
 _atom_site_label
 _atom_site_symmetry_multiplicity
 _atom_site_fract_x
 _atom_site_fract_y
 _atom_site_fract_z
 _atom_site_occupancy
  Mn  Mn0  1  0.500000  0.500000  0.000000  1
  Zn  Zn1  1  0.204113  0.403618  0.607729  1
  Zn  Zn2  1  0.795887  0.596382  0.392271  1
  Zn  Zn3  1  0.596384  0.204112  0.800496  1
  Zn  Zn4  1  0.403616  0.795888  0.199504  1
  Zn  Zn5  1  0.303555  0.101346  0.404900  1
  Zn  Zn6  1  0.696445  0.898654  0.595100  1
  Zn  Zn7  1  0.898654  0.303555  0.202209  1
  Zn  Zn8  1  0.101346  0.696445  0.797791  1
  Zn  Zn9  1  0.000000  0.000000  0.000000  1
  Pd  Pd10  1  0.345162  0.444805  0.301426  1
  Pd  Pd11  1  0.654838  0.555195  0.698574  1
  Pd  Pd12  1  0.143379  0.043738  0.698574  1
  Pd  Pd13  1  0.043737  0.345163  0.900358  1
  Pd  Pd14  1  0.856621  0.956262  0.301426  1
  Pd  Pd15  1  0.956263  0.654837  0.099642  1
  Pd  Pd16  1  0.444804  0.143378  0.099642  1
  Pd  Pd17  1  0.555196  0.856622  0.900358  1
  Pd  Pd18  1  0.249999  0.750001  0.499999  1
  Pd  Pd19  1  0.750001  0.249999  0.500001  1
