# generated using pymatgen
data_Lu8Ge(Pd5Pt7)2
_symmetry_space_group_name_H-M   'P 1'
_cell_length_a   8.31956733
_cell_length_b   8.32788900
_cell_length_c   8.31919300
_cell_angle_alpha   90.00000000
_cell_angle_beta   90.01621169
_cell_angle_gamma   90.00000000
_symmetry_Int_Tables_number   1
_chemical_formula_structural   Lu8Ge(Pd5Pt7)2
_chemical_formula_sum   'Lu8 Ge1 Pd10 Pt14'
_cell_volume   576.39054926
_cell_formula_units_Z   1
loop_
 _symmetry_equiv_pos_site_id
 _symmetry_equiv_pos_as_xyz
  1  'x, y, z'
loop_
 _atom_site_type_symbol
 _atom_site_label
 _atom_site_symmetry_multiplicity
 _atom_site_fract_x
 _atom_site_fract_y
 _atom_site_fract_z
 _atom_site_occupancy
  Lu  Lu0  1  0.253995  0.253728  0.253388  1
  Lu  Lu1  1  0.746096  0.745117  0.746117  1
  Lu  Lu2  1  0.745798  0.745793  0.253920  1
  Lu  Lu3  1  0.746096  0.254883  0.746117  1
  Lu  Lu4  1  0.253801  0.254234  0.746678  1
  Lu  Lu5  1  0.253995  0.746272  0.253388  1
  Lu  Lu6  1  0.253801  0.745766  0.746678  1
  Lu  Lu7  1  0.745798  0.254207  0.253920  1
  Ge  Ge8  1  0.001071  0.000000  0.000214  1
  Pd  Pd9  1  0.258839  0.000000  0.500160  1
  Pd  Pd10  1  0.500133  0.000000  0.740269  1
  Pd  Pd11  1  0.740668  0.000000  0.500149  1
  Pd  Pd12  1  0.999977  0.500000  0.258884  1
  Pd  Pd13  1  0.999982  0.500000  0.741242  1
  Pd  Pd14  1  0.713503  0.000000  0.999577  1
  Pd  Pd15  1  0.999569  0.288435  0.999993  1
  Pd  Pd16  1  0.999569  0.711565  0.999993  1
  Pd  Pd17  1  0.999510  0.000000  0.288873  1
  Pd  Pd18  1  0.999549  0.000000  0.711317  1
  Pt  Pt19  1  0.258136  0.500000  0.999980  1
  Pt  Pt20  1  0.741161  0.500000  0.999987  1
  Pt  Pt21  1  0.000009  0.259382  0.500027  1
  Pt  Pt22  1  0.499898  0.258752  0.000164  1
  Pt  Pt23  1  0.000009  0.740618  0.500027  1
  Pt  Pt24  1  0.499898  0.741248  0.000164  1
  Pt  Pt25  1  0.500046  0.000000  0.259724  1
  Pt  Pt26  1  0.251899  0.500000  0.500053  1
  Pt  Pt27  1  0.748255  0.500000  0.500070  1
  Pt  Pt28  1  0.500004  0.252278  0.499727  1
  Pt  Pt29  1  0.500004  0.747722  0.499727  1
  Pt  Pt30  1  0.499969  0.500000  0.252423  1
  Pt  Pt31  1  0.499989  0.500000  0.747407  1
  Pt  Pt32  1  0.288974  0.000000  0.999643  1
