# generated using pymatgen
data_CaSn4(AsO4)6
_symmetry_space_group_name_H-M   'P 1'
_cell_length_a   8.80222118
_cell_length_b   8.80147116
_cell_length_c   9.36214633
_cell_angle_alpha   61.95728330
_cell_angle_beta   118.04367436
_cell_angle_gamma   120.00049841
_symmetry_Int_Tables_number   1
_chemical_formula_structural   CaSn4(AsO4)6
_chemical_formula_sum   'Ca1 Sn4 As6 O24'
_cell_volume   527.51793194
_cell_formula_units_Z   1
loop_
 _symmetry_equiv_pos_site_id
 _symmetry_equiv_pos_as_xyz
  1  'x, y, z'
loop_
 _atom_site_type_symbol
 _atom_site_label
 _atom_site_symmetry_multiplicity
 _atom_site_fract_x
 _atom_site_fract_y
 _atom_site_fract_z
 _atom_site_occupancy
  Ca  Ca0  1  0.000000  0.000000  0.000000  1
  Sn  Sn1  1  0.352638  0.647412  0.057902  1
  Sn  Sn2  1  0.145061  0.854878  0.435337  1
  Sn  Sn3  1  0.854939  0.145122  0.564663  1
  Sn  Sn4  1  0.647362  0.352588  0.942098  1
  As  As5  1  0.034062  0.249977  0.245076  1
  As  As6  1  0.460963  0.965913  0.245115  1
  As  As7  1  0.749991  0.538985  0.245103  1
  As  As8  1  0.250009  0.461014  0.754897  1
  As  As9  1  0.539037  0.034087  0.754885  1
  As  As10  1  0.965938  0.750023  0.754923  1
  O  O11  1  0.471464  0.176263  0.090766  1
  O  O12  1  0.795520  0.528562  0.090758  1
  O  O13  1  0.823746  0.204418  0.090782  1
  O  O14  1  0.499262  0.818578  0.207390  1
  O  O15  1  0.526612  0.500745  0.207410  1
  O  O16  1  0.181430  0.473364  0.207354  1
  O  O17  1  0.237034  0.881753  0.248777  1
  O  O18  1  0.893435  0.762942  0.248779  1
  O  O19  1  0.118206  0.106544  0.248763  1
  O  O20  1  0.809327  0.387385  0.440969  1
  O  O21  1  0.019024  0.190696  0.440900  1
  O  O22  1  0.612613  0.980959  0.440963  1
  O  O23  1  0.387387  0.019041  0.559036  1
  O  O24  1  0.980976  0.809304  0.559099  1
  O  O25  1  0.190674  0.612615  0.559032  1
  O  O26  1  0.881794  0.893457  0.751237  1
  O  O27  1  0.106565  0.237058  0.751220  1
  O  O28  1  0.762966  0.118246  0.751223  1
  O  O29  1  0.818569  0.526636  0.792646  1
  O  O30  1  0.473388  0.499256  0.792590  1
  O  O31  1  0.500738  0.181423  0.792610  1
  O  O32  1  0.176254  0.795582  0.909218  1
  O  O33  1  0.204479  0.471438  0.909241  1
  O  O34  1  0.528536  0.823737  0.909234  1
