# generated using pymatgen
data_NdDyY2CdNi
_symmetry_space_group_name_H-M   'P 1'
_cell_length_a   9.67476319
_cell_length_b   9.67476348
_cell_length_c   9.68500800
_cell_angle_alpha   59.96496599
_cell_angle_beta   59.96496497
_cell_angle_gamma   60.07007518
_symmetry_Int_Tables_number   1
_chemical_formula_structural   NdDyY2CdNi
_chemical_formula_sum   'Nd4 Dy4 Y8 Cd4 Ni4'
_cell_volume   641.00989118
_cell_formula_units_Z   4
loop_
 _symmetry_equiv_pos_site_id
 _symmetry_equiv_pos_as_xyz
  1  'x, y, z'
loop_
 _atom_site_type_symbol
 _atom_site_label
 _atom_site_symmetry_multiplicity
 _atom_site_fract_x
 _atom_site_fract_y
 _atom_site_fract_z
 _atom_site_occupancy
  Nd  Nd0  1  0.600198  0.600198  0.600281  1
  Nd  Nd1  1  0.600198  0.600198  0.199321  1
  Nd  Nd2  1  0.600281  0.199321  0.600198  1
  Nd  Nd3  1  0.199321  0.600281  0.600198  1
  Dy  Dy4  1  0.063117  0.436883  0.436883  1
  Dy  Dy5  1  0.436883  0.063117  0.063117  1
  Dy  Dy6  1  0.436883  0.063117  0.436883  1
  Dy  Dy7  1  0.063117  0.436883  0.063117  1
  Y  Y8  1  0.437087  0.437087  0.062913  1
  Y  Y9  1  0.062913  0.062913  0.437087  1
  Y  Y10  1  0.185327  0.814673  0.814673  1
  Y  Y11  1  0.814673  0.185327  0.185327  1
  Y  Y12  1  0.814673  0.185327  0.814673  1
  Y  Y13  1  0.185327  0.814673  0.185327  1
  Y  Y14  1  0.814202  0.814202  0.185798  1
  Y  Y15  1  0.185798  0.185798  0.814202  1
  Cd  Cd16  1  0.832018  0.832018  0.831537  1
  Cd  Cd17  1  0.832018  0.832018  0.504425  1
  Cd  Cd18  1  0.831537  0.504425  0.832018  1
  Cd  Cd19  1  0.504425  0.831537  0.832018  1
  Ni  Ni20  1  0.390334  0.390334  0.393361  1
  Ni  Ni21  1  0.390334  0.390334  0.825973  1
  Ni  Ni22  1  0.393361  0.825973  0.390334  1
  Ni  Ni23  1  0.825973  0.393361  0.390334  1
