# generated using pymatgen
data_Zr2Sc2Co5Si2Ni
_symmetry_space_group_name_H-M   'P 1'
_cell_length_a   5.02880269
_cell_length_b   5.02880183
_cell_length_c   7.61451073
_cell_angle_alpha   90.15883153
_cell_angle_beta   89.84116948
_cell_angle_gamma   119.79780947
_symmetry_Int_Tables_number   1
_chemical_formula_structural   Zr2Sc2Co5Si2Ni
_chemical_formula_sum   'Zr2 Sc2 Co5 Si2 Ni1'
_cell_volume   167.10165696
_cell_formula_units_Z   1
loop_
 _symmetry_equiv_pos_site_id
 _symmetry_equiv_pos_as_xyz
  1  'x, y, z'
loop_
 _atom_site_type_symbol
 _atom_site_label
 _atom_site_symmetry_multiplicity
 _atom_site_fract_x
 _atom_site_fract_y
 _atom_site_fract_z
 _atom_site_occupancy
  Zr  Zr0  1  0.332351  0.667649  0.566975  1
  Zr  Zr1  1  0.665289  0.334711  0.429218  1
  Sc  Sc2  1  0.665210  0.334790  0.050599  1
  Sc  Sc3  1  0.333379  0.666621  0.952281  1
  Co  Co4  1  0.662897  0.831491  0.252627  1
  Co  Co5  1  0.169730  0.830270  0.252208  1
  Co  Co6  1  0.831047  0.663300  0.747064  1
  Co  Co7  1  0.168509  0.337103  0.252627  1
  Co  Co8  1  0.336700  0.168953  0.747064  1
  Si  Si9  1  0.001334  0.998666  0.498182  1
  Si  Si10  1  0.001849  0.998151  0.001983  1
  Ni  Ni11  1  0.831705  0.168295  0.749174  1
