# generated using pymatgen
data_Li2Ti2PtRh3
_symmetry_space_group_name_H-M   'P 1'
_cell_length_a   4.31290600
_cell_length_b   6.00487415
_cell_length_c   12.86132732
_cell_angle_alpha   89.97472087
_cell_angle_beta   90.00444595
_cell_angle_gamma   89.99961413
_symmetry_Int_Tables_number   1
_chemical_formula_structural   Li2Ti2PtRh3
_chemical_formula_sum   'Li6 Ti6 Pt3 Rh9'
_cell_volume   333.08850889
_cell_formula_units_Z   3
loop_
 _symmetry_equiv_pos_site_id
 _symmetry_equiv_pos_as_xyz
  1  'x, y, z'
loop_
 _atom_site_type_symbol
 _atom_site_label
 _atom_site_symmetry_multiplicity
 _atom_site_fract_x
 _atom_site_fract_y
 _atom_site_fract_z
 _atom_site_occupancy
  Li  Li0  1  0.000000  0.000203  0.999792  1
  Li  Li1  1  0.499502  0.499555  0.167148  1
  Li  Li2  1  0.999508  0.000130  0.334515  1
  Li  Li3  1  0.499995  0.499929  0.500418  1
  Li  Li4  1  0.000489  0.000119  0.665881  1
  Li  Li5  1  0.500495  0.500032  0.832265  1
  Ti  Ti6  1  0.000021  0.503008  0.996414  1
  Ti  Ti7  1  0.499660  0.991980  0.172926  1
  Ti  Ti8  1  0.999704  0.503621  0.337066  1
  Ti  Ti9  1  0.500005  0.000989  0.500110  1
  Ti  Ti10  1  0.000290  0.499299  0.666283  1
  Ti  Ti11  1  0.500317  0.000371  0.827021  1
  Pt  Pt12  1  0.500014  0.248647  0.999529  1
  Pt  Pt13  1  0.500006  0.751728  0.999704  1
  Pt  Pt14  1  0.999664  0.249873  0.167333  1
  Rh  Rh15  1  0.999662  0.748830  0.166823  1
  Rh  Rh16  1  0.499694  0.251164  0.333574  1
  Rh  Rh17  1  0.499682  0.748532  0.333896  1
  Rh  Rh18  1  0.999994  0.249925  0.500091  1
  Rh  Rh19  1  0.000001  0.750840  0.500414  1
  Rh  Rh20  1  0.500322  0.251240  0.666465  1
  Rh  Rh21  1  0.500316  0.749000  0.666428  1
  Rh  Rh22  1  0.000327  0.249511  0.833133  1
  Rh  Rh23  1  0.000332  0.751475  0.832767  1
