# generated using pymatgen
data_Ca11Sc(SiAu)12
_symmetry_space_group_name_H-M   'P 1'
_cell_length_a   4.40836700
_cell_length_b   7.55046760
_cell_length_c   22.15433500
_cell_angle_alpha   89.84509072
_cell_angle_beta   90.00000000
_cell_angle_gamma   90.00000000
_symmetry_Int_Tables_number   1
_chemical_formula_structural   Ca11Sc(SiAu)12
_chemical_formula_sum   'Ca11 Sc1 Si12 Au12'
_cell_volume   737.40948923
_cell_formula_units_Z   1
loop_
 _symmetry_equiv_pos_site_id
 _symmetry_equiv_pos_as_xyz
  1  'x, y, z'
loop_
 _atom_site_type_symbol
 _atom_site_label
 _atom_site_symmetry_multiplicity
 _atom_site_fract_x
 _atom_site_fract_y
 _atom_site_fract_z
 _atom_site_occupancy
  Ca  Ca0  1  0.250000  0.795629  0.167542  1
  Ca  Ca1  1  0.250000  0.784850  0.502372  1
  Ca  Ca2  1  0.250000  0.705302  0.333175  1
  Ca  Ca3  1  0.750000  0.215565  0.500140  1
  Ca  Ca4  1  0.750000  0.289090  0.668206  1
  Ca  Ca5  1  0.750000  0.273961  0.998018  1
  Ca  Ca6  1  0.250000  0.787145  0.829583  1
  Ca  Ca7  1  0.250000  0.732594  0.998887  1
  Ca  Ca8  1  0.750000  0.210472  0.168079  1
  Ca  Ca9  1  0.750000  0.298262  0.333646  1
  Ca  Ca10  1  0.250000  0.703586  0.668055  1
  Sc  Sc11  1  0.750000  0.212678  0.833045  1
  Si  Si12  1  0.250000  0.409745  0.891482  1
  Si  Si13  1  0.750000  0.915182  0.727297  1
  Si  Si14  1  0.750000  0.584526  0.222950  1
  Si  Si15  1  0.250000  0.090832  0.072887  1
  Si  Si16  1  0.750000  0.917919  0.912576  1
  Si  Si17  1  0.750000  0.913929  0.609613  1
  Si  Si18  1  0.250000  0.408188  0.572843  1
  Si  Si19  1  0.250000  0.086292  0.392788  1
  Si  Si20  1  0.250000  0.084482  0.277473  1
  Si  Si21  1  0.750000  0.591132  0.431232  1
  Si  Si22  1  0.250000  0.406177  0.777939  1
  Si  Si23  1  0.750000  0.585934  0.106227  1
  Au  Au24  1  0.750000  0.580921  0.904439  1
  Au  Au25  1  0.250000  0.417422  0.430497  1
  Au  Au26  1  0.750000  0.582879  0.572123  1
  Au  Au27  1  0.750000  0.916929  0.406293  1
  Au  Au28  1  0.250000  0.420539  0.091357  1
  Au  Au29  1  0.250000  0.415746  0.238626  1
  Au  Au30  1  0.750000  0.915329  0.262058  1
  Au  Au31  1  0.250000  0.084427  0.744003  1
  Au  Au32  1  0.250000  0.085159  0.920584  1
  Au  Au33  1  0.750000  0.918405  0.075727  1
  Au  Au34  1  0.250000  0.082359  0.595705  1
  Au  Au35  1  0.750000  0.576419  0.762532  1
