# generated using pymatgen
data_Ti8V9Si16W3
_symmetry_space_group_name_H-M   'P 1'
_cell_length_a   6.51428252
_cell_length_b   6.51428244
_cell_length_c   12.02880809
_cell_angle_alpha   89.95469934
_cell_angle_beta   90.04529606
_cell_angle_gamma   90.05272873
_symmetry_Int_Tables_number   1
_chemical_formula_structural   Ti8V9Si16W3
_chemical_formula_sum   'Ti8 V9 Si16 W3'
_cell_volume   510.45247642
_cell_formula_units_Z   1
loop_
 _symmetry_equiv_pos_site_id
 _symmetry_equiv_pos_as_xyz
  1  'x, y, z'
loop_
 _atom_site_type_symbol
 _atom_site_label
 _atom_site_symmetry_multiplicity
 _atom_site_fract_x
 _atom_site_fract_y
 _atom_site_fract_z
 _atom_site_occupancy
  Ti  Ti0  1  0.004320  0.665323  0.029483  1
  Ti  Ti1  1  0.835264  0.503829  0.279863  1
  Ti  Ti2  1  0.163697  0.495909  0.778520  1
  Ti  Ti3  1  0.503829  0.835264  0.720137  1
  Ti  Ti4  1  0.495909  0.163697  0.221480  1
  Ti  Ti5  1  0.995008  0.335042  0.529650  1
  Ti  Ti6  1  0.665323  0.004320  0.970517  1
  Ti  Ti7  1  0.335042  0.995008  0.470350  1
  V  V8  1  0.663787  0.663787  0.500000  1
  V  V9  1  0.004849  0.157574  0.128626  1
  V  V10  1  0.344099  0.505235  0.379318  1
  V  V11  1  0.657960  0.495437  0.877709  1
  V  V12  1  0.505235  0.344099  0.620682  1
  V  V13  1  0.495437  0.657960  0.122291  1
  V  V14  1  0.994652  0.842617  0.627128  1
  V  V15  1  0.157574  0.004849  0.871374  1
  V  V16  1  0.842617  0.994652  0.372872  1
  Si  Si17  1  0.299597  0.960636  0.063252  1
  Si  Si18  1  0.542006  0.797028  0.316008  1
  Si  Si19  1  0.460507  0.201245  0.812520  1
  Si  Si20  1  0.797028  0.542006  0.683992  1
  Si  Si21  1  0.201245  0.460507  0.187480  1
  Si  Si22  1  0.698498  0.035179  0.562417  1
  Si  Si23  1  0.960636  0.299597  0.936748  1
  Si  Si24  1  0.035179  0.698498  0.437583  1
  Si  Si25  1  0.710947  0.370600  0.077858  1
  Si  Si26  1  0.129994  0.211078  0.328292  1
  Si  Si27  1  0.870406  0.788850  0.826709  1
  Si  Si28  1  0.211078  0.129994  0.671708  1
  Si  Si29  1  0.788850  0.870406  0.173291  1
  Si  Si30  1  0.291395  0.631339  0.576231  1
  Si  Si31  1  0.370600  0.710947  0.922142  1
  Si  Si32  1  0.631339  0.291395  0.423769  1
  W  W33  1  0.335355  0.335355  0.000000  1
  W  W34  1  0.165644  0.835093  0.250527  1
  W  W35  1  0.835093  0.165644  0.749473  1
