# generated using pymatgen
data_Th2Sc3Si4
_symmetry_space_group_name_H-M   'P 1'
_cell_length_a   7.24168600
_cell_length_b   7.49432600
_cell_length_c   14.22484300
_cell_angle_alpha   90.00000000
_cell_angle_beta   90.00000000
_cell_angle_gamma   90.00000000
_symmetry_Int_Tables_number   1
_chemical_formula_structural   Th2Sc3Si4
_chemical_formula_sum   'Th8 Sc12 Si16'
_cell_volume   772.00435882
_cell_formula_units_Z   4
loop_
 _symmetry_equiv_pos_site_id
 _symmetry_equiv_pos_as_xyz
  1  'x, y, z'
loop_
 _atom_site_type_symbol
 _atom_site_label
 _atom_site_symmetry_multiplicity
 _atom_site_fract_x
 _atom_site_fract_y
 _atom_site_fract_z
 _atom_site_occupancy
  Th  Th0  1  0.007515  0.172638  0.096802  1
  Th  Th1  1  0.992485  0.827362  0.903198  1
  Th  Th2  1  0.492485  0.672638  0.903198  1
  Th  Th3  1  0.992485  0.827362  0.596802  1
  Th  Th4  1  0.507515  0.327362  0.096802  1
  Th  Th5  1  0.007515  0.172638  0.403198  1
  Th  Th6  1  0.507515  0.327362  0.403198  1
  Th  Th7  1  0.492485  0.672638  0.596802  1
  Sc  Sc8  1  0.159842  0.502904  0.750000  1
  Sc  Sc9  1  0.840158  0.497096  0.250000  1
  Sc  Sc10  1  0.340158  0.002904  0.250000  1
  Sc  Sc11  1  0.659842  0.997096  0.750000  1
  Sc  Sc12  1  0.331282  0.174410  0.624901  1
  Sc  Sc13  1  0.668718  0.825590  0.375099  1
  Sc  Sc14  1  0.168718  0.674410  0.375099  1
  Sc  Sc15  1  0.668718  0.825590  0.124901  1
  Sc  Sc16  1  0.831282  0.325590  0.624901  1
  Sc  Sc17  1  0.331282  0.174410  0.875099  1
  Sc  Sc18  1  0.831282  0.325590  0.875099  1
  Sc  Sc19  1  0.168718  0.674410  0.124901  1
  Si  Si20  1  0.032754  0.122490  0.750000  1
  Si  Si21  1  0.967246  0.877510  0.250000  1
  Si  Si22  1  0.467246  0.622490  0.250000  1
  Si  Si23  1  0.532754  0.377510  0.750000  1
  Si  Si24  1  0.289605  0.876666  0.750000  1
  Si  Si25  1  0.710395  0.123334  0.250000  1
  Si  Si26  1  0.210395  0.376666  0.250000  1
  Si  Si27  1  0.789605  0.623334  0.750000  1
  Si  Si28  1  0.157792  0.464578  0.539878  1
  Si  Si29  1  0.842208  0.535422  0.460122  1
  Si  Si30  1  0.342208  0.964578  0.460122  1
  Si  Si31  1  0.842208  0.535422  0.039878  1
  Si  Si32  1  0.657792  0.035422  0.539878  1
  Si  Si33  1  0.157792  0.464578  0.960122  1
  Si  Si34  1  0.657792  0.035422  0.960122  1
  Si  Si35  1  0.342208  0.964578  0.039878  1
