# generated using pymatgen
data_LaNd15(TmIr3)4
_symmetry_space_group_name_H-M   'P 1'
_cell_length_a   11.18968834
_cell_length_b   11.19381845
_cell_length_c   6.51740360
_cell_angle_alpha   89.98721420
_cell_angle_beta   89.95241988
_cell_angle_gamma   89.94311498
_symmetry_Int_Tables_number   1
_chemical_formula_structural   LaNd15(TmIr3)4
_chemical_formula_sum   'La1 Nd15 Tm4 Ir12'
_cell_volume   816.33889888
_cell_formula_units_Z   1
loop_
 _symmetry_equiv_pos_site_id
 _symmetry_equiv_pos_as_xyz
  1  'x, y, z'
loop_
 _atom_site_type_symbol
 _atom_site_label
 _atom_site_symmetry_multiplicity
 _atom_site_fract_x
 _atom_site_fract_y
 _atom_site_fract_z
 _atom_site_occupancy
  La  La0  1  0.288179  0.087290  0.381419  1
  Nd  Nd1  1  0.288468  0.912434  0.881023  1
  Nd  Nd2  1  0.711450  0.087050  0.881158  1
  Nd  Nd3  1  0.711656  0.912943  0.381161  1
  Nd  Nd4  1  0.586937  0.788452  0.881044  1
  Nd  Nd5  1  0.587656  0.211839  0.380973  1
  Nd  Nd6  1  0.413133  0.787883  0.380990  1
  Nd  Nd7  1  0.413407  0.211854  0.881137  1
  Nd  Nd8  1  0.211451  0.413330  0.619297  1
  Nd  Nd9  1  0.211541  0.586940  0.118854  1
  Nd  Nd10  1  0.788496  0.413041  0.118875  1
  Nd  Nd11  1  0.788508  0.586926  0.618850  1
  Nd  Nd12  1  0.912995  0.711528  0.118971  1
  Nd  Nd13  1  0.912853  0.288530  0.618704  1
  Nd  Nd14  1  0.086936  0.711459  0.619009  1
  Nd  Nd15  1  0.086662  0.288806  0.118434  1
  Tm  Tm16  1  0.999416  0.999706  0.500303  1
  Tm  Tm17  1  0.999823  0.000022  0.999815  1
  Tm  Tm18  1  0.500005  0.499967  0.000061  1
  Tm  Tm19  1  0.500154  0.500042  0.500171  1
  Ir  Ir20  1  0.852535  0.147445  0.249959  1
  Ir  Ir21  1  0.852556  0.852591  0.749996  1
  Ir  Ir22  1  0.147736  0.147388  0.749656  1
  Ir  Ir23  1  0.147352  0.852263  0.249792  1
  Ir  Ir24  1  0.647475  0.352632  0.750040  1
  Ir  Ir25  1  0.647392  0.647526  0.249916  1
  Ir  Ir26  1  0.352620  0.352756  0.250012  1
  Ir  Ir27  1  0.352583  0.647430  0.749998  1
  Ir  Ir28  1  0.499806  0.000076  0.118922  1
  Ir  Ir29  1  0.500239  0.999861  0.618824  1
  Ir  Ir30  1  0.000038  0.499911  0.881379  1
  Ir  Ir31  1  0.999943  0.500080  0.381257  1
