# generated using pymatgen
data_TmSc11Co4
_symmetry_space_group_name_H-M   'P 1'
_cell_length_a   5.87841303
_cell_length_b   6.47575538
_cell_length_c   8.56516526
_cell_angle_alpha   90.03008508
_cell_angle_beta   89.43824917
_cell_angle_gamma   89.99636309
_symmetry_Int_Tables_number   1
_chemical_formula_structural   TmSc11Co4
_chemical_formula_sum   'Tm1 Sc11 Co4'
_cell_volume   326.03584061
_cell_formula_units_Z   1
loop_
 _symmetry_equiv_pos_site_id
 _symmetry_equiv_pos_as_xyz
  1  'x, y, z'
loop_
 _atom_site_type_symbol
 _atom_site_label
 _atom_site_symmetry_multiplicity
 _atom_site_fract_x
 _atom_site_fract_y
 _atom_site_fract_z
 _atom_site_occupancy
  Tm  Tm0  1  0.175458  0.179991  0.059697  1
  Sc  Sc1  1  0.320793  0.679684  0.062838  1
  Sc  Sc2  1  0.180899  0.179861  0.440924  1
  Sc  Sc3  1  0.678819  0.321125  0.561459  1
  Sc  Sc4  1  0.815822  0.817264  0.935470  1
  Sc  Sc5  1  0.676090  0.323491  0.934302  1
  Sc  Sc6  1  0.822941  0.821466  0.561189  1
  Sc  Sc7  1  0.323524  0.678515  0.435943  1
  Sc  Sc8  1  0.875257  0.540286  0.251515  1
  Sc  Sc9  1  0.625532  0.036675  0.251791  1
  Sc  Sc10  1  0.120832  0.465688  0.747048  1
  Sc  Sc11  1  0.378810  0.958764  0.746191  1
  Co  Co12  1  0.036756  0.890600  0.261018  1
  Co  Co13  1  0.469819  0.394584  0.252784  1
  Co  Co14  1  0.963085  0.106011  0.748431  1
  Co  Co15  1  0.535565  0.605995  0.749402  1
