# generated using pymatgen
data_La4Y6InSn7
_symmetry_space_group_name_H-M   'P 1'
_cell_length_a   8.01110000
_cell_length_b   8.43824700
_cell_length_c   15.68104700
_cell_angle_alpha   90.00000000
_cell_angle_beta   90.00000000
_cell_angle_gamma   90.00000000
_symmetry_Int_Tables_number   1
_chemical_formula_structural   La4Y6InSn7
_chemical_formula_sum   'La8 Y12 In2 Sn14'
_cell_volume   1060.03314052
_cell_formula_units_Z   2
loop_
 _symmetry_equiv_pos_site_id
 _symmetry_equiv_pos_as_xyz
  1  'x, y, z'
loop_
 _atom_site_type_symbol
 _atom_site_label
 _atom_site_symmetry_multiplicity
 _atom_site_fract_x
 _atom_site_fract_y
 _atom_site_fract_z
 _atom_site_occupancy
  La  La0  1  0.499215  0.318250  0.906082  1
  La  La1  1  0.999215  0.181750  0.593918  1
  La  La2  1  0.499108  0.678032  0.405484  1
  La  La3  1  0.999108  0.821968  0.094516  1
  La  La4  1  0.499108  0.678032  0.094516  1
  La  La5  1  0.999108  0.821968  0.405484  1
  La  La6  1  0.499215  0.318250  0.593918  1
  La  La7  1  0.999215  0.181750  0.906082  1
  Y  Y8  1  0.336439  0.832701  0.876001  1
  Y  Y9  1  0.836439  0.667299  0.623999  1
  Y  Y10  1  0.664723  0.165571  0.375311  1
  Y  Y11  1  0.164723  0.334429  0.124689  1
  Y  Y12  1  0.664723  0.165571  0.124689  1
  Y  Y13  1  0.164723  0.334429  0.375311  1
  Y  Y14  1  0.336439  0.832701  0.623999  1
  Y  Y15  1  0.836439  0.667299  0.876001  1
  Y  Y16  1  0.174130  0.497149  0.750000  1
  Y  Y17  1  0.674130  0.002851  0.750000  1
  Y  Y18  1  0.828424  0.500644  0.250000  1
  Y  Y19  1  0.328424  0.999356  0.250000  1
  In  In20  1  0.536219  0.620090  0.750000  1
  In  In21  1  0.036219  0.879910  0.750000  1
  Sn  Sn22  1  0.323158  0.039596  0.040860  1
  Sn  Sn23  1  0.823158  0.460404  0.459140  1
  Sn  Sn24  1  0.678187  0.961039  0.542383  1
  Sn  Sn25  1  0.178187  0.538961  0.957617  1
  Sn  Sn26  1  0.678187  0.961039  0.957617  1
  Sn  Sn27  1  0.178187  0.538961  0.542383  1
  Sn  Sn28  1  0.323158  0.039596  0.459140  1
  Sn  Sn29  1  0.823158  0.460404  0.040860  1
  Sn  Sn30  1  0.467554  0.376528  0.250000  1
  Sn  Sn31  1  0.967554  0.123472  0.250000  1
  Sn  Sn32  1  0.297468  0.135212  0.750000  1
  Sn  Sn33  1  0.797468  0.364788  0.750000  1
  Sn  Sn34  1  0.694547  0.856387  0.250000  1
  Sn  Sn35  1  0.194547  0.643613  0.250000  1
