# generated using pymatgen
data_Sc12Ga3I16
_symmetry_space_group_name_H-M   'P 1'
_cell_length_a   9.33106446
_cell_length_b   11.96387731
_cell_length_c   12.66669719
_cell_angle_alpha   116.92663774
_cell_angle_beta   101.42078321
_cell_angle_gamma   100.85535601
_symmetry_Int_Tables_number   1
_chemical_formula_structural   Sc12Ga3I16
_chemical_formula_sum   'Sc12 Ga3 I16'
_cell_volume   1171.59872115
_cell_formula_units_Z   1
loop_
 _symmetry_equiv_pos_site_id
 _symmetry_equiv_pos_as_xyz
  1  'x, y, z'
loop_
 _atom_site_type_symbol
 _atom_site_label
 _atom_site_symmetry_multiplicity
 _atom_site_fract_x
 _atom_site_fract_y
 _atom_site_fract_z
 _atom_site_occupancy
  Sc  Sc0  1  0.085653  0.262631  0.354147  1
  Sc  Sc1  1  0.914347  0.737369  0.645853  1
  Sc  Sc2  1  0.779352  0.537279  0.324955  1
  Sc  Sc3  1  0.220648  0.462721  0.675045  1
  Sc  Sc4  1  0.278794  0.737867  0.644784  1
  Sc  Sc5  1  0.721206  0.262133  0.355216  1
  Sc  Sc6  1  0.144379  0.537587  0.324560  1
  Sc  Sc7  1  0.855621  0.462413  0.675440  1
  Sc  Sc8  1  0.407855  0.362098  0.279263  1
  Sc  Sc9  1  0.592145  0.637902  0.720737  1
  Sc  Sc10  1  0.459326  0.311095  0.520533  1
  Sc  Sc11  1  0.540674  0.688905  0.479467  1
  Ga  Ga12  1  0.000000  0.500000  0.500000  1
  Ga  Ga13  1  0.335233  0.500210  0.499708  1
  Ga  Ga14  1  0.664768  0.499790  0.500292  1
  I  I15  1  0.395002  0.737021  0.879091  1
  I  I16  1  0.604998  0.262979  0.120909  1
  I  I17  1  0.188953  0.967866  0.783595  1
  I  I18  1  0.811047  0.032134  0.216405  1
  I  I19  1  0.337022  0.096185  0.252551  1
  I  I20  1  0.662978  0.903815  0.747449  1
  I  I21  1  0.561754  0.436856  0.798013  1
  I  I22  1  0.438246  0.563144  0.201987  1
  I  I23  1  0.308751  0.825495  0.463555  1
  I  I24  1  0.691249  0.174505  0.536445  1
  I  I25  1  0.169176  0.174740  0.534897  1
  I  I26  1  0.830824  0.825260  0.465103  1
  I  I27  1  0.926088  0.578129  0.158872  1
  I  I28  1  0.073912  0.421871  0.841128  1
  I  I29  1  0.921142  0.736286  0.879802  1
  I  I30  1  0.078858  0.263714  0.120198  1
