# generated using pymatgen
data_Nd16InHg3Ru4
_symmetry_space_group_name_H-M   'P 1'
_cell_length_a   9.91518830
_cell_length_b   9.91518776
_cell_length_c   9.88496783
_cell_angle_alpha   59.89881427
_cell_angle_beta   59.89882066
_cell_angle_gamma   59.99999309
_symmetry_Int_Tables_number   1
_chemical_formula_structural   Nd16InHg3Ru4
_chemical_formula_sum   'Nd16 In1 Hg3 Ru4'
_cell_volume   686.11395798
_cell_formula_units_Z   1
loop_
 _symmetry_equiv_pos_site_id
 _symmetry_equiv_pos_as_xyz
  1  'x, y, z'
loop_
 _atom_site_type_symbol
 _atom_site_label
 _atom_site_symmetry_multiplicity
 _atom_site_fract_x
 _atom_site_fract_y
 _atom_site_fract_z
 _atom_site_occupancy
  Nd  Nd0  1  0.098099  0.705490  0.098313  1
  Nd  Nd1  1  0.940755  0.940755  0.559258  1
  Nd  Nd2  1  0.942597  0.558372  0.940659  1
  Nd  Nd3  1  0.310300  0.690281  0.309137  1
  Nd  Nd4  1  0.940755  0.559233  0.559258  1
  Nd  Nd5  1  0.310613  0.310613  0.687389  1
  Nd  Nd6  1  0.098099  0.098099  0.098313  1
  Nd  Nd7  1  0.558372  0.558372  0.940659  1
  Nd  Nd8  1  0.098942  0.098942  0.703174  1
  Nd  Nd9  1  0.691384  0.310613  0.687389  1
  Nd  Nd10  1  0.690281  0.690281  0.309137  1
  Nd  Nd11  1  0.690281  0.310300  0.309137  1
  Nd  Nd12  1  0.310613  0.691384  0.687389  1
  Nd  Nd13  1  0.559233  0.940755  0.559258  1
  Nd  Nd14  1  0.705490  0.098099  0.098313  1
  Nd  Nd15  1  0.558372  0.942597  0.940659  1
  In  In16  1  0.328680  0.328680  0.013959  1
  Hg  Hg17  1  0.333907  0.333907  0.332685  1
  Hg  Hg18  1  0.999501  0.333907  0.332685  1
  Hg  Hg19  1  0.333907  0.999501  0.332685  1
  Ru  Ru20  1  0.888217  0.888217  0.888133  1
  Ru  Ru21  1  0.887952  0.887952  0.336146  1
  Ru  Ru22  1  0.335432  0.888217  0.888133  1
  Ru  Ru23  1  0.888217  0.335432  0.888133  1
