# generated using pymatgen
data_Zr9Ta3PdO3
_symmetry_space_group_name_H-M   'P 1'
_cell_length_a   8.69230982
_cell_length_b   8.69230189
_cell_length_c   8.72137200
_cell_angle_alpha   90.00000000
_cell_angle_beta   90.00000000
_cell_angle_gamma   119.39114238
_symmetry_Int_Tables_number   1
_chemical_formula_structural   Zr9Ta3PdO3
_chemical_formula_sum   'Zr18 Ta6 Pd2 O6'
_cell_volume   574.13944573
_cell_formula_units_Z   2
loop_
 _symmetry_equiv_pos_site_id
 _symmetry_equiv_pos_as_xyz
  1  'x, y, z'
loop_
 _atom_site_type_symbol
 _atom_site_label
 _atom_site_symmetry_multiplicity
 _atom_site_fract_x
 _atom_site_fract_y
 _atom_site_fract_z
 _atom_site_occupancy
  Zr  Zr0  1  0.453734  0.904152  0.250000  1
  Zr  Zr1  1  0.546266  0.095848  0.750000  1
  Zr  Zr2  1  0.095848  0.546266  0.250000  1
  Zr  Zr3  1  0.904152  0.453734  0.750000  1
  Zr  Zr4  1  0.455815  0.544186  0.250000  1
  Zr  Zr5  1  0.544185  0.455814  0.750000  1
  Zr  Zr6  1  0.205475  0.412505  0.557594  1
  Zr  Zr7  1  0.794525  0.587495  0.442406  1
  Zr  Zr8  1  0.587494  0.794524  0.557595  1
  Zr  Zr9  1  0.794525  0.587495  0.057594  1
  Zr  Zr10  1  0.412506  0.205476  0.442405  1
  Zr  Zr11  1  0.205475  0.412505  0.942406  1
  Zr  Zr12  1  0.208145  0.791855  0.570579  1
  Zr  Zr13  1  0.412506  0.205476  0.057595  1
  Zr  Zr14  1  0.791855  0.208145  0.429421  1
  Zr  Zr15  1  0.587494  0.794524  0.942405  1
  Zr  Zr16  1  0.791855  0.208145  0.070579  1
  Zr  Zr17  1  0.208145  0.791855  0.929421  1
  Ta  Ta18  1  0.110270  0.221100  0.250000  1
  Ta  Ta19  1  0.889730  0.778900  0.750000  1
  Ta  Ta20  1  0.778899  0.889731  0.250000  1
  Ta  Ta21  1  0.221101  0.110269  0.750000  1
  Ta  Ta22  1  0.000000  0.000000  0.000000  1
  Ta  Ta23  1  0.000000  0.000000  0.500000  1
  Pd  Pd24  1  0.114742  0.885257  0.250000  1
  Pd  Pd25  1  0.885258  0.114743  0.750000  1
  O  O26  1  0.500000  0.000000  0.000000  1
  O  O27  1  0.000000  0.500000  0.000000  1
  O  O28  1  0.500000  0.000000  0.500000  1
  O  O29  1  0.500000  0.500000  0.000000  1
  O  O30  1  0.000000  0.500000  0.500000  1
  O  O31  1  0.500000  0.500000  0.500000  1
