# generated using pymatgen
data_Er4Al16Ga2PtRh5
_symmetry_space_group_name_H-M   'P 1'
_cell_length_a   7.53599734
_cell_length_b   7.53599751
_cell_length_c   9.46817321
_cell_angle_alpha   89.98611996
_cell_angle_beta   89.98611301
_cell_angle_gamma   119.37534172
_symmetry_Int_Tables_number   1
_chemical_formula_structural   Er4Al16Ga2PtRh5
_chemical_formula_sum   'Er4 Al16 Ga2 Pt1 Rh5'
_cell_volume   468.57341222
_cell_formula_units_Z   1
loop_
 _symmetry_equiv_pos_site_id
 _symmetry_equiv_pos_as_xyz
  1  'x, y, z'
loop_
 _atom_site_type_symbol
 _atom_site_label
 _atom_site_symmetry_multiplicity
 _atom_site_fract_x
 _atom_site_fract_y
 _atom_site_fract_z
 _atom_site_occupancy
  Er  Er0  1  0.993845  0.672060  0.750180  1
  Er  Er1  1  0.004399  0.326351  0.250008  1
  Er  Er2  1  0.673649  0.995601  0.749992  1
  Er  Er3  1  0.327940  0.006155  0.249820  1
  Al  Al4  1  0.004741  0.335756  0.576432  1
  Al  Al5  1  0.002581  0.667904  0.423671  1
  Al  Al6  1  0.000565  0.664594  0.074445  1
  Al  Al7  1  0.335406  0.999435  0.925555  1
  Al  Al8  1  0.001204  0.335571  0.924994  1
  Al  Al9  1  0.664429  0.998796  0.075006  1
  Al  Al10  1  0.664244  0.995259  0.423568  1
  Al  Al11  1  0.332096  0.997419  0.576329  1
  Al  Al12  1  0.332946  0.332916  0.052999  1
  Al  Al13  1  0.667084  0.667054  0.947001  1
  Al  Al14  1  0.666105  0.669492  0.555609  1
  Al  Al15  1  0.330508  0.333895  0.444391  1
  Al  Al16  1  0.338777  0.551660  0.750424  1
  Al  Al17  1  0.661752  0.452822  0.246681  1
  Al  Al18  1  0.547178  0.338248  0.753319  1
  Al  Al19  1  0.448340  0.661223  0.249576  1
  Ga  Ga20  1  0.130197  0.129173  0.750289  1
  Ga  Ga21  1  0.870827  0.869803  0.249711  1
  Pt  Pt22  1  0.671632  0.328368  0.500000  1
  Rh  Rh23  1  0.328457  0.671543  0.500000  1
  Rh  Rh24  1  0.328829  0.671171  0.000000  1
  Rh  Rh25  1  0.672072  0.327928  0.000000  1
  Rh  Rh26  1  0.000051  0.999949  0.500000  1
  Rh  Rh27  1  0.000142  0.999858  0.000000  1
