# generated using pymatgen
data_Dy4Sc2CoTe2
_symmetry_space_group_name_H-M   'P 1'
_cell_length_a   3.90951800
_cell_length_b   8.19199513
_cell_length_c   8.19199424
_cell_angle_alpha   121.19740897
_cell_angle_beta   90.00000000
_cell_angle_gamma   90.00000000
_symmetry_Int_Tables_number   1
_chemical_formula_structural   Dy4Sc2CoTe2
_chemical_formula_sum   'Dy4 Sc2 Co1 Te2'
_cell_volume   224.42205488
_cell_formula_units_Z   1
loop_
 _symmetry_equiv_pos_site_id
 _symmetry_equiv_pos_as_xyz
  1  'x, y, z'
loop_
 _atom_site_type_symbol
 _atom_site_label
 _atom_site_symmetry_multiplicity
 _atom_site_fract_x
 _atom_site_fract_y
 _atom_site_fract_z
 _atom_site_occupancy
  Dy  Dy0  1  0.500000  0.766322  0.766322  1
  Dy  Dy1  1  0.000000  0.383384  0.383384  1
  Dy  Dy2  1  0.000000  0.001460  0.600221  1
  Dy  Dy3  1  0.000000  0.600221  0.001460  1
  Sc  Sc4  1  0.500000  0.993812  0.224703  1
  Sc  Sc5  1  0.500000  0.224703  0.993812  1
  Co  Co6  1  0.000000  0.035577  0.035577  1
  Te  Te7  1  0.500000  0.666589  0.327932  1
  Te  Te8  1  0.500000  0.327932  0.666589  1
