# generated using pymatgen
data_Tb8Si13Ni3
_symmetry_space_group_name_H-M   'P 1'
_cell_length_a   7.95453000
_cell_length_b   7.95455353
_cell_length_c   8.05530700
_cell_angle_alpha   90.00001441
_cell_angle_beta   89.99995678
_cell_angle_gamma   119.99981897
_symmetry_Int_Tables_number   1
_chemical_formula_structural   Tb8Si13Ni3
_chemical_formula_sum   'Tb8 Si13 Ni3'
_cell_volume   441.41171341
_cell_formula_units_Z   1
loop_
 _symmetry_equiv_pos_site_id
 _symmetry_equiv_pos_as_xyz
  1  'x, y, z'
loop_
 _atom_site_type_symbol
 _atom_site_label
 _atom_site_symmetry_multiplicity
 _atom_site_fract_x
 _atom_site_fract_y
 _atom_site_fract_z
 _atom_site_occupancy
  Tb  Tb0  1  0.999999  0.000004  0.248420  1
  Tb  Tb1  1  0.000000  0.000004  0.751455  1
  Tb  Tb2  1  0.000169  0.500086  0.249814  1
  Tb  Tb3  1  0.499914  0.500089  0.249810  1
  Tb  Tb4  1  0.500686  0.001365  0.749970  1
  Tb  Tb5  1  0.499918  0.999834  0.249814  1
  Tb  Tb6  1  0.500682  0.499317  0.749968  1
  Tb  Tb7  1  0.998638  0.499316  0.749971  1
  Si  Si8  1  0.171451  0.342909  0.999654  1
  Si  Si9  1  0.657086  0.828550  0.999650  1
  Si  Si10  1  0.173995  0.348007  0.500462  1
  Si  Si11  1  0.342005  0.170997  0.000182  1
  Si  Si12  1  0.171460  0.828546  0.999648  1
  Si  Si13  1  0.651992  0.826006  0.500462  1
  Si  Si14  1  0.829001  0.658000  0.000182  1
  Si  Si15  1  0.326070  0.163033  0.499669  1
  Si  Si16  1  0.174009  0.825994  0.500470  1
  Si  Si17  1  0.836967  0.673930  0.499669  1
  Si  Si18  1  0.828991  0.171001  0.000171  1
  Si  Si19  1  0.836972  0.163028  0.499681  1
  Si  Si20  1  0.666665  0.333338  0.498824  1
  Ni  Ni21  1  0.333331  0.666652  0.999405  1
  Ni  Ni22  1  0.333333  0.666644  0.501398  1
  Ni  Ni23  1  0.666666  0.333350  0.001250  1
