# generated using pymatgen
data_Ho4MgPbAu4
_symmetry_space_group_name_H-M   'P 1'
_cell_length_a   8.00694000
_cell_length_b   8.00694000
_cell_length_c   3.73564700
_cell_angle_alpha   90.00000000
_cell_angle_beta   90.00000000
_cell_angle_gamma   90.00000000
_symmetry_Int_Tables_number   1
_chemical_formula_structural   Ho4MgPbAu4
_chemical_formula_sum   'Ho4 Mg1 Pb1 Au4'
_cell_volume   239.49639417
_cell_formula_units_Z   1
loop_
 _symmetry_equiv_pos_site_id
 _symmetry_equiv_pos_as_xyz
  1  'x, y, z'
loop_
 _atom_site_type_symbol
 _atom_site_label
 _atom_site_symmetry_multiplicity
 _atom_site_fract_x
 _atom_site_fract_y
 _atom_site_fract_z
 _atom_site_occupancy
  Ho  Ho0  1  0.677472  0.153305  0.500000  1
  Ho  Ho1  1  0.322528  0.846695  0.500000  1
  Ho  Ho2  1  0.153305  0.322528  0.500000  1
  Ho  Ho3  1  0.846695  0.677472  0.500000  1
  Mg  Mg4  1  0.500000  0.500000  0.000000  1
  Pb  Pb5  1  0.000000  0.000000  0.000000  1
  Au  Au6  1  0.147088  0.616081  0.000000  1
  Au  Au7  1  0.852912  0.383919  0.000000  1
  Au  Au8  1  0.616081  0.852912  0.000000  1
  Au  Au9  1  0.383919  0.147088  0.000000  1
