# generated using pymatgen
data_Tb3Y5Cd2OsPt
_symmetry_space_group_name_H-M   'P 1'
_cell_length_a   9.69789756
_cell_length_b   9.70913809
_cell_length_c   9.76705671
_cell_angle_alpha   59.63198513
_cell_angle_beta   59.72918165
_cell_angle_gamma   59.59913674
_symmetry_Int_Tables_number   1
_chemical_formula_structural   Tb3Y5Cd2OsPt
_chemical_formula_sum   'Tb6 Y10 Cd4 Os2 Pt2'
_cell_volume   645.16736531
_cell_formula_units_Z   2
loop_
 _symmetry_equiv_pos_site_id
 _symmetry_equiv_pos_as_xyz
  1  'x, y, z'
loop_
 _atom_site_type_symbol
 _atom_site_label
 _atom_site_symmetry_multiplicity
 _atom_site_fract_x
 _atom_site_fract_y
 _atom_site_fract_z
 _atom_site_occupancy
  Tb  Tb0  1  0.348724  0.349583  0.353068  1
  Tb  Tb1  1  0.350673  0.349550  0.947685  1
  Tb  Tb2  1  0.346817  0.955075  0.348534  1
  Tb  Tb3  1  0.955117  0.346763  0.350222  1
  Tb  Tb4  1  0.814481  0.188590  0.190432  1
  Tb  Tb5  1  0.187251  0.814710  0.805683  1
  Y  Y6  1  0.188863  0.813732  0.190890  1
  Y  Y7  1  0.814199  0.187156  0.805781  1
  Y  Y8  1  0.188774  0.188876  0.810628  1
  Y  Y9  1  0.807596  0.807632  0.191602  1
  Y  Y10  1  0.937853  0.557049  0.567323  1
  Y  Y11  1  0.557408  0.937053  0.938610  1
  Y  Y12  1  0.555735  0.939094  0.566736  1
  Y  Y13  1  0.937784  0.556278  0.939518  1
  Y  Y14  1  0.562310  0.562531  0.938958  1
  Y  Y15  1  0.939550  0.939475  0.560406  1
  Cd  Cd16  1  0.580599  0.579735  0.580030  1
  Cd  Cd17  1  0.580205  0.581065  0.257339  1
  Cd  Cd18  1  0.580989  0.255312  0.581925  1
  Cd  Cd19  1  0.255399  0.580997  0.580926  1
  Os  Os20  1  0.142587  0.145476  0.138746  1
  Os  Os21  1  0.146260  0.143622  0.573905  1
  Pt  Pt22  1  0.146097  0.574645  0.139790  1
  Pt  Pt23  1  0.574730  0.146001  0.141267  1
