# generated using pymatgen
data_ScU5Co12(SiB2)2
_symmetry_space_group_name_H-M   'P 1'
_cell_length_a   5.11429000
_cell_length_b   5.11429081
_cell_length_c   13.16666200
_cell_angle_alpha   90.00000000
_cell_angle_beta   90.00000000
_cell_angle_gamma   119.99999475
_symmetry_Int_Tables_number   1
_chemical_formula_structural   ScU5Co12(SiB2)2
_chemical_formula_sum   'Sc1 U5 Co12 Si2 B4'
_cell_volume   298.24770587
_cell_formula_units_Z   1
loop_
 _symmetry_equiv_pos_site_id
 _symmetry_equiv_pos_as_xyz
  1  'x, y, z'
loop_
 _atom_site_type_symbol
 _atom_site_label
 _atom_site_symmetry_multiplicity
 _atom_site_fract_x
 _atom_site_fract_y
 _atom_site_fract_z
 _atom_site_occupancy
  Sc  Sc0  1  0.333333  0.666667  0.037715  1
  U  U1  1  0.333333  0.666667  0.262509  1
  U  U2  1  0.666667  0.333333  0.750133  1
  U  U3  1  0.666667  0.333333  0.537753  1
  U  U4  1  0.666667  0.333333  0.957279  1
  U  U5  1  0.333333  0.666667  0.463784  1
  Co  Co6  1  0.832758  0.665515  0.140752  1
  Co  Co7  1  0.166660  0.833340  0.645280  1
  Co  Co8  1  0.666680  0.833340  0.645280  1
  Co  Co9  1  0.334485  0.167242  0.140752  1
  Co  Co10  1  0.832758  0.167242  0.140752  1
  Co  Co11  1  0.166615  0.333228  0.856282  1
  Co  Co12  1  0.166615  0.833385  0.856282  1
  Co  Co13  1  0.166660  0.333320  0.645280  1
  Co  Co14  1  0.666772  0.833385  0.856282  1
  Co  Co15  1  0.333051  0.166526  0.355244  1
  Co  Co16  1  0.833474  0.666949  0.355244  1
  Co  Co17  1  0.833474  0.166526  0.355244  1
  Si  Si18  1  0.000000  0.000000  0.001003  1
  Si  Si19  1  0.000000  0.000000  0.500794  1
  B  B20  1  0.000000  0.000000  0.246166  1
  B  B21  1  0.000000  0.000000  0.751482  1
  B  B22  1  0.333333  0.666667  0.751290  1
  B  B23  1  0.666667  0.333333  0.247421  1
