# generated using pymatgen
data_Se8IBr7
_symmetry_space_group_name_H-M   'P 1'
_cell_length_a   16.14497523
_cell_length_b   5.26021625
_cell_length_c   7.77303205
_cell_angle_alpha   88.42958664
_cell_angle_beta   89.86256105
_cell_angle_gamma   89.90853767
_symmetry_Int_Tables_number   1
_chemical_formula_structural   Se8IBr7
_chemical_formula_sum   'Se8 I1 Br7'
_cell_volume   659.88237637
_cell_formula_units_Z   1
loop_
 _symmetry_equiv_pos_site_id
 _symmetry_equiv_pos_as_xyz
  1  'x, y, z'
loop_
 _atom_site_type_symbol
 _atom_site_label
 _atom_site_symmetry_multiplicity
 _atom_site_fract_x
 _atom_site_fract_y
 _atom_site_fract_z
 _atom_site_occupancy
  Se  Se0  1  0.878481  0.911081  0.377467  1
  Se  Se1  1  0.376993  0.582385  0.625482  1
  Se  Se2  1  0.124073  0.089621  0.622366  1
  Se  Se3  1  0.619127  0.421447  0.377247  1
  Se  Se4  1  0.964869  0.155015  0.214881  1
  Se  Se5  1  0.458490  0.318734  0.782358  1
  Se  Se6  1  0.041371  0.834001  0.783777  1
  Se  Se7  1  0.536637  0.679825  0.218725  1
  I  I8  1  0.865775  0.134320  0.675835  1
  Br  Br9  1  0.362343  0.391040  0.344816  1
  Br  Br10  1  0.135318  0.889996  0.342157  1
  Br  Br11  1  0.632837  0.617844  0.656495  1
  Br  Br12  1  0.874303  0.459733  0.061057  1
  Br  Br13  1  0.366058  0.011653  0.924481  1
  Br  Br14  1  0.134972  0.515995  0.918477  1
  Br  Br15  1  0.628353  0.987311  0.074378  1
