# generated using pymatgen
data_Ti3BeP2Ru3
_symmetry_space_group_name_H-M   'P 1'
_cell_length_a   6.37592100
_cell_length_b   6.37592163
_cell_length_c   3.41353800
_cell_angle_alpha   90.00000000
_cell_angle_beta   90.00000000
_cell_angle_gamma   120.00000191
_symmetry_Int_Tables_number   1
_chemical_formula_structural   Ti3BeP2Ru3
_chemical_formula_sum   'Ti3 Be1 P2 Ru3'
_cell_volume   120.17697358
_cell_formula_units_Z   1
loop_
 _symmetry_equiv_pos_site_id
 _symmetry_equiv_pos_as_xyz
  1  'x, y, z'
loop_
 _atom_site_type_symbol
 _atom_site_label
 _atom_site_symmetry_multiplicity
 _atom_site_fract_x
 _atom_site_fract_y
 _atom_site_fract_z
 _atom_site_occupancy
  Ti  Ti0  1  0.407466  0.407466  0.500000  1
  Ti  Ti1  1  0.592534  0.000000  0.500000  1
  Ti  Ti2  1  0.000000  0.592534  0.500000  1
  Be  Be3  1  0.000000  0.000000  0.500000  1
  P  P4  1  0.666667  0.333333  0.000000  1
  P  P5  1  0.333333  0.666667  0.000000  1
  Ru  Ru6  1  0.000000  0.248115  0.000000  1
  Ru  Ru7  1  0.248115  0.000000  0.000000  1
  Ru  Ru8  1  0.751885  0.751885  0.000000  1
