# generated using pymatgen
data_Tm2Sc3ReAs2
_symmetry_space_group_name_H-M   'P 1'
_cell_length_a   5.90914700
_cell_length_b   8.03886663
_cell_length_c   8.13600100
_cell_angle_alpha   119.60585463
_cell_angle_beta   90.00000000
_cell_angle_gamma   90.00000000
_symmetry_Int_Tables_number   1
_chemical_formula_structural   Tm2Sc3ReAs2
_chemical_formula_sum   'Tm4 Sc6 Re2 As4'
_cell_volume   336.02566696
_cell_formula_units_Z   2
loop_
 _symmetry_equiv_pos_site_id
 _symmetry_equiv_pos_as_xyz
  1  'x, y, z'
loop_
 _atom_site_type_symbol
 _atom_site_label
 _atom_site_symmetry_multiplicity
 _atom_site_fract_x
 _atom_site_fract_y
 _atom_site_fract_z
 _atom_site_occupancy
  Tm  Tm0  1  0.750000  0.742511  0.762405  1
  Tm  Tm1  1  0.250000  0.257489  0.237595  1
  Tm  Tm2  1  0.750000  0.980106  0.237595  1
  Tm  Tm3  1  0.250000  0.019894  0.762405  1
  Sc  Sc4  1  0.000000  0.659598  0.319194  1
  Sc  Sc5  1  0.000000  0.340402  0.680806  1
  Sc  Sc6  1  0.500000  0.340402  0.680806  1
  Sc  Sc7  1  0.500000  0.659598  0.319194  1
  Sc  Sc8  1  0.750000  0.256028  0.000000  1
  Sc  Sc9  1  0.250000  0.743972  0.000000  1
  Re  Re10  1  0.750000  0.584306  0.000000  1
  Re  Re11  1  0.250000  0.415694  0.000000  1
  As  As12  1  0.750000  0.383222  0.388498  1
  As  As13  1  0.250000  0.616778  0.611502  1
  As  As14  1  0.750000  0.994724  0.611502  1
  As  As15  1  0.250000  0.005276  0.388498  1
