# generated using pymatgen
data_Cr2CoCuPt4
_symmetry_space_group_name_H-M   'P 1'
_cell_length_a   3.89533100
_cell_length_b   3.73449500
_cell_length_c   7.77343900
_cell_angle_alpha   90.00000000
_cell_angle_beta   90.00000000
_cell_angle_gamma   90.00000000
_symmetry_Int_Tables_number   1
_chemical_formula_structural   Cr2CoCuPt4
_chemical_formula_sum   'Cr2 Co1 Cu1 Pt4'
_cell_volume   113.08094895
_cell_formula_units_Z   1
loop_
 _symmetry_equiv_pos_site_id
 _symmetry_equiv_pos_as_xyz
  1  'x, y, z'
loop_
 _atom_site_type_symbol
 _atom_site_label
 _atom_site_symmetry_multiplicity
 _atom_site_fract_x
 _atom_site_fract_y
 _atom_site_fract_z
 _atom_site_occupancy
  Cr  Cr0  1  0.500000  0.000000  0.254833  1
  Cr  Cr1  1  0.500000  0.000000  0.745167  1
  Co  Co2  1  0.000000  0.000000  0.500000  1
  Cu  Cu3  1  0.000000  0.000000  0.000000  1
  Pt  Pt4  1  0.500000  0.500000  0.000000  1
  Pt  Pt5  1  0.500000  0.500000  0.500000  1
  Pt  Pt6  1  0.000000  0.500000  0.252357  1
  Pt  Pt7  1  0.000000  0.500000  0.747643  1
