# generated using pymatgen
data_Ce2Th3Hg3C
_symmetry_space_group_name_H-M   'P 1'
_cell_length_a   9.42228300
_cell_length_b   9.42228187
_cell_length_c   6.18747500
_cell_angle_alpha   90.00000000
_cell_angle_beta   90.00000000
_cell_angle_gamma   119.99999344
_symmetry_Int_Tables_number   1
_chemical_formula_structural   Ce2Th3Hg3C
_chemical_formula_sum   'Ce4 Th6 Hg6 C2'
_cell_volume   475.72541532
_cell_formula_units_Z   2
loop_
 _symmetry_equiv_pos_site_id
 _symmetry_equiv_pos_as_xyz
  1  'x, y, z'
loop_
 _atom_site_type_symbol
 _atom_site_label
 _atom_site_symmetry_multiplicity
 _atom_site_fract_x
 _atom_site_fract_y
 _atom_site_fract_z
 _atom_site_occupancy
  Ce  Ce0  1  0.666667  0.333333  0.000000  1
  Ce  Ce1  1  0.333333  0.666667  0.000000  1
  Ce  Ce2  1  0.333333  0.666667  0.500000  1
  Ce  Ce3  1  0.666667  0.333333  0.500000  1
  Th  Th4  1  0.781913  0.781913  0.750000  1
  Th  Th5  1  0.218087  0.000000  0.750000  1
  Th  Th6  1  0.000000  0.218087  0.750000  1
  Th  Th7  1  0.218087  0.218087  0.250000  1
  Th  Th8  1  0.781913  0.000000  0.250000  1
  Th  Th9  1  0.000000  0.781913  0.250000  1
  Hg  Hg10  1  0.406087  0.406087  0.750000  1
  Hg  Hg11  1  0.593913  0.000000  0.750000  1
  Hg  Hg12  1  0.000000  0.593913  0.750000  1
  Hg  Hg13  1  0.593913  0.593913  0.250000  1
  Hg  Hg14  1  0.406087  0.000000  0.250000  1
  Hg  Hg15  1  0.000000  0.406087  0.250000  1
  C  C16  1  0.000000  0.000000  0.000000  1
  C  C17  1  0.000000  0.000000  0.500000  1
