# generated using pymatgen
data_Ho2ErAs4Pd7
_symmetry_space_group_name_H-M   'P 1'
_cell_length_a   8.09787358
_cell_length_b   8.09787489
_cell_length_c   9.63118452
_cell_angle_alpha   55.59070129
_cell_angle_beta   55.59069564
_cell_angle_gamma   29.48225293
_symmetry_Int_Tables_number   1
_chemical_formula_structural   Ho2ErAs4Pd7
_chemical_formula_sum   'Ho2 Er1 As4 Pd7'
_cell_volume   252.24253248
_cell_formula_units_Z   1
loop_
 _symmetry_equiv_pos_site_id
 _symmetry_equiv_pos_as_xyz
  1  'x, y, z'
loop_
 _atom_site_type_symbol
 _atom_site_label
 _atom_site_symmetry_multiplicity
 _atom_site_fract_x
 _atom_site_fract_y
 _atom_site_fract_z
 _atom_site_occupancy
  Ho  Ho0  1  0.500001  0.500001  0.500015  1
  Ho  Ho1  1  0.822580  0.822580  0.171500  1
  Er  Er2  1  0.176977  0.176977  0.829155  1
  As  As3  1  0.394257  0.394257  0.322754  1
  As  As4  1  0.606038  0.606038  0.677208  1
  As  As5  1  0.841213  0.841213  0.749974  1
  As  As6  1  0.158515  0.158515  0.250557  1
  Pd  Pd7  1  0.668235  0.668235  0.070625  1
  Pd  Pd8  1  0.012746  0.012746  0.204413  1
  Pd  Pd9  1  0.987373  0.987373  0.795364  1
  Pd  Pd10  1  0.500439  0.500439  0.999573  1
  Pd  Pd11  1  0.194510  0.194510  0.474234  1
  Pd  Pd12  1  0.805581  0.805581  0.526502  1
  Pd  Pd13  1  0.331537  0.331537  0.928127  1
