# generated using pymatgen
data_Dy20Ir3(PtRh2)3
_symmetry_space_group_name_H-M   'P 1'
_cell_length_a   10.95501974
_cell_length_b   10.95501877
_cell_length_c   6.34066910
_cell_angle_alpha   89.98900846
_cell_angle_beta   89.98901253
_cell_angle_gamma   90.31201729
_symmetry_Int_Tables_number   1
_chemical_formula_structural   Dy20Ir3(PtRh2)3
_chemical_formula_sum   'Dy20 Ir3 Pt3 Rh6'
_cell_volume   760.94790167
_cell_formula_units_Z   1
loop_
 _symmetry_equiv_pos_site_id
 _symmetry_equiv_pos_as_xyz
  1  'x, y, z'
loop_
 _atom_site_type_symbol
 _atom_site_label
 _atom_site_symmetry_multiplicity
 _atom_site_fract_x
 _atom_site_fract_y
 _atom_site_fract_z
 _atom_site_occupancy
  Dy  Dy0  1  0.292471  0.086476  0.373056  1
  Dy  Dy1  1  0.292048  0.907397  0.878326  1
  Dy  Dy2  1  0.706131  0.091012  0.874878  1
  Dy  Dy3  1  0.705408  0.909981  0.374472  1
  Dy  Dy4  1  0.585727  0.790558  0.878538  1
  Dy  Dy5  1  0.587869  0.209566  0.380101  1
  Dy  Dy6  1  0.408228  0.790517  0.380249  1
  Dy  Dy7  1  0.413461  0.209495  0.878363  1
  Dy  Dy8  1  0.209442  0.414273  0.621462  1
  Dy  Dy9  1  0.209483  0.591772  0.119751  1
  Dy  Dy10  1  0.790434  0.412131  0.119899  1
  Dy  Dy11  1  0.790505  0.586539  0.621637  1
  Dy  Dy12  1  0.913524  0.707529  0.126944  1
  Dy  Dy13  1  0.908988  0.293869  0.625122  1
  Dy  Dy14  1  0.092603  0.707952  0.621674  1
  Dy  Dy15  1  0.090019  0.294592  0.125528  1
  Dy  Dy16  1  0.000994  0.998063  0.500089  1
  Dy  Dy17  1  0.001937  0.999006  0.999911  1
  Dy  Dy18  1  0.499676  0.499839  0.000874  1
  Dy  Dy19  1  0.500161  0.500324  0.499126  1
  Ir  Ir20  1  0.152960  0.847040  0.250000  1
  Ir  Ir21  1  0.654444  0.345556  0.750000  1
  Ir  Ir22  1  0.346524  0.653476  0.750000  1
  Pt  Pt23  1  0.846526  0.153474  0.250000  1
  Pt  Pt24  1  0.844474  0.845014  0.749913  1
  Pt  Pt25  1  0.154986  0.155526  0.750087  1
  Rh  Rh26  1  0.655686  0.655178  0.249428  1
  Rh  Rh27  1  0.344822  0.344314  0.250572  1
  Rh  Rh28  1  0.500509  0.000001  0.124083  1
  Rh  Rh29  1  0.500291  0.000332  0.624692  1
  Rh  Rh30  1  0.999668  0.499709  0.875308  1
  Rh  Rh31  1  0.999999  0.499491  0.375917  1
