# generated using pymatgen
data_Lu12Zn2Tc3
_symmetry_space_group_name_H-M   'P 1'
_cell_length_a   8.14843364
_cell_length_b   8.14843449
_cell_length_c   8.14843400
_cell_angle_alpha   110.46997605
_cell_angle_beta   110.46998578
_cell_angle_gamma   107.49164971
_symmetry_Int_Tables_number   1
_chemical_formula_structural   Lu12Zn2Tc3
_chemical_formula_sum   'Lu12 Zn2 Tc3'
_cell_volume   416.11489608
_cell_formula_units_Z   1
loop_
 _symmetry_equiv_pos_site_id
 _symmetry_equiv_pos_as_xyz
  1  'x, y, z'
loop_
 _atom_site_type_symbol
 _atom_site_label
 _atom_site_symmetry_multiplicity
 _atom_site_fract_x
 _atom_site_fract_y
 _atom_site_fract_z
 _atom_site_occupancy
  Lu  Lu0  1  0.317959  0.317959  0.635920  1
  Lu  Lu1  1  0.682041  0.682041  0.364080  1
  Lu  Lu2  1  0.682041  0.317959  0.000000  1
  Lu  Lu3  1  0.317959  0.682041  0.000000  1
  Lu  Lu4  1  0.184834  0.434879  0.250045  1
  Lu  Lu5  1  0.815166  0.565121  0.749955  1
  Lu  Lu6  1  0.184834  0.934786  0.749955  1
  Lu  Lu7  1  0.934786  0.184834  0.749955  1
  Lu  Lu8  1  0.815166  0.065214  0.250045  1
  Lu  Lu9  1  0.065214  0.815166  0.250045  1
  Lu  Lu10  1  0.434879  0.184834  0.250045  1
  Lu  Lu11  1  0.565121  0.815166  0.749955  1
  Zn  Zn12  1  0.000000  0.500000  0.500000  1
  Zn  Zn13  1  0.500000  0.000000  0.500000  1
  Tc  Tc14  1  0.337961  0.337961  0.000000  1
  Tc  Tc15  1  0.662039  0.662039  0.000000  1
  Tc  Tc16  1  0.000000  0.000000  0.000000  1
