# generated using pymatgen
data_Tb12In2Si3Os
_symmetry_space_group_name_H-M   'P 1'
_cell_length_a   8.57543395
_cell_length_b   8.57545012
_cell_length_c   8.57543423
_cell_angle_alpha   111.64355478
_cell_angle_beta   111.50537859
_cell_angle_gamma   105.34193329
_symmetry_Int_Tables_number   1
_chemical_formula_structural   Tb12In2Si3Os
_chemical_formula_sum   'Tb12 In2 Si3 Os1'
_cell_volume   483.57950453
_cell_formula_units_Z   1
loop_
 _symmetry_equiv_pos_site_id
 _symmetry_equiv_pos_as_xyz
  1  'x, y, z'
loop_
 _atom_site_type_symbol
 _atom_site_label
 _atom_site_symmetry_multiplicity
 _atom_site_fract_x
 _atom_site_fract_y
 _atom_site_fract_z
 _atom_site_occupancy
  Tb  Tb0  1  0.448755  0.240578  0.208176  1
  Tb  Tb1  1  0.559949  0.761543  0.798406  1
  Tb  Tb2  1  0.036863  0.238457  0.798406  1
  Tb  Tb3  1  0.967598  0.759422  0.208177  1
  Tb  Tb4  1  0.186676  0.273806  0.460481  1
  Tb  Tb5  1  0.816694  0.724744  0.541438  1
  Tb  Tb6  1  0.186675  0.726194  0.912870  1
  Tb  Tb7  1  0.816695  0.275256  0.091950  1
  Tb  Tb8  1  0.323230  0.624782  0.298166  1
  Tb  Tb9  1  0.673383  0.375218  0.698448  1
  Tb  Tb10  1  0.323230  0.025064  0.698447  1
  Tb  Tb11  1  0.673384  0.974936  0.298167  1
  In  In12  1  0.500637  0.500000  0.000637  1
  In  In13  1  0.009065  0.000000  0.009065  1
  Si  Si14  1  0.626310  0.000000  0.626310  1
  Si  Si15  1  0.115715  0.613899  0.501816  1
  Si  Si16  1  0.887917  0.386101  0.501816  1
  Os  Os17  1  0.347224  0.000000  0.347224  1
