# generated using pymatgen
data_Hf9TiBeRe3
_symmetry_space_group_name_H-M   'P 1'
_cell_length_a   8.57492600
_cell_length_b   8.57492622
_cell_length_c   8.50598000
_cell_angle_alpha   90.00000000
_cell_angle_beta   90.00000000
_cell_angle_gamma   119.99999917
_symmetry_Int_Tables_number   1
_chemical_formula_structural   Hf9TiBeRe3
_chemical_formula_sum   'Hf18 Ti2 Be2 Re6'
_cell_volume   541.64628047
_cell_formula_units_Z   2
loop_
 _symmetry_equiv_pos_site_id
 _symmetry_equiv_pos_as_xyz
  1  'x, y, z'
loop_
 _atom_site_type_symbol
 _atom_site_label
 _atom_site_symmetry_multiplicity
 _atom_site_fract_x
 _atom_site_fract_y
 _atom_site_fract_z
 _atom_site_occupancy
  Hf  Hf0  1  0.199585  0.800415  0.446494  1
  Hf  Hf1  1  0.199585  0.399170  0.446494  1
  Hf  Hf2  1  0.600830  0.800415  0.446494  1
  Hf  Hf3  1  0.800415  0.199585  0.553506  1
  Hf  Hf4  1  0.800415  0.600830  0.553506  1
  Hf  Hf5  1  0.399170  0.199585  0.553506  1
  Hf  Hf6  1  0.800415  0.199585  0.946494  1
  Hf  Hf7  1  0.800415  0.600830  0.946494  1
  Hf  Hf8  1  0.399170  0.199585  0.946494  1
  Hf  Hf9  1  0.199585  0.800415  0.053506  1
  Hf  Hf10  1  0.199585  0.399170  0.053506  1
  Hf  Hf11  1  0.600830  0.800415  0.053506  1
  Hf  Hf12  1  0.540419  0.459581  0.250000  1
  Hf  Hf13  1  0.540419  0.080837  0.250000  1
  Hf  Hf14  1  0.919163  0.459581  0.250000  1
  Hf  Hf15  1  0.459581  0.540419  0.750000  1
  Hf  Hf16  1  0.459581  0.919163  0.750000  1
  Hf  Hf17  1  0.080837  0.540419  0.750000  1
  Ti  Ti18  1  0.000000  0.000000  0.500000  1
  Ti  Ti19  1  0.000000  0.000000  0.000000  1
  Be  Be20  1  0.333333  0.666667  0.250000  1
  Be  Be21  1  0.666667  0.333333  0.750000  1
  Re  Re22  1  0.886931  0.113069  0.250000  1
  Re  Re23  1  0.886931  0.773862  0.250000  1
  Re  Re24  1  0.226138  0.113069  0.250000  1
  Re  Re25  1  0.113069  0.886931  0.750000  1
  Re  Re26  1  0.113069  0.226138  0.750000  1
  Re  Re27  1  0.773862  0.886931  0.750000  1
