# generated using pymatgen
data_Sr8Cu3Si12Pd
_symmetry_space_group_name_H-M   'P 1'
_cell_length_a   11.78082321
_cell_length_b   10.23329953
_cell_length_c   8.27426261
_cell_angle_alpha   78.28106495
_cell_angle_beta   58.22298075
_cell_angle_gamma   43.44911314
_symmetry_Int_Tables_number   1
_chemical_formula_structural   Sr8Cu3Si12Pd
_chemical_formula_sum   'Sr8 Cu3 Si12 Pd1'
_cell_volume   555.10087743
_cell_formula_units_Z   1
loop_
 _symmetry_equiv_pos_site_id
 _symmetry_equiv_pos_as_xyz
  1  'x, y, z'
loop_
 _atom_site_type_symbol
 _atom_site_label
 _atom_site_symmetry_multiplicity
 _atom_site_fract_x
 _atom_site_fract_y
 _atom_site_fract_z
 _atom_site_occupancy
  Sr  Sr0  1  0.124572  0.125631  0.876346  1
  Sr  Sr1  1  0.877035  0.873432  0.124124  1
  Sr  Sr2  1  0.125090  0.126145  0.373968  1
  Sr  Sr3  1  0.373501  0.374629  0.125317  1
  Sr  Sr4  1  0.624793  0.621957  0.375857  1
  Sr  Sr5  1  0.375836  0.377226  0.624658  1
  Sr  Sr6  1  0.626308  0.626195  0.873534  1
  Sr  Sr7  1  0.873442  0.874107  0.626413  1
  Cu  Cu8  1  0.833112  0.167207  0.833207  1
  Cu  Cu9  1  0.166796  0.833240  0.166526  1
  Cu  Cu10  1  0.416947  0.082790  0.417230  1
  Si  Si11  1  0.916766  0.585602  0.415991  1
  Si  Si12  1  0.083242  0.416209  0.584573  1
  Si  Si13  1  0.417056  0.081116  0.915679  1
  Si  Si14  1  0.584261  0.917140  0.083931  1
  Si  Si15  1  0.333017  0.667588  0.835263  1
  Si  Si16  1  0.666823  0.332440  0.164667  1
  Si  Si17  1  0.834174  0.165063  0.333725  1
  Si  Si18  1  0.165588  0.834782  0.666308  1
  Si  Si19  1  0.916685  0.583385  0.915677  1
  Si  Si20  1  0.583003  0.917031  0.583414  1
  Si  Si21  1  0.332308  0.667485  0.332754  1
  Si  Si22  1  0.667411  0.332342  0.667324  1
  Pd  Pd23  1  0.082237  0.417264  0.083511  1
