# generated using pymatgen
data_Ho7Sc(Si4Mo3)4
_symmetry_space_group_name_H-M   'P 1'
_cell_length_a   6.74257684
_cell_length_b   6.92942264
_cell_length_c   12.90001264
_cell_angle_alpha   89.91852409
_cell_angle_beta   89.95970187
_cell_angle_gamma   89.98546848
_symmetry_Int_Tables_number   1
_chemical_formula_structural   Ho7Sc(Si4Mo3)4
_chemical_formula_sum   'Ho7 Sc1 Si16 Mo12'
_cell_volume   602.71573680
_cell_formula_units_Z   1
loop_
 _symmetry_equiv_pos_site_id
 _symmetry_equiv_pos_as_xyz
  1  'x, y, z'
loop_
 _atom_site_type_symbol
 _atom_site_label
 _atom_site_symmetry_multiplicity
 _atom_site_fract_x
 _atom_site_fract_y
 _atom_site_fract_z
 _atom_site_occupancy
  Ho  Ho0  1  0.496729  0.332203  0.093727  1
  Ho  Ho1  1  0.997182  0.167278  0.406297  1
  Ho  Ho2  1  0.503092  0.666928  0.593980  1
  Ho  Ho3  1  0.002485  0.832871  0.908191  1
  Ho  Ho4  1  0.502116  0.667898  0.907440  1
  Ho  Ho5  1  0.002924  0.832234  0.594000  1
  Ho  Ho6  1  0.497249  0.332397  0.404649  1
  Sc  Sc7  1  0.995667  0.170288  0.095885  1
  Si  Si8  1  0.659451  0.041437  0.547327  1
  Si  Si9  1  0.158710  0.455174  0.954499  1
  Si  Si10  1  0.333751  0.962327  0.047914  1
  Si  Si11  1  0.840717  0.542035  0.452217  1
  Si  Si12  1  0.341568  0.958336  0.451924  1
  Si  Si13  1  0.842067  0.537098  0.048080  1
  Si  Si14  1  0.660872  0.041732  0.954595  1
  Si  Si15  1  0.159657  0.458429  0.547255  1
  Si  Si16  1  0.535356  0.366475  0.750362  1
  Si  Si17  1  0.034849  0.132530  0.750132  1
  Si  Si18  1  0.465440  0.633874  0.249232  1
  Si  Si19  1  0.966185  0.870490  0.247258  1
  Si  Si20  1  0.802499  0.629731  0.751127  1
  Si  Si21  1  0.301715  0.868938  0.750650  1
  Si  Si22  1  0.195006  0.367299  0.247913  1
  Si  Si23  1  0.701912  0.131276  0.247960  1
  Mo  Mo24  1  0.830717  0.335019  0.625350  1
  Mo  Mo25  1  0.330448  0.165466  0.875269  1
  Mo  Mo26  1  0.169851  0.664486  0.124699  1
  Mo  Mo27  1  0.670958  0.835201  0.374059  1
  Mo  Mo28  1  0.169166  0.666510  0.373589  1
  Mo  Mo29  1  0.669320  0.836483  0.124559  1
  Mo  Mo30  1  0.831087  0.332820  0.876326  1
  Mo  Mo31  1  0.331111  0.164289  0.625043  1
  Mo  Mo32  1  0.666066  0.998131  0.750848  1
  Mo  Mo33  1  0.166324  0.500618  0.750414  1
  Mo  Mo34  1  0.333563  0.003410  0.248324  1
  Mo  Mo35  1  0.834184  0.498290  0.248905  1
