# generated using pymatgen
data_PuPRuF
_symmetry_space_group_name_H-M   'P 1'
_cell_length_a   3.99775900
_cell_length_b   3.99775900
_cell_length_c   8.24328700
_cell_angle_alpha   90.00000000
_cell_angle_beta   90.00000000
_cell_angle_gamma   90.00000000
_symmetry_Int_Tables_number   1
_chemical_formula_structural   PuPRuF
_chemical_formula_sum   'Pu2 P2 Ru2 F2'
_cell_volume   131.74484775
_cell_formula_units_Z   2
loop_
 _symmetry_equiv_pos_site_id
 _symmetry_equiv_pos_as_xyz
  1  'x, y, z'
loop_
 _atom_site_type_symbol
 _atom_site_label
 _atom_site_symmetry_multiplicity
 _atom_site_fract_x
 _atom_site_fract_y
 _atom_site_fract_z
 _atom_site_occupancy
  Pu  Pu0  1  0.000000  0.000000  0.190464  1
  Pu  Pu1  1  0.500002  0.500002  0.809740  1
  P  P2  1  0.500002  0.500002  0.350126  1
  P  P3  1  0.000000  0.000000  0.649893  1
  Ru  Ru4  1  0.500000  0.000000  0.500077  1
  Ru  Ru5  1  0.000000  0.500000  0.500077  1
  F  F6  1  0.500000  0.000000  0.999812  1
  F  F7  1  0.000000  0.500000  0.999812  1
