# generated using pymatgen
data_Dy8TaTi10Si16Ru
_symmetry_space_group_name_H-M   'P 1'
_cell_length_a   7.02317358
_cell_length_b   7.02317387
_cell_length_c   12.88296821
_cell_angle_alpha   89.89776137
_cell_angle_beta   90.10223926
_cell_angle_gamma   89.98616658
_symmetry_Int_Tables_number   1
_chemical_formula_structural   Dy8TaTi10Si16Ru
_chemical_formula_sum   'Dy8 Ta1 Ti10 Si16 Ru1'
_cell_volume   635.44996789
_cell_formula_units_Z   1
loop_
 _symmetry_equiv_pos_site_id
 _symmetry_equiv_pos_as_xyz
  1  'x, y, z'
loop_
 _atom_site_type_symbol
 _atom_site_label
 _atom_site_symmetry_multiplicity
 _atom_site_fract_x
 _atom_site_fract_y
 _atom_site_fract_z
 _atom_site_occupancy
  Dy  Dy0  1  0.996112  0.659351  0.032394  1
  Dy  Dy1  1  0.001535  0.341499  0.531414  1
  Dy  Dy2  1  0.659351  0.996112  0.967606  1
  Dy  Dy3  1  0.159049  0.503209  0.782082  1
  Dy  Dy4  1  0.840242  0.499520  0.284959  1
  Dy  Dy5  1  0.503209  0.159049  0.217918  1
  Dy  Dy6  1  0.499520  0.840242  0.715041  1
  Dy  Dy7  1  0.341499  0.001535  0.468586  1
  Ta  Ta8  1  0.326252  0.326252  0.000000  1
  Ti  Ti9  1  0.344310  0.507604  0.374646  1
  Ti  Ti10  1  0.849280  0.995972  0.375946  1
  Ti  Ti11  1  0.006793  0.152843  0.124353  1
  Ti  Ti12  1  0.995972  0.849280  0.624054  1
  Ti  Ti13  1  0.507604  0.344310  0.625354  1
  Ti  Ti14  1  0.152843  0.006793  0.875647  1
  Ti  Ti15  1  0.824959  0.172633  0.748480  1
  Ti  Ti16  1  0.172633  0.824959  0.251520  1
  Ti  Ti17  1  0.492352  0.651326  0.127292  1
  Ti  Ti18  1  0.651326  0.492352  0.872708  1
  Si  Si19  1  0.046936  0.712635  0.435566  1
  Si  Si20  1  0.952031  0.291719  0.934395  1
  Si  Si21  1  0.712635  0.046936  0.564434  1
  Si  Si22  1  0.207239  0.453552  0.185041  1
  Si  Si23  1  0.790077  0.549925  0.682013  1
  Si  Si24  1  0.453552  0.207239  0.814959  1
  Si  Si25  1  0.549925  0.790077  0.317987  1
  Si  Si26  1  0.291719  0.952031  0.065605  1
  Si  Si27  1  0.797314  0.868477  0.185491  1
  Si  Si28  1  0.300363  0.626868  0.565455  1
  Si  Si29  1  0.703228  0.369442  0.065241  1
  Si  Si30  1  0.626868  0.300363  0.434545  1
  Si  Si31  1  0.369442  0.703228  0.934759  1
  Si  Si32  1  0.130713  0.203383  0.316080  1
  Si  Si33  1  0.203383  0.130713  0.683920  1
  Si  Si34  1  0.868477  0.797314  0.814509  1
  Ru  Ru35  1  0.671258  0.671258  0.500000  1
