# generated using pymatgen
data_DyHo9In8(IrPt)2
_symmetry_space_group_name_H-M   'P 1'
_cell_length_a   3.62181800
_cell_length_b   8.11491195
_cell_length_c   18.23066100
_cell_angle_alpha   89.96151869
_cell_angle_beta   90.00000000
_cell_angle_gamma   90.00000000
_symmetry_Int_Tables_number   1
_chemical_formula_structural   DyHo9In8(IrPt)2
_chemical_formula_sum   'Dy1 Ho9 In8 Ir2 Pt2'
_cell_volume   535.81239028
_cell_formula_units_Z   1
loop_
 _symmetry_equiv_pos_site_id
 _symmetry_equiv_pos_as_xyz
  1  'x, y, z'
loop_
 _atom_site_type_symbol
 _atom_site_label
 _atom_site_symmetry_multiplicity
 _atom_site_fract_x
 _atom_site_fract_y
 _atom_site_fract_z
 _atom_site_occupancy
  Dy  Dy0  1  0.000000  0.500000  0.500000  1
  Ho  Ho1  1  0.000000  0.115129  0.411951  1
  Ho  Ho2  1  0.000000  0.884871  0.588049  1
  Ho  Ho3  1  0.000000  0.383234  0.913912  1
  Ho  Ho4  1  0.000000  0.616766  0.086088  1
  Ho  Ho5  1  0.000000  0.236475  0.221860  1
  Ho  Ho6  1  0.000000  0.763525  0.778140  1
  Ho  Ho7  1  0.000000  0.248912  0.720097  1
  Ho  Ho8  1  0.000000  0.751088  0.279903  1
  Ho  Ho9  1  0.000000  0.000000  0.000000  1
  In  In10  1  0.500000  0.423697  0.350891  1
  In  In11  1  0.500000  0.576303  0.649109  1
  In  In12  1  0.500000  0.074574  0.850751  1
  In  In13  1  0.500000  0.925426  0.149249  1
  In  In14  1  0.500000  0.292487  0.066574  1
  In  In15  1  0.500000  0.707513  0.933426  1
  In  In16  1  0.500000  0.206530  0.567437  1
  In  In17  1  0.500000  0.793470  0.432563  1
  Ir  Ir18  1  0.500000  0.021708  0.303837  1
  Ir  Ir19  1  0.500000  0.978292  0.696163  1
  Pt  Pt20  1  0.500000  0.477087  0.803482  1
  Pt  Pt21  1  0.500000  0.522913  0.196518  1
