# generated using pymatgen
data_Ti3ZnCo10(GeB2)2
_symmetry_space_group_name_H-M   'P 1'
_cell_length_a   8.40996956
_cell_length_b   8.40996956
_cell_length_c   2.99271600
_cell_angle_alpha   90.00000000
_cell_angle_beta   90.00000000
_cell_angle_gamma   90.55477175
_symmetry_Int_Tables_number   1
_chemical_formula_structural   Ti3ZnCo10(GeB2)2
_chemical_formula_sum   'Ti3 Zn1 Co10 Ge2 B4'
_cell_volume   211.65766198
_cell_formula_units_Z   1
loop_
 _symmetry_equiv_pos_site_id
 _symmetry_equiv_pos_as_xyz
  1  'x, y, z'
loop_
 _atom_site_type_symbol
 _atom_site_label
 _atom_site_symmetry_multiplicity
 _atom_site_fract_x
 _atom_site_fract_y
 _atom_site_fract_z
 _atom_site_occupancy
  Ti  Ti0  1  0.326306  0.177130  0.000000  1
  Ti  Ti1  1  0.677130  0.826306  0.000000  1
  Ti  Ti2  1  0.172092  0.672092  0.000000  1
  Zn  Zn3  1  0.823291  0.323291  0.000000  1
  Co  Co4  1  0.499719  0.999719  0.500000  1
  Co  Co5  1  0.999671  0.499671  0.500000  1
  Co  Co6  1  0.076566  0.216269  0.500000  1
  Co  Co7  1  0.218938  0.928411  0.500000  1
  Co  Co8  1  0.781170  0.066345  0.500000  1
  Co  Co9  1  0.930908  0.781744  0.500000  1
  Co  Co10  1  0.428411  0.718938  0.500000  1
  Co  Co11  1  0.566345  0.281170  0.500000  1
  Co  Co12  1  0.716269  0.576566  0.500000  1
  Co  Co13  1  0.281744  0.430908  0.500000  1
  Ge  Ge14  1  0.001402  0.998040  0.000000  1
  Ge  Ge15  1  0.498040  0.501402  0.000000  1
  B  B16  1  0.622699  0.122699  0.000000  1
  B  B17  1  0.121467  0.378726  0.000000  1
  B  B18  1  0.878726  0.621467  0.000000  1
  B  B19  1  0.379104  0.879104  0.000000  1
