# generated using pymatgen
data_Tm2UCo2Si7
_symmetry_space_group_name_H-M   'P 1'
_cell_length_a   3.99721226
_cell_length_b   3.99586600
_cell_length_c   12.33690771
_cell_angle_alpha   90.00000000
_cell_angle_beta   99.32313812
_cell_angle_gamma   90.00000000
_symmetry_Int_Tables_number   1
_chemical_formula_structural   Tm2UCo2Si7
_chemical_formula_sum   'Tm2 U1 Co2 Si7'
_cell_volume   194.44614926
_cell_formula_units_Z   1
loop_
 _symmetry_equiv_pos_site_id
 _symmetry_equiv_pos_as_xyz
  1  'x, y, z'
loop_
 _atom_site_type_symbol
 _atom_site_label
 _atom_site_symmetry_multiplicity
 _atom_site_fract_x
 _atom_site_fract_y
 _atom_site_fract_z
 _atom_site_occupancy
  Tm  Tm0  1  0.315997  0.000000  0.631996  1
  Tm  Tm1  1  0.684003  0.000000  0.368004  1
  U  U2  1  0.000000  0.500000  0.000000  1
  Co  Co3  1  0.128952  0.500000  0.257905  1
  Co  Co4  1  0.871048  0.500000  0.742095  1
  Si  Si5  1  0.500000  0.000000  0.000000  1
  Si  Si6  1  0.412786  0.500000  0.825573  1
  Si  Si7  1  0.587214  0.500000  0.174427  1
  Si  Si8  1  0.086888  0.000000  0.173775  1
  Si  Si9  1  0.913112  0.000000  0.826225  1
  Si  Si10  1  0.221559  0.500000  0.443117  1
  Si  Si11  1  0.778441  0.500000  0.556883  1
