# generated using pymatgen
data_SrLu(Al5Ru)4
_symmetry_space_group_name_H-M   'P 1'
_cell_length_a   6.89034406
_cell_length_b   6.89034386
_cell_length_c   9.16876000
_cell_angle_alpha   90.00000000
_cell_angle_beta   90.00000000
_cell_angle_gamma   96.80466949
_symmetry_Int_Tables_number   1
_chemical_formula_structural   SrLu(Al5Ru)4
_chemical_formula_sum   'Sr1 Lu1 Al20 Ru4'
_cell_volume   432.23740753
_cell_formula_units_Z   1
loop_
 _symmetry_equiv_pos_site_id
 _symmetry_equiv_pos_as_xyz
  1  'x, y, z'
loop_
 _atom_site_type_symbol
 _atom_site_label
 _atom_site_symmetry_multiplicity
 _atom_site_fract_x
 _atom_site_fract_y
 _atom_site_fract_z
 _atom_site_occupancy
  Sr  Sr0  1  0.876959  0.123041  0.750000  1
  Lu  Lu1  1  0.127526  0.872474  0.250000  1
  Al  Al2  1  0.520707  0.779957  0.750000  1
  Al  Al3  1  0.781161  0.521932  0.250000  1
  Al  Al4  1  0.478068  0.218839  0.250000  1
  Al  Al5  1  0.220043  0.479293  0.750000  1
  Al  Al6  1  0.622906  0.377094  0.961460  1
  Al  Al7  1  0.376260  0.623740  0.051654  1
  Al  Al8  1  0.622906  0.377094  0.538540  1
  Al  Al9  1  0.376260  0.623740  0.448346  1
  Al  Al10  1  0.408559  0.141988  0.750000  1
  Al  Al11  1  0.141762  0.418830  0.250000  1
  Al  Al12  1  0.581170  0.858238  0.250000  1
  Al  Al13  1  0.858012  0.591441  0.750000  1
  Al  Al14  1  0.846792  0.153208  0.398706  1
  Al  Al15  1  0.160865  0.839135  0.598418  1
  Al  Al16  1  0.846792  0.153208  0.101294  1
  Al  Al17  1  0.160865  0.839135  0.901582  1
  Al  Al18  1  0.774043  0.774462  0.004171  1
  Al  Al19  1  0.774043  0.774462  0.495829  1
  Al  Al20  1  0.225538  0.225957  0.004171  1
  Al  Al21  1  0.225538  0.225957  0.495829  1
  Ru  Ru22  1  0.496793  0.000180  0.002676  1
  Ru  Ru23  1  0.999820  0.503207  0.002676  1
  Ru  Ru24  1  0.496793  0.000180  0.497324  1
  Ru  Ru25  1  0.999820  0.503207  0.497324  1
