# generated using pymatgen
data_Tb8HoLu(SiB4)4
_symmetry_space_group_name_H-M   'P 1'
_cell_length_a   7.23673600
_cell_length_b   7.23673600
_cell_length_c   8.10717900
_cell_angle_alpha   90.00000000
_cell_angle_beta   90.00000000
_cell_angle_gamma   90.00000000
_symmetry_Int_Tables_number   1
_chemical_formula_structural   Tb8HoLu(SiB4)4
_chemical_formula_sum   'Tb8 Ho1 Lu1 Si4 B16'
_cell_volume   424.57578499
_cell_formula_units_Z   1
loop_
 _symmetry_equiv_pos_site_id
 _symmetry_equiv_pos_as_xyz
  1  'x, y, z'
loop_
 _atom_site_type_symbol
 _atom_site_label
 _atom_site_symmetry_multiplicity
 _atom_site_fract_x
 _atom_site_fract_y
 _atom_site_fract_z
 _atom_site_occupancy
  Tb  Tb0  1  0.679849  0.180463  0.224903  1
  Tb  Tb1  1  0.320151  0.819537  0.775097  1
  Tb  Tb2  1  0.320151  0.819537  0.224903  1
  Tb  Tb3  1  0.819537  0.679849  0.224903  1
  Tb  Tb4  1  0.819537  0.679849  0.775097  1
  Tb  Tb5  1  0.679849  0.180463  0.775097  1
  Tb  Tb6  1  0.180463  0.320151  0.775097  1
  Tb  Tb7  1  0.180463  0.320151  0.224903  1
  Ho  Ho8  1  0.000000  0.000000  0.500000  1
  Lu  Lu9  1  0.500000  0.500000  0.500000  1
  Si  Si10  1  0.116901  0.613720  0.500000  1
  Si  Si11  1  0.883099  0.386280  0.500000  1
  Si  Si12  1  0.386280  0.116901  0.500000  1
  Si  Si13  1  0.613720  0.883099  0.500000  1
  B  B14  1  0.172420  0.039094  0.000000  1
  B  B15  1  0.827580  0.960906  0.000000  1
  B  B16  1  0.960906  0.172420  0.000000  1
  B  B17  1  0.327601  0.538951  0.000000  1
  B  B18  1  0.039094  0.827580  0.000000  1
  B  B19  1  0.672399  0.461049  0.000000  1
  B  B20  1  0.538951  0.672399  0.000000  1
  B  B21  1  0.461049  0.327601  0.000000  1
  B  B22  1  0.089922  0.590056  0.000000  1
  B  B23  1  0.910078  0.409944  0.000000  1
  B  B24  1  0.409944  0.089922  0.000000  1
  B  B25  1  0.590056  0.910078  0.000000  1
  B  B26  1  0.000000  0.000000  0.161384  1
  B  B27  1  0.000000  0.000000  0.838616  1
  B  B28  1  0.500000  0.500000  0.837854  1
  B  B29  1  0.500000  0.500000  0.162146  1
