# generated using pymatgen
data_Gd4TcB12Ir
_symmetry_space_group_name_H-M   'P 1'
_cell_length_a   3.68031900
_cell_length_b   9.18265549
_cell_length_c   11.57114500
_cell_angle_alpha   89.73463033
_cell_angle_beta   90.00000000
_cell_angle_gamma   90.00000000
_symmetry_Int_Tables_number   1
_chemical_formula_structural   Gd4TcB12Ir
_chemical_formula_sum   'Gd8 Tc2 B24 Ir2'
_cell_volume   391.04382516
_cell_formula_units_Z   2
loop_
 _symmetry_equiv_pos_site_id
 _symmetry_equiv_pos_as_xyz
  1  'x, y, z'
loop_
 _atom_site_type_symbol
 _atom_site_label
 _atom_site_symmetry_multiplicity
 _atom_site_fract_x
 _atom_site_fract_y
 _atom_site_fract_z
 _atom_site_occupancy
  Gd  Gd0  1  0.000000  0.327042  0.416739  1
  Gd  Gd1  1  0.000000  0.672958  0.583261  1
  Gd  Gd2  1  0.000000  0.818672  0.089774  1
  Gd  Gd3  1  0.000000  0.181328  0.910226  1
  Gd  Gd4  1  0.000000  0.941156  0.375138  1
  Gd  Gd5  1  0.000000  0.058844  0.624862  1
  Gd  Gd6  1  0.000000  0.446679  0.127725  1
  Gd  Gd7  1  0.000000  0.553321  0.872275  1
  Tc  Tc8  1  0.000000  0.638745  0.320013  1
  Tc  Tc9  1  0.000000  0.361255  0.679987  1
  B  B10  1  0.500000  0.553190  0.432090  1
  B  B11  1  0.500000  0.446810  0.567910  1
  B  B12  1  0.500000  0.053928  0.066812  1
  B  B13  1  0.500000  0.946072  0.933188  1
  B  B14  1  0.500000  0.746118  0.419194  1
  B  B15  1  0.500000  0.253882  0.580806  1
  B  B16  1  0.500000  0.248460  0.079044  1
  B  B17  1  0.500000  0.751540  0.920956  1
  B  B18  1  0.500000  0.791603  0.266869  1
  B  B19  1  0.500000  0.208397  0.733131  1
  B  B20  1  0.500000  0.290391  0.232865  1
  B  B21  1  0.500000  0.709609  0.767135  1
  B  B22  1  0.500000  0.632698  0.186172  1
  B  B23  1  0.500000  0.367302  0.813828  1
  B  B24  1  0.500000  0.132265  0.315349  1
  B  B25  1  0.500000  0.867735  0.684651  1
  B  B26  1  0.500000  0.983596  0.213170  1
  B  B27  1  0.500000  0.016404  0.786830  1
  B  B28  1  0.500000  0.484278  0.287091  1
  B  B29  1  0.500000  0.515722  0.712909  1
  B  B30  1  0.500000  0.611443  0.030183  1
  B  B31  1  0.500000  0.388557  0.969817  1
  B  B32  1  0.500000  0.112620  0.468291  1
  B  B33  1  0.500000  0.887380  0.531709  1
  Ir  Ir34  1  0.000000  0.136807  0.177460  1
  Ir  Ir35  1  0.000000  0.863193  0.822540  1
