# generated using pymatgen
data_Li6GdNp(BO3)4
_symmetry_space_group_name_H-M   'P 1'
_cell_length_a   6.48171600
_cell_length_b   8.83951750
_cell_length_c   9.99952200
_cell_angle_alpha   114.91862799
_cell_angle_beta   90.00000000
_cell_angle_gamma   90.00000000
_symmetry_Int_Tables_number   1
_chemical_formula_structural   Li6GdNp(BO3)4
_chemical_formula_sum   'Li12 Gd2 Np2 B8 O24'
_cell_volume   519.58976844
_cell_formula_units_Z   2
loop_
 _symmetry_equiv_pos_site_id
 _symmetry_equiv_pos_as_xyz
  1  'x, y, z'
loop_
 _atom_site_type_symbol
 _atom_site_label
 _atom_site_symmetry_multiplicity
 _atom_site_fract_x
 _atom_site_fract_y
 _atom_site_fract_z
 _atom_site_occupancy
  Li  Li0  1  0.437019  0.036141  0.332378  1
  Li  Li1  1  0.742788  0.125795  0.518621  1
  Li  Li2  1  0.758743  0.632261  0.024297  1
  Li  Li3  1  0.242788  0.374205  0.981379  1
  Li  Li4  1  0.217362  0.295081  0.456151  1
  Li  Li5  1  0.937019  0.463859  0.167622  1
  Li  Li6  1  0.564582  0.961089  0.664319  1
  Li  Li7  1  0.780237  0.705177  0.541848  1
  Li  Li8  1  0.258743  0.867739  0.475703  1
  Li  Li9  1  0.717362  0.204919  0.043849  1
  Li  Li10  1  0.280237  0.794823  0.958152  1
  Li  Li11  1  0.064582  0.538911  0.835681  1
  Gd  Gd12  1  0.971907  0.016861  0.201293  1
  Gd  Gd13  1  0.471907  0.483139  0.298707  1
  Np  Np14  1  0.028698  0.985699  0.799981  1
  Np  Np15  1  0.528698  0.514301  0.700019  1
  B  B16  1  0.335717  0.212800  0.672938  1
  B  B17  1  0.329624  0.158233  0.110286  1
  B  B18  1  0.663106  0.782965  0.323702  1
  B  B19  1  0.163106  0.717035  0.176298  1
  B  B20  1  0.829624  0.341767  0.389714  1
  B  B21  1  0.671119  0.845142  0.894624  1
  B  B22  1  0.835717  0.287200  0.827062  1
  B  B23  1  0.171119  0.654858  0.605376  1
  O  O24  1  0.294436  0.063856  0.681088  1
  O  O25  1  0.561663  0.784417  0.448599  1
  O  O26  1  0.216731  0.021020  0.018648  1
  O  O27  1  0.708856  0.930824  0.314107  1
  O  O28  1  0.179262  0.690097  0.755290  1
  O  O29  1  0.794436  0.436144  0.818912  1
  O  O30  1  0.436507  0.213201  0.548992  1
  O  O31  1  0.285766  0.368004  0.785464  1
  O  O32  1  0.061663  0.715583  0.051401  1
  O  O33  1  0.936507  0.286799  0.951008  1
  O  O34  1  0.716731  0.478980  0.481352  1
  O  O35  1  0.782691  0.979811  0.991231  1
  O  O36  1  0.565463  0.740354  0.940622  1
  O  O37  1  0.208856  0.569176  0.185893  1
  O  O38  1  0.209368  0.874178  0.287081  1
  O  O39  1  0.065463  0.759646  0.559378  1
  O  O40  1  0.679262  0.809903  0.744710  1
  O  O41  1  0.431985  0.261179  0.060154  1
  O  O42  1  0.826373  0.301199  0.239491  1
  O  O43  1  0.709368  0.625822  0.212919  1
  O  O44  1  0.785766  0.131996  0.714536  1
  O  O45  1  0.282691  0.520189  0.508769  1
  O  O46  1  0.931985  0.238821  0.439846  1
  O  O47  1  0.326373  0.198801  0.260509  1
