# generated using pymatgen
data_Dy14Th2Mg3CdNi4
_symmetry_space_group_name_H-M   'P 1'
_cell_length_a   9.60291848
_cell_length_b   9.64215392
_cell_length_c   9.67812800
_cell_angle_alpha   59.87649844
_cell_angle_beta   59.74057450
_cell_angle_gamma   59.64069914
_symmetry_Int_Tables_number   1
_chemical_formula_structural   Dy14Th2Mg3CdNi4
_chemical_formula_sum   'Dy14 Th2 Mg3 Cd1 Ni4'
_cell_volume   630.09083263
_cell_formula_units_Z   1
loop_
 _symmetry_equiv_pos_site_id
 _symmetry_equiv_pos_as_xyz
  1  'x, y, z'
loop_
 _atom_site_type_symbol
 _atom_site_label
 _atom_site_symmetry_multiplicity
 _atom_site_fract_x
 _atom_site_fract_y
 _atom_site_fract_z
 _atom_site_occupancy
  Dy  Dy0  1  0.596449  0.205668  0.598942  1
  Dy  Dy1  1  0.207675  0.596243  0.598042  1
  Dy  Dy2  1  0.062754  0.438354  0.437179  1
  Dy  Dy3  1  0.439479  0.061792  0.061063  1
  Dy  Dy4  1  0.439479  0.061792  0.437667  1
  Dy  Dy5  1  0.062754  0.438354  0.061714  1
  Dy  Dy6  1  0.439633  0.438503  0.060932  1
  Dy  Dy7  1  0.062742  0.063157  0.437051  1
  Dy  Dy8  1  0.188101  0.814858  0.815981  1
  Dy  Dy9  1  0.816275  0.186437  0.180919  1
  Dy  Dy10  1  0.816275  0.186437  0.816369  1
  Dy  Dy11  1  0.188101  0.814858  0.181060  1
  Dy  Dy12  1  0.815535  0.815015  0.184725  1
  Dy  Dy13  1  0.187284  0.183722  0.814497  1
  Th  Th14  1  0.593279  0.591985  0.599115  1
  Th  Th15  1  0.593279  0.591985  0.215621  1
  Mg  Mg16  1  0.827017  0.830190  0.829747  1
  Mg  Mg17  1  0.827017  0.830190  0.513046  1
  Mg  Mg18  1  0.827133  0.513315  0.829776  1
  Cd  Cd19  1  0.505867  0.833278  0.830427  1
  Ni  Ni20  1  0.393067  0.393820  0.390048  1
  Ni  Ni21  1  0.393067  0.393820  0.823065  1
  Ni  Ni22  1  0.396784  0.820381  0.391418  1
  Ni  Ni23  1  0.820961  0.395851  0.391595  1
