# generated using pymatgen
data_YbSm3(TcB4)4
_symmetry_space_group_name_H-M   'P 1'
_cell_length_a   3.63092500
_cell_length_b   6.01405631
_cell_length_c   11.64717739
_cell_angle_alpha   90.09659389
_cell_angle_beta   90.00000000
_cell_angle_gamma   90.00000000
_symmetry_Int_Tables_number   1
_chemical_formula_structural   YbSm3(TcB4)4
_chemical_formula_sum   'Yb1 Sm3 Tc4 B16'
_cell_volume   254.33424579
_cell_formula_units_Z   1
loop_
 _symmetry_equiv_pos_site_id
 _symmetry_equiv_pos_as_xyz
  1  'x, y, z'
loop_
 _atom_site_type_symbol
 _atom_site_label
 _atom_site_symmetry_multiplicity
 _atom_site_fract_x
 _atom_site_fract_y
 _atom_site_fract_z
 _atom_site_occupancy
  Yb  Yb0  1  0.500000  0.872550  0.650204  1
  Sm  Sm1  1  0.500000  0.627380  0.150346  1
  Sm  Sm2  1  0.500000  0.371869  0.848336  1
  Sm  Sm3  1  0.500000  0.126460  0.350107  1
  Tc  Tc4  1  0.500000  0.629873  0.416115  1
  Tc  Tc5  1  0.500000  0.369435  0.584695  1
  Tc  Tc6  1  0.500000  0.131539  0.086448  1
  Tc  Tc7  1  0.500000  0.867284  0.912519  1
  B  B8  1  0.000000  0.976650  0.190986  1
  B  B9  1  0.000000  0.022353  0.807155  1
  B  B10  1  0.000000  0.477836  0.309821  1
  B  B11  1  0.000000  0.523643  0.690874  1
  B  B12  1  0.000000  0.784728  0.317272  1
  B  B13  1  0.000000  0.213994  0.683670  1
  B  B14  1  0.000000  0.284329  0.184304  1
  B  B15  1  0.000000  0.716831  0.814088  1
  B  B16  1  0.000000  0.863293  0.469469  1
  B  B17  1  0.000000  0.136677  0.533133  1
  B  B18  1  0.000000  0.361894  0.031145  1
  B  B19  1  0.000000  0.637886  0.967689  1
  B  B20  1  0.000000  0.888058  0.046019  1
  B  B21  1  0.000000  0.111110  0.952595  1
  B  B22  1  0.000000  0.388930  0.454884  1
  B  B23  1  0.000000  0.615398  0.548124  1
