# generated using pymatgen
data_NaNd(AgTe2)4
_symmetry_space_group_name_H-M   'P 1'
_cell_length_a   12.01055058
_cell_length_b   12.01055055
_cell_length_c   11.00282800
_cell_angle_alpha   90.13345834
_cell_angle_beta   90.13345834
_cell_angle_gamma   14.87961710
_symmetry_Int_Tables_number   1
_chemical_formula_structural   NaNd(AgTe2)4
_chemical_formula_sum   'Na1 Nd1 Ag4 Te8'
_cell_volume   407.57295348
_cell_formula_units_Z   1
loop_
 _symmetry_equiv_pos_site_id
 _symmetry_equiv_pos_as_xyz
  1  'x, y, z'
loop_
 _atom_site_type_symbol
 _atom_site_label
 _atom_site_symmetry_multiplicity
 _atom_site_fract_x
 _atom_site_fract_y
 _atom_site_fract_z
 _atom_site_occupancy
  Na  Na0  1  0.000000  0.000000  0.000000  1
  Nd  Nd1  1  0.500000  0.500000  0.500000  1
  Ag  Ag2  1  0.246840  0.246840  0.128628  1
  Ag  Ag3  1  0.872765  0.872765  0.401719  1
  Ag  Ag4  1  0.127235  0.127235  0.598281  1
  Ag  Ag5  1  0.753160  0.753160  0.871372  1
  Te  Te6  1  0.902505  0.902505  0.645110  1
  Te  Te7  1  0.097495  0.097495  0.354890  1
  Te  Te8  1  0.558962  0.558962  0.781389  1
  Te  Te9  1  0.441038  0.441038  0.218611  1
  Te  Te10  1  0.650353  0.650353  0.009690  1
  Te  Te11  1  0.349647  0.349647  0.990310  1
  Te  Te12  1  0.758918  0.758918  0.351968  1
  Te  Te13  1  0.241082  0.241082  0.648032  1
