# generated using pymatgen
data_LaPa5(Sb4Pt3)2
_symmetry_space_group_name_H-M   'P 1'
_cell_length_a   8.50915129
_cell_length_b   8.50915248
_cell_length_c   8.50915257
_cell_angle_alpha   109.37423083
_cell_angle_beta   109.66536405
_cell_angle_gamma   109.37424437
_symmetry_Int_Tables_number   1
_chemical_formula_structural   LaPa5(Sb4Pt3)2
_chemical_formula_sum   'La1 Pa5 Sb8 Pt6'
_cell_volume   474.27825737
_cell_formula_units_Z   1
loop_
 _symmetry_equiv_pos_site_id
 _symmetry_equiv_pos_as_xyz
  1  'x, y, z'
loop_
 _atom_site_type_symbol
 _atom_site_label
 _atom_site_symmetry_multiplicity
 _atom_site_fract_x
 _atom_site_fract_y
 _atom_site_fract_z
 _atom_site_occupancy
  La  La0  1  0.875000  0.250000  0.125000  1
  Pa  Pa1  1  0.625000  0.750000  0.375000  1
  Pa  Pa2  1  0.249070  0.123812  0.876126  1
  Pa  Pa3  1  0.752314  0.376188  0.625257  1
  Pa  Pa4  1  0.123874  0.872943  0.247686  1
  Pa  Pa5  1  0.374743  0.627057  0.750930  1
  Sb  Sb6  1  0.674168  0.497904  0.997278  1
  Sb  Sb7  1  0.499374  0.002096  0.676264  1
  Sb  Sb8  1  0.001958  0.678124  0.499460  1
  Sb  Sb9  1  0.821337  0.821876  0.823835  1
  Sb  Sb10  1  0.500540  0.002498  0.178663  1
  Sb  Sb11  1  0.176165  0.497502  0.998042  1
  Sb  Sb12  1  0.002722  0.176891  0.500626  1
  Sb  Sb13  1  0.323736  0.323109  0.325832  1
  Pt  Pt14  1  0.375000  0.250000  0.625000  1
  Pt  Pt15  1  0.125000  0.750000  0.875000  1
  Pt  Pt16  1  0.265319  0.635876  0.380275  1
  Pt  Pt17  1  0.744398  0.864124  0.129443  1
  Pt  Pt18  1  0.619725  0.385044  0.255602  1
  Pt  Pt19  1  0.870557  0.114956  0.734681  1
