# generated using pymatgen
data_Cs4TaTlBr12
_symmetry_space_group_name_H-M   'P 1'
_cell_length_a   13.56090859
_cell_length_b   13.56090842
_cell_length_c   13.56090000
_cell_angle_alpha   131.65836523
_cell_angle_beta   131.65837026
_cell_angle_gamma   70.76930804
_symmetry_Int_Tables_number   1
_chemical_formula_structural   Cs4TaTlBr12
_chemical_formula_sum   'Cs8 Ta2 Tl2 Br24'
_cell_volume   1363.49630411
_cell_formula_units_Z   2
loop_
 _symmetry_equiv_pos_site_id
 _symmetry_equiv_pos_as_xyz
  1  'x, y, z'
loop_
 _atom_site_type_symbol
 _atom_site_label
 _atom_site_symmetry_multiplicity
 _atom_site_fract_x
 _atom_site_fract_y
 _atom_site_fract_z
 _atom_site_occupancy
  Cs  Cs0  1  0.375005  0.843609  0.968615  1
  Cs  Cs1  1  0.593609  0.625005  0.468615  1
  Cs  Cs2  1  0.875000  0.843610  0.468610  1
  Cs  Cs3  1  0.593610  0.125000  0.968610  1
  Cs  Cs4  1  0.875000  0.406390  0.031390  1
  Cs  Cs5  1  0.156390  0.125000  0.531390  1
  Cs  Cs6  1  0.374995  0.406391  0.531385  1
  Cs  Cs7  1  0.156391  0.624995  0.031385  1
  Ta  Ta8  1  0.000000  0.000000  0.000000  1
  Ta  Ta9  1  0.750000  0.250000  0.500000  1
  Tl  Tl10  1  0.500000  0.500000  0.000000  1
  Tl  Tl11  1  0.250000  0.750000  0.500000  1
  Br  Br12  1  0.747104  0.495353  0.251752  1
  Br  Br13  1  0.504647  0.252896  0.748248  1
  Br  Br14  1  0.373393  0.373391  0.000000  1
  Br  Br15  1  0.123391  0.623393  0.500000  1
  Br  Br16  1  0.376607  0.876609  0.500000  1
  Br  Br17  1  0.626609  0.626607  0.000000  1
  Br  Br18  1  0.114531  0.114531  0.000000  1
  Br  Br19  1  0.864531  0.364531  0.500000  1
  Br  Br20  1  0.635469  0.135469  0.500000  1
  Br  Br21  1  0.885469  0.885469  0.000000  1
  Br  Br22  1  0.230107  0.001481  0.228627  1
  Br  Br23  1  0.751480  0.022855  0.271374  1
  Br  Br24  1  0.504648  0.756399  0.251751  1
  Br  Br25  1  0.519893  0.248519  0.271373  1
  Br  Br26  1  0.977145  0.248520  0.728626  1
  Br  Br27  1  0.998520  0.227145  0.228626  1
  Br  Br28  1  0.998519  0.769893  0.771373  1
  Br  Br29  1  0.772855  0.001480  0.771374  1
  Br  Br30  1  0.751481  0.480107  0.728627  1
  Br  Br31  1  0.245352  0.493601  0.248249  1
  Br  Br32  1  0.245353  0.997104  0.751752  1
  Br  Br33  1  0.002896  0.754647  0.248248  1
  Br  Br34  1  0.506399  0.754648  0.751751  1
  Br  Br35  1  0.243601  0.495352  0.748249  1
