# generated using pymatgen
data_Nd6Dy5Tm5(CdIr)4
_symmetry_space_group_name_H-M   'P 1'
_cell_length_a   9.73207373
_cell_length_b   9.72046572
_cell_length_c   9.72046545
_cell_angle_alpha   59.95539865
_cell_angle_beta   59.96048385
_cell_angle_gamma   59.96049043
_symmetry_Int_Tables_number   1
_chemical_formula_structural   Nd6Dy5Tm5(CdIr)4
_chemical_formula_sum   'Nd6 Dy5 Tm5 Cd4 Ir4'
_cell_volume   649.61861784
_cell_formula_units_Z   1
loop_
 _symmetry_equiv_pos_site_id
 _symmetry_equiv_pos_as_xyz
  1  'x, y, z'
loop_
 _atom_site_type_symbol
 _atom_site_label
 _atom_site_symmetry_multiplicity
 _atom_site_fract_x
 _atom_site_fract_y
 _atom_site_fract_z
 _atom_site_occupancy
  Nd  Nd0  1  0.940943  0.559057  0.559057  1
  Nd  Nd1  1  0.558562  0.941438  0.941438  1
  Nd  Nd2  1  0.558542  0.940794  0.559155  1
  Nd  Nd3  1  0.941510  0.559155  0.940794  1
  Nd  Nd4  1  0.558542  0.559155  0.940794  1
  Nd  Nd5  1  0.941510  0.940794  0.559155  1
  Dy  Dy6  1  0.346354  0.348197  0.348197  1
  Dy  Dy7  1  0.347651  0.348461  0.956238  1
  Dy  Dy8  1  0.347651  0.956238  0.348461  1
  Dy  Dy9  1  0.957253  0.348197  0.348197  1
  Dy  Dy10  1  0.813536  0.186464  0.186464  1
  Tm  Tm11  1  0.186150  0.813850  0.813850  1
  Tm  Tm12  1  0.187451  0.812617  0.185631  1
  Tm  Tm13  1  0.814301  0.185631  0.812617  1
  Tm  Tm14  1  0.187451  0.185631  0.812617  1
  Tm  Tm15  1  0.814301  0.812617  0.185631  1
  Cd  Cd16  1  0.579443  0.579430  0.579430  1
  Cd  Cd17  1  0.579423  0.579838  0.261314  1
  Cd  Cd18  1  0.579423  0.261314  0.579838  1
  Cd  Cd19  1  0.261696  0.579430  0.579430  1
  Ir  Ir20  1  0.140837  0.140758  0.140758  1
  Ir  Ir21  1  0.139912  0.141320  0.578856  1
  Ir  Ir22  1  0.139912  0.578856  0.141320  1
  Ir  Ir23  1  0.577648  0.140758  0.140758  1
