# generated using pymatgen
data_Hf4Zr16Si15Ge
_symmetry_space_group_name_H-M   'P 1'
_cell_length_a   7.15939920
_cell_length_b   7.16459453
_cell_length_c   13.01807811
_cell_angle_alpha   90.05447067
_cell_angle_beta   89.98258707
_cell_angle_gamma   89.96163543
_symmetry_Int_Tables_number   1
_chemical_formula_structural   Hf4Zr16Si15Ge
_chemical_formula_sum   'Hf4 Zr16 Si15 Ge1'
_cell_volume   667.75132013
_cell_formula_units_Z   1
loop_
 _symmetry_equiv_pos_site_id
 _symmetry_equiv_pos_as_xyz
  1  'x, y, z'
loop_
 _atom_site_type_symbol
 _atom_site_label
 _atom_site_symmetry_multiplicity
 _atom_site_fract_x
 _atom_site_fract_y
 _atom_site_fract_z
 _atom_site_occupancy
  Hf  Hf0  1  0.503216  0.852935  0.623097  1
  Hf  Hf1  1  0.497422  0.147267  0.122406  1
  Hf  Hf2  1  0.850040  0.494218  0.373257  1
  Hf  Hf3  1  0.147055  0.502984  0.872876  1
  Zr  Zr4  1  0.000641  0.849481  0.536393  1
  Zr  Zr5  1  0.997391  0.152502  0.034259  1
  Zr  Zr6  1  0.845725  0.000197  0.283826  1
  Zr  Zr7  1  0.151741  0.001504  0.784639  1
  Zr  Zr8  1  0.651453  0.499498  0.965433  1
  Zr  Zr9  1  0.351346  0.497294  0.466951  1
  Zr  Zr10  1  0.499374  0.348051  0.715246  1
  Zr  Zr11  1  0.503532  0.651136  0.214617  1
  Zr  Zr12  1  0.646147  0.999408  0.877084  1
  Zr  Zr13  1  0.354990  0.001941  0.376689  1
  Zr  Zr14  1  0.999596  0.353482  0.627423  1
  Zr  Zr15  1  0.000759  0.646688  0.126599  1
  Zr  Zr16  1  0.825170  0.676029  0.750071  1
  Zr  Zr17  1  0.174701  0.322513  0.249554  1
  Zr  Zr18  1  0.675539  0.174862  0.500095  1
  Zr  Zr19  1  0.324497  0.824647  0.999791  1
  Si  Si20  1  0.700473  0.550676  0.562505  1
  Si  Si21  1  0.300617  0.450218  0.062253  1
  Si  Si22  1  0.549755  0.300353  0.311597  1
  Si  Si23  1  0.449649  0.699346  0.812057  1
  Si  Si24  1  0.950565  0.801177  0.937189  1
  Si  Si25  1  0.049691  0.198626  0.437307  1
  Si  Si26  1  0.800161  0.050497  0.687705  1
  Si  Si27  1  0.198593  0.953279  0.185408  1
  Si  Si28  1  0.645941  0.792208  0.426718  1
  Si  Si29  1  0.354323  0.207940  0.926441  1
  Si  Si30  1  0.792281  0.355372  0.176072  1
  Si  Si31  1  0.208057  0.645428  0.676539  1
  Si  Si32  1  0.705399  0.856691  0.073423  1
  Si  Si33  1  0.295167  0.143051  0.573701  1
  Si  Si34  1  0.856103  0.295088  0.824027  1
  Ge  Ge35  1  0.142890  0.703416  0.326756  1
