# generated using pymatgen
data_Pr2Nd4Si2GeSe14
_symmetry_space_group_name_H-M   'P 1'
_cell_length_a   10.72660287
_cell_length_b   10.72384746
_cell_length_c   6.05248063
_cell_angle_alpha   90.08666983
_cell_angle_beta   89.90277294
_cell_angle_gamma   119.89761903
_symmetry_Int_Tables_number   1
_chemical_formula_structural   Pr2Nd4Si2GeSe14
_chemical_formula_sum   'Pr2 Nd4 Si2 Ge1 Se14'
_cell_volume   603.56387221
_cell_formula_units_Z   1
loop_
 _symmetry_equiv_pos_site_id
 _symmetry_equiv_pos_as_xyz
  1  'x, y, z'
loop_
 _atom_site_type_symbol
 _atom_site_label
 _atom_site_symmetry_multiplicity
 _atom_site_fract_x
 _atom_site_fract_y
 _atom_site_fract_z
 _atom_site_occupancy
  Pr  Pr0  1  0.896027  0.691585  0.245830  1
  Pr  Pr1  1  0.308434  0.204489  0.245733  1
  Nd  Nd2  1  0.795519  0.103983  0.246097  1
  Nd  Nd3  1  0.437931  0.974904  0.749336  1
  Nd  Nd4  1  0.024905  0.462299  0.748967  1
  Nd  Nd5  1  0.537313  0.562716  0.749203  1
  Si  Si6  1  0.999794  0.000095  0.833164  1
  Si  Si7  1  0.333819  0.666917  0.337718  1
  Ge  Ge8  1  0.666821  0.333060  0.481870  1
  Se  Se9  1  0.999092  0.000463  0.458519  1
  Se  Se10  1  0.333252  0.666600  0.962833  1
  Se  Se11  1  0.773510  0.855273  0.980963  1
  Se  Se12  1  0.145897  0.919333  0.979336  1
  Se  Se13  1  0.079325  0.226111  0.981330  1
  Se  Se14  1  0.559574  0.811961  0.486818  1
  Se  Se15  1  0.188325  0.747560  0.487443  1
  Se  Se16  1  0.252668  0.440970  0.487395  1
  Se  Se17  1  0.828384  0.587968  0.725173  1
  Se  Se18  1  0.412034  0.240511  0.725094  1
  Se  Se19  1  0.759827  0.171411  0.722857  1
  Se  Se20  1  0.501829  0.075644  0.233217  1
  Se  Se21  1  0.923898  0.423027  0.233744  1
  Se  Se22  1  0.575155  0.499786  0.233417  1
