# generated using pymatgen
data_Tb2Sc3Ga3Sb
_symmetry_space_group_name_H-M   'P 1'
_cell_length_a   7.38372300
_cell_length_b   7.70879500
_cell_length_c   14.43881900
_cell_angle_alpha   90.00000000
_cell_angle_beta   90.00000000
_cell_angle_gamma   90.00000000
_symmetry_Int_Tables_number   1
_chemical_formula_structural   Tb2Sc3Ga3Sb
_chemical_formula_sum   'Tb8 Sc12 Ga12 Sb4'
_cell_volume   821.85190221
_cell_formula_units_Z   4
loop_
 _symmetry_equiv_pos_site_id
 _symmetry_equiv_pos_as_xyz
  1  'x, y, z'
loop_
 _atom_site_type_symbol
 _atom_site_label
 _atom_site_symmetry_multiplicity
 _atom_site_fract_x
 _atom_site_fract_y
 _atom_site_fract_z
 _atom_site_occupancy
  Tb  Tb0  1  0.011750  0.172274  0.090424  1
  Tb  Tb1  1  0.988250  0.827726  0.909576  1
  Tb  Tb2  1  0.488250  0.672274  0.909576  1
  Tb  Tb3  1  0.988250  0.827726  0.590424  1
  Tb  Tb4  1  0.511750  0.327726  0.090424  1
  Tb  Tb5  1  0.011750  0.172274  0.409576  1
  Tb  Tb6  1  0.511750  0.327726  0.409576  1
  Tb  Tb7  1  0.488250  0.672274  0.590424  1
  Sc  Sc8  1  0.171379  0.490797  0.750000  1
  Sc  Sc9  1  0.828621  0.509203  0.250000  1
  Sc  Sc10  1  0.328621  0.990797  0.250000  1
  Sc  Sc11  1  0.671379  0.009203  0.750000  1
  Sc  Sc12  1  0.326873  0.177210  0.620918  1
  Sc  Sc13  1  0.673127  0.822790  0.379082  1
  Sc  Sc14  1  0.173127  0.677210  0.379082  1
  Sc  Sc15  1  0.673127  0.822790  0.120918  1
  Sc  Sc16  1  0.826873  0.322790  0.620918  1
  Sc  Sc17  1  0.326873  0.177210  0.879082  1
  Sc  Sc18  1  0.826873  0.322790  0.879082  1
  Sc  Sc19  1  0.173127  0.677210  0.120918  1
  Ga  Ga20  1  0.024981  0.130137  0.750000  1
  Ga  Ga21  1  0.975019  0.869863  0.250000  1
  Ga  Ga22  1  0.475019  0.630137  0.250000  1
  Ga  Ga23  1  0.524981  0.369863  0.750000  1
  Ga  Ga24  1  0.157585  0.466648  0.541494  1
  Ga  Ga25  1  0.842415  0.533352  0.458506  1
  Ga  Ga26  1  0.342415  0.966648  0.458506  1
  Ga  Ga27  1  0.842415  0.533352  0.041494  1
  Ga  Ga28  1  0.657585  0.033352  0.541494  1
  Ga  Ga29  1  0.157585  0.466648  0.958506  1
  Ga  Ga30  1  0.657585  0.033352  0.958506  1
  Ga  Ga31  1  0.342415  0.966648  0.041494  1
  Sb  Sb32  1  0.292794  0.865645  0.750000  1
  Sb  Sb33  1  0.707206  0.134355  0.250000  1
  Sb  Sb34  1  0.207206  0.365645  0.250000  1
  Sb  Sb35  1  0.792794  0.634355  0.750000  1
