# generated using pymatgen
data_Li2Nd2Dy3P12Ir17
_symmetry_space_group_name_H-M   'P 1'
_cell_length_a   12.70804200
_cell_length_b   12.82160026
_cell_length_c   3.96881500
_cell_angle_alpha   90.00000000
_cell_angle_beta   90.00000000
_cell_angle_gamma   119.70744958
_symmetry_Int_Tables_number   1
_chemical_formula_structural   Li2Nd2Dy3P12Ir17
_chemical_formula_sum   'Li2 Nd2 Dy3 P12 Ir17'
_cell_volume   561.67500589
_cell_formula_units_Z   1
loop_
 _symmetry_equiv_pos_site_id
 _symmetry_equiv_pos_as_xyz
  1  'x, y, z'
loop_
 _atom_site_type_symbol
 _atom_site_label
 _atom_site_symmetry_multiplicity
 _atom_site_fract_x
 _atom_site_fract_y
 _atom_site_fract_z
 _atom_site_occupancy
  Li  Li0  1  0.998741  0.440397  0.500000  1
  Li  Li1  1  0.558344  0.559603  0.500000  1
  Nd  Nd2  1  0.002434  0.809183  0.000000  1
  Nd  Nd3  1  0.193251  0.190817  0.000000  1
  Dy  Dy4  1  0.332127  0.662179  0.500000  1
  Dy  Dy5  1  0.669949  0.337821  0.500000  1
  Dy  Dy6  1  0.810686  0.000000  0.000000  1
  P  P7  1  0.998462  0.626445  0.500000  1
  P  P8  1  0.372016  0.373555  0.500000  1
  P  P9  1  0.639241  0.000000  0.500000  1
  P  P10  1  0.512957  0.684128  0.000000  1
  P  P11  1  0.306703  0.821146  0.000000  1
  P  P12  1  0.166863  0.479461  0.000000  1
  P  P13  1  0.485558  0.178854  0.000000  1
  P  P14  1  0.687401  0.520539  0.000000  1
  P  P15  1  0.828829  0.315872  0.000000  1
  P  P16  1  0.995951  0.178372  0.500000  1
  P  P17  1  0.817579  0.821628  0.500000  1
  P  P18  1  0.180288  0.000000  0.500000  1
  Ir  Ir19  1  0.502990  0.865277  0.000000  1
  Ir  Ir20  1  0.129070  0.637477  0.000000  1
  Ir  Ir21  1  0.356626  0.488938  0.000000  1
  Ir  Ir22  1  0.491595  0.362523  0.000000  1
  Ir  Ir23  1  0.867689  0.511062  0.000000  1
  Ir  Ir24  1  0.637713  0.134723  0.000000  1
  Ir  Ir25  1  0.459398  0.000000  0.500000  1
  Ir  Ir26  1  0.994668  0.277898  0.000000  1
  Ir  Ir27  1  0.716771  0.722102  0.000000  1
  Ir  Ir28  1  0.289433  0.000000  0.000000  1
  Ir  Ir29  1  0.621697  0.807801  0.500000  1
  Ir  Ir30  1  0.205178  0.824102  0.500000  1
  Ir  Ir31  1  0.176038  0.374008  0.500000  1
  Ir  Ir32  1  0.381076  0.175898  0.500000  1
  Ir  Ir33  1  0.802031  0.625992  0.500000  1
  Ir  Ir34  1  0.813897  0.192199  0.500000  1
  Ir  Ir35  1  0.996748  0.000000  0.500000  1
