# generated using pymatgen
data_Rb3Ag(AsAu)2
_symmetry_space_group_name_H-M   'P 1'
_cell_length_a   8.05257362
_cell_length_b   7.78271918
_cell_length_c   8.05257514
_cell_angle_alpha   47.62631025
_cell_angle_beta   48.64593217
_cell_angle_gamma   47.62630614
_symmetry_Int_Tables_number   1
_chemical_formula_structural   Rb3Ag(AsAu)2
_chemical_formula_sum   'Rb3 Ag1 As2 Au2'
_cell_volume   254.95845310
_cell_formula_units_Z   1
loop_
 _symmetry_equiv_pos_site_id
 _symmetry_equiv_pos_as_xyz
  1  'x, y, z'
loop_
 _atom_site_type_symbol
 _atom_site_label
 _atom_site_symmetry_multiplicity
 _atom_site_fract_x
 _atom_site_fract_y
 _atom_site_fract_z
 _atom_site_occupancy
  Rb  Rb0  1  0.500000  0.500000  0.500000  1
  Rb  Rb1  1  0.911970  0.914430  0.911970  1
  Rb  Rb2  1  0.088030  0.085570  0.088030  1
  Ag  Ag3  1  0.500000  0.000000  0.500000  1
  As  As4  1  0.250588  0.253976  0.250588  1
  As  As5  1  0.749412  0.746024  0.749412  1
  Au  Au6  1  0.000000  0.500000  0.500000  1
  Au  Au7  1  0.500000  0.500000  0.000000  1
