# generated using pymatgen
data_SrTa8FeS16
_symmetry_space_group_name_H-M   'P 1'
_cell_length_a   6.63475359
_cell_length_b   6.63537733
_cell_length_c   13.34107500
_cell_angle_alpha   89.99931784
_cell_angle_beta   90.02411089
_cell_angle_gamma   119.99950223
_symmetry_Int_Tables_number   1
_chemical_formula_structural   SrTa8FeS16
_chemical_formula_sum   'Sr1 Ta8 Fe1 S16'
_cell_volume   508.64409638
_cell_formula_units_Z   1
loop_
 _symmetry_equiv_pos_site_id
 _symmetry_equiv_pos_as_xyz
  1  'x, y, z'
loop_
 _atom_site_type_symbol
 _atom_site_label
 _atom_site_symmetry_multiplicity
 _atom_site_fract_x
 _atom_site_fract_y
 _atom_site_fract_z
 _atom_site_occupancy
  Sr  Sr0  1  0.000000  0.000000  0.500000  1
  Ta  Ta1  1  0.000191  0.000106  0.219655  1
  Ta  Ta2  1  0.999809  0.999894  0.780345  1
  Ta  Ta3  1  0.503764  0.007418  0.215409  1
  Ta  Ta4  1  0.992771  0.496377  0.215354  1
  Ta  Ta5  1  0.503758  0.496336  0.215405  1
  Ta  Ta6  1  0.496236  0.992582  0.784591  1
  Ta  Ta7  1  0.007229  0.503623  0.784646  1
  Ta  Ta8  1  0.496242  0.503664  0.784595  1
  Fe  Fe9  1  0.000000  0.000000  0.000000  1
  S  S10  1  0.333472  0.666749  0.902851  1
  S  S11  1  0.666528  0.333251  0.097149  1
  S  S12  1  0.667021  0.333508  0.336793  1
  S  S13  1  0.332979  0.666492  0.663207  1
  S  S14  1  0.169520  0.830766  0.334702  1
  S  S15  1  0.169520  0.338731  0.334705  1
  S  S16  1  0.661450  0.830715  0.334694  1
  S  S17  1  0.830480  0.169234  0.665298  1
  S  S18  1  0.830480  0.661269  0.665295  1
  S  S19  1  0.338550  0.169285  0.665306  1
  S  S20  1  0.835899  0.164162  0.899371  1
  S  S21  1  0.835886  0.671724  0.899379  1
  S  S22  1  0.328112  0.164063  0.899320  1
  S  S23  1  0.164101  0.835838  0.100629  1
  S  S24  1  0.164114  0.328276  0.100621  1
  S  S25  1  0.671888  0.835937  0.100680  1
