# generated using pymatgen
data_MgTa3Nb2(ReSi)6
_symmetry_space_group_name_H-M   'P 1'
_cell_length_a   7.67936067
_cell_length_b   7.57416563
_cell_length_c   7.67936115
_cell_angle_alpha   126.17511985
_cell_angle_beta   128.81552747
_cell_angle_gamma   77.76704244
_symmetry_Int_Tables_number   1
_chemical_formula_structural   MgTa3Nb2(ReSi)6
_chemical_formula_sum   'Mg1 Ta3 Nb2 Re6 Si6'
_cell_volume   271.91558091
_cell_formula_units_Z   1
loop_
 _symmetry_equiv_pos_site_id
 _symmetry_equiv_pos_as_xyz
  1  'x, y, z'
loop_
 _atom_site_type_symbol
 _atom_site_label
 _atom_site_symmetry_multiplicity
 _atom_site_fract_x
 _atom_site_fract_y
 _atom_site_fract_z
 _atom_site_occupancy
  Mg  Mg0  1  0.550895  0.099932  0.049038  1
  Ta  Ta1  1  0.050124  0.098717  0.548594  1
  Ta  Ta2  1  0.747952  0.897343  0.649390  1
  Ta  Ta3  1  0.245421  0.891114  0.145693  1
  Nb  Nb4  1  0.450730  0.490758  0.540028  1
  Nb  Nb5  1  0.950686  0.492570  0.041884  1
  Re  Re6  1  0.498323  0.238903  0.736696  1
  Re  Re7  1  0.002206  0.238903  0.240578  1
  Re  Re8  1  0.121516  0.758623  0.621756  1
  Re  Re9  1  0.879343  0.498540  0.631984  1
  Re  Re10  1  0.636867  0.758623  0.137108  1
  Re  Re11  1  0.366556  0.498540  0.119196  1
  Si  Si12  1  0.748486  0.493910  0.245424  1
  Si  Si13  1  0.255627  0.503237  0.747609  1
  Si  Si14  1  0.333852  0.829272  0.500573  1
  Si  Si15  1  0.663631  0.161971  0.492886  1
  Si  Si16  1  0.828699  0.829272  0.995421  1
  Si  Si17  1  0.169084  0.161971  0.998339  1
