# generated using pymatgen
data_DyHoEr2(WO6)2
_symmetry_space_group_name_H-M   'P 1'
_cell_length_a   5.37597100
_cell_length_b   7.67760702
_cell_length_c   11.42402939
_cell_angle_alpha   75.36687236
_cell_angle_beta   90.00000000
_cell_angle_gamma   90.00000000
_symmetry_Int_Tables_number   1
_chemical_formula_structural   DyHoEr2(WO6)2
_chemical_formula_sum   'Dy2 Ho2 Er4 W4 O24'
_cell_volume   456.22752081
_cell_formula_units_Z   2
loop_
 _symmetry_equiv_pos_site_id
 _symmetry_equiv_pos_as_xyz
  1  'x, y, z'
loop_
 _atom_site_type_symbol
 _atom_site_label
 _atom_site_symmetry_multiplicity
 _atom_site_fract_x
 _atom_site_fract_y
 _atom_site_fract_z
 _atom_site_occupancy
  Dy  Dy0  1  0.684411  0.500000  0.250000  1
  Dy  Dy1  1  0.315589  0.500000  0.750000  1
  Ho  Ho2  1  0.740484  0.000000  0.250000  1
  Ho  Ho3  1  0.259516  0.000000  0.750000  1
  Er  Er4  1  0.183490  0.205565  0.421850  1
  Er  Er5  1  0.183490  0.794435  0.078150  1
  Er  Er6  1  0.816510  0.794435  0.578150  1
  Er  Er7  1  0.816510  0.205565  0.921850  1
  W  W8  1  0.256036  0.276274  0.114775  1
  W  W9  1  0.256036  0.723726  0.385225  1
  W  W10  1  0.743964  0.723726  0.885225  1
  W  W11  1  0.743964  0.276274  0.614775  1
  O  O12  1  0.457977  0.208079  0.273745  1
  O  O13  1  0.457977  0.791921  0.226255  1
  O  O14  1  0.542023  0.791921  0.726255  1
  O  O15  1  0.542023  0.208079  0.773745  1
  O  O16  1  0.044156  0.059587  0.104260  1
  O  O17  1  0.044156  0.940413  0.395740  1
  O  O18  1  0.955844  0.940413  0.895740  1
  O  O19  1  0.955844  0.059587  0.604260  1
  O  O20  1  0.980848  0.288617  0.229015  1
  O  O21  1  0.980848  0.711383  0.270985  1
  O  O22  1  0.019152  0.711383  0.770985  1
  O  O23  1  0.019152  0.288617  0.729015  1
  O  O24  1  0.849754  0.365338  0.451371  1
  O  O25  1  0.849754  0.634662  0.048629  1
  O  O26  1  0.150246  0.634662  0.548629  1
  O  O27  1  0.150246  0.365338  0.951371  1
  O  O28  1  0.639989  0.510856  0.614273  1
  O  O29  1  0.639989  0.489144  0.885727  1
  O  O30  1  0.360011  0.489144  0.385727  1
  O  O31  1  0.360011  0.510856  0.114273  1
  O  O32  1  0.463906  0.153353  0.569200  1
  O  O33  1  0.463906  0.846647  0.930800  1
  O  O34  1  0.536094  0.846647  0.430800  1
  O  O35  1  0.536094  0.153353  0.069200  1
