# generated using pymatgen
data_Dy8Tc3B24Ir
_symmetry_space_group_name_H-M   'P 1'
_cell_length_a   3.68432200
_cell_length_b   9.16718743
_cell_length_c   11.55167487
_cell_angle_alpha   89.86601903
_cell_angle_beta   90.00000000
_cell_angle_gamma   90.00000000
_symmetry_Int_Tables_number   1
_chemical_formula_structural   Dy8Tc3B24Ir
_chemical_formula_sum   'Dy8 Tc3 B24 Ir1'
_cell_volume   390.15525428
_cell_formula_units_Z   1
loop_
 _symmetry_equiv_pos_site_id
 _symmetry_equiv_pos_as_xyz
  1  'x, y, z'
loop_
 _atom_site_type_symbol
 _atom_site_label
 _atom_site_symmetry_multiplicity
 _atom_site_fract_x
 _atom_site_fract_y
 _atom_site_fract_z
 _atom_site_occupancy
  Dy  Dy0  1  0.000000  0.323352  0.413000  1
  Dy  Dy1  1  0.000000  0.673025  0.581332  1
  Dy  Dy2  1  0.000000  0.821959  0.090801  1
  Dy  Dy3  1  0.000000  0.181112  0.916041  1
  Dy  Dy4  1  0.000000  0.942722  0.370751  1
  Dy  Dy5  1  0.000000  0.060086  0.628728  1
  Dy  Dy6  1  0.000000  0.443324  0.129890  1
  Dy  Dy7  1  0.000000  0.555703  0.869719  1
  Tc  Tc8  1  0.000000  0.638133  0.320887  1
  Tc  Tc9  1  0.000000  0.361742  0.680087  1
  Tc  Tc10  1  0.000000  0.136928  0.177627  1
  B  B11  1  0.500000  0.552964  0.432738  1
  B  B12  1  0.500000  0.446631  0.566805  1
  B  B13  1  0.500000  0.053426  0.066722  1
  B  B14  1  0.500000  0.946184  0.933561  1
  B  B15  1  0.500000  0.747915  0.418716  1
  B  B16  1  0.500000  0.251796  0.581455  1
  B  B17  1  0.500000  0.248998  0.081265  1
  B  B18  1  0.500000  0.751013  0.919692  1
  B  B19  1  0.500000  0.791182  0.265648  1
  B  B20  1  0.500000  0.208977  0.735221  1
  B  B21  1  0.500000  0.290771  0.234327  1
  B  B22  1  0.500000  0.709161  0.765005  1
  B  B23  1  0.500000  0.631451  0.185576  1
  B  B24  1  0.500000  0.369112  0.814753  1
  B  B25  1  0.500000  0.130603  0.313977  1
  B  B26  1  0.500000  0.868712  0.684520  1
  B  B27  1  0.500000  0.982091  0.211971  1
  B  B28  1  0.500000  0.017148  0.788083  1
  B  B29  1  0.500000  0.482826  0.287545  1
  B  B30  1  0.500000  0.516790  0.711748  1
  B  B31  1  0.500000  0.604711  0.028334  1
  B  B32  1  0.500000  0.397393  0.971198  1
  B  B33  1  0.500000  0.103339  0.471622  1
  B  B34  1  0.500000  0.896157  0.529368  1
  Ir  Ir35  1  0.000000  0.862563  0.821287  1
