# generated using pymatgen
data_Tb5SmNiI10
_symmetry_space_group_name_H-M   'P 1'
_cell_length_a   7.73454106
_cell_length_b   9.72468049
_cell_length_c   9.77579611
_cell_angle_alpha   107.16420310
_cell_angle_beta   96.85276318
_cell_angle_gamma   104.73642648
_symmetry_Int_Tables_number   1
_chemical_formula_structural   Tb5SmNiI10
_chemical_formula_sum   'Tb5 Sm1 Ni1 I10'
_cell_volume   664.23414433
_cell_formula_units_Z   1
loop_
 _symmetry_equiv_pos_site_id
 _symmetry_equiv_pos_as_xyz
  1  'x, y, z'
loop_
 _atom_site_type_symbol
 _atom_site_label
 _atom_site_symmetry_multiplicity
 _atom_site_fract_x
 _atom_site_fract_y
 _atom_site_fract_z
 _atom_site_occupancy
  Tb  Tb0  1  0.112860  0.040295  0.763894  1
  Tb  Tb1  1  0.030268  0.719448  0.914902  1
  Tb  Tb2  1  0.970084  0.280565  0.083200  1
  Tb  Tb3  1  0.658473  0.878548  0.837742  1
  Tb  Tb4  1  0.342064  0.121907  0.161476  1
  Sm  Sm5  1  0.885771  0.959046  0.238911  1
  Ni  Ni6  1  0.999992  0.999847  0.999849  1
  I  I7  1  0.647163  0.548980  0.728151  1
  I  I8  1  0.352535  0.451080  0.271934  1
  I  I9  1  0.740251  0.912072  0.540364  1
  I  I10  1  0.263813  0.089547  0.464546  1
  I  I11  1  0.085152  0.371677  0.819508  1
  I  I12  1  0.915902  0.624377  0.177940  1
  I  I13  1  0.450554  0.814522  0.090816  1
  I  I14  1  0.546164  0.184145  0.907248  1
  I  I15  1  0.223401  0.743053  0.654814  1
  I  I16  1  0.775554  0.260889  0.344705  1
