# generated using pymatgen
data_Nd4IrPd2Pt
_symmetry_space_group_name_H-M   'P 1'
_cell_length_a   4.55094600
_cell_length_b   5.76714612
_cell_length_c   7.39385847
_cell_angle_alpha   89.81425205
_cell_angle_beta   90.00000000
_cell_angle_gamma   90.00000000
_symmetry_Int_Tables_number   1
_chemical_formula_structural   Nd4IrPd2Pt
_chemical_formula_sum   'Nd4 Ir1 Pd2 Pt1'
_cell_volume   194.05797217
_cell_formula_units_Z   1
loop_
 _symmetry_equiv_pos_site_id
 _symmetry_equiv_pos_as_xyz
  1  'x, y, z'
loop_
 _atom_site_type_symbol
 _atom_site_label
 _atom_site_symmetry_multiplicity
 _atom_site_fract_x
 _atom_site_fract_y
 _atom_site_fract_z
 _atom_site_occupancy
  Nd  Nd0  1  0.250000  0.363160  0.682064  1
  Nd  Nd1  1  0.250000  0.138473  0.181227  1
  Nd  Nd2  1  0.750000  0.642992  0.326732  1
  Nd  Nd3  1  0.750000  0.859884  0.809696  1
  Ir  Ir4  1  0.250000  0.844178  0.541842  1
  Pd  Pd5  1  0.250000  0.651064  0.044858  1
  Pd  Pd6  1  0.750000  0.150630  0.454521  1
  Pt  Pt7  1  0.750000  0.349620  0.959060  1
