# generated using pymatgen
data_Th5Np3TiSe17
_symmetry_space_group_name_H-M   'P 1'
_cell_length_a   8.41119153
_cell_length_b   8.39901691
_cell_length_c   11.09098483
_cell_angle_alpha   80.60274064
_cell_angle_beta   80.66551875
_cell_angle_gamma   65.25135993
_symmetry_Int_Tables_number   1
_chemical_formula_structural   Th5Np3TiSe17
_chemical_formula_sum   'Th5 Np3 Ti1 Se17'
_cell_volume   698.15542021
_cell_formula_units_Z   1
loop_
 _symmetry_equiv_pos_site_id
 _symmetry_equiv_pos_as_xyz
  1  'x, y, z'
loop_
 _atom_site_type_symbol
 _atom_site_label
 _atom_site_symmetry_multiplicity
 _atom_site_fract_x
 _atom_site_fract_y
 _atom_site_fract_z
 _atom_site_occupancy
  Th  Th0  1  0.698704  0.185167  0.702073  1
  Th  Th1  1  0.204633  0.203935  0.540567  1
  Th  Th2  1  0.796211  0.794284  0.458054  1
  Th  Th3  1  0.681556  0.681344  0.982468  1
  Th  Th4  1  0.317905  0.320370  0.019808  1
  Np  Np5  1  0.814815  0.301757  0.294716  1
  Np  Np6  1  0.299914  0.814779  0.299304  1
  Np  Np7  1  0.186187  0.700201  0.700448  1
  Ti  Ti8  1  0.004969  0.999732  0.004425  1
  Se  Se9  1  0.822903  0.430704  0.532617  1
  Se  Se10  1  0.430492  0.821843  0.532524  1
  Se  Se11  1  0.177966  0.569688  0.466603  1
  Se  Se12  1  0.569714  0.178038  0.465798  1
  Se  Se13  1  0.942502  0.320894  0.026002  1
  Se  Se14  1  0.320993  0.941952  0.027570  1
  Se  Se15  1  0.057243  0.680397  0.971960  1
  Se  Se16  1  0.678509  0.057783  0.973853  1
  Se  Se17  1  0.208252  0.206777  0.275313  1
  Se  Se18  1  0.789718  0.791560  0.724926  1
  Se  Se19  1  0.059420  0.058428  0.774770  1
  Se  Se20  1  0.939467  0.940495  0.226147  1
  Se  Se21  1  0.303323  0.304581  0.754387  1
  Se  Se22  1  0.693914  0.695708  0.245988  1
  Se  Se23  1  0.519826  0.520811  0.833243  1
  Se  Se24  1  0.479018  0.481018  0.167124  1
  Se  Se25  1  0.001848  0.997757  0.499315  1
