# generated using pymatgen
data_Li2Dy4HoP12Ir17
_symmetry_space_group_name_H-M   'P 1'
_cell_length_a   12.66662900
_cell_length_b   12.76570065
_cell_length_c   3.95903300
_cell_angle_alpha   90.00000000
_cell_angle_beta   90.00000000
_cell_angle_gamma   119.74501744
_symmetry_Int_Tables_number   1
_chemical_formula_structural   Li2Dy4HoP12Ir17
_chemical_formula_sum   'Li2 Dy4 Ho1 P12 Ir17'
_cell_volume   555.82183104
_cell_formula_units_Z   1
loop_
 _symmetry_equiv_pos_site_id
 _symmetry_equiv_pos_as_xyz
  1  'x, y, z'
loop_
 _atom_site_type_symbol
 _atom_site_label
 _atom_site_symmetry_multiplicity
 _atom_site_fract_x
 _atom_site_fract_y
 _atom_site_fract_z
 _atom_site_occupancy
  Li  Li0  1  0.999638  0.442189  0.500000  1
  Li  Li1  1  0.557447  0.557817  0.500000  1
  Dy  Dy2  1  0.669963  0.337533  0.500000  1
  Dy  Dy3  1  0.001749  0.809164  0.000000  1
  Dy  Dy4  1  0.192584  0.190833  0.000000  1
  Dy  Dy5  1  0.811194  0.000005  0.000000  1
  Ho  Ho6  1  0.332428  0.662428  0.500000  1
  P  P7  1  0.999392  0.630483  0.500000  1
  P  P8  1  0.368952  0.369494  0.500000  1
  P  P9  1  0.639819  0.000034  0.500000  1
  P  P10  1  0.513275  0.683236  0.000000  1
  P  P11  1  0.307328  0.823070  0.000000  1
  P  P12  1  0.167029  0.480098  0.000000  1
  P  P13  1  0.484104  0.176770  0.000000  1
  P  P14  1  0.686927  0.520051  0.000000  1
  P  P15  1  0.830233  0.316770  0.000000  1
  P  P16  1  0.997712  0.177991  0.500000  1
  P  P17  1  0.819707  0.822030  0.500000  1
  P  P18  1  0.178374  0.999979  0.500000  1
  Ir  Ir19  1  0.503389  0.865112  0.000000  1
  Ir  Ir20  1  0.129729  0.638851  0.000000  1
  Ir  Ir21  1  0.356109  0.488017  0.000000  1
  Ir  Ir22  1  0.490568  0.361169  0.000000  1
  Ir  Ir23  1  0.868424  0.512276  0.000000  1
  Ir  Ir24  1  0.638250  0.134597  0.000000  1
  Ir  Ir25  1  0.458928  0.999988  0.500000  1
  Ir  Ir26  1  0.996358  0.277641  0.000000  1
  Ir  Ir27  1  0.718676  0.722395  0.000000  1
  Ir  Ir28  1  0.286807  0.999973  0.000000  1
  Ir  Ir29  1  0.621956  0.807031  0.500000  1
  Ir  Ir30  1  0.199584  0.823434  0.500000  1
  Ir  Ir31  1  0.177089  0.370588  0.500000  1
  Ir  Ir32  1  0.376073  0.176518  0.500000  1
  Ir  Ir33  1  0.806496  0.629478  0.500000  1
  Ir  Ir34  1  0.815014  0.192951  0.500000  1
  Ir  Ir35  1  0.998696  0.000004  0.500000  1
