# generated using pymatgen
data_Ga6CoRe
_symmetry_space_group_name_H-M   'P 1'
_cell_length_a   6.42327300
_cell_length_b   6.46649600
_cell_length_c   6.81932300
_cell_angle_alpha   90.00000000
_cell_angle_beta   90.00000000
_cell_angle_gamma   90.00000000
_symmetry_Int_Tables_number   1
_chemical_formula_structural   Ga6CoRe
_chemical_formula_sum   'Ga12 Co2 Re2'
_cell_volume   283.24787176
_cell_formula_units_Z   2
loop_
 _symmetry_equiv_pos_site_id
 _symmetry_equiv_pos_as_xyz
  1  'x, y, z'
loop_
 _atom_site_type_symbol
 _atom_site_label
 _atom_site_symmetry_multiplicity
 _atom_site_fract_x
 _atom_site_fract_y
 _atom_site_fract_z
 _atom_site_occupancy
  Ga  Ga0  1  0.494679  0.994437  0.000000  1
  Ga  Ga1  1  0.491145  0.007465  0.500000  1
  Ga  Ga2  1  0.008855  0.507465  0.000000  1
  Ga  Ga3  1  0.005321  0.494437  0.500000  1
  Ga  Ga4  1  0.653150  0.345350  0.737191  1
  Ga  Ga5  1  0.846850  0.845350  0.762809  1
  Ga  Ga6  1  0.159968  0.159610  0.761426  1
  Ga  Ga7  1  0.340032  0.659610  0.738574  1
  Ga  Ga8  1  0.340032  0.659610  0.261426  1
  Ga  Ga9  1  0.653150  0.345350  0.262809  1
  Ga  Ga10  1  0.846850  0.845350  0.237191  1
  Ga  Ga11  1  0.159968  0.159610  0.238574  1
  Co  Co12  1  0.335810  0.335705  0.500000  1
  Co  Co13  1  0.164190  0.835705  0.000000  1
  Re  Re14  1  0.850276  0.152472  0.000000  1
  Re  Re15  1  0.649724  0.652472  0.500000  1
