# generated using pymatgen
data_ScZnIO6
_symmetry_space_group_name_H-M   'P 1'
_cell_length_a   5.15627600
_cell_length_b   5.15627736
_cell_length_c   4.61532900
_cell_angle_alpha   90.00000000
_cell_angle_beta   90.00000000
_cell_angle_gamma   120.00000409
_symmetry_Int_Tables_number   1
_chemical_formula_structural   ScZnIO6
_chemical_formula_sum   'Sc1 Zn1 I1 O6'
_cell_volume   106.26878247
_cell_formula_units_Z   1
loop_
 _symmetry_equiv_pos_site_id
 _symmetry_equiv_pos_as_xyz
  1  'x, y, z'
loop_
 _atom_site_type_symbol
 _atom_site_label
 _atom_site_symmetry_multiplicity
 _atom_site_fract_x
 _atom_site_fract_y
 _atom_site_fract_z
 _atom_site_occupancy
  Sc  Sc0  1  0.666667  0.333333  0.000000  1
  Zn  Zn1  1  0.000000  0.000000  0.500001  1
  I  I2  1  0.333333  0.666666  0.500001  1
  O  O3  1  0.335872  0.362000  0.267332  1
  O  O4  1  0.026129  0.664127  0.267332  1
  O  O5  1  0.637998  0.973871  0.267332  1
  O  O6  1  0.026128  0.362000  0.732667  1
  O  O7  1  0.637999  0.664127  0.732667  1
  O  O8  1  0.335872  0.973871  0.732667  1
