# generated using pymatgen
data_Gd2InAuO7
_symmetry_space_group_name_H-M   'P 1'
_cell_length_a   7.44186209
_cell_length_b   7.45410506
_cell_length_c   7.44165600
_cell_angle_alpha   59.94032515
_cell_angle_beta   59.97165446
_cell_angle_gamma   59.93938820
_symmetry_Int_Tables_number   1
_chemical_formula_structural   Gd2InAuO7
_chemical_formula_sum   'Gd4 In2 Au2 O14'
_cell_volume   291.57035545
_cell_formula_units_Z   2
loop_
 _symmetry_equiv_pos_site_id
 _symmetry_equiv_pos_as_xyz
  1  'x, y, z'
loop_
 _atom_site_type_symbol
 _atom_site_label
 _atom_site_symmetry_multiplicity
 _atom_site_fract_x
 _atom_site_fract_y
 _atom_site_fract_z
 _atom_site_occupancy
  Gd  Gd0  1  0.500017  0.000010  0.499985  1
  Gd  Gd1  1  0.999988  0.500042  0.499996  1
  Gd  Gd2  1  0.500006  0.499999  0.999991  1
  Gd  Gd3  1  0.500007  0.499985  0.500020  1
  In  In4  1  0.000054  0.499873  0.000023  1
  In  In5  1  0.999940  0.999949  0.999976  1
  Au  Au6  1  0.499953  0.000154  0.999936  1
  Au  Au7  1  0.999935  0.000002  0.499957  1
  O  O8  1  0.620418  0.629570  0.620452  1
  O  O9  1  0.379580  0.370456  0.379548  1
  O  O10  1  0.354348  0.915387  0.897736  1
  O  O11  1  0.102230  0.667509  0.645741  1
  O  O12  1  0.898388  0.351652  0.898383  1
  O  O13  1  0.897713  0.915426  0.354359  1
  O  O14  1  0.354390  0.332544  0.897685  1
  O  O15  1  0.332279  0.917648  0.332277  1
  O  O16  1  0.897782  0.332512  0.354269  1
  O  O17  1  0.645653  0.667380  0.102350  1
  O  O18  1  0.102326  0.084608  0.645657  1
  O  O19  1  0.645629  0.084614  0.102283  1
  O  O20  1  0.667756  0.082328  0.667769  1
  O  O21  1  0.101610  0.648356  0.101607  1
