# generated using pymatgen
data_MgSc4Al(B2Rh5)2
_symmetry_space_group_name_H-M   'P 1'
_cell_length_a   9.43370500
_cell_length_b   3.05344800
_cell_length_c   9.43370500
_cell_angle_alpha   90.00000000
_cell_angle_beta   90.00000000
_cell_angle_gamma   90.00000000
_symmetry_Int_Tables_number   1
_chemical_formula_structural   MgSc4Al(B2Rh5)2
_chemical_formula_sum   'Mg1 Sc4 Al1 B4 Rh10'
_cell_volume   271.74096362
_cell_formula_units_Z   1
loop_
 _symmetry_equiv_pos_site_id
 _symmetry_equiv_pos_as_xyz
  1  'x, y, z'
loop_
 _atom_site_type_symbol
 _atom_site_label
 _atom_site_symmetry_multiplicity
 _atom_site_fract_x
 _atom_site_fract_y
 _atom_site_fract_z
 _atom_site_occupancy
  Mg  Mg0  1  0.000000  0.000000  0.000000  1
  Sc  Sc1  1  0.674788  0.000000  0.175796  1
  Sc  Sc2  1  0.175796  0.000000  0.325210  1
  Sc  Sc3  1  0.824204  0.000000  0.674788  1
  Sc  Sc4  1  0.325210  0.000000  0.824204  1
  Al  Al5  1  0.500000  0.000000  0.500000  1
  B  B6  1  0.375044  0.000000  0.124496  1
  B  B7  1  0.875504  0.000000  0.375044  1
  B  B8  1  0.124496  0.000000  0.624956  1
  B  B9  1  0.624956  0.000000  0.875504  1
  Rh  Rh10  1  0.500000  0.500000  0.000000  1
  Rh  Rh11  1  0.221249  0.500000  0.073397  1
  Rh  Rh12  1  0.926603  0.500000  0.221249  1
  Rh  Rh13  1  0.432983  0.500000  0.284201  1
  Rh  Rh14  1  0.715797  0.500000  0.432983  1
  Rh  Rh15  1  0.000000  0.500000  0.500000  1
  Rh  Rh16  1  0.284201  0.500000  0.567017  1
  Rh  Rh17  1  0.567017  0.500000  0.715797  1
  Rh  Rh18  1  0.073397  0.500000  0.778750  1
  Rh  Rh19  1  0.778750  0.500000  0.926603  1
