# generated using pymatgen
data_Cs2Cu(CO3)2
_symmetry_space_group_name_H-M   'P 1'
_cell_length_a   7.11334516
_cell_length_b   7.20153507
_cell_length_c   9.69174103
_cell_angle_alpha   100.44557885
_cell_angle_beta   68.46319560
_cell_angle_gamma   119.59571882
_symmetry_Int_Tables_number   1
_chemical_formula_structural   Cs2Cu(CO3)2
_chemical_formula_sum   'Cs4 Cu2 C4 O12'
_cell_volume   401.56343265
_cell_formula_units_Z   2
loop_
 _symmetry_equiv_pos_site_id
 _symmetry_equiv_pos_as_xyz
  1  'x, y, z'
loop_
 _atom_site_type_symbol
 _atom_site_label
 _atom_site_symmetry_multiplicity
 _atom_site_fract_x
 _atom_site_fract_y
 _atom_site_fract_z
 _atom_site_occupancy
  Cs  Cs0  1  0.664652  0.340491  0.102458  1
  Cs  Cs1  1  0.016957  0.840481  0.397633  1
  Cs  Cs2  1  0.574162  0.159510  0.602458  1
  Cs  Cs3  1  0.426475  0.659520  0.897634  1
  Cu  Cu4  1  0.974941  0.000008  0.999921  1
  Cu  Cu5  1  0.224934  0.499993  0.499921  1
  C  C6  1  0.089598  0.324137  0.243781  1
  C  C7  1  0.583401  0.824182  0.256210  1
  C  C8  1  0.015461  0.175862  0.743781  1
  C  C9  1  0.009218  0.675818  0.756209  1
  O  O10  1  0.142031  0.262268  0.104721  1
  O  O11  1  0.483564  0.874305  0.195576  1
  O  O12  1  0.786657  0.836656  0.184196  1
  O  O13  1  0.220933  0.336595  0.315720  1
  O  O14  1  0.929172  0.374306  0.304509  1
  O  O15  1  0.496836  0.762297  0.395277  1
  O  O16  1  0.129762  0.237732  0.604721  1
  O  O17  1  0.859258  0.625696  0.695576  1
  O  O18  1  0.200000  0.663345  0.684196  1
  O  O19  1  0.134338  0.163404  0.815720  1
  O  O20  1  0.804866  0.125693  0.804510  1
  O  O21  1  0.984539  0.737703  0.895277  1
