# generated using pymatgen
data_Nd3Th(InAu2)2
_symmetry_space_group_name_H-M   'P 1'
_cell_length_a   8.15226129
_cell_length_b   8.15226129
_cell_length_c   3.90278100
_cell_angle_alpha   90.00000000
_cell_angle_beta   90.00000000
_cell_angle_gamma   90.79316760
_symmetry_Int_Tables_number   1
_chemical_formula_structural   Nd3Th(InAu2)2
_chemical_formula_sum   'Nd3 Th1 In2 Au4'
_cell_volume   259.35149042
_cell_formula_units_Z   1
loop_
 _symmetry_equiv_pos_site_id
 _symmetry_equiv_pos_as_xyz
  1  'x, y, z'
loop_
 _atom_site_type_symbol
 _atom_site_label
 _atom_site_symmetry_multiplicity
 _atom_site_fract_x
 _atom_site_fract_y
 _atom_site_fract_z
 _atom_site_occupancy
  Nd  Nd0  1  0.325616  0.825616  0.500000  1
  Nd  Nd1  1  0.174080  0.327432  0.500000  1
  Nd  Nd2  1  0.827432  0.674080  0.500000  1
  Th  Th3  1  0.672710  0.172710  0.500000  1
  In  In4  1  0.001453  0.998946  0.000000  1
  In  In5  1  0.498946  0.501453  0.000000  1
  Au  Au6  1  0.125765  0.625765  0.000000  1
  Au  Au7  1  0.871391  0.371391  0.000000  1
  Au  Au8  1  0.626821  0.875786  0.000000  1
  Au  Au9  1  0.375786  0.126821  0.000000  1
