# generated using pymatgen
data_Er5ZnSi2P9Ir19
_symmetry_space_group_name_H-M   'P 1'
_cell_length_a   12.83852394
_cell_length_b   12.69294709
_cell_length_c   3.95241200
_cell_angle_alpha   90.00000000
_cell_angle_beta   90.00000000
_cell_angle_gamma   119.71833109
_symmetry_Int_Tables_number   1
_chemical_formula_structural   Er5ZnSi2P9Ir19
_chemical_formula_sum   'Er5 Zn1 Si2 P9 Ir19'
_cell_volume   559.36600934
_cell_formula_units_Z   1
loop_
 _symmetry_equiv_pos_site_id
 _symmetry_equiv_pos_as_xyz
  1  'x, y, z'
loop_
 _atom_site_type_symbol
 _atom_site_label
 _atom_site_symmetry_multiplicity
 _atom_site_fract_x
 _atom_site_fract_y
 _atom_site_fract_z
 _atom_site_occupancy
  Er  Er0  1  0.660354  0.334636  0.000000  1
  Er  Er1  1  0.335070  0.663975  0.000000  1
  Er  Er2  1  0.820271  0.818715  0.500000  1
  Er  Er3  1  0.181793  0.998271  0.500000  1
  Er  Er4  1  0.996674  0.182057  0.500000  1
  Zn  Zn5  1  0.645455  0.648086  0.000000  1
  Si  Si6  1  0.679227  0.166531  0.500000  1
  Si  Si7  1  0.362216  0.998630  0.000000  1
  P  P8  1  0.830389  0.517288  0.500000  1
  P  P9  1  0.480096  0.324389  0.500000  1
  P  P10  1  0.184336  0.695952  0.500000  1
  P  P11  1  0.513408  0.818039  0.500000  1
  P  P12  1  0.306633  0.480014  0.500000  1
  P  P13  1  0.999477  0.357496  0.000000  1
  P  P14  1  0.170707  0.176644  0.000000  1
  P  P15  1  0.818882  0.998529  0.000000  1
  P  P16  1  0.004057  0.820074  0.000000  1
  Ir  Ir17  1  0.812413  0.183645  0.000000  1
  Ir  Ir18  1  0.832345  0.621756  0.000000  1
  Ir  Ir19  1  0.356144  0.182132  0.000000  1
  Ir  Ir20  1  0.182988  0.797421  0.000000  1
  Ir  Ir21  1  0.612064  0.830388  0.000000  1
  Ir  Ir22  1  0.190261  0.376293  0.000000  1
  Ir  Ir23  1  0.464497  0.432979  0.000000  1
  Ir  Ir24  1  0.561168  0.027939  0.000000  1
  Ir  Ir25  1  0.998230  0.536493  0.000000  1
  Ir  Ir26  1  0.278118  0.281399  0.500000  1
  Ir  Ir27  1  0.720782  0.002218  0.500000  1
  Ir  Ir28  1  0.007068  0.716153  0.500000  1
  Ir  Ir29  1  0.864194  0.358765  0.500000  1
  Ir  Ir30  1  0.648666  0.513425  0.500000  1
  Ir  Ir31  1  0.483257  0.141023  0.500000  1
  Ir  Ir32  1  0.372148  0.879904  0.500000  1
  Ir  Ir33  1  0.499816  0.627072  0.500000  1
  Ir  Ir34  1  0.131449  0.496327  0.500000  1
  Ir  Ir35  1  0.995343  0.995342  0.000000  1
