# generated using pymatgen
data_Hf(NbC)5
_symmetry_space_group_name_H-M   'P 1'
_cell_length_a   5.54690802
_cell_length_b   5.54690876
_cell_length_c   5.53038135
_cell_angle_alpha   80.49886334
_cell_angle_beta   80.49885825
_cell_angle_gamma   120.13761284
_symmetry_Int_Tables_number   1
_chemical_formula_structural   Hf(NbC)5
_chemical_formula_sum   'Hf1 Nb5 C5'
_cell_volume   138.87193443
_cell_formula_units_Z   1
loop_
 _symmetry_equiv_pos_site_id
 _symmetry_equiv_pos_as_xyz
  1  'x, y, z'
loop_
 _atom_site_type_symbol
 _atom_site_label
 _atom_site_symmetry_multiplicity
 _atom_site_fract_x
 _atom_site_fract_y
 _atom_site_fract_z
 _atom_site_occupancy
  Hf  Hf0  1  0.741211  0.741211  0.739790  1
  Nb  Nb1  1  0.263914  0.263914  0.264422  1
  Nb  Nb2  1  0.083062  0.439062  0.746254  1
  Nb  Nb3  1  0.560026  0.915576  0.252612  1
  Nb  Nb4  1  0.915576  0.560026  0.252612  1
  Nb  Nb5  1  0.439062  0.083062  0.746254  1
  C  C6  1  0.499394  0.499394  0.499441  1
  C  C7  1  0.663968  0.330881  0.001955  1
  C  C8  1  0.330881  0.663968  0.001955  1
  C  C9  1  0.833885  0.169021  0.497353  1
  C  C10  1  0.169021  0.833885  0.497353  1
