# generated using pymatgen
data_LaTb3Y12(CdNi)4
_symmetry_space_group_name_H-M   'P 1'
_cell_length_a   9.61067636
_cell_length_b   9.61067576
_cell_length_c   9.61067602
_cell_angle_alpha   60.16671465
_cell_angle_beta   60.16670995
_cell_angle_gamma   60.16671592
_symmetry_Int_Tables_number   1
_chemical_formula_structural   LaTb3Y12(CdNi)4
_chemical_formula_sum   'La1 Tb3 Y12 Cd4 Ni4'
_cell_volume   630.06237660
_cell_formula_units_Z   1
loop_
 _symmetry_equiv_pos_site_id
 _symmetry_equiv_pos_as_xyz
  1  'x, y, z'
loop_
 _atom_site_type_symbol
 _atom_site_label
 _atom_site_symmetry_multiplicity
 _atom_site_fract_x
 _atom_site_fract_y
 _atom_site_fract_z
 _atom_site_occupancy
  La  La0  1  0.595614  0.595614  0.595614  1
  Tb  Tb1  1  0.599714  0.599714  0.198915  1
  Tb  Tb2  1  0.599714  0.198915  0.599714  1
  Tb  Tb3  1  0.198915  0.599714  0.599714  1
  Y  Y4  1  0.064215  0.439026  0.439026  1
  Y  Y5  1  0.439405  0.062339  0.062339  1
  Y  Y6  1  0.439026  0.064215  0.439026  1
  Y  Y7  1  0.062339  0.439405  0.062339  1
  Y  Y8  1  0.439026  0.439026  0.064215  1
  Y  Y9  1  0.062339  0.062339  0.439405  1
  Y  Y10  1  0.186676  0.814701  0.814701  1
  Y  Y11  1  0.812529  0.187425  0.187425  1
  Y  Y12  1  0.814701  0.186676  0.814701  1
  Y  Y13  1  0.187425  0.812529  0.187425  1
  Y  Y14  1  0.814701  0.814701  0.186676  1
  Y  Y15  1  0.187425  0.187425  0.812529  1
  Cd  Cd16  1  0.830609  0.830609  0.830609  1
  Cd  Cd17  1  0.832485  0.832485  0.505304  1
  Cd  Cd18  1  0.832485  0.505304  0.832485  1
  Cd  Cd19  1  0.505304  0.832485  0.832485  1
  Ni  Ni20  1  0.393863  0.393863  0.393863  1
  Ni  Ni21  1  0.389385  0.389385  0.822719  1
  Ni  Ni22  1  0.389385  0.822719  0.389385  1
  Ni  Ni23  1  0.822719  0.389385  0.389385  1
