# generated using pymatgen
data_LaPrGeRhI2
_symmetry_space_group_name_H-M   'P 1'
_cell_length_a   4.35650400
_cell_length_b   4.35650388
_cell_length_c   12.13656600
_cell_angle_alpha   90.00000000
_cell_angle_beta   90.00000000
_cell_angle_gamma   120.00000089
_symmetry_Int_Tables_number   1
_chemical_formula_structural   LaPrGeRhI2
_chemical_formula_sum   'La1 Pr1 Ge1 Rh1 I2'
_cell_volume   199.48152162
_cell_formula_units_Z   1
loop_
 _symmetry_equiv_pos_site_id
 _symmetry_equiv_pos_as_xyz
  1  'x, y, z'
loop_
 _atom_site_type_symbol
 _atom_site_label
 _atom_site_symmetry_multiplicity
 _atom_site_fract_x
 _atom_site_fract_y
 _atom_site_fract_z
 _atom_site_occupancy
  La  La0  1  0.000000  0.000000  0.841016  1
  Pr  Pr1  1  0.000000  0.000000  0.162591  1
  Ge  Ge2  1  0.666667  0.333333  0.012331  1
  Rh  Rh3  1  0.333333  0.666667  0.989104  1
  I  I4  1  0.666667  0.333333  0.658541  1
  I  I5  1  0.333333  0.666667  0.336416  1
