# generated using pymatgen
data_La2Tb7DyRu4
_symmetry_space_group_name_H-M   'P 1'
_cell_length_a   8.66738395
_cell_length_b   8.66738366
_cell_length_c   7.28205911
_cell_angle_alpha   83.51586706
_cell_angle_beta   83.51586819
_cell_angle_gamma   43.72212297
_symmetry_Int_Tables_number   1
_chemical_formula_structural   La2Tb7DyRu4
_chemical_formula_sum   'La2 Tb7 Dy1 Ru4'
_cell_volume   375.29327721
_cell_formula_units_Z   1
loop_
 _symmetry_equiv_pos_site_id
 _symmetry_equiv_pos_as_xyz
  1  'x, y, z'
loop_
 _atom_site_type_symbol
 _atom_site_label
 _atom_site_symmetry_multiplicity
 _atom_site_fract_x
 _atom_site_fract_y
 _atom_site_fract_z
 _atom_site_occupancy
  La  La0  1  0.208297  0.982469  0.587111  1
  La  La1  1  0.017531  0.791703  0.912889  1
  Tb  Tb2  1  0.209591  0.359195  0.312385  1
  Tb  Tb3  1  0.640805  0.790409  0.187615  1
  Tb  Tb4  1  0.795695  0.637493  0.683932  1
  Tb  Tb5  1  0.362507  0.204305  0.816068  1
  Tb  Tb6  1  0.977943  0.209884  0.085609  1
  Tb  Tb7  1  0.790116  0.022057  0.414391  1
  Tb  Tb8  1  0.575527  0.424473  0.750000  1
  Dy  Dy9  1  0.425648  0.574352  0.250000  1
  Ru  Ru10  1  0.172104  0.603425  0.577908  1
  Ru  Ru11  1  0.396575  0.827896  0.922092  1
  Ru  Ru12  1  0.824134  0.396473  0.425576  1
  Ru  Ru13  1  0.603527  0.175866  0.074424  1
