# generated using pymatgen
data_TbHoLu3Pb4
_symmetry_space_group_name_H-M   'P 1'
_cell_length_a   8.12705500
_cell_length_b   15.44787400
_cell_length_c   8.19747000
_cell_angle_alpha   90.00000000
_cell_angle_beta   90.00000000
_cell_angle_gamma   90.00000000
_symmetry_Int_Tables_number   1
_chemical_formula_structural   TbHoLu3Pb4
_chemical_formula_sum   'Tb4 Ho4 Lu12 Pb16'
_cell_volume   1029.15728670
_cell_formula_units_Z   4
loop_
 _symmetry_equiv_pos_site_id
 _symmetry_equiv_pos_as_xyz
  1  'x, y, z'
loop_
 _atom_site_type_symbol
 _atom_site_label
 _atom_site_symmetry_multiplicity
 _atom_site_fract_x
 _atom_site_fract_y
 _atom_site_fract_z
 _atom_site_occupancy
  Tb  Tb0  1  0.464264  0.599515  0.677100  1
  Tb  Tb1  1  0.964264  0.900485  0.822900  1
  Tb  Tb2  1  0.535736  0.099515  0.322900  1
  Tb  Tb3  1  0.035736  0.400485  0.177100  1
  Ho  Ho4  1  0.535842  0.400314  0.322967  1
  Ho  Ho5  1  0.035842  0.099686  0.177033  1
  Ho  Ho6  1  0.464158  0.900314  0.677033  1
  Ho  Ho7  1  0.964158  0.599686  0.822967  1
  Lu  Lu8  1  0.623467  0.621243  0.158850  1
  Lu  Lu9  1  0.123467  0.878757  0.341150  1
  Lu  Lu10  1  0.376533  0.121243  0.841150  1
  Lu  Lu11  1  0.876533  0.378757  0.658850  1
  Lu  Lu12  1  0.376564  0.378697  0.841146  1
  Lu  Lu13  1  0.876564  0.121303  0.658854  1
  Lu  Lu14  1  0.623436  0.878697  0.158854  1
  Lu  Lu15  1  0.123436  0.621303  0.341146  1
  Lu  Lu16  1  0.792246  0.750037  0.495042  1
  Lu  Lu17  1  0.292246  0.749963  0.004958  1
  Lu  Lu18  1  0.207754  0.250037  0.504958  1
  Lu  Lu19  1  0.707754  0.249963  0.995042  1
  Pb  Pb20  1  0.717249  0.457369  0.965637  1
  Pb  Pb21  1  0.217249  0.042631  0.534363  1
  Pb  Pb22  1  0.282751  0.957369  0.034363  1
  Pb  Pb23  1  0.782751  0.542631  0.465637  1
  Pb  Pb24  1  0.282450  0.542845  0.034125  1
  Pb  Pb25  1  0.782450  0.957155  0.465875  1
  Pb  Pb26  1  0.717550  0.042845  0.965875  1
  Pb  Pb27  1  0.217550  0.457155  0.534125  1
  Pb  Pb28  1  0.429475  0.750001  0.371156  1
  Pb  Pb29  1  0.929475  0.749999  0.128844  1
  Pb  Pb30  1  0.570525  0.250001  0.628844  1
  Pb  Pb31  1  0.070525  0.249999  0.871156  1
  Pb  Pb32  1  0.653151  0.750158  0.847057  1
  Pb  Pb33  1  0.153151  0.749842  0.652943  1
  Pb  Pb34  1  0.346849  0.250158  0.152943  1
  Pb  Pb35  1  0.846849  0.249842  0.347057  1
