# generated using pymatgen
data_Tb2PaSn3PtRh2
_symmetry_space_group_name_H-M   'P 1'
_cell_length_a   7.53155233
_cell_length_b   7.50074459
_cell_length_c   4.01537600
_cell_angle_alpha   90.00000000
_cell_angle_beta   90.00000000
_cell_angle_gamma   120.45956584
_symmetry_Int_Tables_number   1
_chemical_formula_structural   Tb2PaSn3PtRh2
_chemical_formula_sum   'Tb2 Pa1 Sn3 Pt1 Rh2'
_cell_volume   195.53111242
_cell_formula_units_Z   1
loop_
 _symmetry_equiv_pos_site_id
 _symmetry_equiv_pos_as_xyz
  1  'x, y, z'
loop_
 _atom_site_type_symbol
 _atom_site_label
 _atom_site_symmetry_multiplicity
 _atom_site_fract_x
 _atom_site_fract_y
 _atom_site_fract_z
 _atom_site_occupancy
  Tb  Tb0  1  0.999926  0.407695  0.500000  1
  Tb  Tb1  1  0.592131  0.591937  0.500000  1
  Pa  Pa2  1  0.417353  0.008996  0.500000  1
  Sn  Sn3  1  0.759199  0.004045  0.000000  1
  Sn  Sn4  1  0.985126  0.732286  0.000000  1
  Sn  Sn5  1  0.254552  0.264418  0.000000  1
  Pt  Pt6  1  0.334456  0.687767  0.000000  1
  Rh  Rh7  1  0.639978  0.304253  0.000000  1
  Rh  Rh8  1  0.017277  0.998603  0.500000  1
