# generated using pymatgen
data_K6InS4F
_symmetry_space_group_name_H-M   'P 1'
_cell_length_a   10.18609600
_cell_length_b   10.18609609
_cell_length_c   7.44643200
_cell_angle_alpha   90.00000000
_cell_angle_beta   90.00000000
_cell_angle_gamma   119.99999972
_symmetry_Int_Tables_number   1
_chemical_formula_structural   K6InS4F
_chemical_formula_sum   'K12 In2 S8 F2'
_cell_volume   669.10518347
_cell_formula_units_Z   2
loop_
 _symmetry_equiv_pos_site_id
 _symmetry_equiv_pos_as_xyz
  1  'x, y, z'
loop_
 _atom_site_type_symbol
 _atom_site_label
 _atom_site_symmetry_multiplicity
 _atom_site_fract_x
 _atom_site_fract_y
 _atom_site_fract_z
 _atom_site_occupancy
  K  K0  1  0.116285  0.883715  0.507191  1
  K  K1  1  0.767429  0.883715  0.507191  1
  K  K2  1  0.943328  0.471665  0.320054  1
  K  K3  1  0.528335  0.471665  0.320054  1
  K  K4  1  0.883715  0.767429  0.007191  1
  K  K5  1  0.232571  0.116285  0.007191  1
  K  K6  1  0.528335  0.056672  0.320054  1
  K  K7  1  0.116285  0.232571  0.507191  1
  K  K8  1  0.883715  0.116285  0.007191  1
  K  K9  1  0.056672  0.528335  0.820054  1
  K  K10  1  0.471665  0.943328  0.820054  1
  K  K11  1  0.471665  0.528335  0.820054  1
  In  In12  1  0.666667  0.333333  0.714429  1
  In  In13  1  0.333333  0.666667  0.214429  1
  S  S14  1  0.399704  0.199853  0.606334  1
  S  S15  1  0.600296  0.800147  0.106334  1
  S  S16  1  0.666667  0.333333  0.047107  1
  S  S17  1  0.800147  0.600296  0.606334  1
  S  S18  1  0.199853  0.399704  0.106334  1
  S  S19  1  0.333333  0.666667  0.547107  1
  S  S20  1  0.199853  0.800147  0.106334  1
  S  S21  1  0.800147  0.199853  0.606334  1
  F  F22  1  0.000000  0.000000  0.278333  1
  F  F23  1  0.000000  0.000000  0.778333  1
