# generated using pymatgen
data_Y4Ga20(TcOs)3
_symmetry_space_group_name_H-M   'P 1'
_cell_length_a   9.00015746
_cell_length_b   9.00015746
_cell_length_c   6.40702000
_cell_angle_alpha   90.00000000
_cell_angle_beta   90.00000000
_cell_angle_gamma   90.15707686
_symmetry_Int_Tables_number   1
_chemical_formula_structural   Y4Ga20(TcOs)3
_chemical_formula_sum   'Y4 Ga20 Tc3 Os3'
_cell_volume   518.98482861
_cell_formula_units_Z   1
loop_
 _symmetry_equiv_pos_site_id
 _symmetry_equiv_pos_as_xyz
  1  'x, y, z'
loop_
 _atom_site_type_symbol
 _atom_site_label
 _atom_site_symmetry_multiplicity
 _atom_site_fract_x
 _atom_site_fract_y
 _atom_site_fract_z
 _atom_site_occupancy
  Y  Y0  1  0.182241  0.317072  0.000000  1
  Y  Y1  1  0.683149  0.183149  0.000000  1
  Y  Y2  1  0.817072  0.682241  0.000000  1
  Y  Y3  1  0.318018  0.818018  0.000000  1
  Ga  Ga4  1  0.500090  0.000090  0.289488  1
  Ga  Ga5  1  0.500090  0.000090  0.710512  1
  Ga  Ga6  1  0.294297  0.560417  0.706479  1
  Ga  Ga7  1  0.999742  0.499742  0.290535  1
  Ga  Ga8  1  0.999742  0.499742  0.709465  1
  Ga  Ga9  1  0.060417  0.794297  0.706479  1
  Ga  Ga10  1  0.205947  0.060344  0.293885  1
  Ga  Ga11  1  0.060417  0.794297  0.293521  1
  Ga  Ga12  1  0.706124  0.439571  0.706530  1
  Ga  Ga13  1  0.205947  0.060344  0.706115  1
  Ga  Ga14  1  0.939571  0.206124  0.706530  1
  Ga  Ga15  1  0.706124  0.439571  0.293470  1
  Ga  Ga16  1  0.560344  0.705947  0.293885  1
  Ga  Ga17  1  0.939571  0.206124  0.293470  1
  Ga  Ga18  1  0.560344  0.705947  0.706115  1
  Ga  Ga19  1  0.794388  0.938899  0.292832  1
  Ga  Ga20  1  0.438899  0.294388  0.707168  1
  Ga  Ga21  1  0.794388  0.938899  0.707168  1
  Ga  Ga22  1  0.438899  0.294388  0.292832  1
  Ga  Ga23  1  0.294297  0.560417  0.293521  1
  Tc  Tc24  1  0.178560  0.320482  0.500000  1
  Tc  Tc25  1  0.321212  0.821212  0.500000  1
  Tc  Tc26  1  0.820482  0.678560  0.500000  1
  Os  Os27  1  0.999331  0.001350  0.000000  1
  Os  Os28  1  0.678944  0.178944  0.500000  1
  Os  Os29  1  0.501350  0.499331  0.000000  1
