# generated using pymatgen
data_Er2MnFeCl2
_symmetry_space_group_name_H-M   'P 1'
_cell_length_a   3.74093400
_cell_length_b   3.74093411
_cell_length_c   11.29561500
_cell_angle_alpha   90.00000000
_cell_angle_beta   90.00000000
_cell_angle_gamma   119.99999906
_symmetry_Int_Tables_number   1
_chemical_formula_structural   Er2MnFeCl2
_chemical_formula_sum   'Er2 Mn1 Fe1 Cl2'
_cell_volume   136.89910909
_cell_formula_units_Z   1
loop_
 _symmetry_equiv_pos_site_id
 _symmetry_equiv_pos_as_xyz
  1  'x, y, z'
loop_
 _atom_site_type_symbol
 _atom_site_label
 _atom_site_symmetry_multiplicity
 _atom_site_fract_x
 _atom_site_fract_y
 _atom_site_fract_z
 _atom_site_occupancy
  Er  Er0  1  0.000000  0.000000  0.317177  1
  Er  Er1  1  0.000000  0.000000  0.681888  1
  Mn  Mn2  1  0.333333  0.666666  0.487585  1
  Fe  Fe3  1  0.666666  0.333334  0.513784  1
  Cl  Cl4  1  0.666666  0.333334  0.163461  1
  Cl  Cl5  1  0.333333  0.666666  0.836106  1
