# generated using pymatgen
data_ErTm3(MnRe3)2
_symmetry_space_group_name_H-M   'P 1'
_cell_length_a   5.28990500
_cell_length_b   5.28990602
_cell_length_c   8.91326800
_cell_angle_alpha   90.00000000
_cell_angle_beta   90.00000000
_cell_angle_gamma   119.99999989
_symmetry_Int_Tables_number   1
_chemical_formula_structural   ErTm3(MnRe3)2
_chemical_formula_sum   'Er1 Tm3 Mn2 Re6'
_cell_volume   216.00481195
_cell_formula_units_Z   1
loop_
 _symmetry_equiv_pos_site_id
 _symmetry_equiv_pos_as_xyz
  1  'x, y, z'
loop_
 _atom_site_type_symbol
 _atom_site_label
 _atom_site_symmetry_multiplicity
 _atom_site_fract_x
 _atom_site_fract_y
 _atom_site_fract_z
 _atom_site_occupancy
  Er  Er0  1  0.333333  0.666667  0.436721  1
  Tm  Tm1  1  0.666667  0.333333  0.563423  1
  Tm  Tm2  1  0.666667  0.333333  0.936649  1
  Tm  Tm3  1  0.333333  0.666667  0.063311  1
  Mn  Mn4  1  0.000000  0.000000  0.500045  1
  Mn  Mn5  1  0.000000  0.000000  0.999980  1
  Re  Re6  1  0.831692  0.168308  0.249839  1
  Re  Re7  1  0.831692  0.663382  0.249839  1
  Re  Re8  1  0.336618  0.168308  0.249839  1
  Re  Re9  1  0.168254  0.831746  0.750118  1
  Re  Re10  1  0.168254  0.336508  0.750118  1
  Re  Re11  1  0.663492  0.831746  0.750118  1
