# generated using pymatgen
data_Yb14Tm3Lu3Pt16
_symmetry_space_group_name_H-M   'P 1'
_cell_length_a   7.45712208
_cell_length_b   7.54446605
_cell_length_c   14.46215215
_cell_angle_alpha   90.11423426
_cell_angle_beta   89.98368273
_cell_angle_gamma   89.99552462
_symmetry_Int_Tables_number   1
_chemical_formula_structural   Yb14Tm3Lu3Pt16
_chemical_formula_sum   'Yb14 Tm3 Lu3 Pt16'
_cell_volume   813.63909067
_cell_formula_units_Z   1
loop_
 _symmetry_equiv_pos_site_id
 _symmetry_equiv_pos_as_xyz
  1  'x, y, z'
loop_
 _atom_site_type_symbol
 _atom_site_label
 _atom_site_symmetry_multiplicity
 _atom_site_fract_x
 _atom_site_fract_y
 _atom_site_fract_z
 _atom_site_occupancy
  Yb  Yb0  1  0.648769  0.166545  0.878304  1
  Yb  Yb1  1  0.148796  0.333650  0.621554  1
  Yb  Yb2  1  0.491939  0.676716  0.594665  1
  Yb  Yb3  1  0.991740  0.823313  0.905270  1
  Yb  Yb4  1  0.506868  0.320697  0.093632  1
  Yb  Yb5  1  0.006834  0.179228  0.406598  1
  Yb  Yb6  1  0.506832  0.322147  0.405908  1
  Yb  Yb7  1  0.006406  0.178275  0.094203  1
  Yb  Yb8  1  0.492283  0.679990  0.903944  1
  Yb  Yb9  1  0.992267  0.819831  0.595502  1
  Yb  Yb10  1  0.809716  0.507473  0.749751  1
  Yb  Yb11  1  0.309725  0.992681  0.749981  1
  Yb  Yb12  1  0.192136  0.487963  0.250175  1
  Yb  Yb13  1  0.692049  0.012068  0.250251  1
  Tm  Tm14  1  0.650115  0.163410  0.622906  1
  Tm  Tm15  1  0.149728  0.336732  0.876720  1
  Tm  Tm16  1  0.351863  0.834190  0.123690  1
  Lu  Lu17  1  0.852118  0.665760  0.376147  1
  Lu  Lu18  1  0.350707  0.834206  0.376349  1
  Lu  Lu19  1  0.850819  0.665620  0.124016  1
  Pt  Pt20  1  0.682624  0.957016  0.457995  1
  Pt  Pt21  1  0.181900  0.541366  0.041840  1
  Pt  Pt22  1  0.313109  0.041035  0.961164  1
  Pt  Pt23  1  0.813470  0.459870  0.538047  1
  Pt  Pt24  1  0.323732  0.031148  0.539593  1
  Pt  Pt25  1  0.823506  0.468867  0.960476  1
  Pt  Pt26  1  0.678441  0.954805  0.043944  1
  Pt  Pt27  1  0.177060  0.545357  0.455917  1
  Pt  Pt28  1  0.443951  0.379413  0.747593  1
  Pt  Pt29  1  0.943872  0.120589  0.752228  1
  Pt  Pt30  1  0.556797  0.625165  0.250941  1
  Pt  Pt31  1  0.055563  0.874659  0.250034  1
  Pt  Pt32  1  0.681392  0.865096  0.746505  1
  Pt  Pt33  1  0.181269  0.634945  0.753370  1
  Pt  Pt34  1  0.320381  0.129568  0.250485  1
  Pt  Pt35  1  0.821223  0.370607  0.250304  1
