# generated using pymatgen
data_Ho3ThMgRu
_symmetry_space_group_name_H-M   'P 1'
_cell_length_a   9.73034032
_cell_length_b   9.73033966
_cell_length_c   9.73034000
_cell_angle_alpha   59.99999885
_cell_angle_beta   60.00000110
_cell_angle_gamma   60.00000044
_symmetry_Int_Tables_number   1
_chemical_formula_structural   Ho3ThMgRu
_chemical_formula_sum   'Ho12 Th4 Mg4 Ru4'
_cell_volume   651.43194239
_cell_formula_units_Z   4
loop_
 _symmetry_equiv_pos_site_id
 _symmetry_equiv_pos_as_xyz
  1  'x, y, z'
loop_
 _atom_site_type_symbol
 _atom_site_label
 _atom_site_symmetry_multiplicity
 _atom_site_fract_x
 _atom_site_fract_y
 _atom_site_fract_z
 _atom_site_occupancy
  Ho  Ho0  1  0.813583  0.186417  0.186417  1
  Ho  Ho1  1  0.186417  0.813583  0.813583  1
  Ho  Ho2  1  0.186417  0.813583  0.186417  1
  Ho  Ho3  1  0.813583  0.186417  0.813583  1
  Ho  Ho4  1  0.186417  0.186417  0.813583  1
  Ho  Ho5  1  0.813583  0.813583  0.186417  1
  Ho  Ho6  1  0.935288  0.564712  0.564712  1
  Ho  Ho7  1  0.564712  0.935288  0.935288  1
  Ho  Ho8  1  0.564712  0.935288  0.564712  1
  Ho  Ho9  1  0.935288  0.564712  0.935288  1
  Ho  Ho10  1  0.564712  0.564712  0.935288  1
  Ho  Ho11  1  0.935288  0.935288  0.564712  1
  Th  Th12  1  0.346277  0.346277  0.346277  1
  Th  Th13  1  0.346277  0.346277  0.961168  1
  Th  Th14  1  0.346277  0.961168  0.346277  1
  Th  Th15  1  0.961168  0.346277  0.346277  1
  Mg  Mg16  1  0.579656  0.579656  0.579656  1
  Mg  Mg17  1  0.579656  0.579656  0.261033  1
  Mg  Mg18  1  0.579656  0.261033  0.579656  1
  Mg  Mg19  1  0.261033  0.579656  0.579656  1
  Ru  Ru20  1  0.143372  0.143372  0.143372  1
  Ru  Ru21  1  0.143372  0.143372  0.569884  1
  Ru  Ru22  1  0.143372  0.569884  0.143372  1
  Ru  Ru23  1  0.569884  0.143372  0.143372  1
