# generated using pymatgen
data_Th5P3Se2
_symmetry_space_group_name_H-M   'P 1'
_cell_length_a   10.96340219
_cell_length_b   10.96340305
_cell_length_c   7.19737110
_cell_angle_alpha   83.72758621
_cell_angle_beta   83.72758951
_cell_angle_gamma   141.21823450
_symmetry_Int_Tables_number   1
_chemical_formula_structural   Th5P3Se2
_chemical_formula_sum   'Th10 P6 Se4'
_cell_volume   511.67927181
_cell_formula_units_Z   2
loop_
 _symmetry_equiv_pos_site_id
 _symmetry_equiv_pos_as_xyz
  1  'x, y, z'
loop_
 _atom_site_type_symbol
 _atom_site_label
 _atom_site_symmetry_multiplicity
 _atom_site_fract_x
 _atom_site_fract_y
 _atom_site_fract_z
 _atom_site_occupancy
  Th  Th0  1  0.611537  0.905272  0.991140  1
  Th  Th1  1  0.180825  0.288715  0.000430  1
  Th  Th2  1  0.094728  0.388463  0.508860  1
  Th  Th3  1  0.819175  0.711285  0.999570  1
  Th  Th4  1  0.711285  0.819175  0.499570  1
  Th  Th5  1  0.388463  0.094728  0.008860  1
  Th  Th6  1  0.288715  0.180825  0.500430  1
  Th  Th7  1  0.000000  0.500000  0.000000  1
  Th  Th8  1  0.905272  0.611537  0.491140  1
  Th  Th9  1  0.500000  0.000000  0.500000  1
  P  P10  1  0.350075  0.649925  0.750000  1
  P  P11  1  0.952048  0.047952  0.750000  1
  P  P12  1  0.847947  0.152053  0.250000  1
  P  P13  1  0.152053  0.847947  0.750000  1
  P  P14  1  0.047952  0.952048  0.250000  1
  P  P15  1  0.649925  0.350075  0.250000  1
  Se  Se16  1  0.747850  0.252150  0.750000  1
  Se  Se17  1  0.548156  0.451844  0.750000  1
  Se  Se18  1  0.451844  0.548156  0.250000  1
  Se  Se19  1  0.252150  0.747850  0.250000  1
