# generated using pymatgen
data_SmTm(CuP)3
_symmetry_space_group_name_H-M   'P 1'
_cell_length_a   3.88130800
_cell_length_b   10.69960600
_cell_length_c   12.93063100
_cell_angle_alpha   90.00000000
_cell_angle_beta   90.00000000
_cell_angle_gamma   90.00000000
_symmetry_Int_Tables_number   1
_chemical_formula_structural   SmTm(CuP)3
_chemical_formula_sum   'Sm4 Tm4 Cu12 P12'
_cell_volume   536.98927456
_cell_formula_units_Z   4
loop_
 _symmetry_equiv_pos_site_id
 _symmetry_equiv_pos_as_xyz
  1  'x, y, z'
loop_
 _atom_site_type_symbol
 _atom_site_label
 _atom_site_symmetry_multiplicity
 _atom_site_fract_x
 _atom_site_fract_y
 _atom_site_fract_z
 _atom_site_occupancy
  Sm  Sm0  1  0.250000  0.931748  0.792107  1
  Sm  Sm1  1  0.750000  0.431748  0.707893  1
  Sm  Sm2  1  0.250000  0.568252  0.292107  1
  Sm  Sm3  1  0.750000  0.068252  0.207893  1
  Tm  Tm4  1  0.250000  0.841577  0.503067  1
  Tm  Tm5  1  0.750000  0.341577  0.996933  1
  Tm  Tm6  1  0.250000  0.658423  0.003067  1
  Tm  Tm7  1  0.750000  0.158423  0.496933  1
  Cu  Cu8  1  0.250000  0.404521  0.511718  1
  Cu  Cu9  1  0.750000  0.904521  0.988282  1
  Cu  Cu10  1  0.250000  0.095479  0.011718  1
  Cu  Cu11  1  0.750000  0.595479  0.488282  1
  Cu  Cu12  1  0.250000  0.271028  0.331932  1
  Cu  Cu13  1  0.750000  0.771028  0.168068  1
  Cu  Cu14  1  0.250000  0.228972  0.831932  1
  Cu  Cu15  1  0.750000  0.728972  0.668068  1
  Cu  Cu16  1  0.250000  0.859088  0.282709  1
  Cu  Cu17  1  0.750000  0.359088  0.217291  1
  Cu  Cu18  1  0.250000  0.640912  0.782709  1
  Cu  Cu19  1  0.750000  0.140912  0.717291  1
  P  P20  1  0.250000  0.240028  0.640867  1
  P  P21  1  0.750000  0.740028  0.859133  1
  P  P22  1  0.250000  0.259972  0.140867  1
  P  P23  1  0.750000  0.759972  0.359133  1
  P  P24  1  0.250000  0.607471  0.601249  1
  P  P25  1  0.750000  0.107471  0.898751  1
  P  P26  1  0.250000  0.892529  0.101249  1
  P  P27  1  0.750000  0.392529  0.398751  1
  P  P28  1  0.250000  0.056842  0.373563  1
  P  P29  1  0.750000  0.556842  0.126437  1
  P  P30  1  0.250000  0.443158  0.873563  1
  P  P31  1  0.750000  0.943158  0.626437  1
