# generated using pymatgen
data_Ti6Te7Se
_symmetry_space_group_name_H-M   'P 1'
_cell_length_a   10.55196900
_cell_length_b   10.55196943
_cell_length_c   3.76005300
_cell_angle_alpha   90.00000000
_cell_angle_beta   90.00000000
_cell_angle_gamma   120.00000094
_symmetry_Int_Tables_number   1
_chemical_formula_structural   Ti6Te7Se
_chemical_formula_sum   'Ti6 Te7 Se1'
_cell_volume   362.56979848
_cell_formula_units_Z   1
loop_
 _symmetry_equiv_pos_site_id
 _symmetry_equiv_pos_as_xyz
  1  'x, y, z'
loop_
 _atom_site_type_symbol
 _atom_site_label
 _atom_site_symmetry_multiplicity
 _atom_site_fract_x
 _atom_site_fract_y
 _atom_site_fract_z
 _atom_site_occupancy
  Ti  Ti0  1  0.511190  0.639084  0.750000  1
  Ti  Ti1  1  0.859941  0.495080  0.250000  1
  Ti  Ti2  1  0.635139  0.140059  0.250000  1
  Ti  Ti3  1  0.360916  0.872107  0.750000  1
  Ti  Ti4  1  0.127893  0.488810  0.750000  1
  Ti  Ti5  1  0.504920  0.364861  0.250000  1
  Te  Te6  1  0.653196  0.954483  0.750000  1
  Te  Te7  1  0.711352  0.656945  0.250000  1
  Te  Te8  1  0.945592  0.288648  0.250000  1
  Te  Te9  1  0.045517  0.698712  0.750000  1
  Te  Te10  1  0.301288  0.346804  0.750000  1
  Te  Te11  1  0.343055  0.054408  0.250000  1
  Te  Te12  1  0.333333  0.666667  0.250000  1
  Se  Se13  1  0.666667  0.333333  0.750000  1
