# generated using pymatgen
data_Pr16Mg2Cd2IrOs3
_symmetry_space_group_name_H-M   'P 1'
_cell_length_a   10.03676250
_cell_length_b   10.06352283
_cell_length_c   10.08965802
_cell_angle_alpha   59.91381354
_cell_angle_beta   59.82478168
_cell_angle_gamma   59.95967116
_symmetry_Int_Tables_number   1
_chemical_formula_structural   Pr16Mg2Cd2IrOs3
_chemical_formula_sum   'Pr16 Mg2 Cd2 Ir1 Os3'
_cell_volume   718.97167826
_cell_formula_units_Z   1
loop_
 _symmetry_equiv_pos_site_id
 _symmetry_equiv_pos_as_xyz
  1  'x, y, z'
loop_
 _atom_site_type_symbol
 _atom_site_label
 _atom_site_symmetry_multiplicity
 _atom_site_fract_x
 _atom_site_fract_y
 _atom_site_fract_z
 _atom_site_occupancy
  Pr  Pr0  1  0.344097  0.345456  0.346078  1
  Pr  Pr1  1  0.344102  0.345461  0.964351  1
  Pr  Pr2  1  0.345181  0.961283  0.346762  1
  Pr  Pr3  1  0.964731  0.344916  0.345176  1
  Pr  Pr4  1  0.810820  0.190955  0.189614  1
  Pr  Pr5  1  0.190786  0.809415  0.809880  1
  Pr  Pr6  1  0.190791  0.809404  0.189910  1
  Pr  Pr7  1  0.810826  0.190956  0.808610  1
  Pr  Pr8  1  0.189387  0.189487  0.810562  1
  Pr  Pr9  1  0.810045  0.806691  0.191633  1
  Pr  Pr10  1  0.937990  0.559856  0.559604  1
  Pr  Pr11  1  0.558348  0.938508  0.941277  1
  Pr  Pr12  1  0.558332  0.938517  0.561872  1
  Pr  Pr13  1  0.937993  0.559860  0.942549  1
  Pr  Pr14  1  0.557881  0.562169  0.939976  1
  Pr  Pr15  1  0.939717  0.942144  0.559081  1
  Mg  Mg16  1  0.578225  0.270003  0.575890  1
  Mg  Mg17  1  0.269039  0.578733  0.576148  1
  Cd  Cd18  1  0.579349  0.579432  0.581067  1
  Cd  Cd19  1  0.579348  0.579434  0.260154  1
  Ir  Ir20  1  0.581930  0.139061  0.139496  1
  Os  Os21  1  0.140126  0.137349  0.138030  1
  Os  Os22  1  0.140125  0.137348  0.584486  1
  Os  Os23  1  0.140833  0.583564  0.137795  1
