# generated using pymatgen
data_HoHfMn3Ni9P7
_symmetry_space_group_name_H-M   'P 1'
_cell_length_a   9.07973000
_cell_length_b   9.07972927
_cell_length_c   3.61895700
_cell_angle_alpha   90.00000000
_cell_angle_beta   90.00000000
_cell_angle_gamma   120.00000265
_symmetry_Int_Tables_number   1
_chemical_formula_structural   HoHfMn3Ni9P7
_chemical_formula_sum   'Ho1 Hf1 Mn3 Ni9 P7'
_cell_volume   258.38058477
_cell_formula_units_Z   1
loop_
 _symmetry_equiv_pos_site_id
 _symmetry_equiv_pos_as_xyz
  1  'x, y, z'
loop_
 _atom_site_type_symbol
 _atom_site_label
 _atom_site_symmetry_multiplicity
 _atom_site_fract_x
 _atom_site_fract_y
 _atom_site_fract_z
 _atom_site_occupancy
  Ho  Ho0  1  0.333333  0.666667  0.500000  1
  Hf  Hf1  1  0.666667  0.333333  0.000000  1
  Mn  Mn2  1  0.097207  0.222822  0.500000  1
  Mn  Mn3  1  0.777178  0.874388  0.500000  1
  Mn  Mn4  1  0.125612  0.902793  0.500000  1
  Ni  Ni5  1  0.057653  0.434842  0.000000  1
  Ni  Ni6  1  0.565158  0.622811  0.000000  1
  Ni  Ni7  1  0.377189  0.942347  0.000000  1
  Ni  Ni8  1  0.280119  0.156486  0.000000  1
  Ni  Ni9  1  0.843514  0.123634  0.000000  1
  Ni  Ni10  1  0.876366  0.719881  0.000000  1
  Ni  Ni11  1  0.440123  0.382680  0.500000  1
  Ni  Ni12  1  0.617320  0.057444  0.500000  1
  Ni  Ni13  1  0.942556  0.559877  0.500000  1
  P  P14  1  0.290594  0.407092  0.000000  1
  P  P15  1  0.592908  0.883502  0.000000  1
  P  P16  1  0.116498  0.709406  0.000000  1
  P  P17  1  0.412088  0.120054  0.500000  1
  P  P18  1  0.879946  0.292034  0.500000  1
  P  P19  1  0.707966  0.587912  0.500000  1
  P  P20  1  0.000000  0.000000  0.000000  1
