# generated using pymatgen
data_TaNb3(SeI)4
_symmetry_space_group_name_H-M   'P 1'
_cell_length_a   7.83712153
_cell_length_b   7.83712208
_cell_length_c   7.83712135
_cell_angle_alpha   58.36595687
_cell_angle_beta   58.36595188
_cell_angle_gamma   58.36596147
_symmetry_Int_Tables_number   1
_chemical_formula_structural   TaNb3(SeI)4
_chemical_formula_sum   'Ta1 Nb3 Se4 I4'
_cell_volume   327.64003173
_cell_formula_units_Z   1
loop_
 _symmetry_equiv_pos_site_id
 _symmetry_equiv_pos_as_xyz
  1  'x, y, z'
loop_
 _atom_site_type_symbol
 _atom_site_label
 _atom_site_symmetry_multiplicity
 _atom_site_fract_x
 _atom_site_fract_y
 _atom_site_fract_z
 _atom_site_occupancy
  Ta  Ta0  1  0.396256  0.396256  0.396256  1
  Nb  Nb1  1  0.411387  0.784775  0.411387  1
  Nb  Nb2  1  0.784775  0.411387  0.411387  1
  Nb  Nb3  1  0.411387  0.411387  0.784775  1
  Se  Se4  1  0.622845  0.111759  0.622845  1
  Se  Se5  1  0.622845  0.622845  0.111759  1
  Se  Se6  1  0.111759  0.622845  0.622845  1
  Se  Se7  1  0.637052  0.637052  0.637052  1
  I  I8  1  0.130694  0.130694  0.130694  1
  I  I9  1  0.618887  0.126056  0.126056  1
  I  I10  1  0.126056  0.618887  0.126056  1
  I  I11  1  0.126056  0.126056  0.618887  1
