# generated using pymatgen
data_Lu10ZnSiPb6
_symmetry_space_group_name_H-M   'P 1'
_cell_length_a   9.07463600
_cell_length_b   9.07463623
_cell_length_c   6.56326300
_cell_angle_alpha   90.00000000
_cell_angle_beta   90.00000000
_cell_angle_gamma   120.00000643
_symmetry_Int_Tables_number   1
_chemical_formula_structural   Lu10ZnSiPb6
_chemical_formula_sum   'Lu10 Zn1 Si1 Pb6'
_cell_volume   468.06789068
_cell_formula_units_Z   1
loop_
 _symmetry_equiv_pos_site_id
 _symmetry_equiv_pos_as_xyz
  1  'x, y, z'
loop_
 _atom_site_type_symbol
 _atom_site_label
 _atom_site_symmetry_multiplicity
 _atom_site_fract_x
 _atom_site_fract_y
 _atom_site_fract_z
 _atom_site_occupancy
  Lu  Lu0  1  0.252354  0.000000  0.735792  1
  Lu  Lu1  1  0.747646  0.000000  0.264208  1
  Lu  Lu2  1  0.000000  0.252354  0.735792  1
  Lu  Lu3  1  0.000000  0.747646  0.264208  1
  Lu  Lu4  1  0.747646  0.747646  0.735792  1
  Lu  Lu5  1  0.252354  0.252354  0.264208  1
  Lu  Lu6  1  0.333333  0.666667  0.500000  1
  Lu  Lu7  1  0.666667  0.333333  0.500000  1
  Lu  Lu8  1  0.666667  0.333333  0.000000  1
  Lu  Lu9  1  0.333333  0.666667  0.000000  1
  Zn  Zn10  1  0.000000  0.000000  0.000000  1
  Si  Si11  1  0.000000  0.000000  0.500000  1
  Pb  Pb12  1  0.605752  0.000000  0.749645  1
  Pb  Pb13  1  0.394248  0.000000  0.250355  1
  Pb  Pb14  1  0.000000  0.605752  0.749645  1
  Pb  Pb15  1  0.000000  0.394248  0.250355  1
  Pb  Pb16  1  0.394248  0.394248  0.749645  1
  Pb  Pb17  1  0.605752  0.605752  0.250355  1
