# generated using pymatgen
data_Tb3Ho5Cd2NiIr
_symmetry_space_group_name_H-M   'P 1'
_cell_length_a   9.56685529
_cell_length_b   9.56685522
_cell_length_c   9.61160300
_cell_angle_alpha   59.84514224
_cell_angle_beta   59.84514250
_cell_angle_gamma   59.64901069
_symmetry_Int_Tables_number   1
_chemical_formula_structural   Tb3Ho5Cd2NiIr
_chemical_formula_sum   'Tb6 Ho10 Cd4 Ni2 Ir2'
_cell_volume   618.92615848
_cell_formula_units_Z   2
loop_
 _symmetry_equiv_pos_site_id
 _symmetry_equiv_pos_as_xyz
  1  'x, y, z'
loop_
 _atom_site_type_symbol
 _atom_site_label
 _atom_site_symmetry_multiplicity
 _atom_site_fract_x
 _atom_site_fract_y
 _atom_site_fract_z
 _atom_site_occupancy
  Tb  Tb0  1  0.937913  0.560594  0.565423  1
  Tb  Tb1  1  0.560594  0.937913  0.936071  1
  Tb  Tb2  1  0.560594  0.937913  0.565423  1
  Tb  Tb3  1  0.937913  0.560594  0.936071  1
  Tb  Tb4  1  0.565472  0.565472  0.934528  1
  Tb  Tb5  1  0.939453  0.939453  0.560547  1
  Ho  Ho6  1  0.350020  0.350020  0.344471  1
  Ho  Ho7  1  0.350020  0.350020  0.955489  1
  Ho  Ho8  1  0.352813  0.952893  0.347147  1
  Ho  Ho9  1  0.952893  0.352813  0.347147  1
  Ho  Ho10  1  0.809633  0.187084  0.190334  1
  Ho  Ho11  1  0.187084  0.809633  0.812950  1
  Ho  Ho12  1  0.187084  0.809633  0.190334  1
  Ho  Ho13  1  0.809633  0.187084  0.812950  1
  Ho  Ho14  1  0.188888  0.188888  0.811112  1
  Ho  Ho15  1  0.811576  0.811576  0.188424  1
  Cd  Cd16  1  0.579761  0.579761  0.582602  1
  Cd  Cd17  1  0.579761  0.579761  0.257875  1
  Cd  Cd18  1  0.579989  0.256362  0.581824  1
  Cd  Cd19  1  0.256362  0.579989  0.581824  1
  Ni  Ni20  1  0.141579  0.575110  0.141655  1
  Ni  Ni21  1  0.575110  0.141579  0.141655  1
  Ir  Ir22  1  0.142927  0.142927  0.141184  1
  Ir  Ir23  1  0.142927  0.142927  0.572962  1
