# generated using pymatgen
data_Zr10FeSiPb6
_symmetry_space_group_name_H-M   'P 1'
_cell_length_a   8.84135300
_cell_length_b   8.84135299
_cell_length_c   5.94336300
_cell_angle_alpha   90.00000000
_cell_angle_beta   90.00000000
_cell_angle_gamma   120.00000378
_symmetry_Int_Tables_number   1
_chemical_formula_structural   Zr10FeSiPb6
_chemical_formula_sum   'Zr10 Fe1 Si1 Pb6'
_cell_volume   402.34659654
_cell_formula_units_Z   1
loop_
 _symmetry_equiv_pos_site_id
 _symmetry_equiv_pos_as_xyz
  1  'x, y, z'
loop_
 _atom_site_type_symbol
 _atom_site_label
 _atom_site_symmetry_multiplicity
 _atom_site_fract_x
 _atom_site_fract_y
 _atom_site_fract_z
 _atom_site_occupancy
  Zr  Zr0  1  0.666667  0.333333  0.500000  1
  Zr  Zr1  1  0.333333  0.666667  0.500000  1
  Zr  Zr2  1  0.333333  0.666667  0.000000  1
  Zr  Zr3  1  0.666667  0.333333  0.000000  1
  Zr  Zr4  1  0.751529  0.751529  0.257990  1
  Zr  Zr5  1  0.248471  0.000000  0.257990  1
  Zr  Zr6  1  0.000000  0.248471  0.257990  1
  Zr  Zr7  1  0.248471  0.248471  0.742010  1
  Zr  Zr8  1  0.751529  0.000000  0.742010  1
  Zr  Zr9  1  0.000000  0.751529  0.742010  1
  Fe  Fe10  1  0.000000  0.000000  0.500000  1
  Si  Si11  1  0.000000  0.000000  0.000000  1
  Pb  Pb12  1  0.393105  0.393105  0.247973  1
  Pb  Pb13  1  0.606895  0.000000  0.247973  1
  Pb  Pb14  1  0.000000  0.606895  0.247973  1
  Pb  Pb15  1  0.606895  0.606895  0.752027  1
  Pb  Pb16  1  0.393105  0.000000  0.752027  1
  Pb  Pb17  1  0.000000  0.393105  0.752027  1
