# generated using pymatgen
data_Dy2Tm3Co15(TcP3)4
_symmetry_space_group_name_H-M   'P 1'
_cell_length_a   12.06830000
_cell_length_b   12.04828125
_cell_length_c   3.71106100
_cell_angle_alpha   90.00000000
_cell_angle_beta   90.00000000
_cell_angle_gamma   119.76221144
_symmetry_Int_Tables_number   1
_chemical_formula_structural   Dy2Tm3Co15(TcP3)4
_chemical_formula_sum   'Dy2 Tm3 Co15 Tc4 P12'
_cell_volume   468.42014063
_cell_formula_units_Z   1
loop_
 _symmetry_equiv_pos_site_id
 _symmetry_equiv_pos_as_xyz
  1  'x, y, z'
loop_
 _atom_site_type_symbol
 _atom_site_label
 _atom_site_symmetry_multiplicity
 _atom_site_fract_x
 _atom_site_fract_y
 _atom_site_fract_z
 _atom_site_occupancy
  Dy  Dy0  1  0.666784  0.336794  0.000000  1
  Dy  Dy1  1  0.332575  0.666267  0.000000  1
  Tm  Tm2  1  0.185194  0.185011  0.500000  1
  Tm  Tm3  1  0.818051  0.999949  0.500000  1
  Tm  Tm4  1  0.999443  0.815924  0.500000  1
  Co  Co5  1  0.832126  0.200742  0.000000  1
  Co  Co6  1  0.803016  0.626330  0.000000  1
  Co  Co7  1  0.371846  0.176656  0.000000  1
  Co  Co8  1  0.192793  0.820898  0.000000  1
  Co  Co9  1  0.625812  0.802466  0.000000  1
  Co  Co10  1  0.179652  0.375190  0.000000  1
  Co  Co11  1  0.876642  0.522669  0.500000  1
  Co  Co12  1  0.480090  0.355827  0.500000  1
  Co  Co13  1  0.126758  0.645058  0.500000  1
  Co  Co14  1  0.513446  0.866663  0.500000  1
  Co  Co15  1  0.355469  0.481325  0.500000  1
  Co  Co16  1  0.717995  0.718458  0.500000  1
  Co  Co17  1  0.278024  0.999119  0.500000  1
  Co  Co18  1  0.004911  0.283897  0.500000  1
  Co  Co19  1  0.998648  0.999258  0.000000  1
  Tc  Tc20  1  0.553134  0.553099  0.000000  1
  Tc  Tc21  1  0.438647  0.992200  0.000000  1
  Tc  Tc22  1  0.003159  0.449030  0.000000  1
  Tc  Tc23  1  0.646922  0.125378  0.500000  1
  P  P24  1  0.361380  0.361362  0.000000  1
  P  P25  1  0.635724  0.995788  0.000000  1
  P  P26  1  0.999545  0.639440  0.000000  1
  P  P27  1  0.841825  0.320803  0.500000  1
  P  P28  1  0.685142  0.521151  0.500000  1
  P  P29  1  0.475544  0.164022  0.500000  1
  P  P30  1  0.313217  0.835009  0.500000  1
  P  P31  1  0.519920  0.683297  0.500000  1
  P  P32  1  0.165919  0.480448  0.500000  1
  P  P33  1  0.822006  0.822236  0.000000  1
  P  P34  1  0.175788  0.999613  0.000000  1
  P  P35  1  0.002855  0.178619  0.000000  1
