# generated using pymatgen
data_Ca9ErSi6F
_symmetry_space_group_name_H-M   'P 1'
_cell_length_a   9.05852528
_cell_length_b   9.03846829
_cell_length_c   9.05474744
_cell_angle_alpha   130.15686791
_cell_angle_beta   130.21561812
_cell_angle_gamma   73.05622390
_symmetry_Int_Tables_number   1
_chemical_formula_structural   Ca9ErSi6F
_chemical_formula_sum   'Ca9 Er1 Si6 F1'
_cell_volume   422.64101511
_cell_formula_units_Z   1
loop_
 _symmetry_equiv_pos_site_id
 _symmetry_equiv_pos_as_xyz
  1  'x, y, z'
loop_
 _atom_site_type_symbol
 _atom_site_label
 _atom_site_symmetry_multiplicity
 _atom_site_fract_x
 _atom_site_fract_y
 _atom_site_fract_z
 _atom_site_occupancy
  Ca  Ca0  1  0.432742  0.774065  0.000005  1
  Ca  Ca1  1  0.930482  0.931785  0.644285  1
  Ca  Ca2  1  0.286203  0.287507  0.355721  1
  Ca  Ca3  1  0.711351  0.066157  0.999999  1
  Ca  Ca4  1  0.067458  0.712677  0.999997  1
  Ca  Ca5  1  0.565830  0.565210  0.336973  1
  Ca  Ca6  1  0.228853  0.228228  0.663019  1
  Ca  Ca7  1  0.251936  0.751510  0.503883  1
  Ca  Ca8  1  0.748052  0.247624  0.496114  1
  Er  Er9  1  0.776326  0.435693  0.999999  1
  Si  Si10  1  0.993593  0.496996  0.483932  1
  Si  Si11  1  0.509662  0.013064  0.516070  1
  Si  Si12  1  0.127303  0.364719  0.000000  1
  Si  Si13  1  0.357272  0.135782  0.000000  1
  Si  Si14  1  0.865617  0.857706  0.225915  1
  Si  Si15  1  0.639704  0.631794  0.774088  1
  F  F16  1  0.507614  0.499482  0.000000  1
