# generated using pymatgen
data_FeSbP6(WO12)2
_symmetry_space_group_name_H-M   'P 1'
_cell_length_a   8.73451260
_cell_length_b   8.73451289
_cell_length_c   8.90563966
_cell_angle_alpha   60.63364349
_cell_angle_beta   60.63363926
_cell_angle_gamma   59.99999807
_symmetry_Int_Tables_number   1
_chemical_formula_structural   FeSbP6(WO12)2
_chemical_formula_sum   'Fe1 Sb1 P6 W2 O24'
_cell_volume   484.97706601
_cell_formula_units_Z   1
loop_
 _symmetry_equiv_pos_site_id
 _symmetry_equiv_pos_as_xyz
  1  'x, y, z'
loop_
 _atom_site_type_symbol
 _atom_site_label
 _atom_site_symmetry_multiplicity
 _atom_site_fract_x
 _atom_site_fract_y
 _atom_site_fract_z
 _atom_site_occupancy
  Fe  Fe0  1  0.859540  0.859540  0.421380  1
  Sb  Sb1  1  0.643458  0.643458  0.069625  1
  P  P2  1  0.752313  0.032476  0.745980  1
  P  P3  1  0.032476  0.469231  0.745980  1
  P  P4  1  0.469231  0.752313  0.745980  1
  P  P5  1  0.541280  0.252511  0.249310  1
  P  P6  1  0.956899  0.541280  0.249310  1
  P  P7  1  0.252511  0.956899  0.249310  1
  W  W8  1  0.143788  0.143788  0.568637  1
  W  W9  1  0.356843  0.356843  0.929471  1
  O  O10  1  0.295905  0.123780  0.076490  1
  O  O11  1  0.503826  0.295905  0.076490  1
  O  O12  1  0.922946  0.062524  0.726264  1
  O  O13  1  0.123780  0.503826  0.076490  1
  O  O14  1  0.582171  0.210597  0.776570  1
  O  O15  1  0.772100  0.006414  0.582341  1
  O  O16  1  0.062524  0.288266  0.726264  1
  O  O17  1  0.210597  0.430661  0.776570  1
  O  O18  1  0.430661  0.582171  0.776570  1
  O  O19  1  0.366690  0.223728  0.419340  1
  O  O20  1  0.714734  0.084985  0.264283  1
  O  O21  1  0.990242  0.366690  0.419340  1
  O  O22  1  0.006414  0.639145  0.582341  1
  O  O23  1  0.288266  0.922946  0.726264  1
  O  O24  1  0.639145  0.772100  0.582341  1
  O  O25  1  0.550683  0.431698  0.237612  1
  O  O26  1  0.780007  0.550683  0.237612  1
  O  O27  1  0.935997  0.714734  0.264283  1
  O  O28  1  0.223728  0.990242  0.419340  1
  O  O29  1  0.431698  0.780007  0.237612  1
  O  O30  1  0.861281  0.481175  0.925439  1
  O  O31  1  0.084985  0.935997  0.264283  1
  O  O32  1  0.481175  0.732105  0.925439  1
  O  O33  1  0.732105  0.861281  0.925439  1
