# generated using pymatgen
data_Ac17Nd3Sn16
_symmetry_space_group_name_H-M   'P 1'
_cell_length_a   8.75261087
_cell_length_b   8.85943442
_cell_length_c   16.94116500
_cell_angle_alpha   90.00000000
_cell_angle_beta   90.00000000
_cell_angle_gamma   89.70518331
_symmetry_Int_Tables_number   1
_chemical_formula_structural   Ac17Nd3Sn16
_chemical_formula_sum   'Ac17 Nd3 Sn16'
_cell_volume   1313.65445028
_cell_formula_units_Z   1
loop_
 _symmetry_equiv_pos_site_id
 _symmetry_equiv_pos_as_xyz
  1  'x, y, z'
loop_
 _atom_site_type_symbol
 _atom_site_label
 _atom_site_symmetry_multiplicity
 _atom_site_fract_x
 _atom_site_fract_y
 _atom_site_fract_z
 _atom_site_occupancy
  Ac  Ac0  1  0.018473  0.179708  0.401775  1
  Ac  Ac1  1  0.370176  0.841475  0.117941  1
  Ac  Ac2  1  0.130510  0.341476  0.620065  1
  Ac  Ac3  1  0.480120  0.680558  0.899709  1
  Ac  Ac4  1  0.869200  0.658717  0.117417  1
  Ac  Ac5  1  0.130510  0.341476  0.879935  1
  Ac  Ac6  1  0.200520  0.501057  0.250000  1
  Ac  Ac7  1  0.480120  0.680558  0.600291  1
  Ac  Ac8  1  0.630677  0.158943  0.619894  1
  Ac  Ac9  1  0.869200  0.658717  0.382583  1
  Ac  Ac10  1  0.018473  0.179708  0.098225  1
  Ac  Ac11  1  0.981120  0.817982  0.900261  1
  Ac  Ac12  1  0.630677  0.158943  0.880106  1
  Ac  Ac13  1  0.520094  0.318145  0.098217  1
  Ac  Ac14  1  0.370176  0.841475  0.382059  1
  Ac  Ac15  1  0.981120  0.817982  0.599739  1
  Ac  Ac16  1  0.520094  0.318145  0.401783  1
  Nd  Nd17  1  0.703179  0.000251  0.250000  1
  Nd  Nd18  1  0.295452  0.997708  0.750000  1
  Nd  Nd19  1  0.795730  0.501616  0.750000  1
  Sn  Sn20  1  0.788223  0.466283  0.546341  1
  Sn  Sn21  1  0.711198  0.967733  0.454055  1
  Sn  Sn22  1  0.677198  0.854170  0.750000  1
  Sn  Sn23  1  0.211808  0.535603  0.457376  1
  Sn  Sn24  1  0.288985  0.032991  0.953503  1
  Sn  Sn25  1  0.815204  0.351850  0.250000  1
  Sn  Sn26  1  0.788223  0.466283  0.953659  1
  Sn  Sn27  1  0.574318  0.617358  0.250000  1
  Sn  Sn28  1  0.211808  0.535603  0.042624  1
  Sn  Sn29  1  0.433285  0.385602  0.750000  1
  Sn  Sn30  1  0.178085  0.646607  0.750000  1
  Sn  Sn31  1  0.933914  0.113745  0.750000  1
  Sn  Sn32  1  0.288985  0.032991  0.546497  1
  Sn  Sn33  1  0.711198  0.967733  0.045945  1
  Sn  Sn34  1  0.327709  0.138591  0.250000  1
  Sn  Sn35  1  0.064238  0.892214  0.250000  1
