# generated using pymatgen
data_Lu4B12RuW
_symmetry_space_group_name_H-M   'P 1'
_cell_length_a   3.56732100
_cell_length_b   9.11204969
_cell_length_c   11.49902409
_cell_angle_alpha   89.78669514
_cell_angle_beta   90.00000000
_cell_angle_gamma   90.00000000
_symmetry_Int_Tables_number   1
_chemical_formula_structural   Lu4B12RuW
_chemical_formula_sum   'Lu8 B24 Ru2 W2'
_cell_volume   373.78015868
_cell_formula_units_Z   2
loop_
 _symmetry_equiv_pos_site_id
 _symmetry_equiv_pos_as_xyz
  1  'x, y, z'
loop_
 _atom_site_type_symbol
 _atom_site_label
 _atom_site_symmetry_multiplicity
 _atom_site_fract_x
 _atom_site_fract_y
 _atom_site_fract_z
 _atom_site_occupancy
  Lu  Lu0  1  0.000000  0.321384  0.414217  1
  Lu  Lu1  1  0.000000  0.678616  0.585783  1
  Lu  Lu2  1  0.000000  0.820896  0.086453  1
  Lu  Lu3  1  0.000000  0.179104  0.913547  1
  Lu  Lu4  1  0.000000  0.945579  0.371691  1
  Lu  Lu5  1  0.000000  0.054421  0.628309  1
  Lu  Lu6  1  0.000000  0.442033  0.127129  1
  Lu  Lu7  1  0.000000  0.557967  0.872871  1
  B  B8  1  0.500000  0.550971  0.434995  1
  B  B9  1  0.500000  0.449029  0.565005  1
  B  B10  1  0.500000  0.053680  0.066070  1
  B  B11  1  0.500000  0.946320  0.933930  1
  B  B12  1  0.500000  0.752181  0.422534  1
  B  B13  1  0.500000  0.247819  0.577466  1
  B  B14  1  0.500000  0.248967  0.080004  1
  B  B15  1  0.500000  0.751033  0.919996  1
  B  B16  1  0.500000  0.797059  0.262843  1
  B  B17  1  0.500000  0.202941  0.737157  1
  B  B18  1  0.500000  0.290620  0.233899  1
  B  B19  1  0.500000  0.709380  0.766101  1
  B  B20  1  0.500000  0.631700  0.181025  1
  B  B21  1  0.500000  0.368300  0.818975  1
  B  B22  1  0.500000  0.130545  0.314407  1
  B  B23  1  0.500000  0.869455  0.685593  1
  B  B24  1  0.500000  0.982761  0.211883  1
  B  B25  1  0.500000  0.017239  0.788117  1
  B  B26  1  0.500000  0.475976  0.286453  1
  B  B27  1  0.500000  0.524024  0.713547  1
  B  B28  1  0.500000  0.603931  0.027650  1
  B  B29  1  0.500000  0.396069  0.972350  1
  B  B30  1  0.500000  0.102947  0.470505  1
  B  B31  1  0.500000  0.897053  0.529495  1
  Ru  Ru32  1  0.000000  0.137980  0.178489  1
  Ru  Ru33  1  0.000000  0.862020  0.821511  1
  W  W34  1  0.000000  0.638681  0.319579  1
  W  W35  1  0.000000  0.361319  0.680421  1
