# generated using pymatgen
data_Tb8Dy2(GaSb)3
_symmetry_space_group_name_H-M   'P 1'
_cell_length_a   8.82175300
_cell_length_b   8.81657685
_cell_length_c   6.51003150
_cell_angle_alpha   89.96116406
_cell_angle_beta   90.00000000
_cell_angle_gamma   120.01941151
_symmetry_Int_Tables_number   1
_chemical_formula_structural   Tb8Dy2(GaSb)3
_chemical_formula_sum   'Tb8 Dy2 Ga3 Sb3'
_cell_volume   438.41307434
_cell_formula_units_Z   1
loop_
 _symmetry_equiv_pos_site_id
 _symmetry_equiv_pos_as_xyz
  1  'x, y, z'
loop_
 _atom_site_type_symbol
 _atom_site_label
 _atom_site_symmetry_multiplicity
 _atom_site_fract_x
 _atom_site_fract_y
 _atom_site_fract_z
 _atom_site_occupancy
  Tb  Tb0  1  0.010780  0.767631  0.749900  1
  Tb  Tb1  1  0.012976  0.249482  0.250062  1
  Tb  Tb2  1  0.763494  0.750518  0.249938  1
  Tb  Tb3  1  0.754740  0.000000  0.750000  1
  Tb  Tb4  1  0.243150  0.232369  0.750100  1
  Tb  Tb5  1  0.236289  0.000000  0.250000  1
  Tb  Tb6  1  0.660427  0.333154  0.497587  1
  Tb  Tb7  1  0.327270  0.666846  0.002413  1
  Dy  Dy8  1  0.327175  0.666846  0.497651  1
  Dy  Dy9  1  0.660331  0.333154  0.002349  1
  Ga  Ga10  1  0.397746  0.000000  0.750000  1
  Ga  Ga11  1  0.395545  0.396647  0.249877  1
  Ga  Ga12  1  0.998898  0.603353  0.250123  1
  Sb  Sb13  1  0.997326  0.392855  0.749964  1
  Sb  Sb14  1  0.604470  0.607145  0.750036  1
  Sb  Sb15  1  0.609382  0.000000  0.250000  1
