# generated using pymatgen
data_Rb8Li4LuIn3As8
_symmetry_space_group_name_H-M   'P 1'
_cell_length_a   10.55355536
_cell_length_b   10.55355575
_cell_length_c   6.61305304
_cell_angle_alpha   89.86973150
_cell_angle_beta   90.13026630
_cell_angle_gamma   102.49478499
_symmetry_Int_Tables_number   1
_chemical_formula_structural   Rb8Li4LuIn3As8
_chemical_formula_sum   'Rb8 Li4 Lu1 In3 As8'
_cell_volume   719.09792601
_cell_formula_units_Z   1
loop_
 _symmetry_equiv_pos_site_id
 _symmetry_equiv_pos_as_xyz
  1  'x, y, z'
loop_
 _atom_site_type_symbol
 _atom_site_label
 _atom_site_symmetry_multiplicity
 _atom_site_fract_x
 _atom_site_fract_y
 _atom_site_fract_z
 _atom_site_occupancy
  Rb  Rb0  1  0.574451  0.925840  0.751039  1
  Rb  Rb1  1  0.925840  0.574451  0.248961  1
  Rb  Rb2  1  0.423520  0.068833  0.244424  1
  Rb  Rb3  1  0.068833  0.423520  0.755576  1
  Rb  Rb4  1  0.678303  0.327738  0.783014  1
  Rb  Rb5  1  0.828166  0.172430  0.275430  1
  Rb  Rb6  1  0.327738  0.678303  0.216986  1
  Rb  Rb7  1  0.172430  0.828166  0.724570  1
  Li  Li8  1  0.621671  0.621671  0.000000  1
  Li  Li9  1  0.878979  0.878979  0.500000  1
  Li  Li10  1  0.378825  0.378825  0.000000  1
  Li  Li11  1  0.118509  0.118509  0.500000  1
  Lu  Lu12  1  0.373721  0.373721  0.500000  1
  In  In13  1  0.867289  0.867289  0.000000  1
  In  In14  1  0.630368  0.630368  0.500000  1
  In  In15  1  0.130776  0.130776  0.000000  1
  As  As16  1  0.343448  0.158033  0.749244  1
  As  As17  1  0.158033  0.343448  0.250756  1
  As  As18  1  0.655076  0.844216  0.252062  1
  As  As19  1  0.844216  0.655076  0.747938  1
  As  As20  1  0.907112  0.090547  0.771865  1
  As  As21  1  0.594436  0.407713  0.268092  1
  As  As22  1  0.090547  0.907112  0.228135  1
  As  As23  1  0.407713  0.594436  0.731908  1
