# generated using pymatgen
data_Mn3Ga2GeRh6
_symmetry_space_group_name_H-M   'P 1'
_cell_length_a   4.30547500
_cell_length_b   6.06768400
_cell_length_c   12.90251200
_cell_angle_alpha   90.00000000
_cell_angle_beta   89.99938752
_cell_angle_gamma   90.00000000
_symmetry_Int_Tables_number   1
_chemical_formula_structural   Mn3Ga2GeRh6
_chemical_formula_sum   'Mn6 Ga4 Ge2 Rh12'
_cell_volume   337.06860097
_cell_formula_units_Z   2
loop_
 _symmetry_equiv_pos_site_id
 _symmetry_equiv_pos_as_xyz
  1  'x, y, z'
loop_
 _atom_site_type_symbol
 _atom_site_label
 _atom_site_symmetry_multiplicity
 _atom_site_fract_x
 _atom_site_fract_y
 _atom_site_fract_z
 _atom_site_occupancy
  Mn  Mn0  1  0.000000  0.500000  0.998255  1
  Mn  Mn1  1  0.499783  0.000000  0.168413  1
  Mn  Mn2  1  0.999782  0.500000  0.335346  1
  Mn  Mn3  1  0.500000  0.000000  0.500251  1
  Mn  Mn4  1  0.000218  0.500000  0.666418  1
  Mn  Mn5  1  0.500217  0.000000  0.831317  1
  Ga  Ga6  1  0.999766  0.000000  0.334510  1
  Ga  Ga7  1  0.499998  0.500000  0.500486  1
  Ga  Ga8  1  0.000230  0.000000  0.666177  1
  Ga  Ga9  1  0.500231  0.500000  0.832164  1
  Ge  Ge10  1  0.999997  0.000000  0.998852  1
  Ge  Ge11  1  0.499768  0.500000  0.167810  1
  Rh  Rh12  1  0.499996  0.248076  0.001533  1
  Rh  Rh13  1  0.499996  0.751924  0.001533  1
  Rh  Rh14  1  0.999794  0.251914  0.165135  1
  Rh  Rh15  1  0.999794  0.748086  0.165135  1
  Rh  Rh16  1  0.499786  0.250466  0.331467  1
  Rh  Rh17  1  0.499786  0.749534  0.331467  1
  Rh  Rh18  1  0.000000  0.250961  0.499663  1
  Rh  Rh19  1  0.000000  0.749039  0.499663  1
  Rh  Rh20  1  0.500215  0.249048  0.667004  1
  Rh  Rh21  1  0.500215  0.750952  0.667004  1
  Rh  Rh22  1  0.000212  0.249535  0.835198  1
  Rh  Rh23  1  0.000212  0.750465  0.835198  1
