# generated using pymatgen
data_NdTh3Al17GaIr6
_symmetry_space_group_name_H-M   'P 1'
_cell_length_a   7.65324828
_cell_length_b   7.65447982
_cell_length_c   9.55016600
_cell_angle_alpha   90.00000000
_cell_angle_beta   90.00000000
_cell_angle_gamma   119.41178118
_symmetry_Int_Tables_number   1
_chemical_formula_structural   NdTh3Al17GaIr6
_chemical_formula_sum   'Nd1 Th3 Al17 Ga1 Ir6'
_cell_volume   487.35657248
_cell_formula_units_Z   1
loop_
 _symmetry_equiv_pos_site_id
 _symmetry_equiv_pos_as_xyz
  1  'x, y, z'
loop_
 _atom_site_type_symbol
 _atom_site_label
 _atom_site_symmetry_multiplicity
 _atom_site_fract_x
 _atom_site_fract_y
 _atom_site_fract_z
 _atom_site_occupancy
  Nd  Nd0  1  0.327174  0.006283  0.750000  1
  Th  Th1  1  0.995101  0.671655  0.250000  1
  Th  Th2  1  0.004592  0.326841  0.750000  1
  Th  Th3  1  0.671154  0.994789  0.250000  1
  Al  Al4  1  0.135513  0.134077  0.250000  1
  Al  Al5  1  0.005579  0.336245  0.074308  1
  Al  Al6  1  0.998205  0.666899  0.924851  1
  Al  Al7  1  0.998205  0.666899  0.575149  1
  Al  Al8  1  0.335789  0.004655  0.428940  1
  Al  Al9  1  0.005579  0.336245  0.425692  1
  Al  Al10  1  0.660899  0.995318  0.574981  1
  Al  Al11  1  0.660899  0.995318  0.925019  1
  Al  Al12  1  0.335789  0.004655  0.071060  1
  Al  Al13  1  0.336589  0.334561  0.549708  1
  Al  Al14  1  0.663207  0.663160  0.451906  1
  Al  Al15  1  0.663207  0.663160  0.048094  1
  Al  Al16  1  0.336589  0.334561  0.950292  1
  Al  Al17  1  0.341263  0.544709  0.250000  1
  Al  Al18  1  0.659980  0.451745  0.750000  1
  Al  Al19  1  0.544811  0.339658  0.250000  1
  Al  Al20  1  0.452733  0.661330  0.750000  1
  Ga  Ga21  1  0.865189  0.864607  0.750000  1
  Ir  Ir22  1  0.674622  0.329857  0.001131  1
  Ir  Ir23  1  0.328221  0.671326  0.001178  1
  Ir  Ir24  1  0.328221  0.671326  0.498822  1
  Ir  Ir25  1  0.674622  0.329857  0.498869  1
  Ir  Ir26  1  0.998135  0.000132  0.004339  1
  Ir  Ir27  1  0.998135  0.000132  0.495661  1
