# generated using pymatgen
data_Mg3Ga7Rh2
_symmetry_space_group_name_H-M   'P 1'
_cell_length_a   6.63478159
_cell_length_b   6.63478071
_cell_length_c   9.78983294
_cell_angle_alpha   88.12927173
_cell_angle_beta   88.12927242
_cell_angle_gamma   91.76378211
_symmetry_Int_Tables_number   1
_chemical_formula_structural   Mg3Ga7Rh2
_chemical_formula_sum   'Mg6 Ga14 Rh4'
_cell_volume   430.27353840
_cell_formula_units_Z   2
loop_
 _symmetry_equiv_pos_site_id
 _symmetry_equiv_pos_as_xyz
  1  'x, y, z'
loop_
 _atom_site_type_symbol
 _atom_site_label
 _atom_site_symmetry_multiplicity
 _atom_site_fract_x
 _atom_site_fract_y
 _atom_site_fract_z
 _atom_site_occupancy
  Mg  Mg0  1  0.639752  0.743111  0.697119  1
  Mg  Mg1  1  0.147595  0.852405  0.750000  1
  Mg  Mg2  1  0.256889  0.360248  0.802881  1
  Mg  Mg3  1  0.852405  0.147595  0.250000  1
  Mg  Mg4  1  0.743111  0.639752  0.197119  1
  Mg  Mg5  1  0.360248  0.256889  0.302881  1
  Ga  Ga6  1  0.774077  0.225923  0.750000  1
  Ga  Ga7  1  0.685403  0.435104  0.480991  1
  Ga  Ga8  1  0.888349  0.559015  0.902925  1
  Ga  Ga9  1  0.559015  0.888349  0.402925  1
  Ga  Ga10  1  0.435104  0.685403  0.980991  1
  Ga  Ga11  1  0.816505  0.941697  0.974635  1
  Ga  Ga12  1  0.058303  0.183495  0.525365  1
  Ga  Ga13  1  0.440985  0.111651  0.597075  1
  Ga  Ga14  1  0.111651  0.440985  0.097075  1
  Ga  Ga15  1  0.941697  0.816505  0.474635  1
  Ga  Ga16  1  0.183495  0.058303  0.025365  1
  Ga  Ga17  1  0.314597  0.564896  0.519009  1
  Ga  Ga18  1  0.564896  0.314597  0.019009  1
  Ga  Ga19  1  0.225923  0.774077  0.250000  1
  Rh  Rh20  1  0.029511  0.480715  0.350932  1
  Rh  Rh21  1  0.519285  0.970489  0.149068  1
  Rh  Rh22  1  0.970489  0.519285  0.649068  1
  Rh  Rh23  1  0.480715  0.029511  0.850932  1
