# generated using pymatgen
data_Ac2GaCo2Si
_symmetry_space_group_name_H-M   'P 1'
_cell_length_a   4.19099900
_cell_length_b   4.19099900
_cell_length_c   7.72901500
_cell_angle_alpha   90.00000000
_cell_angle_beta   90.00000000
_cell_angle_gamma   90.00000000
_symmetry_Int_Tables_number   1
_chemical_formula_structural   Ac2GaCo2Si
_chemical_formula_sum   'Ac2 Ga1 Co2 Si1'
_cell_volume   135.75607233
_cell_formula_units_Z   1
loop_
 _symmetry_equiv_pos_site_id
 _symmetry_equiv_pos_as_xyz
  1  'x, y, z'
loop_
 _atom_site_type_symbol
 _atom_site_label
 _atom_site_symmetry_multiplicity
 _atom_site_fract_x
 _atom_site_fract_y
 _atom_site_fract_z
 _atom_site_occupancy
  Ac  Ac0  1  0.000000  0.500000  0.303510  1
  Ac  Ac1  1  0.500000  0.000000  0.693534  1
  Ga  Ga2  1  0.000000  0.500000  0.846496  1
  Co  Co3  1  0.000000  0.000000  0.007827  1
  Co  Co4  1  0.500000  0.500000  0.007827  1
  Si  Si5  1  0.500000  0.000000  0.140805  1
