# generated using pymatgen
data_TmU5(Cu3Sb4)2
_symmetry_space_group_name_H-M   'P 1'
_cell_length_a   8.25635570
_cell_length_b   8.25635623
_cell_length_c   8.25635608
_cell_angle_alpha   109.82580543
_cell_angle_beta   108.76436357
_cell_angle_gamma   109.82580333
_symmetry_Int_Tables_number   1
_chemical_formula_structural   TmU5(Cu3Sb4)2
_chemical_formula_sum   'Tm1 U5 Cu6 Sb8'
_cell_volume   433.20534075
_cell_formula_units_Z   1
loop_
 _symmetry_equiv_pos_site_id
 _symmetry_equiv_pos_as_xyz
  1  'x, y, z'
loop_
 _atom_site_type_symbol
 _atom_site_label
 _atom_site_symmetry_multiplicity
 _atom_site_fract_x
 _atom_site_fract_y
 _atom_site_fract_z
 _atom_site_occupancy
  Tm  Tm0  1  0.875000  0.250000  0.125000  1
  U  U1  1  0.625000  0.750000  0.375000  1
  U  U2  1  0.251279  0.126141  0.877830  1
  U  U3  1  0.751688  0.373859  0.625137  1
  U  U4  1  0.122170  0.873449  0.248312  1
  U  U5  1  0.374863  0.626551  0.748721  1
  Cu  Cu6  1  0.375000  0.250000  0.625000  1
  Cu  Cu7  1  0.125000  0.750000  0.875000  1
  Cu  Cu8  1  0.245661  0.621241  0.371734  1
  Cu  Cu9  1  0.750493  0.878759  0.124420  1
  Cu  Cu10  1  0.628266  0.373927  0.249507  1
  Cu  Cu11  1  0.875580  0.126073  0.754339  1
  Sb  Sb12  1  0.670209  0.500974  0.001388  1
  Sb  Sb13  1  0.500414  0.999026  0.669235  1
  Sb  Sb14  1  0.998242  0.668295  0.498170  1
  Sb  Sb15  1  0.829875  0.831705  0.829947  1
  Sb  Sb16  1  0.501830  0.000072  0.170125  1
  Sb  Sb17  1  0.170053  0.499928  0.001758  1
  Sb  Sb18  1  0.998612  0.168821  0.499586  1
  Sb  Sb19  1  0.330765  0.331179  0.329791  1
