# generated using pymatgen
data_Sc3Sn3HgRu2
_symmetry_space_group_name_H-M   'P 1'
_cell_length_a   7.80549500
_cell_length_b   7.80549429
_cell_length_c   6.84998300
_cell_angle_alpha   90.00000000
_cell_angle_beta   90.00000000
_cell_angle_gamma   119.99999031
_symmetry_Int_Tables_number   1
_chemical_formula_structural   Sc3Sn3HgRu2
_chemical_formula_sum   'Sc6 Sn6 Hg2 Ru4'
_cell_volume   361.42736186
_cell_formula_units_Z   2
loop_
 _symmetry_equiv_pos_site_id
 _symmetry_equiv_pos_as_xyz
  1  'x, y, z'
loop_
 _atom_site_type_symbol
 _atom_site_label
 _atom_site_symmetry_multiplicity
 _atom_site_fract_x
 _atom_site_fract_y
 _atom_site_fract_z
 _atom_site_occupancy
  Sc  Sc0  1  0.373479  0.969065  0.250000  1
  Sc  Sc1  1  0.595586  0.626521  0.250000  1
  Sc  Sc2  1  0.030935  0.404414  0.250000  1
  Sc  Sc3  1  0.372152  0.967543  0.750000  1
  Sc  Sc4  1  0.595391  0.627848  0.750000  1
  Sc  Sc5  1  0.032457  0.404609  0.750000  1
  Sn  Sn6  1  0.726527  0.997921  0.000234  1
  Sn  Sn7  1  0.271395  0.273473  0.499766  1
  Sn  Sn8  1  0.002079  0.728605  0.499766  1
  Sn  Sn9  1  0.002079  0.728605  0.000234  1
  Sn  Sn10  1  0.271395  0.273473  0.000234  1
  Sn  Sn11  1  0.726527  0.997921  0.499766  1
  Hg  Hg12  1  0.666667  0.333333  0.995884  1
  Hg  Hg13  1  0.666667  0.333333  0.504116  1
  Ru  Ru14  1  0.333333  0.666667  0.000840  1
  Ru  Ru15  1  0.333333  0.666667  0.499160  1
  Ru  Ru16  1  0.000000  0.000000  0.250000  1
  Ru  Ru17  1  0.000000  0.000000  0.750000  1
