# generated using pymatgen
data_ZrSc3(SiMo)4
_symmetry_space_group_name_H-M   'P 1'
_cell_length_a   3.52990100
_cell_length_b   7.02812211
_cell_length_c   8.21953542
_cell_angle_alpha   90.22165446
_cell_angle_beta   90.00000000
_cell_angle_gamma   90.00000000
_symmetry_Int_Tables_number   1
_chemical_formula_structural   ZrSc3(SiMo)4
_chemical_formula_sum   'Zr1 Sc3 Si4 Mo4'
_cell_volume   203.91343723
_cell_formula_units_Z   1
loop_
 _symmetry_equiv_pos_site_id
 _symmetry_equiv_pos_as_xyz
  1  'x, y, z'
loop_
 _atom_site_type_symbol
 _atom_site_label
 _atom_site_symmetry_multiplicity
 _atom_site_fract_x
 _atom_site_fract_y
 _atom_site_fract_z
 _atom_site_occupancy
  Zr  Zr0  1  0.750000  0.457419  0.833477  1
  Sc  Sc1  1  0.250000  0.043229  0.333069  1
  Sc  Sc2  1  0.250000  0.542344  0.166149  1
  Sc  Sc3  1  0.750000  0.956250  0.666371  1
  Si  Si4  1  0.250000  0.255798  0.636360  1
  Si  Si5  1  0.250000  0.758305  0.863122  1
  Si  Si6  1  0.750000  0.742390  0.362074  1
  Si  Si7  1  0.750000  0.242670  0.137922  1
  Mo  Mo8  1  0.250000  0.128768  0.939522  1
  Mo  Mo9  1  0.250000  0.627750  0.560055  1
  Mo  Mo10  1  0.750000  0.872172  0.060712  1
  Mo  Mo11  1  0.750000  0.372906  0.441167  1
