# generated using pymatgen
data_Tb4Dy(Er5Bi4)3
_symmetry_space_group_name_H-M   'P 1'
_cell_length_a   8.23344219
_cell_length_b   9.48411817
_cell_length_c   11.99142904
_cell_angle_alpha   89.98954488
_cell_angle_beta   90.03537367
_cell_angle_gamma   90.00388622
_symmetry_Int_Tables_number   1
_chemical_formula_structural   Tb4Dy(Er5Bi4)3
_chemical_formula_sum   'Tb4 Dy1 Er15 Bi12'
_cell_volume   936.37378837
_cell_formula_units_Z   1
loop_
 _symmetry_equiv_pos_site_id
 _symmetry_equiv_pos_as_xyz
  1  'x, y, z'
loop_
 _atom_site_type_symbol
 _atom_site_label
 _atom_site_symmetry_multiplicity
 _atom_site_fract_x
 _atom_site_fract_y
 _atom_site_fract_z
 _atom_site_occupancy
  Tb  Tb0  1  0.192280  0.563976  0.440771  1
  Tb  Tb1  1  0.312848  0.250010  0.218374  1
  Tb  Tb2  1  0.812982  0.250014  0.281611  1
  Tb  Tb3  1  0.687251  0.750068  0.781728  1
  Dy  Dy4  1  0.187337  0.750235  0.718493  1
  Er  Er5  1  0.353413  0.750443  0.216494  1
  Er  Er6  1  0.852558  0.750357  0.283136  1
  Er  Er7  1  0.647203  0.250066  0.783365  1
  Er  Er8  1  0.147212  0.250280  0.716699  1
  Er  Er9  1  0.692477  0.565167  0.059204  1
  Er  Er10  1  0.192437  0.934826  0.440645  1
  Er  Er11  1  0.307408  0.065185  0.940793  1
  Er  Er12  1  0.807717  0.434626  0.559224  1
  Er  Er13  1  0.307544  0.434773  0.940717  1
  Er  Er14  1  0.807128  0.065119  0.559437  1
  Er  Er15  1  0.692525  0.934885  0.059166  1
  Er  Er16  1  0.476005  0.250036  0.488531  1
  Er  Er17  1  0.975794  0.250169  0.011361  1
  Er  Er18  1  0.524607  0.750160  0.511639  1
  Er  Er19  1  0.024190  0.750014  0.988418  1
  Bi  Bi20  1  0.405692  0.749954  0.958109  1
  Bi  Bi21  1  0.905610  0.750474  0.542152  1
  Bi  Bi22  1  0.594234  0.250028  0.041748  1
  Bi  Bi23  1  0.093665  0.248198  0.458526  1
  Bi  Bi24  1  0.565428  0.994906  0.325833  1
  Bi  Bi25  1  0.065223  0.505359  0.173846  1
  Bi  Bi26  1  0.434393  0.494971  0.674297  1
  Bi  Bi27  1  0.934656  0.005364  0.825863  1
  Bi  Bi28  1  0.434451  0.005279  0.674164  1
  Bi  Bi29  1  0.934542  0.494895  0.825917  1
  Bi  Bi30  1  0.565829  0.505359  0.325741  1
  Bi  Bi31  1  0.065363  0.994802  0.174001  1
