# generated using pymatgen
data_Ag2PtS6(O3F)6
_symmetry_space_group_name_H-M   'P 1'
_cell_length_a   8.81981109
_cell_length_b   8.82053300
_cell_length_c   7.99015608
_cell_angle_alpha   89.99854049
_cell_angle_beta   89.98523962
_cell_angle_gamma   120.00166457
_symmetry_Int_Tables_number   1
_chemical_formula_structural   Ag2PtS6(O3F)6
_chemical_formula_sum   'Ag2 Pt1 S6 O18 F6'
_cell_volume   538.31031386
_cell_formula_units_Z   1
loop_
 _symmetry_equiv_pos_site_id
 _symmetry_equiv_pos_as_xyz
  1  'x, y, z'
loop_
 _atom_site_type_symbol
 _atom_site_label
 _atom_site_symmetry_multiplicity
 _atom_site_fract_x
 _atom_site_fract_y
 _atom_site_fract_z
 _atom_site_occupancy
  Ag  Ag0  1  0.333299  0.666654  0.422417  1
  Ag  Ag1  1  0.666692  0.333371  0.577569  1
  Pt  Pt2  1  0.999999  0.000008  0.999996  1
  S  S3  1  0.344227  0.099419  0.239389  1
  S  S4  1  0.755141  0.655778  0.239438  1
  S  S5  1  0.900635  0.244832  0.239470  1
  S  S6  1  0.099376  0.344184  0.760521  1
  S  S7  1  0.244857  0.900616  0.760566  1
  S  S8  1  0.655770  0.755174  0.760617  1
  O  O9  1  0.206413  0.132131  0.160931  1
  O  O10  1  0.925720  0.793699  0.161111  1
  O  O11  1  0.867962  0.074292  0.161137  1
  O  O12  1  0.629974  0.709130  0.277671  1
  O  O13  1  0.290715  0.920890  0.277732  1
  O  O14  1  0.079159  0.369945  0.277650  1
  O  O15  1  0.430521  0.233942  0.363595  1
  O  O16  1  0.766140  0.196664  0.363777  1
  O  O17  1  0.803303  0.569457  0.363691  1
  O  O18  1  0.196698  0.766138  0.636312  1
  O  O19  1  0.569449  0.803377  0.636407  1
  O  O20  1  0.233875  0.430503  0.636221  1
  O  O21  1  0.920854  0.290798  0.722347  1
  O  O22  1  0.370015  0.079135  0.722329  1
  O  O23  1  0.709293  0.630166  0.722283  1
  O  O24  1  0.132038  0.206300  0.838839  1
  O  O25  1  0.074270  0.867959  0.838897  1
  O  O26  1  0.793572  0.925697  0.839063  1
  F  F27  1  0.671451  0.519852  0.089473  1
  F  F28  1  0.848450  0.328608  0.089535  1
  F  F29  1  0.480256  0.151519  0.089472  1
  F  F30  1  0.519749  0.671245  0.910543  1
  F  F31  1  0.151577  0.480131  0.910470  1
  F  F32  1  0.328554  0.848389  0.910533  1
