# generated using pymatgen
data_Tb8GePd5Pt19
_symmetry_space_group_name_H-M   'P 1'
_cell_length_a   8.36404000
_cell_length_b   8.36785300
_cell_length_c   8.40619800
_cell_angle_alpha   90.00000000
_cell_angle_beta   90.00000000
_cell_angle_gamma   90.00000000
_symmetry_Int_Tables_number   1
_chemical_formula_structural   Tb8GePd5Pt19
_chemical_formula_sum   'Tb8 Ge1 Pd5 Pt19'
_cell_volume   588.34187271
_cell_formula_units_Z   1
loop_
 _symmetry_equiv_pos_site_id
 _symmetry_equiv_pos_as_xyz
  1  'x, y, z'
loop_
 _atom_site_type_symbol
 _atom_site_label
 _atom_site_symmetry_multiplicity
 _atom_site_fract_x
 _atom_site_fract_y
 _atom_site_fract_z
 _atom_site_occupancy
  Tb  Tb0  1  0.252951  0.252707  0.253601  1
  Tb  Tb1  1  0.747002  0.747182  0.746407  1
  Tb  Tb2  1  0.747049  0.747293  0.253601  1
  Tb  Tb3  1  0.747002  0.252818  0.746407  1
  Tb  Tb4  1  0.252998  0.252818  0.746407  1
  Tb  Tb5  1  0.252951  0.747293  0.253601  1
  Tb  Tb6  1  0.252998  0.747182  0.746407  1
  Tb  Tb7  1  0.747049  0.252707  0.253601  1
  Ge  Ge8  1  0.000000  0.000000  0.000025  1
  Pd  Pd9  1  0.000000  0.500000  0.259977  1
  Pd  Pd10  1  0.000000  0.500000  0.739887  1
  Pd  Pd11  1  0.500000  0.500000  0.747018  1
  Pd  Pd12  1  0.000000  0.000000  0.290726  1
  Pd  Pd13  1  0.000000  0.000000  0.709483  1
  Pt  Pt14  1  0.259251  0.500000  0.000078  1
  Pt  Pt15  1  0.740749  0.500000  0.000078  1
  Pt  Pt16  1  0.000000  0.259828  0.500101  1
  Pt  Pt17  1  0.500000  0.260141  0.000058  1
  Pt  Pt18  1  0.000000  0.740172  0.500101  1
  Pt  Pt19  1  0.500000  0.739859  0.000058  1
  Pt  Pt20  1  0.500000  0.000000  0.259553  1
  Pt  Pt21  1  0.259078  0.000000  0.500049  1
  Pt  Pt22  1  0.500000  0.000000  0.740287  1
  Pt  Pt23  1  0.740922  0.000000  0.500049  1
  Pt  Pt24  1  0.252319  0.500000  0.499944  1
  Pt  Pt25  1  0.747681  0.500000  0.499944  1
  Pt  Pt26  1  0.500000  0.252941  0.499970  1
  Pt  Pt27  1  0.500000  0.747059  0.499970  1
  Pt  Pt28  1  0.500000  0.500000  0.252897  1
  Pt  Pt29  1  0.289572  0.000000  0.999941  1
  Pt  Pt30  1  0.710428  0.000000  0.999941  1
  Pt  Pt31  1  0.000000  0.290372  0.999916  1
  Pt  Pt32  1  0.000000  0.709628  0.999916  1
