# generated using pymatgen
data_Pr8Re(IrO8)3
_symmetry_space_group_name_H-M   'P 1'
_cell_length_a   5.48777313
_cell_length_b   9.48170843
_cell_length_c   10.25113693
_cell_angle_alpha   90.16128779
_cell_angle_beta   90.03654402
_cell_angle_gamma   89.71954611
_symmetry_Int_Tables_number   1
_chemical_formula_structural   Pr8Re(IrO8)3
_chemical_formula_sum   'Pr8 Re1 Ir3 O24'
_cell_volume   533.39356491
_cell_formula_units_Z   1
loop_
 _symmetry_equiv_pos_site_id
 _symmetry_equiv_pos_as_xyz
  1  'x, y, z'
loop_
 _atom_site_type_symbol
 _atom_site_label
 _atom_site_symmetry_multiplicity
 _atom_site_fract_x
 _atom_site_fract_y
 _atom_site_fract_z
 _atom_site_occupancy
  Pr  Pr0  1  0.033140  0.217689  0.134793  1
  Pr  Pr1  1  0.466472  0.787741  0.633827  1
  Pr  Pr2  1  0.967394  0.719743  0.362933  1
  Pr  Pr3  1  0.533968  0.275742  0.872122  1
  Pr  Pr4  1  0.024781  0.097285  0.537716  1
  Pr  Pr5  1  0.475269  0.899122  0.037858  1
  Pr  Pr6  1  0.975146  0.605877  0.967982  1
  Pr  Pr7  1  0.526620  0.395156  0.454356  1
  Re  Re8  1  0.042974  0.495458  0.645909  1
  Ir  Ir9  1  0.543578  0.003784  0.357154  1
  Ir  Ir10  1  0.956020  0.997305  0.857262  1
  Ir  Ir11  1  0.456689  0.503564  0.140767  1
  O  O12  1  0.432619  0.150328  0.480772  1
  O  O13  1  0.065263  0.852311  0.980480  1
  O  O14  1  0.564288  0.649843  0.019322  1
  O  O15  1  0.936263  0.351655  0.526821  1
  O  O16  1  0.726805  0.388074  0.062748  1
  O  O17  1  0.785953  0.606904  0.566801  1
  O  O18  1  0.275310  0.887705  0.434606  1
  O  O19  1  0.225759  0.113332  0.934164  1
  O  O20  1  0.247913  0.413221  0.003532  1
  O  O21  1  0.247381  0.585291  0.510776  1
  O  O22  1  0.751231  0.909506  0.494454  1
  O  O23  1  0.746651  0.089624  0.994147  1
  O  O24  1  0.183110  0.633935  0.178932  1
  O  O25  1  0.304011  0.369979  0.676768  1
  O  O26  1  0.813187  0.135378  0.322331  1
  O  O27  1  0.686270  0.866762  0.819592  1
  O  O28  1  0.336844  0.057767  0.215069  1
  O  O29  1  0.163335  0.940343  0.713674  1
  O  O30  1  0.664128  0.556109  0.285728  1
  O  O31  1  0.839469  0.446867  0.780554  1
  O  O32  1  0.322055  0.361465  0.256246  1
  O  O33  1  0.176021  0.632552  0.756596  1
  O  O34  1  0.679518  0.861861  0.241448  1
  O  O35  1  0.824562  0.140719  0.741762  1
