# generated using pymatgen
data_Dy4Hf3IrF28
_symmetry_space_group_name_H-M   'P 1'
_cell_length_a   5.69629292
_cell_length_b   9.01441200
_cell_length_c   12.08636820
_cell_angle_alpha   62.61124855
_cell_angle_beta   89.86231716
_cell_angle_gamma   89.96809340
_symmetry_Int_Tables_number   1
_chemical_formula_structural   Dy4Hf3IrF28
_chemical_formula_sum   'Dy4 Hf3 Ir1 F28'
_cell_volume   551.05005931
_cell_formula_units_Z   1
loop_
 _symmetry_equiv_pos_site_id
 _symmetry_equiv_pos_as_xyz
  1  'x, y, z'
loop_
 _atom_site_type_symbol
 _atom_site_label
 _atom_site_symmetry_multiplicity
 _atom_site_fract_x
 _atom_site_fract_y
 _atom_site_fract_z
 _atom_site_occupancy
  Dy  Dy0  1  0.757773  0.814268  0.766534  1
  Dy  Dy1  1  0.261010  0.185533  0.731222  1
  Dy  Dy2  1  0.238520  0.185778  0.238691  1
  Dy  Dy3  1  0.742107  0.815420  0.266651  1
  Hf  Hf4  1  0.756399  0.273263  0.956323  1
  Hf  Hf5  1  0.255659  0.725537  0.544026  1
  Hf  Hf6  1  0.244762  0.725959  0.045253  1
  Ir  Ir7  1  0.740801  0.272711  0.455133  1
  F  F8  1  0.462298  0.709609  0.920818  1
  F  F9  1  0.934813  0.292147  0.580241  1
  F  F10  1  0.535677  0.288683  0.079587  1
  F  F11  1  0.038201  0.710680  0.419743  1
  F  F12  1  0.445682  0.279160  0.544939  1
  F  F13  1  0.953285  0.722147  0.951204  1
  F  F14  1  0.548132  0.717346  0.452345  1
  F  F15  1  0.045192  0.277414  0.051654  1
  F  F16  1  0.772643  0.522966  0.860139  1
  F  F17  1  0.264336  0.475853  0.639882  1
  F  F18  1  0.229831  0.476729  0.140966  1
  F  F19  1  0.731513  0.515494  0.358800  1
  F  F20  1  0.758180  0.024042  0.057941  1
  F  F21  1  0.263062  0.974390  0.444496  1
  F  F22  1  0.244049  0.974408  0.941510  1
  F  F23  1  0.745581  0.030168  0.548146  1
  F  F24  1  0.982316  0.733946  0.646066  1
  F  F25  1  0.487572  0.267254  0.851066  1
  F  F26  1  0.027683  0.271893  0.358952  1
  F  F27  1  0.516562  0.731471  0.148689  1
  F  F28  1  0.036615  0.748069  0.172113  1
  F  F29  1  0.550466  0.256179  0.326574  1
  F  F30  1  0.968120  0.252447  0.829455  1
  F  F31  1  0.465270  0.746447  0.671300  1
  F  F32  1  0.423348  0.972724  0.235891  1
  F  F33  1  0.922526  0.027754  0.268782  1
  F  F34  1  0.576467  0.027492  0.764679  1
  F  F35  1  0.073547  0.974621  0.730193  1
