# generated using pymatgen
data_CeZn2CoAu3
_symmetry_space_group_name_H-M   'P 1'
_cell_length_a   5.51039819
_cell_length_b   5.51039696
_cell_length_c   5.49449775
_cell_angle_alpha   104.24114314
_cell_angle_beta   104.24114300
_cell_angle_gamma   120.62472353
_symmetry_Int_Tables_number   1
_chemical_formula_structural   CeZn2CoAu3
_chemical_formula_sum   'Ce1 Zn2 Co1 Au3'
_cell_volume   124.60502178
_cell_formula_units_Z   1
loop_
 _symmetry_equiv_pos_site_id
 _symmetry_equiv_pos_as_xyz
  1  'x, y, z'
loop_
 _atom_site_type_symbol
 _atom_site_label
 _atom_site_symmetry_multiplicity
 _atom_site_fract_x
 _atom_site_fract_y
 _atom_site_fract_z
 _atom_site_occupancy
  Ce  Ce0  1  0.042605  0.042605  0.085209  1
  Zn  Zn1  1  0.244209  0.744209  0.488417  1
  Zn  Zn2  1  0.744209  0.244209  0.488417  1
  Co  Co3  1  0.267862  0.267862  0.535723  1
  Au  Au4  1  0.731029  0.731029  0.462059  1
  Au  Au5  1  0.663066  0.307021  0.970088  1
  Au  Au6  1  0.307021  0.663066  0.970088  1
