# generated using pymatgen
data_Ca5AgRh2
_symmetry_space_group_name_H-M   'P 1'
_cell_length_a   8.99528861
_cell_length_b   8.99528829
_cell_length_c   8.99528838
_cell_angle_alpha   128.62446994
_cell_angle_beta   128.62446592
_cell_angle_gamma   75.61557794
_symmetry_Int_Tables_number   1
_chemical_formula_structural   Ca5AgRh2
_chemical_formula_sum   'Ca10 Ag2 Rh4'
_cell_volume   432.19844016
_cell_formula_units_Z   2
loop_
 _symmetry_equiv_pos_site_id
 _symmetry_equiv_pos_as_xyz
  1  'x, y, z'
loop_
 _atom_site_type_symbol
 _atom_site_label
 _atom_site_symmetry_multiplicity
 _atom_site_fract_x
 _atom_site_fract_y
 _atom_site_fract_z
 _atom_site_occupancy
  Ca  Ca0  1  0.466924  0.966924  0.167263  1
  Ca  Ca1  1  0.200340  0.700340  0.167263  1
  Ca  Ca2  1  0.533076  0.033076  0.832737  1
  Ca  Ca3  1  0.033076  0.200340  0.500000  1
  Ca  Ca4  1  0.700340  0.533076  0.500000  1
  Ca  Ca5  1  0.966924  0.799660  0.500000  1
  Ca  Ca6  1  0.000000  0.000000  0.000000  1
  Ca  Ca7  1  0.500000  0.500000  0.000000  1
  Ca  Ca8  1  0.799660  0.299660  0.832737  1
  Ca  Ca9  1  0.299660  0.466924  0.500000  1
  Ag  Ag10  1  0.750000  0.750000  0.000000  1
  Ag  Ag11  1  0.250000  0.250000  0.000000  1
  Rh  Rh12  1  0.124568  0.624568  0.749136  1
  Rh  Rh13  1  0.624568  0.875432  0.500000  1
  Rh  Rh14  1  0.375432  0.124568  0.500000  1
  Rh  Rh15  1  0.875432  0.375432  0.250864  1
