# generated using pymatgen
data_Y8Ho2AlBi5
_symmetry_space_group_name_H-M   'P 1'
_cell_length_a   9.13953306
_cell_length_b   9.15326211
_cell_length_c   6.47293500
_cell_angle_alpha   90.01327662
_cell_angle_beta   89.99334859
_cell_angle_gamma   120.04970589
_symmetry_Int_Tables_number   1
_chemical_formula_structural   Y8Ho2AlBi5
_chemical_formula_sum   'Y8 Ho2 Al1 Bi5'
_cell_volume   468.72058833
_cell_formula_units_Z   1
loop_
 _symmetry_equiv_pos_site_id
 _symmetry_equiv_pos_as_xyz
  1  'x, y, z'
loop_
 _atom_site_type_symbol
 _atom_site_label
 _atom_site_symmetry_multiplicity
 _atom_site_fract_x
 _atom_site_fract_y
 _atom_site_fract_z
 _atom_site_occupancy
  Y  Y0  1  0.676554  0.335200  0.002157  1
  Y  Y1  1  0.323446  0.658645  0.002157  1
  Y  Y2  1  0.757703  0.756730  0.750151  1
  Y  Y3  1  0.242297  0.999027  0.750151  1
  Y  Y4  1  0.000000  0.241713  0.749808  1
  Y  Y5  1  0.232896  0.246353  0.250123  1
  Y  Y6  1  0.767104  0.013457  0.250123  1
  Y  Y7  1  0.000000  0.751344  0.250060  1
  Ho  Ho8  1  0.322721  0.658012  0.497246  1
  Ho  Ho9  1  0.677279  0.335291  0.497246  1
  Al  Al10  1  0.000000  0.395876  0.251331  1
  Bi  Bi11  1  0.392856  0.389277  0.749086  1
  Bi  Bi12  1  0.607144  0.996422  0.749086  1
  Bi  Bi13  1  0.000000  0.607943  0.749060  1
  Bi  Bi14  1  0.610643  0.612676  0.251108  1
  Bi  Bi15  1  0.389357  0.002033  0.251108  1
