# generated using pymatgen
data_Y16ErTm3Pb16
_symmetry_space_group_name_H-M   'P 1'
_cell_length_a   8.20564804
_cell_length_b   8.27134000
_cell_length_c   15.64563700
_cell_angle_alpha   90.00000000
_cell_angle_beta   90.00000000
_cell_angle_gamma   89.99559721
_symmetry_Int_Tables_number   1
_chemical_formula_structural   Y16ErTm3Pb16
_chemical_formula_sum   'Y16 Er1 Tm3 Pb16'
_cell_volume   1061.89605414
_cell_formula_units_Z   1
loop_
 _symmetry_equiv_pos_site_id
 _symmetry_equiv_pos_as_xyz
  1  'x, y, z'
loop_
 _atom_site_type_symbol
 _atom_site_label
 _atom_site_symmetry_multiplicity
 _atom_site_fract_x
 _atom_site_fract_y
 _atom_site_fract_z
 _atom_site_occupancy
  Y  Y0  1  0.377189  0.841820  0.879137  1
  Y  Y1  1  0.877208  0.658312  0.621064  1
  Y  Y2  1  0.622596  0.158060  0.378710  1
  Y  Y3  1  0.122924  0.341688  0.121250  1
  Y  Y4  1  0.622596  0.158060  0.121290  1
  Y  Y5  1  0.122924  0.341688  0.378750  1
  Y  Y6  1  0.377189  0.841820  0.620863  1
  Y  Y7  1  0.877208  0.658312  0.878936  1
  Y  Y8  1  0.535883  0.324655  0.899897  1
  Y  Y9  1  0.035954  0.175361  0.599975  1
  Y  Y10  1  0.463931  0.675660  0.399817  1
  Y  Y11  1  0.964305  0.824832  0.100157  1
  Y  Y12  1  0.463931  0.675660  0.100183  1
  Y  Y13  1  0.964305  0.824832  0.399843  1
  Y  Y14  1  0.535883  0.324655  0.600103  1
  Y  Y15  1  0.035954  0.175361  0.900025  1
  Er  Er16  1  0.290247  0.004111  0.250000  1
  Tm  Tm17  1  0.209679  0.503814  0.750000  1
  Tm  Tm18  1  0.709650  0.996191  0.750000  1
  Tm  Tm19  1  0.790304  0.496184  0.250000  1
  Pb  Pb20  1  0.281331  0.033184  0.043562  1
  Pb  Pb21  1  0.781206  0.466220  0.456927  1
  Pb  Pb22  1  0.718873  0.966409  0.542912  1
  Pb  Pb23  1  0.218733  0.533519  0.957064  1
  Pb  Pb24  1  0.718873  0.966409  0.957088  1
  Pb  Pb25  1  0.218733  0.533519  0.542936  1
  Pb  Pb26  1  0.281331  0.033184  0.456438  1
  Pb  Pb27  1  0.781206  0.466220  0.043073  1
  Pb  Pb28  1  0.572402  0.625650  0.750000  1
  Pb  Pb29  1  0.072536  0.874525  0.750000  1
  Pb  Pb30  1  0.427091  0.374122  0.250000  1
  Pb  Pb31  1  0.927967  0.124838  0.250000  1
  Pb  Pb32  1  0.348419  0.153564  0.750000  1
  Pb  Pb33  1  0.848519  0.346335  0.750000  1
  Pb  Pb34  1  0.650808  0.846553  0.250000  1
  Pb  Pb35  1  0.152110  0.654673  0.250000  1
