# generated using pymatgen
data_PrNd7(Ga5Br2)2
_symmetry_space_group_name_H-M   'P 1'
_cell_length_a   11.49603543
_cell_length_b   11.49603490
_cell_length_c   4.24460500
_cell_angle_alpha   90.00000000
_cell_angle_beta   90.00000000
_cell_angle_gamma   93.57412079
_symmetry_Int_Tables_number   1
_chemical_formula_structural   PrNd7(Ga5Br2)2
_chemical_formula_sum   'Pr1 Nd7 Ga10 Br4'
_cell_volume   559.87092928
_cell_formula_units_Z   1
loop_
 _symmetry_equiv_pos_site_id
 _symmetry_equiv_pos_as_xyz
  1  'x, y, z'
loop_
 _atom_site_type_symbol
 _atom_site_label
 _atom_site_symmetry_multiplicity
 _atom_site_fract_x
 _atom_site_fract_y
 _atom_site_fract_z
 _atom_site_occupancy
  Pr  Pr0  1  0.368305  0.631695  0.000000  1
  Nd  Nd1  1  0.673721  0.040082  0.500000  1
  Nd  Nd2  1  0.326329  0.960011  0.500000  1
  Nd  Nd3  1  0.039989  0.673671  0.500000  1
  Nd  Nd4  1  0.959918  0.326279  0.500000  1
  Nd  Nd5  1  0.729976  0.729904  0.000000  1
  Nd  Nd6  1  0.270096  0.270024  0.000000  1
  Nd  Nd7  1  0.631568  0.368432  0.000000  1
  Ga  Ga8  1  0.579717  0.579478  0.500000  1
  Ga  Ga9  1  0.420522  0.420283  0.500000  1
  Ga  Ga10  1  0.536877  0.899475  0.000000  1
  Ga  Ga11  1  0.463198  0.100583  0.000000  1
  Ga  Ga12  1  0.899417  0.536802  0.000000  1
  Ga  Ga13  1  0.100525  0.463123  0.000000  1
  Ga  Ga14  1  0.512763  0.782319  0.500000  1
  Ga  Ga15  1  0.487512  0.217946  0.500000  1
  Ga  Ga16  1  0.217681  0.487237  0.500000  1
  Ga  Ga17  1  0.782054  0.512488  0.500000  1
  Br  Br18  1  0.124711  0.124707  0.500000  1
  Br  Br19  1  0.875293  0.875289  0.500000  1
  Br  Br20  1  0.823936  0.176064  0.000000  1
  Br  Br21  1  0.175892  0.824108  0.000000  1
