# generated using pymatgen
data_Sr2YPaO6
_symmetry_space_group_name_H-M   'P 1'
_cell_length_a   6.15247600
_cell_length_b   6.02054186
_cell_length_c   10.50165097
_cell_angle_alpha   54.97792552
_cell_angle_beta   90.00000000
_cell_angle_gamma   90.00000000
_symmetry_Int_Tables_number   1
_chemical_formula_structural   Sr2YPaO6
_chemical_formula_sum   'Sr4 Y2 Pa2 O12'
_cell_volume   318.55938208
_cell_formula_units_Z   2
loop_
 _symmetry_equiv_pos_site_id
 _symmetry_equiv_pos_as_xyz
  1  'x, y, z'
loop_
 _atom_site_type_symbol
 _atom_site_label
 _atom_site_symmetry_multiplicity
 _atom_site_fract_x
 _atom_site_fract_y
 _atom_site_fract_z
 _atom_site_occupancy
  Sr  Sr0  1  0.456778  0.260148  0.750753  1
  Sr  Sr1  1  0.956778  0.739852  0.749247  1
  Sr  Sr2  1  0.043222  0.260148  0.250753  1
  Sr  Sr3  1  0.543222  0.739852  0.249247  1
  Y  Y4  1  0.500000  0.000000  0.500000  1
  Y  Y5  1  0.000000  0.000000  0.000000  1
  Pa  Pa6  1  0.000000  0.500000  0.500000  1
  Pa  Pa7  1  0.500000  0.500000  0.000000  1
  O  O8  1  0.197501  0.740811  0.551983  1
  O  O9  1  0.697501  0.259189  0.948017  1
  O  O10  1  0.802499  0.259189  0.448017  1
  O  O11  1  0.302499  0.740811  0.051983  1
  O  O12  1  0.708781  0.639423  0.556165  1
  O  O13  1  0.208781  0.360577  0.943835  1
  O  O14  1  0.291219  0.360577  0.443835  1
  O  O15  1  0.791219  0.639423  0.056165  1
  O  O16  1  0.039672  0.154060  0.744161  1
  O  O17  1  0.539672  0.845940  0.755839  1
  O  O18  1  0.960328  0.845940  0.255839  1
  O  O19  1  0.460328  0.154060  0.244161  1
