# generated using pymatgen
data_Pd(RhSe2)2
_symmetry_space_group_name_H-M   'P 1'
_cell_length_a   7.42739856
_cell_length_b   7.42739820
_cell_length_c   7.42739900
_cell_angle_alpha   60.00000087
_cell_angle_beta   60.00000250
_cell_angle_gamma   59.99999490
_symmetry_Int_Tables_number   1
_chemical_formula_structural   Pd(RhSe2)2
_chemical_formula_sum   'Pd2 Rh4 Se8'
_cell_volume   289.73114875
_cell_formula_units_Z   2
loop_
 _symmetry_equiv_pos_site_id
 _symmetry_equiv_pos_as_xyz
  1  'x, y, z'
loop_
 _atom_site_type_symbol
 _atom_site_label
 _atom_site_symmetry_multiplicity
 _atom_site_fract_x
 _atom_site_fract_y
 _atom_site_fract_z
 _atom_site_occupancy
  Pd  Pd0  1  0.750000  0.750000  0.750000  1
  Pd  Pd1  1  0.500000  0.500000  0.500000  1
  Rh  Rh2  1  0.125000  0.125000  0.625000  1
  Rh  Rh3  1  0.125000  0.625000  0.125000  1
  Rh  Rh4  1  0.625000  0.125000  0.125000  1
  Rh  Rh5  1  0.125000  0.125000  0.125000  1
  Se  Se6  1  0.886823  0.339530  0.886823  1
  Se  Se7  1  0.363177  0.363177  0.910470  1
  Se  Se8  1  0.363177  0.363177  0.363177  1
  Se  Se9  1  0.910470  0.363177  0.363177  1
  Se  Se10  1  0.886823  0.886823  0.886823  1
  Se  Se11  1  0.339530  0.886823  0.886823  1
  Se  Se12  1  0.363177  0.910470  0.363177  1
  Se  Se13  1  0.886823  0.886823  0.339530  1
