# generated using pymatgen
data_Li8Tm8Sn7Sb
_symmetry_space_group_name_H-M   'P 1'
_cell_length_a   9.32388365
_cell_length_b   9.32388427
_cell_length_c   7.12460467
_cell_angle_alpha   90.06756763
_cell_angle_beta   89.93243534
_cell_angle_gamma   119.98862103
_symmetry_Int_Tables_number   1
_chemical_formula_structural   Li8Tm8Sn7Sb
_chemical_formula_sum   'Li8 Tm8 Sn7 Sb1'
_cell_volume   536.45649229
_cell_formula_units_Z   1
loop_
 _symmetry_equiv_pos_site_id
 _symmetry_equiv_pos_as_xyz
  1  'x, y, z'
loop_
 _atom_site_type_symbol
 _atom_site_label
 _atom_site_symmetry_multiplicity
 _atom_site_fract_x
 _atom_site_fract_y
 _atom_site_fract_z
 _atom_site_occupancy
  Li  Li0  1  0.832609  0.666165  0.712306  1
  Li  Li1  1  0.833283  0.166717  0.712570  1
  Li  Li2  1  0.333716  0.666284  0.821583  1
  Li  Li3  1  0.666801  0.333199  0.321297  1
  Li  Li4  1  0.666610  0.833586  0.212458  1
  Li  Li5  1  0.166414  0.333390  0.212458  1
  Li  Li6  1  0.166736  0.833264  0.212769  1
  Li  Li7  1  0.333835  0.167391  0.712306  1
  Tm  Tm8  1  0.999189  0.000811  0.002550  1
  Tm  Tm9  1  0.999366  0.000634  0.499085  1
  Tm  Tm10  1  0.511392  0.488608  0.006465  1
  Tm  Tm11  1  0.021764  0.510048  0.504801  1
  Tm  Tm12  1  0.489952  0.978236  0.504801  1
  Tm  Tm13  1  0.513191  0.023365  0.008392  1
  Tm  Tm14  1  0.976635  0.486809  0.008392  1
  Tm  Tm15  1  0.488647  0.511353  0.506012  1
  Sn  Sn16  1  0.666720  0.333280  0.740691  1
  Sn  Sn17  1  0.333085  0.666915  0.240773  1
  Sn  Sn18  1  0.833317  0.166683  0.269552  1
  Sn  Sn19  1  0.166536  0.333385  0.770026  1
  Sn  Sn20  1  0.333218  0.166277  0.269883  1
  Sn  Sn21  1  0.833723  0.666782  0.269883  1
  Sn  Sn22  1  0.666615  0.833464  0.770026  1
  Sb  Sb23  1  0.166645  0.833355  0.768920  1
