# generated using pymatgen
data_LaCe(PRh)4
_symmetry_space_group_name_H-M   'P 1'
_cell_length_a   4.19623800
_cell_length_b   4.19623800
_cell_length_c   9.58696200
_cell_angle_alpha   90.00000000
_cell_angle_beta   90.00000000
_cell_angle_gamma   90.00000000
_symmetry_Int_Tables_number   1
_chemical_formula_structural   LaCe(PRh)4
_chemical_formula_sum   'La1 Ce1 P4 Rh4'
_cell_volume   168.81118969
_cell_formula_units_Z   1
loop_
 _symmetry_equiv_pos_site_id
 _symmetry_equiv_pos_as_xyz
  1  'x, y, z'
loop_
 _atom_site_type_symbol
 _atom_site_label
 _atom_site_symmetry_multiplicity
 _atom_site_fract_x
 _atom_site_fract_y
 _atom_site_fract_z
 _atom_site_occupancy
  La  La0  1  0.500000  0.000000  0.744876  1
  Ce  Ce1  1  0.000000  0.500000  0.256952  1
  P  P2  1  0.500000  0.500000  0.496693  1
  P  P3  1  0.500000  0.000000  0.137977  1
  P  P4  1  0.000000  0.000000  0.496693  1
  P  P5  1  0.000000  0.500000  0.861520  1
  Rh  Rh6  1  0.000000  0.500000  0.608708  1
  Rh  Rh7  1  0.500000  0.000000  0.384495  1
  Rh  Rh8  1  0.000000  0.000000  0.006042  1
  Rh  Rh9  1  0.500000  0.500000  0.006042  1
