# generated using pymatgen
data_K16ZrTiSb8
_symmetry_space_group_name_H-M   'P 1'
_cell_length_a   11.57094001
_cell_length_b   11.57094067
_cell_length_c   11.57094100
_cell_angle_alpha   60.00000191
_cell_angle_beta   60.00000004
_cell_angle_gamma   60.00000520
_symmetry_Int_Tables_number   1
_chemical_formula_structural   K16ZrTiSb8
_chemical_formula_sum   'K16 Zr1 Ti1 Sb8'
_cell_volume   1095.44609986
_cell_formula_units_Z   1
loop_
 _symmetry_equiv_pos_site_id
 _symmetry_equiv_pos_as_xyz
  1  'x, y, z'
loop_
 _atom_site_type_symbol
 _atom_site_label
 _atom_site_symmetry_multiplicity
 _atom_site_fract_x
 _atom_site_fract_y
 _atom_site_fract_z
 _atom_site_occupancy
  K  K0  1  0.626639  0.120081  0.626639  1
  K  K1  1  0.626639  0.626639  0.120081  1
  K  K2  1  0.120081  0.626639  0.626639  1
  K  K3  1  0.626639  0.626639  0.626639  1
  K  K4  1  0.028011  0.028011  0.471989  1
  K  K5  1  0.777561  0.222439  0.222439  1
  K  K6  1  0.222439  0.777561  0.777561  1
  K  K7  1  0.777561  0.777561  0.222439  1
  K  K8  1  0.777561  0.222439  0.777561  1
  K  K9  1  0.222439  0.777561  0.222439  1
  K  K10  1  0.471989  0.028011  0.471989  1
  K  K11  1  0.471989  0.028011  0.028011  1
  K  K12  1  0.028011  0.471989  0.471989  1
  K  K13  1  0.028011  0.471989  0.028011  1
  K  K14  1  0.222439  0.222439  0.777561  1
  K  K15  1  0.471989  0.471989  0.028011  1
  Zr  Zr16  1  0.500000  0.500000  0.500000  1
  Ti  Ti17  1  0.750000  0.750000  0.750000  1
  Sb  Sb18  1  0.398356  0.804930  0.398356  1
  Sb  Sb19  1  0.848562  0.848562  0.454314  1
  Sb  Sb20  1  0.454314  0.848562  0.848562  1
  Sb  Sb21  1  0.848562  0.848562  0.848562  1
  Sb  Sb22  1  0.804930  0.398356  0.398356  1
  Sb  Sb23  1  0.398356  0.398356  0.398356  1
  Sb  Sb24  1  0.398356  0.398356  0.804930  1
  Sb  Sb25  1  0.848562  0.454314  0.848562  1
