# generated using pymatgen
data_Ho2SbRhO7
_symmetry_space_group_name_H-M   'P 1'
_cell_length_a   7.28883574
_cell_length_b   7.24908137
_cell_length_c   7.37274101
_cell_angle_alpha   89.99991690
_cell_angle_beta   59.61512795
_cell_angle_gamma   119.81975709
_symmetry_Int_Tables_number   1
_chemical_formula_structural   Ho2SbRhO7
_chemical_formula_sum   'Ho4 Sb2 Rh2 O14'
_cell_volume   274.59676422
_cell_formula_units_Z   2
loop_
 _symmetry_equiv_pos_site_id
 _symmetry_equiv_pos_as_xyz
  1  'x, y, z'
loop_
 _atom_site_type_symbol
 _atom_site_label
 _atom_site_symmetry_multiplicity
 _atom_site_fract_x
 _atom_site_fract_y
 _atom_site_fract_z
 _atom_site_occupancy
  Ho  Ho0  1  0.499986  0.500000  0.000008  1
  Ho  Ho1  1  0.500017  0.000014  0.999987  1
  Ho  Ho2  1  0.999995  0.000002  0.499998  1
  Ho  Ho3  1  0.000004  0.000011  0.999995  1
  Sb  Sb4  1  0.000002  0.499999  0.000001  1
  Sb  Sb5  1  0.000007  0.500003  0.499998  1
  Rh  Rh6  1  0.500003  0.999994  0.499997  1
  Rh  Rh7  1  0.499998  0.499992  0.500003  1
  O  O8  1  0.257111  0.128555  0.121451  1
  O  O9  1  0.742892  0.871451  0.878552  1
  O  O10  1  0.701332  0.850665  0.399337  1
  O  O11  1  0.839722  0.419869  0.830147  1
  O  O12  1  0.252343  0.834893  0.842251  1
  O  O13  1  0.252337  0.417455  0.405419  1
  O  O14  1  0.252344  0.417446  0.842248  1
  O  O15  1  0.252340  0.834870  0.405417  1
  O  O16  1  0.298663  0.149333  0.600664  1
  O  O17  1  0.160272  0.580144  0.169856  1
  O  O18  1  0.747656  0.165100  0.157753  1
  O  O19  1  0.747661  0.582535  0.594587  1
  O  O20  1  0.747650  0.582544  0.157752  1
  O  O21  1  0.747665  0.165122  0.594579  1
