# generated using pymatgen
data_ErCrP3Rh4
_symmetry_space_group_name_H-M   'P 1'
_cell_length_a   3.87367900
_cell_length_b   10.78772500
_cell_length_c   12.46416500
_cell_angle_alpha   90.00000000
_cell_angle_beta   90.00000000
_cell_angle_gamma   90.00000000
_symmetry_Int_Tables_number   1
_chemical_formula_structural   ErCrP3Rh4
_chemical_formula_sum   'Er4 Cr4 P12 Rh16'
_cell_volume   520.85481781
_cell_formula_units_Z   4
loop_
 _symmetry_equiv_pos_site_id
 _symmetry_equiv_pos_as_xyz
  1  'x, y, z'
loop_
 _atom_site_type_symbol
 _atom_site_label
 _atom_site_symmetry_multiplicity
 _atom_site_fract_x
 _atom_site_fract_y
 _atom_site_fract_z
 _atom_site_occupancy
  Er  Er0  1  0.250000  0.582076  0.708554  1
  Er  Er1  1  0.250000  0.917924  0.208554  1
  Er  Er2  1  0.750000  0.417924  0.291446  1
  Er  Er3  1  0.750000  0.082076  0.791446  1
  Cr  Cr4  1  0.250000  0.462795  0.938772  1
  Cr  Cr5  1  0.250000  0.037205  0.438772  1
  Cr  Cr6  1  0.750000  0.537205  0.061228  1
  Cr  Cr7  1  0.750000  0.962795  0.561228  1
  P  P8  1  0.250000  0.428341  0.113966  1
  P  P9  1  0.250000  0.071659  0.613966  1
  P  P10  1  0.750000  0.571659  0.886034  1
  P  P11  1  0.750000  0.928341  0.386034  1
  P  P12  1  0.250000  0.267178  0.867109  1
  P  P13  1  0.250000  0.232822  0.367109  1
  P  P14  1  0.750000  0.732822  0.132891  1
  P  P15  1  0.750000  0.767178  0.632891  1
  P  P16  1  0.250000  0.600603  0.390120  1
  P  P17  1  0.250000  0.899397  0.890120  1
  P  P18  1  0.750000  0.399397  0.609880  1
  P  P19  1  0.750000  0.100603  0.109880  1
  Rh  Rh20  1  0.250000  0.712957  0.990867  1
  Rh  Rh21  1  0.250000  0.787043  0.490867  1
  Rh  Rh22  1  0.750000  0.287043  0.009133  1
  Rh  Rh23  1  0.750000  0.212957  0.509133  1
  Rh  Rh24  1  0.250000  0.408434  0.479212  1
  Rh  Rh25  1  0.250000  0.091566  0.979212  1
  Rh  Rh26  1  0.750000  0.591566  0.520788  1
  Rh  Rh27  1  0.750000  0.908434  0.020788  1
  Rh  Rh28  1  0.250000  0.229637  0.174688  1
  Rh  Rh29  1  0.250000  0.270363  0.674688  1
  Rh  Rh30  1  0.750000  0.770363  0.825312  1
  Rh  Rh31  1  0.750000  0.729637  0.325312  1
  Rh  Rh32  1  0.250000  0.881842  0.702672  1
  Rh  Rh33  1  0.250000  0.618158  0.202672  1
  Rh  Rh34  1  0.750000  0.118158  0.297328  1
  Rh  Rh35  1  0.750000  0.381842  0.797328  1
