# generated using pymatgen
data_YbY6Sn23Ir6
_symmetry_space_group_name_H-M   'P 1'
_cell_length_a   9.90250900
_cell_length_b   9.90251031
_cell_length_c   10.09561800
_cell_angle_alpha   90.00000000
_cell_angle_beta   90.00000000
_cell_angle_gamma   120.00000565
_symmetry_Int_Tables_number   1
_chemical_formula_structural   YbY6Sn23Ir6
_chemical_formula_sum   'Yb1 Y6 Sn23 Ir6'
_cell_volume   857.34193186
_cell_formula_units_Z   1
loop_
 _symmetry_equiv_pos_site_id
 _symmetry_equiv_pos_as_xyz
  1  'x, y, z'
loop_
 _atom_site_type_symbol
 _atom_site_label
 _atom_site_symmetry_multiplicity
 _atom_site_fract_x
 _atom_site_fract_y
 _atom_site_fract_z
 _atom_site_occupancy
  Yb  Yb0  1  0.000000  0.000000  0.000000  1
  Y  Y1  1  0.037670  0.518835  0.306296  1
  Y  Y2  1  0.481165  0.962330  0.306296  1
  Y  Y3  1  0.481165  0.518835  0.306296  1
  Y  Y4  1  0.962330  0.481165  0.693704  1
  Y  Y5  1  0.518835  0.037670  0.693704  1
  Y  Y6  1  0.518835  0.481165  0.693704  1
  Sn  Sn7  1  0.000000  0.000000  0.500000  1
  Sn  Sn8  1  0.117175  0.882825  0.282844  1
  Sn  Sn9  1  0.765650  0.882825  0.282844  1
  Sn  Sn10  1  0.117175  0.234350  0.282844  1
  Sn  Sn11  1  0.882825  0.117175  0.717156  1
  Sn  Sn12  1  0.234350  0.117175  0.717156  1
  Sn  Sn13  1  0.882825  0.765650  0.717156  1
  Sn  Sn14  1  0.351186  0.000000  0.000000  1
  Sn  Sn15  1  0.648814  0.648814  0.000000  1
  Sn  Sn16  1  0.000000  0.351186  0.000000  1
  Sn  Sn17  1  0.351186  0.351186  0.000000  1
  Sn  Sn18  1  0.000000  0.648814  0.000000  1
  Sn  Sn19  1  0.648814  0.000000  0.000000  1
  Sn  Sn20  1  0.777694  0.555388  0.457435  1
  Sn  Sn21  1  0.777694  0.222306  0.457435  1
  Sn  Sn22  1  0.444612  0.222306  0.457435  1
  Sn  Sn23  1  0.222306  0.444612  0.542565  1
  Sn  Sn24  1  0.222306  0.777694  0.542565  1
  Sn  Sn25  1  0.555388  0.777694  0.542565  1
  Sn  Sn26  1  0.666667  0.333333  0.174119  1
  Sn  Sn27  1  0.333333  0.666667  0.825881  1
  Sn  Sn28  1  0.666667  0.333333  0.877989  1
  Sn  Sn29  1  0.333333  0.666667  0.122011  1
  Ir  Ir30  1  0.170094  0.829906  0.799464  1
  Ir  Ir31  1  0.659813  0.829906  0.799464  1
  Ir  Ir32  1  0.170094  0.340187  0.799464  1
  Ir  Ir33  1  0.829906  0.170094  0.200536  1
  Ir  Ir34  1  0.340187  0.170094  0.200536  1
  Ir  Ir35  1  0.829906  0.659813  0.200536  1
