# generated using pymatgen
data_Y19LuCd6RuRh
_symmetry_space_group_name_H-M   'P 1'
_cell_length_a   9.65244800
_cell_length_b   9.65244785
_cell_length_c   9.81423600
_cell_angle_alpha   90.00000000
_cell_angle_beta   90.00000000
_cell_angle_gamma   120.00000052
_symmetry_Int_Tables_number   1
_chemical_formula_structural   Y19LuCd6RuRh
_chemical_formula_sum   'Y19 Lu1 Cd6 Ru1 Rh1'
_cell_volume   791.88489857
_cell_formula_units_Z   1
loop_
 _symmetry_equiv_pos_site_id
 _symmetry_equiv_pos_as_xyz
  1  'x, y, z'
loop_
 _atom_site_type_symbol
 _atom_site_label
 _atom_site_symmetry_multiplicity
 _atom_site_fract_x
 _atom_site_fract_y
 _atom_site_fract_z
 _atom_site_occupancy
  Y  Y0  1  0.000000  0.000000  0.000264  1
  Y  Y1  1  0.208580  0.791420  0.440282  1
  Y  Y2  1  0.208580  0.417160  0.440282  1
  Y  Y3  1  0.582840  0.791420  0.440282  1
  Y  Y4  1  0.790910  0.209090  0.560180  1
  Y  Y5  1  0.790910  0.581818  0.560180  1
  Y  Y6  1  0.418182  0.209090  0.560180  1
  Y  Y7  1  0.790375  0.209625  0.939875  1
  Y  Y8  1  0.790375  0.580747  0.939875  1
  Y  Y9  1  0.419253  0.209625  0.939875  1
  Y  Y10  1  0.209134  0.790866  0.059653  1
  Y  Y11  1  0.209134  0.418269  0.059653  1
  Y  Y12  1  0.581731  0.790866  0.059653  1
  Y  Y13  1  0.542161  0.457839  0.250053  1
  Y  Y14  1  0.542161  0.084322  0.250053  1
  Y  Y15  1  0.915678  0.457839  0.250053  1
  Y  Y16  1  0.458731  0.541269  0.749941  1
  Y  Y17  1  0.458731  0.917462  0.749941  1
  Y  Y18  1  0.082538  0.541269  0.749941  1
  Lu  Lu19  1  0.000000  0.000000  0.499704  1
  Cd  Cd20  1  0.885483  0.114517  0.250893  1
  Cd  Cd21  1  0.885483  0.770968  0.250893  1
  Cd  Cd22  1  0.229032  0.114517  0.250893  1
  Cd  Cd23  1  0.114405  0.885595  0.749149  1
  Cd  Cd24  1  0.114405  0.228807  0.749149  1
  Cd  Cd25  1  0.771193  0.885595  0.749149  1
  Ru  Ru26  1  0.666667  0.333333  0.749738  1
  Rh  Rh27  1  0.333333  0.666667  0.250220  1
