# generated using pymatgen
data_Tm2Mn5P7Ir3Rh4
_symmetry_space_group_name_H-M   'P 1'
_cell_length_a   9.41780055
_cell_length_b   9.42792279
_cell_length_c   3.81080100
_cell_angle_alpha   90.00000000
_cell_angle_beta   90.00000000
_cell_angle_gamma   120.02000322
_symmetry_Int_Tables_number   1
_chemical_formula_structural   Tm2Mn5P7Ir3Rh4
_chemical_formula_sum   'Tm2 Mn5 P7 Ir3 Rh4'
_cell_volume   292.97113531
_cell_formula_units_Z   1
loop_
 _symmetry_equiv_pos_site_id
 _symmetry_equiv_pos_as_xyz
  1  'x, y, z'
loop_
 _atom_site_type_symbol
 _atom_site_label
 _atom_site_symmetry_multiplicity
 _atom_site_fract_x
 _atom_site_fract_y
 _atom_site_fract_z
 _atom_site_occupancy
  Tm  Tm0  1  0.000070  0.999444  0.000000  1
  Tm  Tm1  1  0.666912  0.333102  0.500000  1
  Mn  Mn2  1  0.220943  0.396227  0.000000  1
  Mn  Mn3  1  0.603240  0.825041  0.000000  1
  Mn  Mn4  1  0.173952  0.776483  0.000000  1
  Mn  Mn5  1  0.435579  0.891335  0.500000  1
  Mn  Mn6  1  0.109111  0.544273  0.500000  1
  P  P7  1  0.442155  0.365320  0.000000  1
  P  P8  1  0.631990  0.074528  0.000000  1
  P  P9  1  0.922437  0.555065  0.000000  1
  P  P10  1  0.055835  0.268327  0.500000  1
  P  P11  1  0.731720  0.789205  0.500000  1
  P  P12  1  0.214730  0.943076  0.500000  1
  P  P13  1  0.334993  0.668669  0.000000  1
  Ir  Ir14  1  0.276813  0.221399  0.500000  1
  Ir  Ir15  1  0.777805  0.054769  0.500000  1
  Ir  Ir16  1  0.944050  0.722555  0.500000  1
  Rh  Rh17  1  0.695002  0.599670  0.000000  1
  Rh  Rh18  1  0.400063  0.094900  0.000000  1
  Rh  Rh19  1  0.903409  0.304474  0.000000  1
  Rh  Rh20  1  0.459191  0.572141  0.500000  1
