# generated using pymatgen
data_Cs13K3(ZrAs4)2
_symmetry_space_group_name_H-M   'P 1'
_cell_length_a   11.82669231
_cell_length_b   11.82669237
_cell_length_c   11.82669213
_cell_angle_alpha   59.29395833
_cell_angle_beta   59.29395728
_cell_angle_gamma   59.29395314
_symmetry_Int_Tables_number   1
_chemical_formula_structural   Cs13K3(ZrAs4)2
_chemical_formula_sum   'Cs13 K3 Zr2 As8'
_cell_volume   1150.89549829
_cell_formula_units_Z   1
loop_
 _symmetry_equiv_pos_site_id
 _symmetry_equiv_pos_as_xyz
  1  'x, y, z'
loop_
 _atom_site_type_symbol
 _atom_site_label
 _atom_site_symmetry_multiplicity
 _atom_site_fract_x
 _atom_site_fract_y
 _atom_site_fract_z
 _atom_site_occupancy
  Cs  Cs0  1  0.625000  0.625000  0.625000  1
  Cs  Cs1  1  0.030089  0.473246  0.473246  1
  Cs  Cs2  1  0.778261  0.222739  0.222739  1
  Cs  Cs3  1  0.473246  0.030089  0.473246  1
  Cs  Cs4  1  0.473246  0.473246  0.030089  1
  Cs  Cs5  1  0.027261  0.027261  0.471739  1
  Cs  Cs6  1  0.027261  0.471739  0.027261  1
  Cs  Cs7  1  0.471739  0.027261  0.027261  1
  Cs  Cs8  1  0.776754  0.219911  0.776754  1
  Cs  Cs9  1  0.222739  0.778261  0.222739  1
  Cs  Cs10  1  0.222739  0.222739  0.778261  1
  Cs  Cs11  1  0.776754  0.776754  0.219911  1
  Cs  Cs12  1  0.219911  0.776754  0.776754  1
  K  K13  1  0.625000  0.625000  0.125000  1
  K  K14  1  0.625000  0.125000  0.625000  1
  K  K15  1  0.125000  0.625000  0.625000  1
  Zr  Zr16  1  0.751527  0.751527  0.751527  1
  Zr  Zr17  1  0.498473  0.498473  0.498473  1
  As  As18  1  0.847154  0.847154  0.469602  1
  As  As19  1  0.847154  0.469602  0.847154  1
  As  As20  1  0.402846  0.402846  0.780398  1
  As  As21  1  0.402846  0.780398  0.402846  1
  As  As22  1  0.780398  0.402846  0.402846  1
  As  As23  1  0.843938  0.843938  0.843938  1
  As  As24  1  0.469602  0.847154  0.847154  1
  As  As25  1  0.406062  0.406062  0.406062  1
