# generated using pymatgen
data_Pr5Dy15(BiPb3)4
_symmetry_space_group_name_H-M   'P 1'
_cell_length_a   8.31053582
_cell_length_b   8.32458819
_cell_length_c   15.64865000
_cell_angle_alpha   90.01717238
_cell_angle_beta   89.53319189
_cell_angle_gamma   89.88499581
_symmetry_Int_Tables_number   1
_chemical_formula_structural   Pr5Dy15(BiPb3)4
_chemical_formula_sum   'Pr5 Dy15 Bi4 Pb12'
_cell_volume   1082.56342596
_cell_formula_units_Z   1
loop_
 _symmetry_equiv_pos_site_id
 _symmetry_equiv_pos_as_xyz
  1  'x, y, z'
loop_
 _atom_site_type_symbol
 _atom_site_label
 _atom_site_symmetry_multiplicity
 _atom_site_fract_x
 _atom_site_fract_y
 _atom_site_fract_z
 _atom_site_occupancy
  Pr  Pr0  1  0.036271  0.175053  0.399284  1
  Pr  Pr1  1  0.524753  0.324366  0.402404  1
  Pr  Pr2  1  0.027880  0.174257  0.098613  1
  Pr  Pr3  1  0.473869  0.674363  0.901824  1
  Pr  Pr4  1  0.975881  0.823503  0.597742  1
  Dy  Dy5  1  0.632042  0.157277  0.623833  1
  Dy  Dy6  1  0.128782  0.342922  0.876988  1
  Dy  Dy7  1  0.373307  0.842612  0.122571  1
  Dy  Dy8  1  0.871549  0.658322  0.376133  1
  Dy  Dy9  1  0.366560  0.841917  0.376716  1
  Dy  Dy10  1  0.870077  0.659655  0.120964  1
  Dy  Dy11  1  0.628889  0.158325  0.877023  1
  Dy  Dy12  1  0.134080  0.341546  0.624418  1
  Dy  Dy13  1  0.456051  0.671354  0.604891  1
  Dy  Dy14  1  0.950832  0.831539  0.892941  1
  Dy  Dy15  1  0.547874  0.331406  0.105137  1
  Dy  Dy16  1  0.798050  0.498181  0.753215  1
  Dy  Dy17  1  0.297709  0.001669  0.746877  1
  Dy  Dy18  1  0.203145  0.502549  0.252768  1
  Dy  Dy19  1  0.702113  0.998244  0.246522  1
  Bi  Bi20  1  0.710118  0.963205  0.454798  1
  Bi  Bi21  1  0.222014  0.526356  0.047222  1
  Bi  Bi22  1  0.277809  0.025451  0.952371  1
  Bi  Bi23  1  0.783662  0.469068  0.546118  1
  Pb  Pb24  1  0.294957  0.038247  0.543826  1
  Pb  Pb25  1  0.790971  0.459504  0.958000  1
  Pb  Pb26  1  0.710132  0.962376  0.041110  1
  Pb  Pb27  1  0.210198  0.543068  0.459680  1
  Pb  Pb28  1  0.435750  0.371901  0.750661  1
  Pb  Pb29  1  0.935117  0.128872  0.750113  1
  Pb  Pb30  1  0.565652  0.629129  0.250459  1
  Pb  Pb31  1  0.065341  0.870367  0.248039  1
  Pb  Pb32  1  0.654522  0.847674  0.746458  1
  Pb  Pb33  1  0.155297  0.652111  0.753232  1
  Pb  Pb34  1  0.346343  0.152069  0.246420  1
  Pb  Pb35  1  0.842399  0.351544  0.250630  1
