# generated using pymatgen
data_HoZr(Al3Rh)3
_symmetry_space_group_name_H-M   'P 1'
_cell_length_a   7.50003100
_cell_length_b   7.48499008
_cell_length_c   9.33587500
_cell_angle_alpha   90.00000000
_cell_angle_beta   90.00000000
_cell_angle_gamma   119.66381793
_symmetry_Int_Tables_number   1
_chemical_formula_structural   HoZr(Al3Rh)3
_chemical_formula_sum   'Ho2 Zr2 Al18 Rh6'
_cell_volume   455.40858682
_cell_formula_units_Z   2
loop_
 _symmetry_equiv_pos_site_id
 _symmetry_equiv_pos_as_xyz
  1  'x, y, z'
loop_
 _atom_site_type_symbol
 _atom_site_label
 _atom_site_symmetry_multiplicity
 _atom_site_fract_x
 _atom_site_fract_y
 _atom_site_fract_z
 _atom_site_occupancy
  Ho  Ho0  1  0.670862  0.993747  0.250000  1
  Ho  Ho1  1  0.329138  0.006253  0.750000  1
  Zr  Zr2  1  0.995011  0.671514  0.250000  1
  Zr  Zr3  1  0.004989  0.328486  0.750000  1
  Al  Al4  1  0.125117  0.123502  0.250000  1
  Al  Al5  1  0.874883  0.876498  0.750000  1
  Al  Al6  1  0.999136  0.337201  0.075404  1
  Al  Al7  1  0.000864  0.662799  0.924596  1
  Al  Al8  1  0.000864  0.662799  0.575404  1
  Al  Al9  1  0.332510  0.998085  0.421429  1
  Al  Al10  1  0.999136  0.337201  0.424596  1
  Al  Al11  1  0.667490  0.001915  0.578571  1
  Al  Al12  1  0.667490  0.001915  0.921429  1
  Al  Al13  1  0.332510  0.998085  0.078571  1
  Al  Al14  1  0.330936  0.333346  0.555629  1
  Al  Al15  1  0.669064  0.666654  0.444371  1
  Al  Al16  1  0.669064  0.666654  0.055629  1
  Al  Al17  1  0.330936  0.333346  0.944371  1
  Al  Al18  1  0.334715  0.549264  0.250000  1
  Al  Al19  1  0.665285  0.450736  0.750000  1
  Al  Al20  1  0.556195  0.343482  0.250000  1
  Al  Al21  1  0.443805  0.656518  0.750000  1
  Rh  Rh22  1  0.672471  0.327464  0.999241  1
  Rh  Rh23  1  0.327529  0.672536  0.000759  1
  Rh  Rh24  1  0.327529  0.672536  0.499241  1
  Rh  Rh25  1  0.672471  0.327464  0.500759  1
  Rh  Rh26  1  0.000000  0.000000  0.000000  1
  Rh  Rh27  1  0.000000  0.000000  0.500000  1
