# generated using pymatgen
data_Eu2GaSiPt4
_symmetry_space_group_name_H-M   'P 1'
_cell_length_a   4.09126348
_cell_length_b   4.16319200
_cell_length_c   9.62767513
_cell_angle_alpha   90.00000000
_cell_angle_beta   102.26737584
_cell_angle_gamma   90.00000000
_symmetry_Int_Tables_number   1
_chemical_formula_structural   Eu2GaSiPt4
_chemical_formula_sum   'Eu2 Ga1 Si1 Pt4'
_cell_volume   160.24112393
_cell_formula_units_Z   1
loop_
 _symmetry_equiv_pos_site_id
 _symmetry_equiv_pos_as_xyz
  1  'x, y, z'
loop_
 _atom_site_type_symbol
 _atom_site_label
 _atom_site_symmetry_multiplicity
 _atom_site_fract_x
 _atom_site_fract_y
 _atom_site_fract_z
 _atom_site_occupancy
  Eu  Eu0  1  0.597467  0.250000  0.194933  1
  Eu  Eu1  1  0.406078  0.750000  0.812155  1
  Ga  Ga2  1  0.827225  0.250000  0.654449  1
  Si  Si3  1  0.173804  0.750000  0.347609  1
  Pt  Pt4  1  0.958324  0.250000  0.916648  1
  Pt  Pt5  1  0.049333  0.750000  0.098667  1
  Pt  Pt6  1  0.243733  0.250000  0.487466  1
  Pt  Pt7  1  0.744036  0.750000  0.488073  1
