# generated using pymatgen
data_DyY11Tc3Pt
_symmetry_space_group_name_H-M   'P 1'
_cell_length_a   6.34473586
_cell_length_b   7.43903209
_cell_length_c   9.25628300
_cell_angle_alpha   90.00000000
_cell_angle_beta   90.00000000
_cell_angle_gamma   89.90690770
_symmetry_Int_Tables_number   1
_chemical_formula_structural   DyY11Tc3Pt
_chemical_formula_sum   'Dy1 Y11 Tc3 Pt1'
_cell_volume   436.88388932
_cell_formula_units_Z   1
loop_
 _symmetry_equiv_pos_site_id
 _symmetry_equiv_pos_as_xyz
  1  'x, y, z'
loop_
 _atom_site_type_symbol
 _atom_site_label
 _atom_site_symmetry_multiplicity
 _atom_site_fract_x
 _atom_site_fract_y
 _atom_site_fract_z
 _atom_site_occupancy
  Dy  Dy0  1  0.625370  0.039964  0.250000  1
  Y  Y1  1  0.330034  0.675831  0.067824  1
  Y  Y2  1  0.164880  0.176867  0.435621  1
  Y  Y3  1  0.667470  0.319016  0.559133  1
  Y  Y4  1  0.837165  0.827462  0.939549  1
  Y  Y5  1  0.667470  0.319016  0.940867  1
  Y  Y6  1  0.837165  0.827462  0.560451  1
  Y  Y7  1  0.330034  0.675831  0.432176  1
  Y  Y8  1  0.164880  0.176867  0.064379  1
  Y  Y9  1  0.871516  0.543659  0.250000  1
  Y  Y10  1  0.129956  0.455150  0.750000  1
  Y  Y11  1  0.369339  0.963637  0.750000  1
  Tc  Tc12  1  0.035804  0.885963  0.250000  1
  Tc  Tc13  1  0.465096  0.384291  0.250000  1
  Tc  Tc14  1  0.957617  0.115091  0.750000  1
  Pt  Pt15  1  0.546202  0.613891  0.750000  1
