# generated using pymatgen
data_Li3La2HoPt3
_symmetry_space_group_name_H-M   'P 1'
_cell_length_a   7.29144008
_cell_length_b   7.32114324
_cell_length_c   4.16751200
_cell_angle_alpha   90.00000000
_cell_angle_beta   90.00000000
_cell_angle_gamma   120.13482513
_symmetry_Int_Tables_number   1
_chemical_formula_structural   Li3La2HoPt3
_chemical_formula_sum   'Li3 La2 Ho1 Pt3'
_cell_volume   192.40133195
_cell_formula_units_Z   1
loop_
 _symmetry_equiv_pos_site_id
 _symmetry_equiv_pos_as_xyz
  1  'x, y, z'
loop_
 _atom_site_type_symbol
 _atom_site_label
 _atom_site_symmetry_multiplicity
 _atom_site_fract_x
 _atom_site_fract_y
 _atom_site_fract_z
 _atom_site_occupancy
  Li  Li0  1  0.776221  0.770723  0.500000  1
  Li  Li1  1  0.223779  0.994502  0.500000  1
  Li  Li2  1  0.000000  0.230614  0.500000  1
  La  La3  1  0.411849  0.414286  0.000000  1
  La  La4  1  0.588151  0.002437  0.000000  1
  Ho  Ho5  1  0.000000  0.592637  0.000000  1
  Pt  Pt6  1  0.000000  0.989278  0.000000  1
  Pt  Pt7  1  0.680960  0.343240  0.500000  1
  Pt  Pt8  1  0.319040  0.662280  0.500000  1
