# generated using pymatgen
data_K2FeGeO4
_symmetry_space_group_name_H-M   'P 1'
_cell_length_a   5.95735300
_cell_length_b   5.82195886
_cell_length_c   9.79598946
_cell_angle_alpha   53.18185237
_cell_angle_beta   90.00000000
_cell_angle_gamma   90.00000000
_symmetry_Int_Tables_number   1
_chemical_formula_structural   K2FeGeO4
_chemical_formula_sum   'K4 Fe2 Ge2 O8'
_cell_volume   271.99109196
_cell_formula_units_Z   2
loop_
 _symmetry_equiv_pos_site_id
 _symmetry_equiv_pos_as_xyz
  1  'x, y, z'
loop_
 _atom_site_type_symbol
 _atom_site_label
 _atom_site_symmetry_multiplicity
 _atom_site_fract_x
 _atom_site_fract_y
 _atom_site_fract_z
 _atom_site_occupancy
  K  K0  1  0.682055  0.632192  0.806510  1
  K  K1  1  0.317945  0.632192  0.306510  1
  K  K2  1  0.810939  0.373960  0.561339  1
  K  K3  1  0.189061  0.373960  0.061339  1
  Fe  Fe4  1  0.196389  0.872276  0.553431  1
  Fe  Fe5  1  0.803611  0.872276  0.053431  1
  Ge  Ge6  1  0.301689  0.112913  0.808532  1
  Ge  Ge7  1  0.698311  0.112913  0.308532  1
  O  O8  1  0.224718  0.462227  0.626122  1
  O  O9  1  0.775282  0.462227  0.126122  1
  O  O10  1  0.588747  0.125592  0.858540  1
  O  O11  1  0.411253  0.125592  0.358540  1
  O  O12  1  0.276269  0.866703  0.757436  1
  O  O13  1  0.723731  0.866703  0.257436  1
  O  O14  1  0.132100  0.983557  0.992962  1
  O  O15  1  0.867900  0.983557  0.492962  1
