# generated using pymatgen
data_Ho3Er(SiPt2)4
_symmetry_space_group_name_H-M   'P 1'
_cell_length_a   5.51565507
_cell_length_b   6.96707600
_cell_length_c   7.31983709
_cell_angle_alpha   90.00000000
_cell_angle_beta   90.01831239
_cell_angle_gamma   90.00000000
_symmetry_Int_Tables_number   1
_chemical_formula_structural   Ho3Er(SiPt2)4
_chemical_formula_sum   'Ho3 Er1 Si4 Pt8'
_cell_volume   281.28659810
_cell_formula_units_Z   1
loop_
 _symmetry_equiv_pos_site_id
 _symmetry_equiv_pos_as_xyz
  1  'x, y, z'
loop_
 _atom_site_type_symbol
 _atom_site_label
 _atom_site_symmetry_multiplicity
 _atom_site_fract_x
 _atom_site_fract_y
 _atom_site_fract_z
 _atom_site_occupancy
  Ho  Ho0  1  0.137604  0.750000  0.528058  1
  Ho  Ho1  1  0.637477  0.250000  0.972140  1
  Ho  Ho2  1  0.862259  0.250000  0.472065  1
  Er  Er3  1  0.362030  0.750000  0.027830  1
  Si  Si4  1  0.637997  0.750000  0.380071  1
  Si  Si5  1  0.861704  0.750000  0.880780  1
  Si  Si6  1  0.361932  0.250000  0.619539  1
  Si  Si7  1  0.138061  0.250000  0.119553  1
  Pt  Pt8  1  0.908250  0.550468  0.181318  1
  Pt  Pt9  1  0.591894  0.949550  0.681688  1
  Pt  Pt10  1  0.092330  0.050149  0.818762  1
  Pt  Pt11  1  0.407994  0.449880  0.318215  1
  Pt  Pt12  1  0.092330  0.449851  0.818762  1
  Pt  Pt13  1  0.407994  0.050120  0.318215  1
  Pt  Pt14  1  0.908250  0.949532  0.181318  1
  Pt  Pt15  1  0.591894  0.550450  0.681688  1
