# generated using pymatgen
data_Th4Al4IrOs3
_symmetry_space_group_name_H-M   'P 1'
_cell_length_a   6.98205858
_cell_length_b   4.26762100
_cell_length_c   8.37352500
_cell_angle_alpha   90.00000000
_cell_angle_beta   90.54129353
_cell_angle_gamma   90.00000000
_symmetry_Int_Tables_number   1
_chemical_formula_structural   Th4Al4IrOs3
_chemical_formula_sum   'Th4 Al4 Ir1 Os3'
_cell_volume   249.49294641
_cell_formula_units_Z   1
loop_
 _symmetry_equiv_pos_site_id
 _symmetry_equiv_pos_as_xyz
  1  'x, y, z'
loop_
 _atom_site_type_symbol
 _atom_site_label
 _atom_site_symmetry_multiplicity
 _atom_site_fract_x
 _atom_site_fract_y
 _atom_site_fract_z
 _atom_site_occupancy
  Th  Th0  1  0.963308  0.250000  0.179389  1
  Th  Th1  1  0.460506  0.250000  0.317757  1
  Th  Th2  1  0.037595  0.750000  0.817302  1
  Th  Th3  1  0.536286  0.750000  0.684562  1
  Al  Al4  1  0.871887  0.250000  0.556050  1
  Al  Al5  1  0.370132  0.250000  0.943852  1
  Al  Al6  1  0.131243  0.750000  0.443821  1
  Al  Al7  1  0.628726  0.750000  0.056048  1
  Ir  Ir8  1  0.758721  0.750000  0.376619  1
  Os  Os9  1  0.741681  0.250000  0.874879  1
  Os  Os10  1  0.242100  0.250000  0.623759  1
  Os  Os11  1  0.257817  0.750000  0.125963  1
