# generated using pymatgen
data_Ba3LaYSe6
_symmetry_space_group_name_H-M   'P 1'
_cell_length_a   8.99652750
_cell_length_b   8.99652532
_cell_length_c   8.99652700
_cell_angle_alpha   92.45145786
_cell_angle_beta   92.45146364
_cell_angle_gamma   92.45145795
_symmetry_Int_Tables_number   1
_chemical_formula_structural   Ba3LaYSe6
_chemical_formula_sum   'Ba6 La2 Y2 Se12'
_cell_volume   726.09812599
_cell_formula_units_Z   2
loop_
 _symmetry_equiv_pos_site_id
 _symmetry_equiv_pos_as_xyz
  1  'x, y, z'
loop_
 _atom_site_type_symbol
 _atom_site_label
 _atom_site_symmetry_multiplicity
 _atom_site_fract_x
 _atom_site_fract_y
 _atom_site_fract_z
 _atom_site_occupancy
  Ba  Ba0  1  0.369298  0.750000  0.130702  1
  Ba  Ba1  1  0.130702  0.369298  0.750000  1
  Ba  Ba2  1  0.750000  0.130702  0.369298  1
  Ba  Ba3  1  0.630702  0.250000  0.869298  1
  Ba  Ba4  1  0.869298  0.630702  0.250000  1
  Ba  Ba5  1  0.250000  0.869298  0.630702  1
  La  La6  1  0.250000  0.250000  0.250000  1
  La  La7  1  0.750000  0.750000  0.750000  1
  Y  Y8  1  0.500000  0.500000  0.500000  1
  Y  Y9  1  0.000000  0.000000  0.000000  1
  Se  Se10  1  0.544807  0.412160  0.196133  1
  Se  Se11  1  0.196133  0.544807  0.412160  1
  Se  Se12  1  0.412160  0.196133  0.544807  1
  Se  Se13  1  0.955193  0.303867  0.087840  1
  Se  Se14  1  0.087840  0.955193  0.303867  1
  Se  Se15  1  0.303867  0.087840  0.955193  1
  Se  Se16  1  0.455193  0.587840  0.803867  1
  Se  Se17  1  0.803867  0.455193  0.587840  1
  Se  Se18  1  0.587840  0.803867  0.455193  1
  Se  Se19  1  0.044807  0.696133  0.912160  1
  Se  Se20  1  0.696133  0.912160  0.044807  1
  Se  Se21  1  0.912160  0.044807  0.696133  1
