# generated using pymatgen
data_Tb4BeB14
_symmetry_space_group_name_H-M   'P 1'
_cell_length_a   7.23075500
_cell_length_b   7.23075500
_cell_length_c   7.42939800
_cell_angle_alpha   90.00000000
_cell_angle_beta   90.00000000
_cell_angle_gamma   90.00000000
_symmetry_Int_Tables_number   1
_chemical_formula_structural   Tb4BeB14
_chemical_formula_sum   'Tb8 Be2 B28'
_cell_volume   388.43729192
_cell_formula_units_Z   2
loop_
 _symmetry_equiv_pos_site_id
 _symmetry_equiv_pos_as_xyz
  1  'x, y, z'
loop_
 _atom_site_type_symbol
 _atom_site_label
 _atom_site_symmetry_multiplicity
 _atom_site_fract_x
 _atom_site_fract_y
 _atom_site_fract_z
 _atom_site_occupancy
  Tb  Tb0  1  0.194903  0.328911  0.000000  1
  Tb  Tb1  1  0.671089  0.194903  0.000000  1
  Tb  Tb2  1  0.328911  0.805097  0.000000  1
  Tb  Tb3  1  0.694903  0.171089  0.500000  1
  Tb  Tb4  1  0.305097  0.828911  0.500000  1
  Tb  Tb5  1  0.805097  0.671089  0.000000  1
  Tb  Tb6  1  0.828911  0.694903  0.500000  1
  Tb  Tb7  1  0.171089  0.305097  0.500000  1
  Be  Be8  1  0.000000  0.000000  0.000000  1
  Be  Be9  1  0.500000  0.500000  0.500000  1
  B  B10  1  0.173519  0.038897  0.228255  1
  B  B11  1  0.961103  0.173519  0.228255  1
  B  B12  1  0.038897  0.826481  0.228255  1
  B  B13  1  0.673519  0.461103  0.271745  1
  B  B14  1  0.326481  0.538897  0.271745  1
  B  B15  1  0.826481  0.961103  0.228255  1
  B  B16  1  0.538897  0.673519  0.271745  1
  B  B17  1  0.461103  0.326481  0.271745  1
  B  B18  1  0.826481  0.961103  0.771745  1
  B  B19  1  0.038897  0.826481  0.771745  1
  B  B20  1  0.961103  0.173519  0.771745  1
  B  B21  1  0.326481  0.538897  0.728255  1
  B  B22  1  0.673519  0.461103  0.728255  1
  B  B23  1  0.173519  0.038897  0.771745  1
  B  B24  1  0.461103  0.326481  0.728255  1
  B  B25  1  0.538897  0.673519  0.728255  1
  B  B26  1  0.088623  0.588623  0.250000  1
  B  B27  1  0.411377  0.088623  0.250000  1
  B  B28  1  0.588623  0.911377  0.250000  1
  B  B29  1  0.911377  0.411377  0.250000  1
  B  B30  1  0.911377  0.411377  0.750000  1
  B  B31  1  0.588623  0.911377  0.750000  1
  B  B32  1  0.411377  0.088623  0.750000  1
  B  B33  1  0.088623  0.588623  0.750000  1
  B  B34  1  0.000000  0.000000  0.387771  1
  B  B35  1  0.500000  0.500000  0.112229  1
  B  B36  1  0.000000  0.000000  0.612229  1
  B  B37  1  0.500000  0.500000  0.887771  1
