# generated using pymatgen
data_Lu6Al4Pt13
_symmetry_space_group_name_H-M   'P 1'
_cell_length_a   8.19796545
_cell_length_b   8.19796479
_cell_length_c   8.19796600
_cell_angle_alpha   109.47122115
_cell_angle_beta   109.47121953
_cell_angle_gamma   109.47122337
_symmetry_Int_Tables_number   1
_chemical_formula_structural   Lu6Al4Pt13
_chemical_formula_sum   'Lu6 Al4 Pt13'
_cell_volume   424.12741243
_cell_formula_units_Z   1
loop_
 _symmetry_equiv_pos_site_id
 _symmetry_equiv_pos_as_xyz
  1  'x, y, z'
loop_
 _atom_site_type_symbol
 _atom_site_label
 _atom_site_symmetry_multiplicity
 _atom_site_fract_x
 _atom_site_fract_y
 _atom_site_fract_z
 _atom_site_occupancy
  Lu  Lu0  1  0.698931  0.698931  0.000000  1
  Lu  Lu1  1  0.301069  0.000000  0.301069  1
  Lu  Lu2  1  0.000000  0.301069  0.301069  1
  Lu  Lu3  1  0.301069  0.301069  0.000000  1
  Lu  Lu4  1  0.698931  0.000000  0.698931  1
  Lu  Lu5  1  0.000000  0.698931  0.698931  1
  Al  Al6  1  0.000000  0.000000  0.500000  1
  Al  Al7  1  0.000000  0.500000  0.000000  1
  Al  Al8  1  0.500000  0.000000  0.000000  1
  Al  Al9  1  0.500000  0.500000  0.500000  1
  Pt  Pt10  1  0.320018  0.320018  0.640035  1
  Pt  Pt11  1  0.679982  0.000000  0.320018  1
  Pt  Pt12  1  0.000000  0.679982  0.320018  1
  Pt  Pt13  1  0.679982  0.320018  0.000000  1
  Pt  Pt14  1  0.320018  0.640035  0.320018  1
  Pt  Pt15  1  0.000000  0.320018  0.679982  1
  Pt  Pt16  1  0.320018  0.679982  0.000000  1
  Pt  Pt17  1  0.320018  0.000000  0.679982  1
  Pt  Pt18  1  0.640035  0.320018  0.320018  1
  Pt  Pt19  1  0.679982  0.679982  0.359965  1
  Pt  Pt20  1  0.679982  0.359965  0.679982  1
  Pt  Pt21  1  0.359965  0.679982  0.679982  1
  Pt  Pt22  1  0.000000  0.000000  0.000000  1
