# generated using pymatgen
data_Al2V12SiOs
_symmetry_space_group_name_H-M   'P 1'
_cell_length_a   4.76225800
_cell_length_b   4.78694100
_cell_length_c   9.53266800
_cell_angle_alpha   90.00000000
_cell_angle_beta   90.00000000
_cell_angle_gamma   90.00000000
_symmetry_Int_Tables_number   1
_chemical_formula_structural   Al2V12SiOs
_chemical_formula_sum   'Al2 V12 Si1 Os1'
_cell_volume   217.31287759
_cell_formula_units_Z   1
loop_
 _symmetry_equiv_pos_site_id
 _symmetry_equiv_pos_as_xyz
  1  'x, y, z'
loop_
 _atom_site_type_symbol
 _atom_site_label
 _atom_site_symmetry_multiplicity
 _atom_site_fract_x
 _atom_site_fract_y
 _atom_site_fract_z
 _atom_site_occupancy
  Al  Al0  1  0.000000  0.000000  0.748543  1
  Al  Al1  1  0.000000  0.000000  0.251457  1
  V  V2  1  0.000000  0.500000  0.121770  1
  V  V3  1  0.000000  0.500000  0.627078  1
  V  V4  1  0.500000  0.254945  0.749059  1
  V  V5  1  0.500000  0.254945  0.250941  1
  V  V6  1  0.747904  0.000000  0.000000  1
  V  V7  1  0.744743  0.000000  0.500000  1
  V  V8  1  0.000000  0.500000  0.878230  1
  V  V9  1  0.000000  0.500000  0.372922  1
  V  V10  1  0.500000  0.745055  0.749059  1
  V  V11  1  0.500000  0.745055  0.250941  1
  V  V12  1  0.252096  0.000000  0.000000  1
  V  V13  1  0.255257  0.000000  0.500000  1
  Si  Si14  1  0.500000  0.500000  0.500000  1
  Os  Os15  1  0.500000  0.500000  0.000000  1
