# generated using pymatgen
data_Ba3Tm2(PS4)4
_symmetry_space_group_name_H-M   'P 1'
_cell_length_a   10.41221300
_cell_length_b   12.74290700
_cell_length_c   19.43586900
_cell_angle_alpha   90.00000000
_cell_angle_beta   90.00000000
_cell_angle_gamma   90.00000000
_symmetry_Int_Tables_number   1
_chemical_formula_structural   Ba3Tm2(PS4)4
_chemical_formula_sum   'Ba12 Tm8 P16 S64'
_cell_volume   2578.78728702
_cell_formula_units_Z   4
loop_
 _symmetry_equiv_pos_site_id
 _symmetry_equiv_pos_as_xyz
  1  'x, y, z'
loop_
 _atom_site_type_symbol
 _atom_site_label
 _atom_site_symmetry_multiplicity
 _atom_site_fract_x
 _atom_site_fract_y
 _atom_site_fract_z
 _atom_site_occupancy
  Ba  Ba0  1  0.789877  0.107541  0.227108  1
  Ba  Ba1  1  0.116502  0.250000  0.000000  1
  Ba  Ba2  1  0.710123  0.892459  0.727108  1
  Ba  Ba3  1  0.883498  0.750000  0.000000  1
  Ba  Ba4  1  0.383498  0.750000  0.500000  1
  Ba  Ba5  1  0.289877  0.392459  0.727108  1
  Ba  Ba6  1  0.210123  0.892459  0.772892  1
  Ba  Ba7  1  0.789877  0.392459  0.772892  1
  Ba  Ba8  1  0.710123  0.607541  0.272892  1
  Ba  Ba9  1  0.289877  0.107541  0.272892  1
  Ba  Ba10  1  0.210123  0.607541  0.227108  1
  Ba  Ba11  1  0.616502  0.250000  0.500000  1
  Tm  Tm12  1  0.628878  0.387335  0.073532  1
  Tm  Tm13  1  0.628878  0.112665  0.926468  1
  Tm  Tm14  1  0.371122  0.612665  0.926468  1
  Tm  Tm15  1  0.871122  0.887335  0.426468  1
  Tm  Tm16  1  0.371122  0.887335  0.073532  1
  Tm  Tm17  1  0.871122  0.612665  0.573532  1
  Tm  Tm18  1  0.128878  0.387335  0.426468  1
  Tm  Tm19  1  0.128878  0.112665  0.573532  1
  P  P20  1  0.495744  0.360172  0.898375  1
  P  P21  1  0.935821  0.451422  0.130921  1
  P  P22  1  0.435821  0.451422  0.369079  1
  P  P23  1  0.935821  0.048578  0.869079  1
  P  P24  1  0.064179  0.548578  0.869079  1
  P  P25  1  0.564179  0.951422  0.369079  1
  P  P26  1  0.504256  0.860172  0.898375  1
  P  P27  1  0.495744  0.139828  0.101625  1
  P  P28  1  0.004256  0.860172  0.601625  1
  P  P29  1  0.564179  0.548578  0.630921  1
  P  P30  1  0.995744  0.360172  0.601625  1
  P  P31  1  0.995744  0.139828  0.398375  1
  P  P32  1  0.004256  0.639828  0.398375  1
  P  P33  1  0.504256  0.639828  0.101625  1
  P  P34  1  0.064179  0.951422  0.130921  1
  P  P35  1  0.435821  0.048578  0.630921  1
  S  S36  1  0.003523  0.485707  0.666504  1
  S  S37  1  0.122479  0.585324  0.967391  1
  S  S38  1  0.929897  0.611921  0.147349  1
  S  S39  1  0.711044  0.613958  0.690277  1
  S  S40  1  0.886341  0.894308  0.149515  1
  S  S41  1  0.435758  0.270349  0.150055  1
  S  S42  1  0.929897  0.888079  0.852651  1
  S  S43  1  0.111250  0.597276  0.483459  1
  S  S44  1  0.679113  0.170961  0.067375  1
  S  S45  1  0.622479  0.914676  0.467391  1
  S  S46  1  0.496477  0.985707  0.833496  1
  S  S47  1  0.070103  0.111921  0.147349  1
  S  S48  1  0.113659  0.105692  0.850485  1
  S  S49  1  0.877521  0.414676  0.032609  1
  S  S50  1  0.064242  0.770349  0.349945  1
  S  S51  1  0.320887  0.829039  0.932625  1
  S  S52  1  0.564242  0.770349  0.150055  1
  S  S53  1  0.288956  0.386042  0.309723  1
  S  S54  1  0.503523  0.014293  0.166504  1
  S  S55  1  0.377521  0.414676  0.467391  1
  S  S56  1  0.179113  0.170961  0.432625  1
  S  S57  1  0.429897  0.888079  0.647349  1
  S  S58  1  0.820887  0.670961  0.432625  1
  S  S59  1  0.429897  0.611921  0.352651  1
  S  S60  1  0.679113  0.329039  0.932625  1
  S  S61  1  0.388750  0.402724  0.983459  1
  S  S62  1  0.788956  0.113958  0.809723  1
  S  S63  1  0.386341  0.894308  0.350485  1
  S  S64  1  0.888750  0.097276  0.483459  1
  S  S65  1  0.064242  0.729651  0.650055  1
  S  S66  1  0.435758  0.229651  0.849945  1
  S  S67  1  0.388750  0.097276  0.016541  1
  S  S68  1  0.935758  0.270349  0.349945  1
  S  S69  1  0.288956  0.113958  0.690277  1
  S  S70  1  0.179113  0.329039  0.567375  1
  S  S71  1  0.003523  0.014293  0.333496  1
  S  S72  1  0.386341  0.605692  0.649515  1
  S  S73  1  0.935758  0.229651  0.650055  1
  S  S74  1  0.996477  0.514293  0.333496  1
  S  S75  1  0.570103  0.111921  0.352651  1
  S  S76  1  0.564242  0.729651  0.849945  1
  S  S77  1  0.820887  0.829039  0.567375  1
  S  S78  1  0.111250  0.902724  0.516541  1
  S  S79  1  0.622479  0.585324  0.532609  1
  S  S80  1  0.122479  0.914676  0.032609  1
  S  S81  1  0.788956  0.386042  0.190277  1
  S  S82  1  0.496477  0.514293  0.166504  1
  S  S83  1  0.377521  0.085324  0.532609  1
  S  S84  1  0.888750  0.402724  0.516541  1
  S  S85  1  0.886341  0.605692  0.850485  1
  S  S86  1  0.211044  0.886042  0.190277  1
  S  S87  1  0.613659  0.105692  0.649515  1
  S  S88  1  0.711044  0.886042  0.309723  1
  S  S89  1  0.211044  0.613958  0.809723  1
  S  S90  1  0.613659  0.394308  0.350485  1
  S  S91  1  0.570103  0.388079  0.647349  1
  S  S92  1  0.503523  0.485707  0.833496  1
  S  S93  1  0.070103  0.388079  0.852651  1
  S  S94  1  0.611250  0.902724  0.983459  1
  S  S95  1  0.320887  0.670961  0.067375  1
  S  S96  1  0.996477  0.985707  0.666504  1
  S  S97  1  0.113659  0.394308  0.149515  1
  S  S98  1  0.877521  0.085324  0.967391  1
  S  S99  1  0.611250  0.597276  0.016541  1
