# generated using pymatgen
data_NdH5Pt
_symmetry_space_group_name_H-M   'P 1'
_cell_length_a   4.74959500
_cell_length_b   4.59409700
_cell_length_c   12.93898500
_cell_angle_alpha   90.00000000
_cell_angle_beta   90.00000000
_cell_angle_gamma   90.00000000
_symmetry_Int_Tables_number   1
_chemical_formula_structural   NdH5Pt
_chemical_formula_sum   'Nd4 H20 Pt4'
_cell_volume   282.32994842
_cell_formula_units_Z   4
loop_
 _symmetry_equiv_pos_site_id
 _symmetry_equiv_pos_as_xyz
  1  'x, y, z'
loop_
 _atom_site_type_symbol
 _atom_site_label
 _atom_site_symmetry_multiplicity
 _atom_site_fract_x
 _atom_site_fract_y
 _atom_site_fract_z
 _atom_site_occupancy
  Nd  Nd0  1  0.279959  0.014474  0.631981  1
  Nd  Nd1  1  0.779959  0.485526  0.368019  1
  Nd  Nd2  1  0.220041  0.985526  0.131981  1
  Nd  Nd3  1  0.720041  0.514474  0.868019  1
  H  H4  1  0.750384  0.220040  0.549616  1
  H  H5  1  0.250384  0.279960  0.450384  1
  H  H6  1  0.749616  0.779960  0.049616  1
  H  H7  1  0.249616  0.720040  0.950384  1
  H  H8  1  0.021532  0.902281  0.798363  1
  H  H9  1  0.521532  0.597719  0.201637  1
  H  H10  1  0.478468  0.097719  0.298363  1
  H  H11  1  0.978468  0.402281  0.701637  1
  H  H12  1  0.213180  0.354118  0.828997  1
  H  H13  1  0.713180  0.145882  0.171003  1
  H  H14  1  0.286820  0.645882  0.328997  1
  H  H15  1  0.786820  0.854118  0.671003  1
  H  H16  1  0.555867  0.995675  0.805780  1
  H  H17  1  0.055867  0.504325  0.194220  1
  H  H18  1  0.944133  0.004325  0.305780  1
  H  H19  1  0.444133  0.495675  0.694220  1
  H  H20  1  0.935406  0.306719  0.022011  1
  H  H21  1  0.435406  0.193281  0.977989  1
  H  H22  1  0.564594  0.693281  0.522011  1
  H  H23  1  0.064594  0.806719  0.477989  1
  Pt  Pt24  1  0.250076  0.030237  0.884320  1
  Pt  Pt25  1  0.750076  0.469763  0.115680  1
  Pt  Pt26  1  0.249924  0.969763  0.384320  1
  Pt  Pt27  1  0.749924  0.530237  0.615680  1
