# generated using pymatgen
data_Nd3Ho(Er3Pt4)2
_symmetry_space_group_name_H-M   'P 1'
_cell_length_a   7.55299400
_cell_length_b   7.61730301
_cell_length_c   14.78329202
_cell_angle_alpha   90.00614621
_cell_angle_beta   90.00000000
_cell_angle_gamma   90.00000000
_symmetry_Int_Tables_number   1
_chemical_formula_structural   Nd3Ho(Er3Pt4)2
_chemical_formula_sum   'Nd6 Ho2 Er12 Pt16'
_cell_volume   850.53369783
_cell_formula_units_Z   2
loop_
 _symmetry_equiv_pos_site_id
 _symmetry_equiv_pos_as_xyz
  1  'x, y, z'
loop_
 _atom_site_type_symbol
 _atom_site_label
 _atom_site_symmetry_multiplicity
 _atom_site_fract_x
 _atom_site_fract_y
 _atom_site_fract_z
 _atom_site_occupancy
  Nd  Nd0  1  0.500038  0.679157  0.593114  1
  Nd  Nd1  1  0.000038  0.820843  0.906886  1
  Nd  Nd2  1  0.499844  0.323802  0.092539  1
  Nd  Nd3  1  0.999844  0.176198  0.407461  1
  Nd  Nd4  1  0.499672  0.321866  0.406691  1
  Nd  Nd5  1  0.999672  0.178134  0.093309  1
  Ho  Ho6  1  0.502782  0.680293  0.905514  1
  Ho  Ho7  1  0.002782  0.819707  0.594486  1
  Er  Er8  1  0.658116  0.166841  0.623426  1
  Er  Er9  1  0.158116  0.333159  0.876574  1
  Er  Er10  1  0.345032  0.831173  0.122458  1
  Er  Er11  1  0.845032  0.668827  0.377542  1
  Er  Er12  1  0.343170  0.832925  0.376728  1
  Er  Er13  1  0.843170  0.667075  0.123272  1
  Er  Er14  1  0.656370  0.167473  0.876217  1
  Er  Er15  1  0.156370  0.332527  0.623783  1
  Er  Er16  1  0.819103  0.510428  0.750179  1
  Er  Er17  1  0.319103  0.989572  0.749821  1
  Er  Er18  1  0.179976  0.490330  0.250139  1
  Er  Er19  1  0.679976  0.009670  0.249861  1
  Pt  Pt20  1  0.680642  0.962010  0.459027  1
  Pt  Pt21  1  0.180642  0.537990  0.040973  1
  Pt  Pt22  1  0.322699  0.032180  0.956051  1
  Pt  Pt23  1  0.822699  0.467820  0.543949  1
  Pt  Pt24  1  0.315206  0.032696  0.543537  1
  Pt  Pt25  1  0.815206  0.467304  0.956463  1
  Pt  Pt26  1  0.678539  0.960640  0.041146  1
  Pt  Pt27  1  0.178539  0.539360  0.458854  1
  Pt  Pt28  1  0.453890  0.382474  0.751044  1
  Pt  Pt29  1  0.953890  0.117526  0.748956  1
  Pt  Pt30  1  0.546196  0.620841  0.250109  1
  Pt  Pt31  1  0.046196  0.879159  0.249891  1
  Pt  Pt32  1  0.683194  0.859258  0.751459  1
  Pt  Pt33  1  0.183194  0.640742  0.748541  1
  Pt  Pt34  1  0.315529  0.138318  0.249957  1
  Pt  Pt35  1  0.815529  0.361682  0.250043  1
