# generated using pymatgen
data_DySc7(Si4Tc3)4
_symmetry_space_group_name_H-M   'P 1'
_cell_length_a   6.66717394
_cell_length_b   6.67039864
_cell_length_c   12.37933624
_cell_angle_alpha   90.33273204
_cell_angle_beta   89.86960104
_cell_angle_gamma   89.94030910
_symmetry_Int_Tables_number   1
_chemical_formula_structural   DySc7(Si4Tc3)4
_chemical_formula_sum   'Dy1 Sc7 Si16 Tc12'
_cell_volume   550.53159022
_cell_formula_units_Z   1
loop_
 _symmetry_equiv_pos_site_id
 _symmetry_equiv_pos_as_xyz
  1  'x, y, z'
loop_
 _atom_site_type_symbol
 _atom_site_label
 _atom_site_symmetry_multiplicity
 _atom_site_fract_x
 _atom_site_fract_y
 _atom_site_fract_z
 _atom_site_occupancy
  Dy  Dy0  1  0.337782  0.999570  0.469623  1
  Sc  Sc1  1  0.002754  0.657101  0.030228  1
  Sc  Sc2  1  0.996496  0.343544  0.531102  1
  Sc  Sc3  1  0.657749  0.001392  0.970404  1
  Sc  Sc4  1  0.158497  0.498745  0.780614  1
  Sc  Sc5  1  0.842379  0.503635  0.278919  1
  Sc  Sc6  1  0.499042  0.158669  0.219073  1
  Sc  Sc7  1  0.504470  0.843161  0.719760  1
  Si  Si8  1  0.023725  0.718420  0.435598  1
  Si  Si9  1  0.969094  0.284061  0.933523  1
  Si  Si10  1  0.728850  0.028051  0.565245  1
  Si  Si11  1  0.220822  0.471942  0.183882  1
  Si  Si12  1  0.783444  0.529626  0.685693  1
  Si  Si13  1  0.469314  0.215784  0.817566  1
  Si  Si14  1  0.530740  0.776798  0.311352  1
  Si  Si15  1  0.283103  0.970009  0.065913  1
  Si  Si16  1  0.808393  0.877052  0.182656  1
  Si  Si17  1  0.307285  0.617272  0.567828  1
  Si  Si18  1  0.692539  0.376586  0.065233  1
  Si  Si19  1  0.624063  0.311555  0.433917  1
  Si  Si20  1  0.375244  0.692957  0.933696  1
  Si  Si21  1  0.118155  0.196999  0.312020  1
  Si  Si22  1  0.191654  0.123207  0.687202  1
  Si  Si23  1  0.875261  0.806722  0.817672  1
  Tc  Tc24  1  0.317183  0.480923  0.378813  1
  Tc  Tc25  1  0.817644  0.023701  0.368941  1
  Tc  Tc26  1  0.978236  0.176863  0.124985  1
  Tc  Tc27  1  0.023539  0.814730  0.633224  1
  Tc  Tc28  1  0.483142  0.323416  0.626348  1
  Tc  Tc29  1  0.174804  0.978244  0.874394  1
  Tc  Tc30  1  0.672410  0.668258  0.500436  1
  Tc  Tc31  1  0.832226  0.169456  0.750997  1
  Tc  Tc32  1  0.169366  0.829112  0.247059  1
  Tc  Tc33  1  0.330389  0.331052  0.000156  1
  Tc  Tc34  1  0.524585  0.680606  0.118183  1
  Tc  Tc35  1  0.675622  0.520778  0.877742  1
