# generated using pymatgen
data_Ho2ErPa(CdPd2)2
_symmetry_space_group_name_H-M   'P 1'
_cell_length_a   7.74421204
_cell_length_b   7.74421209
_cell_length_c   3.68271500
_cell_angle_alpha   90.00000000
_cell_angle_beta   90.00000000
_cell_angle_gamma   91.61398989
_symmetry_Int_Tables_number   1
_chemical_formula_structural   Ho2ErPa(CdPd2)2
_chemical_formula_sum   'Ho2 Er1 Pa1 Cd2 Pd4'
_cell_volume   220.77518217
_cell_formula_units_Z   1
loop_
 _symmetry_equiv_pos_site_id
 _symmetry_equiv_pos_as_xyz
  1  'x, y, z'
loop_
 _atom_site_type_symbol
 _atom_site_label
 _atom_site_symmetry_multiplicity
 _atom_site_fract_x
 _atom_site_fract_y
 _atom_site_fract_z
 _atom_site_occupancy
  Ho  Ho0  1  0.172692  0.331089  0.500000  1
  Ho  Ho1  1  0.831089  0.672692  0.500000  1
  Er  Er2  1  0.326060  0.826060  0.500000  1
  Pa  Pa3  1  0.668846  0.168846  0.500000  1
  Cd  Cd4  1  0.003536  0.999724  0.000000  1
  Cd  Cd5  1  0.499724  0.503536  0.000000  1
  Pd  Pd6  1  0.124797  0.624797  0.000000  1
  Pd  Pd7  1  0.862123  0.362123  0.000000  1
  Pd  Pd8  1  0.631552  0.879581  0.000000  1
  Pd  Pd9  1  0.379581  0.131552  0.000000  1
