# generated using pymatgen
data_Dy12Co4SnRh
_symmetry_space_group_name_H-M   'P 1'
_cell_length_a   8.32716200
_cell_length_b   8.32716197
_cell_length_c   8.32716163
_cell_angle_alpha   106.99847987
_cell_angle_beta   110.53689448
_cell_angle_gamma   110.90645696
_symmetry_Int_Tables_number   1
_chemical_formula_structural   Dy12Co4SnRh
_chemical_formula_sum   'Dy12 Co4 Sn1 Rh1'
_cell_volume   443.87487434
_cell_formula_units_Z   1
loop_
 _symmetry_equiv_pos_site_id
 _symmetry_equiv_pos_as_xyz
  1  'x, y, z'
loop_
 _atom_site_type_symbol
 _atom_site_label
 _atom_site_symmetry_multiplicity
 _atom_site_fract_x
 _atom_site_fract_y
 _atom_site_fract_z
 _atom_site_occupancy
  Dy  Dy0  1  0.478701  0.292429  0.186272  1
  Dy  Dy1  1  0.106157  0.292429  0.813728  1
  Dy  Dy2  1  0.893843  0.707571  0.186272  1
  Dy  Dy3  1  0.521299  0.707571  0.813728  1
  Dy  Dy4  1  0.305891  0.619158  0.313266  1
  Dy  Dy5  1  0.305891  0.992626  0.686734  1
  Dy  Dy6  1  0.694109  0.380842  0.686734  1
  Dy  Dy7  1  0.694109  0.007374  0.313266  1
  Dy  Dy8  1  0.195621  0.210647  0.406268  1
  Dy  Dy9  1  0.804379  0.789353  0.593732  1
  Dy  Dy10  1  0.195621  0.789353  0.984974  1
  Dy  Dy11  1  0.804379  0.210647  0.015026  1
  Co  Co12  1  0.500000  0.611493  0.111493  1
  Co  Co13  1  0.500000  0.388507  0.888507  1
  Co  Co14  1  0.379198  0.000000  0.379198  1
  Co  Co15  1  0.620802  0.000000  0.620802  1
  Sn  Sn16  1  0.000000  0.500000  0.500000  1
  Rh  Rh17  1  0.000000  0.000000  0.000000  1
