# generated using pymatgen
data_Ba2MnCo3P4
_symmetry_space_group_name_H-M   'P 1'
_cell_length_a   5.40665300
_cell_length_b   6.80131690
_cell_length_c   5.40188413
_cell_angle_alpha   66.64815774
_cell_angle_beta   90.00004239
_cell_angle_gamma   90.00004212
_symmetry_Int_Tables_number   1
_chemical_formula_structural   Ba2MnCo3P4
_chemical_formula_sum   'Ba2 Mn1 Co3 P4'
_cell_volume   182.36904950
_cell_formula_units_Z   1
loop_
 _symmetry_equiv_pos_site_id
 _symmetry_equiv_pos_as_xyz
  1  'x, y, z'
loop_
 _atom_site_type_symbol
 _atom_site_label
 _atom_site_symmetry_multiplicity
 _atom_site_fract_x
 _atom_site_fract_y
 _atom_site_fract_z
 _atom_site_occupancy
  Ba  Ba0  1  0.996826  0.000001  0.999999  1
  Ba  Ba1  1  0.503102  0.999999  0.500000  1
  Mn  Mn2  1  0.249777  0.500000  0.500002  1
  Co  Co3  1  0.250062  0.499999  0.000000  1
  Co  Co4  1  0.749876  0.500001  0.000000  1
  Co  Co5  1  0.750074  0.499999  0.500000  1
  P  P6  1  0.497907  0.680955  0.161672  1
  P  P7  1  0.002233  0.680972  0.657604  1
  P  P8  1  0.002234  0.319027  0.342395  1
  P  P9  1  0.497909  0.319044  0.838328  1
