# generated using pymatgen
data_Ce4Sc6GeSb7
_symmetry_space_group_name_H-M   'P 1'
_cell_length_a   7.89747100
_cell_length_b   7.80824679
_cell_length_c   14.83423400
_cell_angle_alpha   90.00000000
_cell_angle_beta   90.00000000
_cell_angle_gamma   90.72016335
_symmetry_Int_Tables_number   1
_chemical_formula_structural   Ce4Sc6GeSb7
_chemical_formula_sum   'Ce8 Sc12 Ge2 Sb14'
_cell_volume   914.68675289
_cell_formula_units_Z   2
loop_
 _symmetry_equiv_pos_site_id
 _symmetry_equiv_pos_as_xyz
  1  'x, y, z'
loop_
 _atom_site_type_symbol
 _atom_site_label
 _atom_site_symmetry_multiplicity
 _atom_site_fract_x
 _atom_site_fract_y
 _atom_site_fract_z
 _atom_site_occupancy
  Ce  Ce0  1  0.987187  0.181699  0.099194  1
  Ce  Ce1  1  0.012813  0.818301  0.900806  1
  Ce  Ce2  1  0.523259  0.675972  0.905432  1
  Ce  Ce3  1  0.012813  0.818301  0.599194  1
  Ce  Ce4  1  0.476741  0.324028  0.094568  1
  Ce  Ce5  1  0.987187  0.181699  0.400806  1
  Ce  Ce6  1  0.476741  0.324028  0.405432  1
  Ce  Ce7  1  0.523259  0.675972  0.594568  1
  Sc  Sc8  1  0.173138  0.500300  0.750000  1
  Sc  Sc9  1  0.826862  0.499700  0.250000  1
  Sc  Sc10  1  0.317038  0.006857  0.250000  1
  Sc  Sc11  1  0.682962  0.993143  0.750000  1
  Sc  Sc12  1  0.348992  0.148362  0.625465  1
  Sc  Sc13  1  0.651008  0.851638  0.374535  1
  Sc  Sc14  1  0.156300  0.641484  0.372781  1
  Sc  Sc15  1  0.651008  0.851638  0.125465  1
  Sc  Sc16  1  0.843700  0.358516  0.627219  1
  Sc  Sc17  1  0.348992  0.148362  0.874535  1
  Sc  Sc18  1  0.843700  0.358516  0.872781  1
  Sc  Sc19  1  0.156300  0.641484  0.127219  1
  Ge  Ge20  1  0.170728  0.349986  0.250000  1
  Ge  Ge21  1  0.829272  0.650014  0.750000  1
  Sb  Sb22  1  0.194010  0.450753  0.547864  1
  Sb  Sb23  1  0.805990  0.549247  0.452136  1
  Sb  Sb24  1  0.302186  0.947619  0.454337  1
  Sb  Sb25  1  0.805990  0.549247  0.047864  1
  Sb  Sb26  1  0.697814  0.052381  0.545663  1
  Sb  Sb27  1  0.194010  0.450753  0.952136  1
  Sb  Sb28  1  0.697814  0.052381  0.954337  1
  Sb  Sb29  1  0.302186  0.947619  0.045663  1
  Sb  Sb30  1  0.038755  0.139201  0.750000  1
  Sb  Sb31  1  0.961245  0.860799  0.250000  1
  Sb  Sb32  1  0.457343  0.632687  0.250000  1
  Sb  Sb33  1  0.542657  0.367313  0.750000  1
  Sb  Sb34  1  0.328719  0.846942  0.750000  1
  Sb  Sb35  1  0.671281  0.153058  0.250000  1
