# generated using pymatgen
data_Ca4Dy2Al15Si9Os8
_symmetry_space_group_name_H-M   'P 1'
_cell_length_a   8.65919236
_cell_length_b   8.68425258
_cell_length_c   9.48679500
_cell_angle_alpha   90.00000000
_cell_angle_beta   90.00000000
_cell_angle_gamma   119.98708774
_symmetry_Int_Tables_number   1
_chemical_formula_structural   Ca4Dy2Al15Si9Os8
_chemical_formula_sum   'Ca4 Dy2 Al15 Si9 Os8'
_cell_volume   617.89755067
_cell_formula_units_Z   1
loop_
 _symmetry_equiv_pos_site_id
 _symmetry_equiv_pos_as_xyz
  1  'x, y, z'
loop_
 _atom_site_type_symbol
 _atom_site_label
 _atom_site_symmetry_multiplicity
 _atom_site_fract_x
 _atom_site_fract_y
 _atom_site_fract_z
 _atom_site_occupancy
  Ca  Ca0  1  0.611024  0.806867  0.250000  1
  Ca  Ca1  1  0.388085  0.192100  0.750000  1
  Ca  Ca2  1  0.195654  0.805388  0.250000  1
  Ca  Ca3  1  0.804794  0.194050  0.750000  1
  Dy  Dy4  1  0.192350  0.386450  0.250000  1
  Dy  Dy5  1  0.809977  0.614951  0.750000  1
  Al  Al6  1  0.166869  0.331887  0.576613  1
  Al  Al7  1  0.835120  0.668975  0.420932  1
  Al  Al8  1  0.667577  0.832311  0.575865  1
  Al  Al9  1  0.835120  0.668975  0.079068  1
  Al  Al10  1  0.331451  0.165275  0.421759  1
  Al  Al11  1  0.166869  0.331887  0.923387  1
  Al  Al12  1  0.165439  0.834254  0.576254  1
  Al  Al13  1  0.331451  0.165275  0.078241  1
  Al  Al14  1  0.834004  0.166305  0.422947  1
  Al  Al15  1  0.667577  0.832311  0.924135  1
  Al  Al16  1  0.834004  0.166305  0.077053  1
  Al  Al17  1  0.165439  0.834254  0.923746  1
  Al  Al18  1  0.435607  0.564129  0.750000  1
  Al  Al19  1  0.000115  0.998888  0.250000  1
  Al  Al20  1  0.000606  0.001150  0.750000  1
  Si  Si21  1  0.334211  0.665857  0.041946  1
  Si  Si22  1  0.665933  0.333940  0.958193  1
  Si  Si23  1  0.665933  0.333940  0.541807  1
  Si  Si24  1  0.334211  0.665857  0.458054  1
  Si  Si25  1  0.562124  0.124560  0.250000  1
  Si  Si26  1  0.434950  0.874841  0.750000  1
  Si  Si27  1  0.874487  0.437420  0.250000  1
  Si  Si28  1  0.126556  0.565592  0.750000  1
  Si  Si29  1  0.563279  0.436803  0.250000  1
  Os  Os30  1  0.500001  0.000828  0.000465  1
  Os  Os31  1  0.999100  0.499932  0.000705  1
  Os  Os32  1  0.500001  0.000828  0.499535  1
  Os  Os33  1  0.500998  0.498676  0.006910  1
  Os  Os34  1  0.999100  0.499932  0.499295  1
  Os  Os35  1  0.500998  0.498676  0.493090  1
  Os  Os36  1  0.999494  0.000167  0.999845  1
  Os  Os37  1  0.999494  0.000167  0.500155  1
