# generated using pymatgen
data_TbHo16Tm3Sn16
_symmetry_space_group_name_H-M   'P 1'
_cell_length_a   8.00874380
_cell_length_b   8.14670630
_cell_length_c   15.40501500
_cell_angle_alpha   90.00485277
_cell_angle_beta   89.94418329
_cell_angle_gamma   89.96794833
_symmetry_Int_Tables_number   1
_chemical_formula_structural   TbHo16Tm3Sn16
_chemical_formula_sum   'Tb1 Ho16 Tm3 Sn16'
_cell_volume   1005.09777279
_cell_formula_units_Z   1
loop_
 _symmetry_equiv_pos_site_id
 _symmetry_equiv_pos_as_xyz
  1  'x, y, z'
loop_
 _atom_site_type_symbol
 _atom_site_label
 _atom_site_symmetry_multiplicity
 _atom_site_fract_x
 _atom_site_fract_y
 _atom_site_fract_z
 _atom_site_occupancy
  Tb  Tb0  1  0.020143  0.179644  0.902876  1
  Ho  Ho1  1  0.367703  0.836682  0.877612  1
  Ho  Ho2  1  0.867678  0.663525  0.622061  1
  Ho  Ho3  1  0.632050  0.163273  0.377740  1
  Ho  Ho4  1  0.132553  0.336785  0.122449  1
  Ho  Ho5  1  0.632566  0.163312  0.122362  1
  Ho  Ho6  1  0.132125  0.336685  0.377713  1
  Ho  Ho7  1  0.368095  0.836657  0.622182  1
  Ho  Ho8  1  0.867540  0.663385  0.877715  1
  Ho  Ho9  1  0.520991  0.320692  0.902684  1
  Ho  Ho10  1  0.021079  0.179393  0.597498  1
  Ho  Ho11  1  0.478861  0.679356  0.402603  1
  Ho  Ho12  1  0.979313  0.820253  0.097315  1
  Ho  Ho13  1  0.479161  0.679495  0.097347  1
  Ho  Ho14  1  0.978945  0.820561  0.402707  1
  Ho  Ho15  1  0.521128  0.320609  0.597153  1
  Ho  Ho16  1  0.198466  0.502974  0.749839  1
  Tm  Tm17  1  0.698286  0.996865  0.749759  1
  Tm  Tm18  1  0.801549  0.496973  0.250098  1
  Tm  Tm19  1  0.301651  0.002904  0.250079  1
  Sn  Sn20  1  0.293298  0.035713  0.042255  1
  Sn  Sn21  1  0.792326  0.463916  0.458042  1
  Sn  Sn22  1  0.707663  0.964223  0.542046  1
  Sn  Sn23  1  0.207686  0.537012  0.958516  1
  Sn  Sn24  1  0.706209  0.962879  0.958214  1
  Sn  Sn25  1  0.207657  0.536337  0.541565  1
  Sn  Sn26  1  0.292304  0.035899  0.458120  1
  Sn  Sn27  1  0.792541  0.463821  0.041905  1
  Sn  Sn28  1  0.565489  0.619037  0.749941  1
  Sn  Sn29  1  0.064362  0.881358  0.749877  1
  Sn  Sn30  1  0.435543  0.381534  0.250123  1
  Sn  Sn31  1  0.935544  0.118519  0.250138  1
  Sn  Sn32  1  0.330963  0.147852  0.749902  1
  Sn  Sn33  1  0.829265  0.351736  0.749563  1
  Sn  Sn34  1  0.669722  0.851365  0.249978  1
  Sn  Sn35  1  0.169553  0.648778  0.250022  1
