# generated using pymatgen
data_Sc22Tc5Ag2Ir
_symmetry_space_group_name_H-M   'P 1'
_cell_length_a   9.63790479
_cell_length_b   9.55467365
_cell_length_c   9.63790544
_cell_angle_alpha   60.28526442
_cell_angle_beta   59.42948346
_cell_angle_gamma   60.28526665
_symmetry_Int_Tables_number   1
_chemical_formula_structural   Sc22Tc5Ag2Ir
_chemical_formula_sum   'Sc22 Tc5 Ag2 Ir1'
_cell_volume   627.48301193
_cell_formula_units_Z   1
loop_
 _symmetry_equiv_pos_site_id
 _symmetry_equiv_pos_as_xyz
  1  'x, y, z'
loop_
 _atom_site_type_symbol
 _atom_site_label
 _atom_site_symmetry_multiplicity
 _atom_site_fract_x
 _atom_site_fract_y
 _atom_site_fract_z
 _atom_site_occupancy
  Sc  Sc0  1  0.804744  0.804744  0.195256  1
  Sc  Sc1  1  0.196057  0.803943  0.196057  1
  Sc  Sc2  1  0.804744  0.195256  0.195256  1
  Sc  Sc3  1  0.195256  0.195256  0.804744  1
  Sc  Sc4  1  0.803943  0.196057  0.803943  1
  Sc  Sc5  1  0.195256  0.804744  0.804744  1
  Sc  Sc6  1  0.607463  0.620134  0.152270  1
  Sc  Sc7  1  0.620134  0.152270  0.620134  1
  Sc  Sc8  1  0.152270  0.620134  0.607463  1
  Sc  Sc9  1  0.620134  0.607463  0.620134  1
  Sc  Sc10  1  0.392537  0.379866  0.847730  1
  Sc  Sc11  1  0.379866  0.847730  0.379866  1
  Sc  Sc12  1  0.847730  0.379866  0.392537  1
  Sc  Sc13  1  0.379866  0.392537  0.379866  1
  Sc  Sc14  1  0.854662  0.837529  0.470279  1
  Sc  Sc15  1  0.837529  0.470279  0.837529  1
  Sc  Sc16  1  0.470279  0.837529  0.854662  1
  Sc  Sc17  1  0.837529  0.854662  0.837529  1
  Sc  Sc18  1  0.145338  0.162471  0.529721  1
  Sc  Sc19  1  0.162471  0.529721  0.162471  1
  Sc  Sc20  1  0.529721  0.162471  0.145338  1
  Sc  Sc21  1  0.162471  0.145338  0.162471  1
  Tc  Tc22  1  0.000000  0.000000  0.000000  1
  Tc  Tc23  1  0.000000  0.000000  0.500000  1
  Tc  Tc24  1  0.000000  0.500000  0.500000  1
  Tc  Tc25  1  0.500000  0.500000  0.000000  1
  Tc  Tc26  1  0.500000  0.000000  0.000000  1
  Ag  Ag27  1  0.500000  0.000000  0.500000  1
  Ag  Ag28  1  0.000000  0.500000  0.000000  1
  Ir  Ir29  1  0.500000  0.500000  0.500000  1
