# generated using pymatgen
data_Ca5CdPd2
_symmetry_space_group_name_H-M   'P 1'
_cell_length_a   9.24188382
_cell_length_b   9.24188286
_cell_length_c   9.24188271
_cell_angle_alpha   128.99334347
_cell_angle_beta   128.99333396
_cell_angle_gamma   75.02128865
_symmetry_Int_Tables_number   1
_chemical_formula_structural   Ca5CdPd2
_chemical_formula_sum   'Ca10 Cd2 Pd4'
_cell_volume   464.32352872
_cell_formula_units_Z   2
loop_
 _symmetry_equiv_pos_site_id
 _symmetry_equiv_pos_as_xyz
  1  'x, y, z'
loop_
 _atom_site_type_symbol
 _atom_site_label
 _atom_site_symmetry_multiplicity
 _atom_site_fract_x
 _atom_site_fract_y
 _atom_site_fract_z
 _atom_site_occupancy
  Ca  Ca0  1  0.532787  0.032787  0.832088  1
  Ca  Ca1  1  0.200699  0.700699  0.167912  1
  Ca  Ca2  1  0.032787  0.200699  0.500000  1
  Ca  Ca3  1  0.700699  0.532787  0.500000  1
  Ca  Ca4  1  0.467213  0.967213  0.167912  1
  Ca  Ca5  1  0.799301  0.299301  0.832088  1
  Ca  Ca6  1  0.967213  0.799301  0.500000  1
  Ca  Ca7  1  0.299301  0.467213  0.500000  1
  Ca  Ca8  1  0.500000  0.500000  0.000000  1
  Ca  Ca9  1  0.000000  0.000000  0.000000  1
  Cd  Cd10  1  0.250000  0.250000  0.000000  1
  Cd  Cd11  1  0.750000  0.750000  0.000000  1
  Pd  Pd12  1  0.628491  0.871509  0.500000  1
  Pd  Pd13  1  0.371509  0.128491  0.500000  1
  Pd  Pd14  1  0.128491  0.628491  0.756983  1
  Pd  Pd15  1  0.871509  0.371509  0.243017  1
