# generated using pymatgen
data_PrSm5(Sn3Hg2)2
_symmetry_space_group_name_H-M   'P 1'
_cell_length_a   6.55720769
_cell_length_b   6.55720700
_cell_length_c   10.36995768
_cell_angle_alpha   89.89322829
_cell_angle_beta   89.89322396
_cell_angle_gamma   103.05660989
_symmetry_Int_Tables_number   1
_chemical_formula_structural   PrSm5(Sn3Hg2)2
_chemical_formula_sum   'Pr1 Sm5 Sn6 Hg4'
_cell_volume   434.34768807
_cell_formula_units_Z   1
loop_
 _symmetry_equiv_pos_site_id
 _symmetry_equiv_pos_as_xyz
  1  'x, y, z'
loop_
 _atom_site_type_symbol
 _atom_site_label
 _atom_site_symmetry_multiplicity
 _atom_site_fract_x
 _atom_site_fract_y
 _atom_site_fract_z
 _atom_site_occupancy
  Pr  Pr0  1  0.796024  0.203976  0.000000  1
  Sm  Sm1  1  0.624954  0.625622  0.250144  1
  Sm  Sm2  1  0.374378  0.375046  0.749856  1
  Sm  Sm3  1  0.203741  0.796259  0.000000  1
  Sm  Sm4  1  0.204618  0.795382  0.500000  1
  Sm  Sm5  1  0.795344  0.204656  0.500000  1
  Sn  Sn6  1  0.067696  0.495486  0.250895  1
  Sn  Sn7  1  0.934922  0.508003  0.748164  1
  Sn  Sn8  1  0.491997  0.065078  0.251836  1
  Sn  Sn9  1  0.504514  0.932304  0.749105  1
  Sn  Sn10  1  0.016301  0.014721  0.251542  1
  Sn  Sn11  1  0.985279  0.983699  0.748458  1
  Hg  Hg12  1  0.313151  0.313025  0.041546  1
  Hg  Hg13  1  0.686975  0.686849  0.958454  1
  Hg  Hg14  1  0.687435  0.687329  0.540969  1
  Hg  Hg15  1  0.312671  0.312565  0.459031  1
