# generated using pymatgen
data_SmEr4Mn2O12
_symmetry_space_group_name_H-M   'P 1'
_cell_length_a   6.80345862
_cell_length_b   6.80345721
_cell_length_c   7.23121205
_cell_angle_alpha   74.59774744
_cell_angle_beta   74.59774796
_cell_angle_gamma   49.80730625
_symmetry_Int_Tables_number   1
_chemical_formula_structural   SmEr4Mn2O12
_chemical_formula_sum   'Sm1 Er4 Mn2 O12'
_cell_volume   244.47165717
_cell_formula_units_Z   1
loop_
 _symmetry_equiv_pos_site_id
 _symmetry_equiv_pos_as_xyz
  1  'x, y, z'
loop_
 _atom_site_type_symbol
 _atom_site_label
 _atom_site_symmetry_multiplicity
 _atom_site_fract_x
 _atom_site_fract_y
 _atom_site_fract_z
 _atom_site_occupancy
  Sm  Sm0  1  0.000000  0.000000  0.500000  1
  Er  Er1  1  0.305480  0.305480  0.356249  1
  Er  Er2  1  0.694520  0.694520  0.643751  1
  Er  Er3  1  0.693474  0.693474  0.163371  1
  Er  Er4  1  0.306526  0.306526  0.836629  1
  Mn  Mn5  1  0.753458  0.246542  0.000000  1
  Mn  Mn6  1  0.246542  0.753458  0.000000  1
  O  O7  1  0.096641  0.589860  0.577975  1
  O  O8  1  0.999491  0.999491  0.176290  1
  O  O9  1  0.410140  0.903359  0.422025  1
  O  O10  1  0.500131  0.500131  0.182246  1
  O  O11  1  0.098605  0.577755  0.080480  1
  O  O12  1  0.903359  0.410140  0.422025  1
  O  O13  1  0.000509  0.000509  0.823710  1
  O  O14  1  0.589860  0.096640  0.577975  1
  O  O15  1  0.499869  0.499869  0.817754  1
  O  O16  1  0.577755  0.098605  0.080480  1
  O  O17  1  0.422245  0.901395  0.919520  1
  O  O18  1  0.901395  0.422245  0.919520  1
