# generated using pymatgen
data_Dy18Y2Cd3Ru2Au3
_symmetry_space_group_name_H-M   'P 1'
_cell_length_a   9.59876900
_cell_length_b   9.59876779
_cell_length_c   9.60257600
_cell_angle_alpha   90.00000000
_cell_angle_beta   90.00000000
_cell_angle_gamma   120.00359636
_symmetry_Int_Tables_number   1
_chemical_formula_structural   Dy18Y2Cd3Ru2Au3
_chemical_formula_sum   'Dy18 Y2 Cd3 Ru2 Au3'
_cell_volume   766.18504565
_cell_formula_units_Z   1
loop_
 _symmetry_equiv_pos_site_id
 _symmetry_equiv_pos_as_xyz
  1  'x, y, z'
loop_
 _atom_site_type_symbol
 _atom_site_label
 _atom_site_symmetry_multiplicity
 _atom_site_fract_x
 _atom_site_fract_y
 _atom_site_fract_z
 _atom_site_occupancy
  Dy  Dy0  1  0.999990  0.000010  0.461078  1
  Dy  Dy1  1  0.999990  0.000010  0.038922  1
  Dy  Dy2  1  0.209397  0.790603  0.439807  1
  Dy  Dy3  1  0.209526  0.418869  0.439924  1
  Dy  Dy4  1  0.581131  0.790474  0.439924  1
  Dy  Dy5  1  0.791492  0.208508  0.558531  1
  Dy  Dy6  1  0.791395  0.582985  0.558580  1
  Dy  Dy7  1  0.417015  0.208605  0.558580  1
  Dy  Dy8  1  0.791492  0.208508  0.941469  1
  Dy  Dy9  1  0.791395  0.582985  0.941420  1
  Dy  Dy10  1  0.417015  0.208605  0.941420  1
  Dy  Dy11  1  0.209397  0.790603  0.060193  1
  Dy  Dy12  1  0.209526  0.418869  0.060076  1
  Dy  Dy13  1  0.581131  0.790474  0.060076  1
  Dy  Dy14  1  0.540642  0.459358  0.250000  1
  Dy  Dy15  1  0.540639  0.081211  0.250000  1
  Dy  Dy16  1  0.918789  0.459361  0.250000  1
  Dy  Dy17  1  0.458973  0.541027  0.750000  1
  Y  Y18  1  0.458845  0.917655  0.750000  1
  Y  Y19  1  0.082345  0.541155  0.750000  1
  Cd  Cd20  1  0.109933  0.890067  0.750000  1
  Cd  Cd21  1  0.110010  0.219946  0.750000  1
  Cd  Cd22  1  0.780054  0.889990  0.750000  1
  Ru  Ru23  1  0.333338  0.666662  0.250000  1
  Ru  Ru24  1  0.666587  0.333413  0.750000  1
  Au  Au25  1  0.869682  0.130318  0.250000  1
  Au  Au26  1  0.869635  0.739358  0.250000  1
  Au  Au27  1  0.260642  0.130365  0.250000  1
