# generated using pymatgen
data_Tb4SiNi13
_symmetry_space_group_name_H-M   'P 1'
_cell_length_a   5.00999049
_cell_length_b   4.88259908
_cell_length_c   12.40949464
_cell_angle_alpha   78.73109846
_cell_angle_beta   78.35418256
_cell_angle_gamma   59.13310075
_symmetry_Int_Tables_number   1
_chemical_formula_structural   Tb4SiNi13
_chemical_formula_sum   'Tb4 Si1 Ni13'
_cell_volume   253.67111535
_cell_formula_units_Z   1
loop_
 _symmetry_equiv_pos_site_id
 _symmetry_equiv_pos_as_xyz
  1  'x, y, z'
loop_
 _atom_site_type_symbol
 _atom_site_label
 _atom_site_symmetry_multiplicity
 _atom_site_fract_x
 _atom_site_fract_y
 _atom_site_fract_z
 _atom_site_occupancy
  Tb  Tb0  1  0.948045  0.948968  0.154943  1
  Tb  Tb1  1  0.051955  0.051032  0.845057  1
  Tb  Tb2  1  0.852037  0.854729  0.441197  1
  Tb  Tb3  1  0.147963  0.145271  0.558803  1
  Si  Si4  1  0.500000  0.000000  0.000000  1
  Ni  Ni5  1  0.500000  0.500000  0.500000  1
  Ni  Ni6  1  0.715152  0.733637  0.836060  1
  Ni  Ni7  1  0.284848  0.266363  0.163940  1
  Ni  Ni8  1  0.604800  0.626917  0.163482  1
  Ni  Ni9  1  0.395200  0.373083  0.836518  1
  Ni  Ni10  1  0.000000  0.500000  0.000000  1
  Ni  Ni11  1  0.500000  0.500000  0.000000  1
  Ni  Ni12  1  0.390711  0.393471  0.325902  1
  Ni  Ni13  1  0.889914  0.393471  0.325902  1
  Ni  Ni14  1  0.387801  0.893466  0.330929  1
  Ni  Ni15  1  0.609289  0.606529  0.674098  1
  Ni  Ni16  1  0.110086  0.606529  0.674098  1
  Ni  Ni17  1  0.612199  0.106534  0.669071  1
