# generated using pymatgen
data_LiLu4Sc5Si8
_symmetry_space_group_name_H-M   'P 1'
_cell_length_a   6.91363508
_cell_length_b   7.32450868
_cell_length_c   13.88899100
_cell_angle_alpha   90.00000000
_cell_angle_beta   90.00000000
_cell_angle_gamma   89.96987236
_symmetry_Int_Tables_number   1
_chemical_formula_structural   LiLu4Sc5Si8
_chemical_formula_sum   'Li2 Lu8 Sc10 Si16'
_cell_volume   703.32424279
_cell_formula_units_Z   2
loop_
 _symmetry_equiv_pos_site_id
 _symmetry_equiv_pos_as_xyz
  1  'x, y, z'
loop_
 _atom_site_type_symbol
 _atom_site_label
 _atom_site_symmetry_multiplicity
 _atom_site_fract_x
 _atom_site_fract_y
 _atom_site_fract_z
 _atom_site_occupancy
  Li  Li0  1  0.161017  0.508672  0.750000  1
  Li  Li1  1  0.838983  0.491328  0.250000  1
  Lu  Lu2  1  0.009888  0.185824  0.097640  1
  Lu  Lu3  1  0.990112  0.814176  0.902360  1
  Lu  Lu4  1  0.485954  0.674944  0.903427  1
  Lu  Lu5  1  0.990112  0.814176  0.597640  1
  Lu  Lu6  1  0.514046  0.325056  0.096573  1
  Lu  Lu7  1  0.009888  0.185824  0.402360  1
  Lu  Lu8  1  0.514046  0.325056  0.403427  1
  Lu  Lu9  1  0.485954  0.674944  0.596573  1
  Sc  Sc10  1  0.343026  0.005592  0.250000  1
  Sc  Sc11  1  0.656974  0.994408  0.750000  1
  Sc  Sc12  1  0.325028  0.179993  0.626667  1
  Sc  Sc13  1  0.674972  0.820007  0.373333  1
  Sc  Sc14  1  0.164679  0.675470  0.372766  1
  Sc  Sc15  1  0.674972  0.820007  0.126667  1
  Sc  Sc16  1  0.835321  0.324530  0.627234  1
  Sc  Sc17  1  0.325028  0.179993  0.873333  1
  Sc  Sc18  1  0.835321  0.324530  0.872766  1
  Sc  Sc19  1  0.164679  0.675470  0.127234  1
  Si  Si20  1  0.027774  0.095745  0.750000  1
  Si  Si21  1  0.972226  0.904255  0.250000  1
  Si  Si22  1  0.467563  0.610100  0.250000  1
  Si  Si23  1  0.532437  0.389900  0.750000  1
  Si  Si24  1  0.286417  0.871616  0.750000  1
  Si  Si25  1  0.713583  0.128384  0.250000  1
  Si  Si26  1  0.220025  0.370269  0.250000  1
  Si  Si27  1  0.779975  0.629731  0.750000  1
  Si  Si28  1  0.162844  0.461686  0.533095  1
  Si  Si29  1  0.837156  0.538314  0.466905  1
  Si  Si30  1  0.341366  0.967259  0.461431  1
  Si  Si31  1  0.837156  0.538314  0.033095  1
  Si  Si32  1  0.658634  0.032741  0.538569  1
  Si  Si33  1  0.162844  0.461686  0.966905  1
  Si  Si34  1  0.658634  0.032741  0.961431  1
  Si  Si35  1  0.341366  0.967259  0.038569  1
