# generated using pymatgen
data_Ho2Lu3IrRu
_symmetry_space_group_name_H-M   'P 1'
_cell_length_a   6.28048704
_cell_length_b   7.24101870
_cell_length_c   8.37743254
_cell_angle_alpha   97.17070222
_cell_angle_beta   112.42014358
_cell_angle_gamma   89.95388292
_symmetry_Int_Tables_number   1
_chemical_formula_structural   Ho2Lu3IrRu
_chemical_formula_sum   'Ho4 Lu6 Ir2 Ru2'
_cell_volume   348.97410603
_cell_formula_units_Z   2
loop_
 _symmetry_equiv_pos_site_id
 _symmetry_equiv_pos_as_xyz
  1  'x, y, z'
loop_
 _atom_site_type_symbol
 _atom_site_label
 _atom_site_symmetry_multiplicity
 _atom_site_fract_x
 _atom_site_fract_y
 _atom_site_fract_z
 _atom_site_occupancy
  Ho  Ho0  1  0.522186  0.081050  0.811663  1
  Ho  Ho1  1  0.477814  0.918950  0.188337  1
  Ho  Ho2  1  0.713137  0.416008  0.189247  1
  Ho  Ho3  1  0.286863  0.583992  0.810753  1
  Lu  Lu4  1  0.297050  0.313672  0.434969  1
  Lu  Lu5  1  0.702950  0.686328  0.565031  1
  Lu  Lu6  1  0.864971  0.184719  0.565393  1
  Lu  Lu7  1  0.135029  0.815281  0.434607  1
  Lu  Lu8  1  0.078408  0.248774  0.999334  1
  Lu  Lu9  1  0.921592  0.751226  0.000666  1
  Ir  Ir10  1  0.318480  0.576105  0.223606  1
  Ir  Ir11  1  0.681520  0.423895  0.776394  1
  Ru  Ru12  1  0.098789  0.922749  0.779936  1
  Ru  Ru13  1  0.901211  0.077251  0.220064  1
