# generated using pymatgen
data_Ti5Co10CuB4
_symmetry_space_group_name_H-M   'P 1'
_cell_length_a   8.41055500
_cell_length_b   8.41055500
_cell_length_c   3.01278800
_cell_angle_alpha   90.00000000
_cell_angle_beta   90.00000000
_cell_angle_gamma   90.00000000
_symmetry_Int_Tables_number   1
_chemical_formula_structural   Ti5Co10CuB4
_chemical_formula_sum   'Ti5 Co10 Cu1 B4'
_cell_volume   213.11689655
_cell_formula_units_Z   1
loop_
 _symmetry_equiv_pos_site_id
 _symmetry_equiv_pos_as_xyz
  1  'x, y, z'
loop_
 _atom_site_type_symbol
 _atom_site_label
 _atom_site_symmetry_multiplicity
 _atom_site_fract_x
 _atom_site_fract_y
 _atom_site_fract_z
 _atom_site_occupancy
  Ti  Ti0  1  0.500000  0.500000  0.000000  1
  Ti  Ti1  1  0.828407  0.319643  0.000000  1
  Ti  Ti2  1  0.319643  0.171593  0.000000  1
  Ti  Ti3  1  0.680357  0.828407  0.000000  1
  Ti  Ti4  1  0.171593  0.680357  0.000000  1
  Co  Co5  1  0.500000  0.000000  0.500000  1
  Co  Co6  1  0.000000  0.500000  0.500000  1
  Co  Co7  1  0.071309  0.219095  0.500000  1
  Co  Co8  1  0.219095  0.928691  0.500000  1
  Co  Co9  1  0.780905  0.071309  0.500000  1
  Co  Co10  1  0.928691  0.780905  0.500000  1
  Co  Co11  1  0.429646  0.720387  0.500000  1
  Co  Co12  1  0.570354  0.279613  0.500000  1
  Co  Co13  1  0.720387  0.570354  0.500000  1
  Co  Co14  1  0.279613  0.429646  0.500000  1
  Cu  Cu15  1  0.000000  0.000000  0.000000  1
  B  B16  1  0.623873  0.119385  0.000000  1
  B  B17  1  0.119385  0.376127  0.000000  1
  B  B18  1  0.880615  0.623873  0.000000  1
  B  B19  1  0.376127  0.880615  0.000000  1
