# generated using pymatgen
data_HoNpTcB6
_symmetry_space_group_name_H-M   'P 1'
_cell_length_a   3.61532300
_cell_length_b   9.25328600
_cell_length_c   11.32568500
_cell_angle_alpha   90.00000000
_cell_angle_beta   90.00000000
_cell_angle_gamma   90.00000000
_symmetry_Int_Tables_number   1
_chemical_formula_structural   HoNpTcB6
_chemical_formula_sum   'Ho4 Np4 Tc4 B24'
_cell_volume   378.88513620
_cell_formula_units_Z   4
loop_
 _symmetry_equiv_pos_site_id
 _symmetry_equiv_pos_as_xyz
  1  'x, y, z'
loop_
 _atom_site_type_symbol
 _atom_site_label
 _atom_site_symmetry_multiplicity
 _atom_site_fract_x
 _atom_site_fract_y
 _atom_site_fract_z
 _atom_site_occupancy
  Ho  Ho0  1  0.000000  0.337915  0.406735  1
  Ho  Ho1  1  0.000000  0.662085  0.593265  1
  Ho  Ho2  1  0.000000  0.837915  0.093265  1
  Ho  Ho3  1  0.000000  0.162085  0.906735  1
  Np  Np4  1  0.000000  0.958992  0.400835  1
  Np  Np5  1  0.000000  0.041008  0.599165  1
  Np  Np6  1  0.000000  0.458992  0.099165  1
  Np  Np7  1  0.000000  0.541008  0.900835  1
  Tc  Tc8  1  0.000000  0.646417  0.318688  1
  Tc  Tc9  1  0.000000  0.353583  0.681312  1
  Tc  Tc10  1  0.000000  0.146417  0.181312  1
  Tc  Tc11  1  0.000000  0.853583  0.818688  1
  B  B12  1  0.500000  0.552144  0.431237  1
  B  B13  1  0.500000  0.447856  0.568763  1
  B  B14  1  0.500000  0.052144  0.068763  1
  B  B15  1  0.500000  0.947856  0.931237  1
  B  B16  1  0.500000  0.744009  0.423123  1
  B  B17  1  0.500000  0.255991  0.576877  1
  B  B18  1  0.500000  0.244009  0.076877  1
  B  B19  1  0.500000  0.755991  0.923123  1
  B  B20  1  0.500000  0.804535  0.275076  1
  B  B21  1  0.500000  0.195465  0.724924  1
  B  B22  1  0.500000  0.304535  0.224924  1
  B  B23  1  0.500000  0.695465  0.775076  1
  B  B24  1  0.500000  0.644655  0.188266  1
  B  B25  1  0.500000  0.355345  0.811734  1
  B  B26  1  0.500000  0.144655  0.311734  1
  B  B27  1  0.500000  0.855345  0.688266  1
  B  B28  1  0.500000  0.988856  0.220400  1
  B  B29  1  0.500000  0.011144  0.779600  1
  B  B30  1  0.500000  0.488856  0.279600  1
  B  B31  1  0.500000  0.511144  0.720400  1
  B  B32  1  0.500000  0.640818  0.039068  1
  B  B33  1  0.500000  0.359182  0.960932  1
  B  B34  1  0.500000  0.140818  0.460932  1
  B  B35  1  0.500000  0.859182  0.539068  1
