# generated using pymatgen
data_Ce4Ho6OsRu3
_symmetry_space_group_name_H-M   'P 1'
_cell_length_a   6.36726721
_cell_length_b   7.06366045
_cell_length_c   8.80559052
_cell_angle_alpha   95.49743258
_cell_angle_beta   111.29636530
_cell_angle_gamma   89.88714126
_symmetry_Int_Tables_number   1
_chemical_formula_structural   Ce4Ho6OsRu3
_chemical_formula_sum   'Ce4 Ho6 Os1 Ru3'
_cell_volume   367.07076055
_cell_formula_units_Z   1
loop_
 _symmetry_equiv_pos_site_id
 _symmetry_equiv_pos_as_xyz
  1  'x, y, z'
loop_
 _atom_site_type_symbol
 _atom_site_label
 _atom_site_symmetry_multiplicity
 _atom_site_fract_x
 _atom_site_fract_y
 _atom_site_fract_z
 _atom_site_occupancy
  Ce  Ce0  1  0.984147  0.909900  0.188579  1
  Ce  Ce1  1  0.793120  0.595954  0.811552  1
  Ce  Ce2  1  0.017596  0.095922  0.809909  1
  Ce  Ce3  1  0.207187  0.404123  0.189405  1
  Ho  Ho4  1  0.642653  0.815167  0.431405  1
  Ho  Ho5  1  0.205668  0.682554  0.563923  1
  Ho  Ho6  1  0.359892  0.184188  0.568388  1
  Ho  Ho7  1  0.792869  0.317472  0.432869  1
  Ho  Ho8  1  0.423039  0.749648  0.001064  1
  Ho  Ho9  1  0.581227  0.251855  0.000842  1
  Os  Os10  1  0.841489  0.587231  0.223518  1
  Ru  Ru11  1  0.628767  0.907311  0.779829  1
  Ru  Ru12  1  0.150665  0.406015  0.778573  1
  Ru  Ru13  1  0.371681  0.092660  0.220142  1
