# generated using pymatgen
data_Cs4KFe8(NiP5)2
_symmetry_space_group_name_H-M   'P 1'
_cell_length_a   9.28010875
_cell_length_b   9.28722148
_cell_length_c   9.29059120
_cell_angle_alpha   125.99774870
_cell_angle_beta   125.92193347
_cell_angle_gamma   79.98413728
_symmetry_Int_Tables_number   1
_chemical_formula_structural   Cs4KFe8(NiP5)2
_chemical_formula_sum   'Cs4 K1 Fe8 Ni2 P10'
_cell_volume   506.45041283
_cell_formula_units_Z   1
loop_
 _symmetry_equiv_pos_site_id
 _symmetry_equiv_pos_as_xyz
  1  'x, y, z'
loop_
 _atom_site_type_symbol
 _atom_site_label
 _atom_site_symmetry_multiplicity
 _atom_site_fract_x
 _atom_site_fract_y
 _atom_site_fract_z
 _atom_site_occupancy
  Cs  Cs0  1  0.396338  0.798878  0.198449  1
  Cs  Cs1  1  0.799187  0.602019  0.401467  1
  Cs  Cs2  1  0.199365  0.398423  0.596271  1
  Cs  Cs3  1  0.603258  0.200870  0.802433  1
  K  K4  1  0.000432  0.998956  0.999769  1
  Fe  Fe5  1  0.752308  0.248988  0.501426  1
  Fe  Fe6  1  0.149938  0.050098  0.699509  1
  Fe  Fe7  1  0.547504  0.851520  0.898969  1
  Fe  Fe8  1  0.651315  0.551536  0.700370  1
  Fe  Fe9  1  0.052504  0.352888  0.905777  1
  Fe  Fe10  1  0.448454  0.152691  0.102667  1
  Fe  Fe11  1  0.850172  0.946391  0.297151  1
  Fe  Fe12  1  0.247666  0.746863  0.494509  1
  Ni  Ni13  1  0.948535  0.648606  0.097775  1
  Ni  Ni14  1  0.352255  0.450740  0.302611  1
  P  P15  1  0.928836  0.525776  0.792552  1
  P  P16  1  0.328277  0.325268  0.992975  1
  P  P17  1  0.728063  0.127952  0.200152  1
  P  P18  1  0.131724  0.934645  0.405592  1
  P  P19  1  0.534179  0.737541  0.609278  1
  P  P20  1  0.662075  0.671961  0.994218  1
  P  P21  1  0.069335  0.467470  0.200147  1
  P  P22  1  0.477062  0.267776  0.405605  1
  P  P23  1  0.872489  0.070331  0.601220  1
  P  P24  1  0.268729  0.871810  0.799110  1
