# generated using pymatgen
data_La5GaBi2
_symmetry_space_group_name_H-M   'P 1'
_cell_length_a   12.75261300
_cell_length_b   9.69640000
_cell_length_c   8.45669500
_cell_angle_alpha   90.00000000
_cell_angle_beta   90.00000000
_cell_angle_gamma   90.00000000
_symmetry_Int_Tables_number   1
_chemical_formula_structural   La5GaBi2
_chemical_formula_sum   'La20 Ga4 Bi8'
_cell_volume   1045.70785651
_cell_formula_units_Z   4
loop_
 _symmetry_equiv_pos_site_id
 _symmetry_equiv_pos_as_xyz
  1  'x, y, z'
loop_
 _atom_site_type_symbol
 _atom_site_label
 _atom_site_symmetry_multiplicity
 _atom_site_fract_x
 _atom_site_fract_y
 _atom_site_fract_z
 _atom_site_occupancy
  La  La0  1  0.059530  0.548263  0.811151  1
  La  La1  1  0.559530  0.951737  0.688849  1
  La  La2  1  0.940470  0.048263  0.188849  1
  La  La3  1  0.440470  0.451737  0.311151  1
  La  La4  1  0.940470  0.451737  0.188849  1
  La  La5  1  0.440470  0.048263  0.311151  1
  La  La6  1  0.059530  0.951737  0.811151  1
  La  La7  1  0.559530  0.548263  0.688849  1
  La  La8  1  0.003606  0.750000  0.475354  1
  La  La9  1  0.503606  0.750000  0.024646  1
  La  La10  1  0.996394  0.250000  0.524646  1
  La  La11  1  0.496394  0.250000  0.975354  1
  La  La12  1  0.216565  0.750000  0.167878  1
  La  La13  1  0.716565  0.750000  0.332122  1
  La  La14  1  0.783435  0.250000  0.832122  1
  La  La15  1  0.283435  0.250000  0.667878  1
  La  La16  1  0.290636  0.750000  0.643430  1
  La  La17  1  0.790636  0.750000  0.856570  1
  La  La18  1  0.709364  0.250000  0.356570  1
  La  La19  1  0.209364  0.250000  0.143430  1
  Ga  Ga20  1  0.473360  0.750000  0.405729  1
  Ga  Ga21  1  0.973360  0.750000  0.094271  1
  Ga  Ga22  1  0.526640  0.250000  0.594271  1
  Ga  Ga23  1  0.026640  0.250000  0.905729  1
  Bi  Bi24  1  0.323590  0.508919  0.928994  1
  Bi  Bi25  1  0.823590  0.991081  0.571006  1
  Bi  Bi26  1  0.676410  0.008919  0.071006  1
  Bi  Bi27  1  0.176410  0.491081  0.428994  1
  Bi  Bi28  1  0.676410  0.491081  0.071006  1
  Bi  Bi29  1  0.176410  0.008919  0.428994  1
  Bi  Bi30  1  0.323590  0.991081  0.928994  1
  Bi  Bi31  1  0.823590  0.508919  0.571006  1
