# generated using pymatgen
data_Tm4Al6FeTc
_symmetry_space_group_name_H-M   'P 1'
_cell_length_a   5.45041200
_cell_length_b   5.45041265
_cell_length_c   8.76856700
_cell_angle_alpha   90.00000000
_cell_angle_beta   90.00000000
_cell_angle_gamma   119.99999607
_symmetry_Int_Tables_number   1
_chemical_formula_structural   Tm4Al6FeTc
_chemical_formula_sum   'Tm4 Al6 Fe1 Tc1'
_cell_volume   225.58903651
_cell_formula_units_Z   1
loop_
 _symmetry_equiv_pos_site_id
 _symmetry_equiv_pos_as_xyz
  1  'x, y, z'
loop_
 _atom_site_type_symbol
 _atom_site_label
 _atom_site_symmetry_multiplicity
 _atom_site_fract_x
 _atom_site_fract_y
 _atom_site_fract_z
 _atom_site_occupancy
  Tm  Tm0  1  0.666665  0.333333  0.053624  1
  Tm  Tm1  1  0.666665  0.333333  0.447066  1
  Tm  Tm2  1  0.333334  0.666667  0.552935  1
  Tm  Tm3  1  0.333334  0.666667  0.946376  1
  Al  Al4  1  0.162043  0.324085  0.256145  1
  Al  Al5  1  0.162042  0.837957  0.256145  1
  Al  Al6  1  0.675916  0.837957  0.256145  1
  Al  Al7  1  0.324085  0.162043  0.743855  1
  Al  Al8  1  0.837957  0.162043  0.743855  1
  Al  Al9  1  0.837956  0.675915  0.743855  1
  Fe  Fe10  1  0.000000  0.000000  0.500000  1
  Tc  Tc11  1  0.000000  0.000000  0.000000  1
