# generated using pymatgen
data_Dy4FeMoRu6
_symmetry_space_group_name_H-M   'P 1'
_cell_length_a   5.51023436
_cell_length_b   5.17366808
_cell_length_c   8.98257800
_cell_angle_alpha   90.00000000
_cell_angle_beta   90.00000000
_cell_angle_gamma   122.23001626
_symmetry_Int_Tables_number   1
_chemical_formula_structural   Dy4FeMoRu6
_chemical_formula_sum   'Dy4 Fe1 Mo1 Ru6'
_cell_volume   216.61861969
_cell_formula_units_Z   1
loop_
 _symmetry_equiv_pos_site_id
 _symmetry_equiv_pos_as_xyz
  1  'x, y, z'
loop_
 _atom_site_type_symbol
 _atom_site_label
 _atom_site_symmetry_multiplicity
 _atom_site_fract_x
 _atom_site_fract_y
 _atom_site_fract_z
 _atom_site_occupancy
  Dy  Dy0  1  0.672923  0.346066  0.562657  1
  Dy  Dy1  1  0.332285  0.664763  0.430910  1
  Dy  Dy2  1  0.332285  0.664763  0.069090  1
  Dy  Dy3  1  0.672923  0.346066  0.937343  1
  Fe  Fe4  1  0.834576  0.671492  0.250000  1
  Mo  Mo5  1  0.154179  0.308156  0.750000  1
  Ru  Ru6  1  0.005683  0.010691  0.495981  1
  Ru  Ru7  1  0.005683  0.010691  0.004019  1
  Ru  Ru8  1  0.172327  0.816391  0.750000  1
  Ru  Ru9  1  0.644829  0.817030  0.750000  1
  Ru  Ru10  1  0.824341  0.172349  0.250000  1
  Ru  Ru11  1  0.347965  0.171543  0.250000  1
