# generated using pymatgen
data_Y9Th3Tc3Pd
_symmetry_space_group_name_H-M   'P 1'
_cell_length_a   6.42755300
_cell_length_b   7.35124454
_cell_length_c   9.48304900
_cell_angle_alpha   90.00000000
_cell_angle_beta   90.00000000
_cell_angle_gamma   89.49854945
_symmetry_Int_Tables_number   1
_chemical_formula_structural   Y9Th3Tc3Pd
_chemical_formula_sum   'Y9 Th3 Tc3 Pd1'
_cell_volume   448.06177791
_cell_formula_units_Z   1
loop_
 _symmetry_equiv_pos_site_id
 _symmetry_equiv_pos_as_xyz
  1  'x, y, z'
loop_
 _atom_site_type_symbol
 _atom_site_label
 _atom_site_symmetry_multiplicity
 _atom_site_fract_x
 _atom_site_fract_y
 _atom_site_fract_z
 _atom_site_occupancy
  Y  Y0  1  0.868540  0.530624  0.250000  1
  Y  Y1  1  0.167408  0.180270  0.061904  1
  Y  Y2  1  0.824096  0.825035  0.932850  1
  Y  Y3  1  0.668867  0.323933  0.935329  1
  Y  Y4  1  0.824096  0.825035  0.567150  1
  Y  Y5  1  0.336132  0.672695  0.064847  1
  Y  Y6  1  0.167408  0.180270  0.438096  1
  Y  Y7  1  0.336132  0.672695  0.435153  1
  Y  Y8  1  0.668867  0.323933  0.564671  1
  Th  Th9  1  0.636382  0.056240  0.250000  1
  Th  Th10  1  0.352272  0.947769  0.750000  1
  Th  Th11  1  0.139034  0.451456  0.750000  1
  Tc  Tc12  1  0.466033  0.367987  0.250000  1
  Tc  Tc13  1  0.512511  0.628330  0.750000  1
  Tc  Tc14  1  0.985071  0.129640  0.750000  1
  Pd  Pd15  1  0.047154  0.884085  0.250000  1
