# generated using pymatgen
data_Na4ScP12Ir16Ru3
_symmetry_space_group_name_H-M   'P 1'
_cell_length_a   12.60891200
_cell_length_b   12.60891141
_cell_length_c   3.94263500
_cell_angle_alpha   90.00000000
_cell_angle_beta   90.00000000
_cell_angle_gamma   119.99999631
_symmetry_Int_Tables_number   1
_chemical_formula_structural   Na4ScP12Ir16Ru3
_chemical_formula_sum   'Na4 Sc1 P12 Ir16 Ru3'
_cell_volume   542.84073251
_cell_formula_units_Z   1
loop_
 _symmetry_equiv_pos_site_id
 _symmetry_equiv_pos_as_xyz
  1  'x, y, z'
loop_
 _atom_site_type_symbol
 _atom_site_label
 _atom_site_symmetry_multiplicity
 _atom_site_fract_x
 _atom_site_fract_y
 _atom_site_fract_z
 _atom_site_occupancy
  Na  Na0  1  0.333333  0.666667  0.000000  1
  Na  Na1  1  0.821409  0.000212  0.500000  1
  Na  Na2  1  0.999788  0.821197  0.500000  1
  Na  Na3  1  0.178803  0.178591  0.500000  1
  Sc  Sc4  1  0.666667  0.333333  0.000000  1
  P  P5  1  0.178938  0.999991  0.000000  1
  P  P6  1  0.000009  0.178947  0.000000  1
  P  P7  1  0.821053  0.821062  0.000000  1
  P  P8  1  0.171468  0.485769  0.500000  1
  P  P9  1  0.514231  0.685697  0.500000  1
  P  P10  1  0.314303  0.828532  0.500000  1
  P  P11  1  0.689352  0.516933  0.500000  1
  P  P12  1  0.827580  0.310648  0.500000  1
  P  P13  1  0.483067  0.172420  0.500000  1
  P  P14  1  0.636467  0.996951  0.000000  1
  P  P15  1  0.003049  0.639515  0.000000  1
  P  P16  1  0.360485  0.363533  0.000000  1
  Ir  Ir17  1  0.359314  0.486307  0.500000  1
  Ir  Ir18  1  0.513693  0.873007  0.500000  1
  Ir  Ir19  1  0.126993  0.640686  0.500000  1
  Ir  Ir20  1  0.865318  0.503524  0.500000  1
  Ir  Ir21  1  0.638205  0.134682  0.500000  1
  Ir  Ir22  1  0.496476  0.361795  0.500000  1
  Ir  Ir23  1  0.180114  0.378719  0.000000  1
  Ir  Ir24  1  0.621281  0.801397  0.000000  1
  Ir  Ir25  1  0.198603  0.819886  0.000000  1
  Ir  Ir26  1  0.804732  0.620425  0.000000  1
  Ir  Ir27  1  0.815694  0.195268  0.000000  1
  Ir  Ir28  1  0.379575  0.184306  0.000000  1
  Ir  Ir29  1  0.290048  0.000871  0.500000  1
  Ir  Ir30  1  0.999129  0.289177  0.500000  1
  Ir  Ir31  1  0.710823  0.709952  0.500000  1
  Ir  Ir32  1  0.000000  0.000000  0.000000  1
  Ru  Ru33  1  0.457495  0.002860  0.000000  1
  Ru  Ru34  1  0.997140  0.454635  0.000000  1
  Ru  Ru35  1  0.545365  0.542505  0.000000  1
