# generated using pymatgen
data_Ba9Pu(PN5)2
_symmetry_space_group_name_H-M   'P 1'
_cell_length_a   7.88427066
_cell_length_b   7.88427113
_cell_length_c   8.98157200
_cell_angle_alpha   75.67156912
_cell_angle_beta   75.67156824
_cell_angle_gamma   93.73039193
_symmetry_Int_Tables_number   1
_chemical_formula_structural   Ba9Pu(PN5)2
_chemical_formula_sum   'Ba9 Pu1 P2 N10'
_cell_volume   519.34984944
_cell_formula_units_Z   1
loop_
 _symmetry_equiv_pos_site_id
 _symmetry_equiv_pos_as_xyz
  1  'x, y, z'
loop_
 _atom_site_type_symbol
 _atom_site_label
 _atom_site_symmetry_multiplicity
 _atom_site_fract_x
 _atom_site_fract_y
 _atom_site_fract_z
 _atom_site_occupancy
  Ba  Ba0  1  0.607519  0.607519  0.627271  1
  Ba  Ba1  1  0.680455  0.680455  0.994475  1
  Ba  Ba2  1  0.327640  0.327640  0.007341  1
  Ba  Ba3  1  0.928492  0.928492  0.207375  1
  Ba  Ba4  1  0.076726  0.076726  0.782851  1
  Ba  Ba5  1  0.562834  0.089214  0.750788  1
  Ba  Ba6  1  0.916796  0.427803  0.256323  1
  Ba  Ba7  1  0.427803  0.916796  0.256323  1
  Ba  Ba8  1  0.089214  0.562834  0.750788  1
  Pu  Pu9  1  0.420795  0.420795  0.353111  1
  P  P10  1  0.752842  0.244738  0.006586  1
  P  P11  1  0.244738  0.752842  0.006586  1
  N  N12  1  0.620767  0.620767  0.322548  1
  N  N13  1  0.356725  0.356725  0.614833  1
  N  N14  1  0.714348  0.033700  0.005308  1
  N  N15  1  0.964557  0.276566  0.012415  1
  N  N16  1  0.276566  0.964557  0.012415  1
  N  N17  1  0.033700  0.714348  0.005308  1
  N  N18  1  0.381843  0.721509  0.843212  1
  N  N19  1  0.284135  0.609995  0.170463  1
  N  N20  1  0.609995  0.284135  0.170463  1
  N  N21  1  0.721509  0.381843  0.843212  1
