# generated using pymatgen
data_ErHf(Al3Ir)3
_symmetry_space_group_name_H-M   'P 1'
_cell_length_a   7.50772225
_cell_length_b   7.49413687
_cell_length_c   9.32062100
_cell_angle_alpha   90.00000000
_cell_angle_beta   90.00000000
_cell_angle_gamma   119.70345399
_symmetry_Int_Tables_number   1
_chemical_formula_structural   ErHf(Al3Ir)3
_chemical_formula_sum   'Er2 Hf2 Al18 Ir6'
_cell_volume   455.50727126
_cell_formula_units_Z   2
loop_
 _symmetry_equiv_pos_site_id
 _symmetry_equiv_pos_as_xyz
  1  'x, y, z'
loop_
 _atom_site_type_symbol
 _atom_site_label
 _atom_site_symmetry_multiplicity
 _atom_site_fract_x
 _atom_site_fract_y
 _atom_site_fract_z
 _atom_site_occupancy
  Er  Er0  1  0.671084  0.993333  0.750000  1
  Er  Er1  1  0.328916  0.006667  0.250000  1
  Hf  Hf2  1  0.995174  0.672305  0.750000  1
  Hf  Hf3  1  0.004826  0.327695  0.250000  1
  Al  Al4  1  0.126392  0.124898  0.750000  1
  Al  Al5  1  0.873608  0.875102  0.250000  1
  Al  Al6  1  0.999329  0.337140  0.576230  1
  Al  Al7  1  0.000671  0.662860  0.423770  1
  Al  Al8  1  0.000671  0.662860  0.076230  1
  Al  Al9  1  0.332780  0.998307  0.920804  1
  Al  Al10  1  0.999329  0.337140  0.923770  1
  Al  Al11  1  0.667220  0.001693  0.079196  1
  Al  Al12  1  0.667220  0.001693  0.420804  1
  Al  Al13  1  0.332780  0.998307  0.579196  1
  Al  Al14  1  0.331097  0.333442  0.056377  1
  Al  Al15  1  0.668903  0.666558  0.943623  1
  Al  Al16  1  0.668903  0.666558  0.556377  1
  Al  Al17  1  0.331097  0.333442  0.443623  1
  Al  Al18  1  0.334861  0.548286  0.750000  1
  Al  Al19  1  0.665139  0.451714  0.250000  1
  Al  Al20  1  0.555407  0.344015  0.750000  1
  Al  Al21  1  0.444593  0.655985  0.250000  1
  Ir  Ir22  1  0.672741  0.327661  0.499373  1
  Ir  Ir23  1  0.327259  0.672339  0.500627  1
  Ir  Ir24  1  0.327259  0.672339  0.999373  1
  Ir  Ir25  1  0.672741  0.327661  0.000627  1
  Ir  Ir26  1  0.000000  0.000000  0.500000  1
  Ir  Ir27  1  0.000000  0.000000  0.000000  1
