# generated using pymatgen
data_TiBeC
_symmetry_space_group_name_H-M   'P 1'
_cell_length_a   3.19463532
_cell_length_b   4.43219745
_cell_length_c   3.07010829
_cell_angle_alpha   69.72376977
_cell_angle_beta   90.05621753
_cell_angle_gamma   136.20163306
_symmetry_Int_Tables_number   1
_chemical_formula_structural   TiBeC
_chemical_formula_sum   'Ti1 Be1 C1'
_cell_volume   26.06157696
_cell_formula_units_Z   1
loop_
 _symmetry_equiv_pos_site_id
 _symmetry_equiv_pos_as_xyz
  1  'x, y, z'
loop_
 _atom_site_type_symbol
 _atom_site_label
 _atom_site_symmetry_multiplicity
 _atom_site_fract_x
 _atom_site_fract_y
 _atom_site_fract_z
 _atom_site_occupancy
  Ti  Ti0  1  0.034374  0.858906  0.276606  1
  Be  Be1  1  0.201107  0.525703  0.942662  1
  C  C2  1  0.867940  0.192055  0.609499  1
