# generated using pymatgen
data_Yb4AlNiOs6
_symmetry_space_group_name_H-M   'P 1'
_cell_length_a   5.34779500
_cell_length_b   5.34779576
_cell_length_c   8.61182000
_cell_angle_alpha   90.00000000
_cell_angle_beta   90.00000000
_cell_angle_gamma   122.39546675
_symmetry_Int_Tables_number   1
_chemical_formula_structural   Yb4AlNiOs6
_chemical_formula_sum   'Yb4 Al1 Ni1 Os6'
_cell_volume   207.95887764
_cell_formula_units_Z   1
loop_
 _symmetry_equiv_pos_site_id
 _symmetry_equiv_pos_as_xyz
  1  'x, y, z'
loop_
 _atom_site_type_symbol
 _atom_site_label
 _atom_site_symmetry_multiplicity
 _atom_site_fract_x
 _atom_site_fract_y
 _atom_site_fract_z
 _atom_site_occupancy
  Yb  Yb0  1  0.333067  0.666933  0.428862  1
  Yb  Yb1  1  0.669592  0.330408  0.554190  1
  Yb  Yb2  1  0.669592  0.330408  0.945810  1
  Yb  Yb3  1  0.333067  0.666933  0.071138  1
  Al  Al4  1  0.172353  0.827647  0.750000  1
  Ni  Ni5  1  0.825122  0.174878  0.250000  1
  Os  Os6  1  0.998392  0.001608  0.497790  1
  Os  Os7  1  0.998392  0.001608  0.002210  1
  Os  Os8  1  0.820390  0.662605  0.250000  1
  Os  Os9  1  0.337395  0.179610  0.250000  1
  Os  Os10  1  0.183309  0.340672  0.750000  1
  Os  Os11  1  0.659328  0.816691  0.750000  1
