# generated using pymatgen
data_Y6LuScO12
_symmetry_space_group_name_H-M   'P 1'
_cell_length_a   6.65415970
_cell_length_b   6.65415988
_cell_length_c   6.65415963
_cell_angle_alpha   92.31157133
_cell_angle_beta   92.31158502
_cell_angle_gamma   92.31157790
_symmetry_Int_Tables_number   1
_chemical_formula_structural   Y6LuScO12
_chemical_formula_sum   'Y6 Lu1 Sc1 O12'
_cell_volume   293.89260858
_cell_formula_units_Z   1
loop_
 _symmetry_equiv_pos_site_id
 _symmetry_equiv_pos_as_xyz
  1  'x, y, z'
loop_
 _atom_site_type_symbol
 _atom_site_label
 _atom_site_symmetry_multiplicity
 _atom_site_fract_x
 _atom_site_fract_y
 _atom_site_fract_z
 _atom_site_occupancy
  Y  Y0  1  0.744568  0.930549  0.439471  1
  Y  Y1  1  0.930549  0.439471  0.744568  1
  Y  Y2  1  0.439471  0.744568  0.930549  1
  Y  Y3  1  0.255432  0.069451  0.560529  1
  Y  Y4  1  0.069451  0.560529  0.255432  1
  Y  Y5  1  0.560529  0.255432  0.069451  1
  Lu  Lu6  1  0.000000  0.000000  0.000000  1
  Sc  Sc7  1  0.500000  0.500000  0.500000  1
  O  O8  1  0.593070  0.464061  0.805586  1
  O  O9  1  0.464061  0.805586  0.593070  1
  O  O10  1  0.805586  0.593070  0.464061  1
  O  O11  1  0.406930  0.535939  0.194414  1
  O  O12  1  0.535939  0.194414  0.406930  1
  O  O13  1  0.194414  0.406930  0.535939  1
  O  O14  1  0.069490  0.909853  0.312466  1
  O  O15  1  0.909853  0.312466  0.069490  1
  O  O16  1  0.687534  0.930510  0.090147  1
  O  O17  1  0.090147  0.687534  0.930510  1
  O  O18  1  0.930510  0.090147  0.687534  1
  O  O19  1  0.312466  0.069490  0.909853  1
