# generated using pymatgen
data_LiTb3Ir8
_symmetry_space_group_name_H-M   'P 1'
_cell_length_a   5.32872600
_cell_length_b   5.32872679
_cell_length_c   8.65334400
_cell_angle_alpha   90.00000000
_cell_angle_beta   90.00000000
_cell_angle_gamma   119.99999509
_symmetry_Int_Tables_number   1
_chemical_formula_structural   LiTb3Ir8
_chemical_formula_sum   'Li1 Tb3 Ir8'
_cell_volume   212.79502281
_cell_formula_units_Z   1
loop_
 _symmetry_equiv_pos_site_id
 _symmetry_equiv_pos_as_xyz
  1  'x, y, z'
loop_
 _atom_site_type_symbol
 _atom_site_label
 _atom_site_symmetry_multiplicity
 _atom_site_fract_x
 _atom_site_fract_y
 _atom_site_fract_z
 _atom_site_occupancy
  Li  Li0  1  0.333333  0.666667  0.439570  1
  Tb  Tb1  1  0.333333  0.666667  0.087178  1
  Tb  Tb2  1  0.666667  0.333333  0.554311  1
  Tb  Tb3  1  0.666667  0.333333  0.929084  1
  Ir  Ir4  1  0.000000  0.000000  0.997298  1
  Ir  Ir5  1  0.000000  0.000000  0.497962  1
  Ir  Ir6  1  0.831036  0.662070  0.250725  1
  Ir  Ir7  1  0.171085  0.828915  0.747474  1
  Ir  Ir8  1  0.657829  0.828915  0.747474  1
  Ir  Ir9  1  0.337930  0.168964  0.250725  1
  Ir  Ir10  1  0.831036  0.168964  0.250725  1
  Ir  Ir11  1  0.171085  0.342171  0.747474  1
