# generated using pymatgen
data_Gd4HoTm7Os4
_symmetry_space_group_name_H-M   'P 1'
_cell_length_a   7.38419637
_cell_length_b   8.94508255
_cell_length_c   6.28691200
_cell_angle_alpha   89.90930757
_cell_angle_beta   89.96509892
_cell_angle_gamma   89.98405966
_symmetry_Int_Tables_number   1
_chemical_formula_structural   Gd4HoTm7Os4
_chemical_formula_sum   'Gd4 Ho1 Tm7 Os4'
_cell_volume   415.26404536
_cell_formula_units_Z   1
loop_
 _symmetry_equiv_pos_site_id
 _symmetry_equiv_pos_as_xyz
  1  'x, y, z'
loop_
 _atom_site_type_symbol
 _atom_site_label
 _atom_site_symmetry_multiplicity
 _atom_site_fract_x
 _atom_site_fract_y
 _atom_site_fract_z
 _atom_site_occupancy
  Gd  Gd0  1  0.039975  0.250178  0.629828  1
  Gd  Gd1  1  0.959495  0.749609  0.370867  1
  Gd  Gd2  1  0.459857  0.749620  0.128939  1
  Gd  Gd3  1  0.540393  0.250354  0.870041  1
  Ho  Ho4  1  0.174924  0.062834  0.166287  1
  Tm  Tm5  1  0.824951  0.936187  0.833525  1
  Tm  Tm6  1  0.326193  0.936307  0.666408  1
  Tm  Tm7  1  0.825262  0.563351  0.833844  1
  Tm  Tm8  1  0.674132  0.063256  0.333771  1
  Tm  Tm9  1  0.174221  0.437491  0.166110  1
  Tm  Tm10  1  0.674404  0.436835  0.333621  1
  Tm  Tm11  1  0.326102  0.563485  0.666227  1
  Os  Os12  1  0.382983  0.250590  0.458071  1
  Os  Os13  1  0.618070  0.750237  0.542256  1
  Os  Os14  1  0.117586  0.749090  0.957134  1
  Os  Os15  1  0.881452  0.250577  0.043072  1
