# generated using pymatgen
data_Tb4Y6AlSb5
_symmetry_space_group_name_H-M   'P 1'
_cell_length_a   6.40107000
_cell_length_b   8.98269350
_cell_length_c   8.95793631
_cell_angle_alpha   120.09146259
_cell_angle_beta   90.00007546
_cell_angle_gamma   89.99987021
_symmetry_Int_Tables_number   1
_chemical_formula_structural   Tb4Y6AlSb5
_chemical_formula_sum   'Tb4 Y6 Al1 Sb5'
_cell_volume   445.65292267
_cell_formula_units_Z   1
loop_
 _symmetry_equiv_pos_site_id
 _symmetry_equiv_pos_as_xyz
  1  'x, y, z'
loop_
 _atom_site_type_symbol
 _atom_site_label
 _atom_site_symmetry_multiplicity
 _atom_site_fract_x
 _atom_site_fract_y
 _atom_site_fract_z
 _atom_site_occupancy
  Tb  Tb0  1  0.500823  0.338121  0.672882  1
  Tb  Tb1  1  0.500823  0.665239  0.327118  1
  Tb  Tb2  1  0.999177  0.665241  0.327122  1
  Tb  Tb3  1  0.999177  0.338119  0.672878  1
  Y  Y4  1  0.750000  0.248062  0.000000  1
  Y  Y5  1  0.750000  0.753229  0.761915  1
  Y  Y6  1  0.750000  0.991314  0.238085  1
  Y  Y7  1  0.249998  0.756933  0.000000  1
  Y  Y8  1  0.250001  0.246173  0.245325  1
  Y  Y9  1  0.250001  0.000848  0.754675  1
  Al  Al10  1  0.750001  0.604517  0.000000  1
  Sb  Sb11  1  0.750001  0.387885  0.389614  1
  Sb  Sb12  1  0.750001  0.998269  0.610386  1
  Sb  Sb13  1  0.249997  0.391770  0.000000  1
  Sb  Sb14  1  0.250001  0.611651  0.609021  1
  Sb  Sb15  1  0.250001  0.002631  0.390979  1
