# generated using pymatgen
data_Tb2Er2Ga4RuPt3
_symmetry_space_group_name_H-M   'P 1'
_cell_length_a   4.43268000
_cell_length_b   6.85817620
_cell_length_c   7.70480496
_cell_angle_alpha   89.97324785
_cell_angle_beta   90.00000000
_cell_angle_gamma   90.00000000
_symmetry_Int_Tables_number   1
_chemical_formula_structural   Tb2Er2Ga4RuPt3
_chemical_formula_sum   'Tb2 Er2 Ga4 Ru1 Pt3'
_cell_volume   234.22681925
_cell_formula_units_Z   1
loop_
 _symmetry_equiv_pos_site_id
 _symmetry_equiv_pos_as_xyz
  1  'x, y, z'
loop_
 _atom_site_type_symbol
 _atom_site_label
 _atom_site_symmetry_multiplicity
 _atom_site_fract_x
 _atom_site_fract_y
 _atom_site_fract_z
 _atom_site_occupancy
  Tb  Tb0  1  0.250000  0.982871  0.305453  1
  Tb  Tb1  1  0.250000  0.479808  0.190571  1
  Er  Er2  1  0.750000  0.016248  0.701835  1
  Er  Er3  1  0.750000  0.512621  0.800868  1
  Ga  Ga4  1  0.250000  0.326908  0.578167  1
  Ga  Ga5  1  0.250000  0.836323  0.924218  1
  Ga  Ga6  1  0.750000  0.671772  0.427904  1
  Ga  Ga7  1  0.750000  0.175196  0.069781  1
  Ru  Ru8  1  0.250000  0.226304  0.899102  1
  Pt  Pt9  1  0.250000  0.722445  0.602276  1
  Pt  Pt10  1  0.750000  0.774035  0.098619  1
  Pt  Pt11  1  0.750000  0.275466  0.401206  1
