# generated using pymatgen
data_Li2Er15Tm(InRh2)2
_symmetry_space_group_name_H-M   'P 1'
_cell_length_a   9.61144778
_cell_length_b   9.56160214
_cell_length_c   9.55994695
_cell_angle_alpha   60.10350308
_cell_angle_beta   59.71858483
_cell_angle_gamma   59.69806610
_symmetry_Int_Tables_number   1
_chemical_formula_structural   Li2Er15Tm(InRh2)2
_chemical_formula_sum   'Li2 Er15 Tm1 In2 Rh4'
_cell_volume   618.96582652
_cell_formula_units_Z   1
loop_
 _symmetry_equiv_pos_site_id
 _symmetry_equiv_pos_as_xyz
  1  'x, y, z'
loop_
 _atom_site_type_symbol
 _atom_site_label
 _atom_site_symmetry_multiplicity
 _atom_site_fract_x
 _atom_site_fract_y
 _atom_site_fract_z
 _atom_site_occupancy
  Li  Li0  1  0.428075  0.718467  0.426463  1
  Li  Li1  1  0.428002  0.426467  0.718473  1
  Er  Er2  1  0.438776  0.059758  0.059340  1
  Er  Er3  1  0.433136  0.063970  0.435697  1
  Er  Er4  1  0.063405  0.436913  0.062933  1
  Er  Er5  1  0.651291  0.051991  0.645061  1
  Er  Er6  1  0.184333  0.816776  0.816588  1
  Er  Er7  1  0.063306  0.062937  0.437264  1
  Er  Er8  1  0.807529  0.191638  0.191466  1
  Er  Er9  1  0.812838  0.810970  0.190095  1
  Er  Er10  1  0.651626  0.644781  0.051579  1
  Er  Er11  1  0.654153  0.654108  0.654440  1
  Er  Er12  1  0.063012  0.435785  0.436115  1
  Er  Er13  1  0.041341  0.651123  0.651514  1
  Er  Er14  1  0.813088  0.190048  0.811009  1
  Er  Er15  1  0.433205  0.435411  0.063959  1
  Er  Er16  1  0.187495  0.812103  0.188816  1
  Tm  Tm17  1  0.187485  0.188841  0.811822  1
  In  In18  1  0.746338  0.420743  0.420783  1
  In  In19  1  0.415472  0.419409  0.419311  1
  Rh  Rh20  1  0.857795  0.426508  0.859414  1
  Rh  Rh21  1  0.856900  0.859566  0.427040  1
  Rh  Rh22  1  0.427809  0.861446  0.860590  1
  Rh  Rh23  1  0.853590  0.860243  0.860230  1
