# generated using pymatgen
data_LaDy2RuI3
_symmetry_space_group_name_H-M   'P 1'
_cell_length_a   4.26671200
_cell_length_b   9.12145856
_cell_length_c   12.48056849
_cell_angle_alpha   94.24846096
_cell_angle_beta   90.00000000
_cell_angle_gamma   90.00000000
_symmetry_Int_Tables_number   1
_chemical_formula_structural   LaDy2RuI3
_chemical_formula_sum   'La2 Dy4 Ru2 I6'
_cell_volume   484.39201917
_cell_formula_units_Z   2
loop_
 _symmetry_equiv_pos_site_id
 _symmetry_equiv_pos_as_xyz
  1  'x, y, z'
loop_
 _atom_site_type_symbol
 _atom_site_label
 _atom_site_symmetry_multiplicity
 _atom_site_fract_x
 _atom_site_fract_y
 _atom_site_fract_z
 _atom_site_occupancy
  La  La0  1  0.750000  0.276819  0.605094  1
  La  La1  1  0.250000  0.723181  0.394906  1
  Dy  Dy2  1  0.750000  0.884368  0.625330  1
  Dy  Dy3  1  0.250000  0.115632  0.374670  1
  Dy  Dy4  1  0.750000  0.900937  0.182365  1
  Dy  Dy5  1  0.250000  0.099063  0.817635  1
  Ru  Ru6  1  0.750000  0.933129  0.401936  1
  Ru  Ru7  1  0.250000  0.066871  0.598064  1
  I  I8  1  0.750000  0.410403  0.358051  1
  I  I9  1  0.250000  0.589597  0.641949  1
  I  I10  1  0.750000  0.865569  0.890213  1
  I  I11  1  0.250000  0.134431  0.109787  1
  I  I12  1  0.750000  0.343902  0.872916  1
  I  I13  1  0.250000  0.656098  0.127084  1
