# generated using pymatgen
data_Li8Pr7NdSn7Bi
_symmetry_space_group_name_H-M   'P 1'
_cell_length_a   9.62232200
_cell_length_b   9.61961700
_cell_length_c   7.70338463
_cell_angle_alpha   90.08209722
_cell_angle_beta   90.00000000
_cell_angle_gamma   120.00930233
_symmetry_Int_Tables_number   1
_chemical_formula_structural   Li8Pr7NdSn7Bi
_chemical_formula_sum   'Li8 Pr7 Nd1 Sn7 Bi1'
_cell_volume   617.45963305
_cell_formula_units_Z   1
loop_
 _symmetry_equiv_pos_site_id
 _symmetry_equiv_pos_as_xyz
  1  'x, y, z'
loop_
 _atom_site_type_symbol
 _atom_site_label
 _atom_site_symmetry_multiplicity
 _atom_site_fract_x
 _atom_site_fract_y
 _atom_site_fract_z
 _atom_site_occupancy
  Li  Li0  1  0.166741  0.333482  0.284886  1
  Li  Li1  1  0.167710  0.833524  0.287832  1
  Li  Li2  1  0.665813  0.833524  0.287832  1
  Li  Li3  1  0.833203  0.666405  0.787025  1
  Li  Li4  1  0.829905  0.165016  0.790005  1
  Li  Li5  1  0.335111  0.165016  0.790005  1
  Li  Li6  1  0.334882  0.669766  0.665889  1
  Li  Li7  1  0.666333  0.332663  0.167677  1
  Pr  Pr8  1  0.512234  0.024468  0.494663  1
  Pr  Pr9  1  0.516771  0.490634  0.492246  1
  Pr  Pr10  1  0.973861  0.490634  0.492246  1
  Pr  Pr11  1  0.487754  0.975507  0.995730  1
  Pr  Pr12  1  0.492683  0.514122  0.997046  1
  Pr  Pr13  1  0.021439  0.514122  0.997046  1
  Pr  Pr14  1  0.997619  0.995238  0.496972  1
  Nd  Nd15  1  0.998045  0.996091  0.001360  1
  Sn  Sn16  1  0.166326  0.833038  0.729747  1
  Sn  Sn17  1  0.666711  0.833038  0.729747  1
  Sn  Sn18  1  0.833461  0.666922  0.229960  1
  Sn  Sn19  1  0.833973  0.167000  0.229418  1
  Sn  Sn20  1  0.333028  0.167000  0.229418  1
  Sn  Sn21  1  0.332881  0.665764  0.266724  1
  Sn  Sn22  1  0.666864  0.333726  0.766926  1
  Bi  Bi23  1  0.166649  0.333299  0.731571  1
