# generated using pymatgen
data_CsTm(CO3)2
_symmetry_space_group_name_H-M   'P 1'
_cell_length_a   6.52356750
_cell_length_b   6.52356704
_cell_length_c   7.47441127
_cell_angle_alpha   74.45894503
_cell_angle_beta   74.45895404
_cell_angle_gamma   91.65368682
_symmetry_Int_Tables_number   1
_chemical_formula_structural   CsTm(CO3)2
_chemical_formula_sum   'Cs2 Tm2 C4 O12'
_cell_volume   293.51308156
_cell_formula_units_Z   2
loop_
 _symmetry_equiv_pos_site_id
 _symmetry_equiv_pos_as_xyz
  1  'x, y, z'
loop_
 _atom_site_type_symbol
 _atom_site_label
 _atom_site_symmetry_multiplicity
 _atom_site_fract_x
 _atom_site_fract_y
 _atom_site_fract_z
 _atom_site_occupancy
  Cs  Cs0  1  0.597537  0.402463  0.750000  1
  Cs  Cs1  1  0.402463  0.597537  0.250000  1
  Tm  Tm2  1  0.104381  0.895619  0.750000  1
  Tm  Tm3  1  0.895619  0.104381  0.250000  1
  C  C4  1  0.656341  0.910565  0.726851  1
  C  C5  1  0.343659  0.089435  0.273149  1
  C  C6  1  0.089435  0.343659  0.773149  1
  C  C7  1  0.910565  0.656341  0.226851  1
  O  O8  1  0.454318  0.889310  0.747339  1
  O  O9  1  0.545682  0.110690  0.252661  1
  O  O10  1  0.110690  0.545682  0.752661  1
  O  O11  1  0.889310  0.454318  0.247339  1
  O  O12  1  0.739171  0.796909  0.856133  1
  O  O13  1  0.260829  0.203091  0.143867  1
  O  O14  1  0.203091  0.260829  0.643867  1
  O  O15  1  0.796909  0.739171  0.356133  1
  O  O16  1  0.790608  0.048444  0.577208  1
  O  O17  1  0.209392  0.951556  0.422792  1
  O  O18  1  0.951556  0.209392  0.922792  1
  O  O19  1  0.048444  0.790608  0.077208  1
