# generated using pymatgen
data_Hf18ReMo7AuSe
_symmetry_space_group_name_H-M   'P 1'
_cell_length_a   8.75403300
_cell_length_b   8.75403242
_cell_length_c   8.62223600
_cell_angle_alpha   90.00000000
_cell_angle_beta   90.00000000
_cell_angle_gamma   120.00000599
_symmetry_Int_Tables_number   1
_chemical_formula_structural   Hf18ReMo7AuSe
_chemical_formula_sum   'Hf18 Re1 Mo7 Au1 Se1'
_cell_volume   572.22501758
_cell_formula_units_Z   1
loop_
 _symmetry_equiv_pos_site_id
 _symmetry_equiv_pos_as_xyz
  1  'x, y, z'
loop_
 _atom_site_type_symbol
 _atom_site_label
 _atom_site_symmetry_multiplicity
 _atom_site_fract_x
 _atom_site_fract_y
 _atom_site_fract_z
 _atom_site_occupancy
  Hf  Hf0  1  0.193935  0.806065  0.450680  1
  Hf  Hf1  1  0.193935  0.387870  0.450680  1
  Hf  Hf2  1  0.612130  0.806065  0.450680  1
  Hf  Hf3  1  0.805371  0.194629  0.546059  1
  Hf  Hf4  1  0.805371  0.610743  0.546059  1
  Hf  Hf5  1  0.389257  0.194629  0.546059  1
  Hf  Hf6  1  0.806855  0.193145  0.953389  1
  Hf  Hf7  1  0.806855  0.613711  0.953389  1
  Hf  Hf8  1  0.386289  0.193145  0.953389  1
  Hf  Hf9  1  0.192511  0.807489  0.049901  1
  Hf  Hf10  1  0.192511  0.385021  0.049901  1
  Hf  Hf11  1  0.614979  0.807489  0.049901  1
  Hf  Hf12  1  0.542257  0.457743  0.249298  1
  Hf  Hf13  1  0.542257  0.084515  0.249298  1
  Hf  Hf14  1  0.915485  0.457743  0.249298  1
  Hf  Hf15  1  0.456229  0.543771  0.750460  1
  Hf  Hf16  1  0.456229  0.912459  0.750460  1
  Hf  Hf17  1  0.087541  0.543771  0.750460  1
  Re  Re18  1  0.000000  0.000000  0.999387  1
  Mo  Mo19  1  0.889059  0.110941  0.250618  1
  Mo  Mo20  1  0.889059  0.778116  0.250618  1
  Mo  Mo21  1  0.221884  0.110941  0.250618  1
  Mo  Mo22  1  0.110049  0.889951  0.749667  1
  Mo  Mo23  1  0.110049  0.220098  0.749667  1
  Mo  Mo24  1  0.779902  0.889951  0.749667  1
  Mo  Mo25  1  0.000000  0.000000  0.500574  1
  Au  Au26  1  0.333333  0.666667  0.248621  1
  Se  Se27  1  0.666667  0.333333  0.751196  1
