# generated using pymatgen
data_Yb19Dy(SiSb2)4
_symmetry_space_group_name_H-M   'P 1'
_cell_length_a   7.94263245
_cell_length_b   9.47586739
_cell_length_c   12.50519211
_cell_angle_alpha   89.97134909
_cell_angle_beta   90.40772288
_cell_angle_gamma   89.89935299
_symmetry_Int_Tables_number   1
_chemical_formula_structural   Yb19Dy(SiSb2)4
_chemical_formula_sum   'Yb19 Dy1 Si4 Sb8'
_cell_volume   941.15701708
_cell_formula_units_Z   1
loop_
 _symmetry_equiv_pos_site_id
 _symmetry_equiv_pos_as_xyz
  1  'x, y, z'
loop_
 _atom_site_type_symbol
 _atom_site_label
 _atom_site_symmetry_multiplicity
 _atom_site_fract_x
 _atom_site_fract_y
 _atom_site_fract_z
 _atom_site_occupancy
  Yb  Yb0  1  0.328100  0.748087  0.718895  1
  Yb  Yb1  1  0.668689  0.250508  0.283165  1
  Yb  Yb2  1  0.824427  0.251183  0.778019  1
  Yb  Yb3  1  0.174787  0.750767  0.220764  1
  Yb  Yb4  1  0.052524  0.750731  0.501142  1
  Yb  Yb5  1  0.947427  0.250405  0.499835  1
  Yb  Yb6  1  0.551586  0.251580  0.998909  1
  Yb  Yb7  1  0.453191  0.746500  0.001404  1
  Yb  Yb8  1  0.849640  0.750650  0.797356  1
  Yb  Yb9  1  0.147168  0.250749  0.202216  1
  Yb  Yb10  1  0.351509  0.252175  0.702761  1
  Yb  Yb11  1  0.646619  0.749161  0.298350  1
  Yb  Yb12  1  0.680750  0.529819  0.570486  1
  Yb  Yb13  1  0.318881  0.471546  0.429021  1
  Yb  Yb14  1  0.183827  0.470637  0.926282  1
  Yb  Yb15  1  0.318657  0.029955  0.428860  1
  Yb  Yb16  1  0.823879  0.525263  0.071276  1
  Yb  Yb17  1  0.680009  0.971110  0.571124  1
  Yb  Yb18  1  0.816196  0.970849  0.072829  1
  Dy  Dy19  1  0.179526  0.024126  0.930734  1
  Si  Si20  1  0.064550  0.754854  0.987183  1
  Si  Si21  1  0.949834  0.243704  0.005274  1
  Si  Si22  1  0.561028  0.250279  0.512138  1
  Si  Si23  1  0.437504  0.751183  0.488662  1
  Sb  Sb24  1  0.564692  0.508458  0.832008  1
  Sb  Sb25  1  0.439378  0.492124  0.168147  1
  Sb  Sb26  1  0.060433  0.493540  0.669647  1
  Sb  Sb27  1  0.433289  0.010034  0.164663  1
  Sb  Sb28  1  0.939407  0.507591  0.329295  1
  Sb  Sb29  1  0.555138  0.992555  0.832751  1
  Sb  Sb30  1  0.936870  0.992244  0.331519  1
  Sb  Sb31  1  0.060485  0.007632  0.675285  1
