# generated using pymatgen
data_Tm4Zr5TaSi8
_symmetry_space_group_name_H-M   'P 1'
_cell_length_a   7.24434228
_cell_length_b   7.02212928
_cell_length_c   7.22170610
_cell_angle_alpha   72.06897345
_cell_angle_beta   89.92770773
_cell_angle_gamma   89.97977099
_symmetry_Int_Tables_number   1
_chemical_formula_structural   Tm4Zr5TaSi8
_chemical_formula_sum   'Tm4 Zr5 Ta1 Si8'
_cell_volume   349.52890404
_cell_formula_units_Z   1
loop_
 _symmetry_equiv_pos_site_id
 _symmetry_equiv_pos_as_xyz
  1  'x, y, z'
loop_
 _atom_site_type_symbol
 _atom_site_label
 _atom_site_symmetry_multiplicity
 _atom_site_fract_x
 _atom_site_fract_y
 _atom_site_fract_z
 _atom_site_occupancy
  Tm  Tm0  1  0.325179  0.572091  0.807296  1
  Tm  Tm1  1  0.828123  0.925390  0.193538  1
  Tm  Tm2  1  0.674821  0.427909  0.192704  1
  Tm  Tm3  1  0.171877  0.074610  0.806462  1
  Zr  Zr4  1  0.500000  0.000000  0.500000  1
  Zr  Zr5  1  0.820992  0.748380  0.749018  1
  Zr  Zr6  1  0.317830  0.748016  0.253282  1
  Zr  Zr7  1  0.179008  0.251620  0.250982  1
  Zr  Zr8  1  0.682170  0.251984  0.746718  1
  Ta  Ta9  1  0.000000  0.500000  0.500000  1
  Si  Si10  1  0.529631  0.869395  0.918764  1
  Si  Si11  1  0.028675  0.628614  0.086511  1
  Si  Si12  1  0.470369  0.130605  0.081236  1
  Si  Si13  1  0.971325  0.371386  0.913489  1
  Si  Si14  1  0.120231  0.867408  0.509629  1
  Si  Si15  1  0.626969  0.627390  0.489643  1
  Si  Si16  1  0.879769  0.132592  0.490371  1
  Si  Si17  1  0.373031  0.372610  0.510357  1
