# generated using pymatgen
data_Ac6Yb(AsO5)4
_symmetry_space_group_name_H-M   'P 1'
_cell_length_a   7.29882729
_cell_length_b   7.93681287
_cell_length_c   9.34192200
_cell_angle_alpha   105.69823704
_cell_angle_beta   95.90778948
_cell_angle_gamma   110.47089956
_symmetry_Int_Tables_number   1
_chemical_formula_structural   Ac6Yb(AsO5)4
_chemical_formula_sum   'Ac6 Yb1 As4 O20'
_cell_volume   476.23323760
_cell_formula_units_Z   1
loop_
 _symmetry_equiv_pos_site_id
 _symmetry_equiv_pos_as_xyz
  1  'x, y, z'
loop_
 _atom_site_type_symbol
 _atom_site_label
 _atom_site_symmetry_multiplicity
 _atom_site_fract_x
 _atom_site_fract_y
 _atom_site_fract_z
 _atom_site_occupancy
  Ac  Ac0  1  0.323991  0.132921  0.477507  1
  Ac  Ac1  1  0.676009  0.867079  0.522493  1
  Ac  Ac2  1  0.422202  0.780605  0.086774  1
  Ac  Ac3  1  0.577798  0.219395  0.913226  1
  Ac  Ac4  1  0.822494  0.271842  0.324415  1
  Ac  Ac5  1  0.177506  0.728158  0.675585  1
  Yb  Yb6  1  0.000000  0.000000  0.000000  1
  As  As7  1  0.072781  0.285028  0.756714  1
  As  As8  1  0.927219  0.714972  0.243286  1
  As  As9  1  0.348974  0.416122  0.251485  1
  As  As10  1  0.651026  0.583878  0.748515  1
  O  O11  1  0.142251  0.231264  0.263658  1
  O  O12  1  0.857749  0.768736  0.736342  1
  O  O13  1  0.139438  0.521902  0.846525  1
  O  O14  1  0.860562  0.478098  0.153475  1
  O  O15  1  0.714012  0.060792  0.075216  1
  O  O16  1  0.285988  0.939208  0.924784  1
  O  O17  1  0.548616  0.024898  0.354542  1
  O  O18  1  0.451384  0.975102  0.645458  1
  O  O19  1  0.332306  0.630651  0.329141  1
  O  O20  1  0.667694  0.369349  0.670859  1
  O  O21  1  0.266541  0.211931  0.750000  1
  O  O22  1  0.733459  0.788069  0.250000  1
  O  O23  1  0.551103  0.408002  0.359049  1
  O  O24  1  0.448897  0.591998  0.640951  1
  O  O25  1  0.018138  0.778649  0.440030  1
  O  O26  1  0.981862  0.221351  0.559970  1
  O  O27  1  0.108049  0.854575  0.174385  1
  O  O28  1  0.891951  0.145425  0.825615  1
  O  O29  1  0.347580  0.371113  0.062985  1
  O  O30  1  0.652420  0.628887  0.937015  1
