# generated using pymatgen
data_Tm2Be25Co
_symmetry_space_group_name_H-M   'P 1'
_cell_length_a   7.20776554
_cell_length_b   7.25359399
_cell_length_c   7.19093281
_cell_angle_alpha   59.86536512
_cell_angle_beta   59.93614641
_cell_angle_gamma   59.63564431
_symmetry_Int_Tables_number   1
_chemical_formula_structural   Tm2Be25Co
_chemical_formula_sum   'Tm2 Be25 Co1'
_cell_volume   264.70618883
_cell_formula_units_Z   1
loop_
 _symmetry_equiv_pos_site_id
 _symmetry_equiv_pos_as_xyz
  1  'x, y, z'
loop_
 _atom_site_type_symbol
 _atom_site_label
 _atom_site_symmetry_multiplicity
 _atom_site_fract_x
 _atom_site_fract_y
 _atom_site_fract_z
 _atom_site_occupancy
  Tm  Tm0  1  0.246224  0.255541  0.250112  1
  Tm  Tm1  1  0.749888  0.751877  0.753776  1
  Be  Be2  1  0.502589  0.501545  0.497411  1
  Be  Be3  1  0.998791  0.002907  0.001209  1
  Be  Be4  1  0.202980  0.440138  0.797020  1
  Be  Be5  1  0.566407  0.788286  0.433593  1
  Be  Be6  1  0.435003  0.207310  0.564997  1
  Be  Be7  1  0.291494  0.934116  0.708506  1
  Be  Be8  1  0.707014  0.064114  0.292986  1
  Be  Be9  1  0.934135  0.289935  0.065865  1
  Be  Be10  1  0.065928  0.713474  0.934072  1
  Be  Be11  1  0.205936  0.796236  0.561864  1
  Be  Be12  1  0.792173  0.206769  0.436335  1
  Be  Be13  1  0.438136  0.564035  0.794064  1
  Be  Be14  1  0.563665  0.435276  0.207827  1
  Be  Be15  1  0.710142  0.285244  0.934451  1
  Be  Be16  1  0.288843  0.711669  0.064251  1
  Be  Be17  1  0.065549  0.929837  0.289858  1
  Be  Be18  1  0.935749  0.064763  0.711157  1
  Be  Be19  1  0.559776  0.208389  0.794381  1
  Be  Be20  1  0.439157  0.791615  0.206021  1
  Be  Be21  1  0.793979  0.436794  0.560843  1
  Be  Be22  1  0.205619  0.562546  0.440224  1
  Be  Be23  1  0.936456  0.708919  0.289972  1
  Be  Be24  1  0.065267  0.289580  0.708343  1
  Be  Be25  1  0.291657  0.063190  0.934733  1
  Be  Be26  1  0.710028  0.935347  0.063544  1
  Co  Co27  1  0.797417  0.560548  0.202583  1
