# generated using pymatgen
data_YHoNbB2Ru5
_symmetry_space_group_name_H-M   'P 1'
_cell_length_a   9.68245692
_cell_length_b   9.68245692
_cell_length_c   3.13038400
_cell_angle_alpha   90.00000000
_cell_angle_beta   90.00000000
_cell_angle_gamma   90.08896346
_symmetry_Int_Tables_number   1
_chemical_formula_structural   YHoNbB2Ru5
_chemical_formula_sum   'Y2 Ho2 Nb2 B4 Ru10'
_cell_volume   293.47305848
_cell_formula_units_Z   2
loop_
 _symmetry_equiv_pos_site_id
 _symmetry_equiv_pos_as_xyz
  1  'x, y, z'
loop_
 _atom_site_type_symbol
 _atom_site_label
 _atom_site_symmetry_multiplicity
 _atom_site_fract_x
 _atom_site_fract_y
 _atom_site_fract_z
 _atom_site_occupancy
  Y  Y0  1  0.825004  0.674996  0.000000  1
  Y  Y1  1  0.174996  0.325004  0.000000  1
  Ho  Ho2  1  0.325112  0.825112  0.000000  1
  Ho  Ho3  1  0.674888  0.174888  0.000000  1
  Nb  Nb4  1  0.500000  0.500000  0.000000  1
  Nb  Nb5  1  0.000000  0.000000  0.000000  1
  B  B6  1  0.620143  0.879857  0.000000  1
  B  B7  1  0.379857  0.120143  0.000000  1
  B  B8  1  0.120323  0.620323  0.000000  1
  B  B9  1  0.879677  0.379677  0.000000  1
  Ru  Ru10  1  0.570176  0.718627  0.500000  1
  Ru  Ru11  1  0.429824  0.281373  0.500000  1
  Ru  Ru12  1  0.071540  0.781777  0.500000  1
  Ru  Ru13  1  0.928460  0.218223  0.500000  1
  Ru  Ru14  1  0.281777  0.571540  0.500000  1
  Ru  Ru15  1  0.718223  0.428460  0.500000  1
  Ru  Ru16  1  0.218627  0.070176  0.500000  1
  Ru  Ru17  1  0.781373  0.929824  0.500000  1
  Ru  Ru18  1  0.500000  0.000000  0.500000  1
  Ru  Ru19  1  0.000000  0.500000  0.500000  1
