# generated using pymatgen
data_Er3NiHg3Pd
_symmetry_space_group_name_H-M   'P 1'
_cell_length_a   7.48854700
_cell_length_b   7.48854594
_cell_length_c   3.63811000
_cell_angle_alpha   90.00000000
_cell_angle_beta   90.00000000
_cell_angle_gamma   120.00000028
_symmetry_Int_Tables_number   1
_chemical_formula_structural   Er3NiHg3Pd
_chemical_formula_sum   'Er3 Ni1 Hg3 Pd1'
_cell_volume   176.68574602
_cell_formula_units_Z   1
loop_
 _symmetry_equiv_pos_site_id
 _symmetry_equiv_pos_as_xyz
  1  'x, y, z'
loop_
 _atom_site_type_symbol
 _atom_site_label
 _atom_site_symmetry_multiplicity
 _atom_site_fract_x
 _atom_site_fract_y
 _atom_site_fract_z
 _atom_site_occupancy
  Er  Er0  1  0.586962  0.009916  0.500000  1
  Er  Er1  1  0.422953  0.413037  0.500000  1
  Er  Er2  1  0.990084  0.577047  0.500000  1
  Ni  Ni3  1  0.666666  0.333333  0.000000  1
  Hg  Hg4  1  0.240819  0.004779  0.000000  1
  Hg  Hg5  1  0.995221  0.236040  0.000000  1
  Hg  Hg6  1  0.763960  0.759181  0.000000  1
  Pd  Pd7  1  0.333334  0.666667  0.000000  1
