# generated using pymatgen
data_Dy8Ga(PdPt7)3
_symmetry_space_group_name_H-M   'P 1'
_cell_length_a   8.39810100
_cell_length_b   8.39552714
_cell_length_c   8.36265900
_cell_angle_alpha   90.00000000
_cell_angle_beta   90.00000000
_cell_angle_gamma   90.01057807
_symmetry_Int_Tables_number   1
_chemical_formula_structural   Dy8Ga(PdPt7)3
_chemical_formula_sum   'Dy8 Ga1 Pd3 Pt21'
_cell_volume   589.62168042
_cell_formula_units_Z   1
loop_
 _symmetry_equiv_pos_site_id
 _symmetry_equiv_pos_as_xyz
  1  'x, y, z'
loop_
 _atom_site_type_symbol
 _atom_site_label
 _atom_site_symmetry_multiplicity
 _atom_site_fract_x
 _atom_site_fract_y
 _atom_site_fract_z
 _atom_site_occupancy
  Dy  Dy0  1  0.250821  0.250364  0.749445  1
  Dy  Dy1  1  0.251873  0.748876  0.251314  1
  Dy  Dy2  1  0.748464  0.251692  0.251497  1
  Dy  Dy3  1  0.747619  0.747747  0.747611  1
  Dy  Dy4  1  0.747619  0.747747  0.252389  1
  Dy  Dy5  1  0.748464  0.251692  0.748503  1
  Dy  Dy6  1  0.251873  0.748876  0.748686  1
  Dy  Dy7  1  0.250821  0.250364  0.250555  1
  Ga  Ga8  1  0.004291  0.004078  0.000000  1
  Pd  Pd9  1  0.745917  0.499713  0.500000  1
  Pd  Pd10  1  0.998676  0.708911  0.000000  1
  Pd  Pd11  1  0.709761  0.998880  0.000000  1
  Pt  Pt12  1  0.498879  0.499468  0.746998  1
  Pt  Pt13  1  0.499034  0.254076  0.500000  1
  Pt  Pt14  1  0.253656  0.499609  0.500000  1
  Pt  Pt15  1  0.498879  0.499468  0.253002  1
  Pt  Pt16  1  0.499161  0.745918  0.500000  1
  Pt  Pt17  1  0.998262  0.998641  0.702184  1
  Pt  Pt18  1  0.998357  0.298371  0.000000  1
  Pt  Pt19  1  0.297915  0.998598  0.000000  1
  Pt  Pt20  1  0.998262  0.998641  0.297816  1
  Pt  Pt21  1  0.000664  0.500231  0.738912  1
  Pt  Pt22  1  0.500526  0.260792  0.000000  1
  Pt  Pt23  1  0.262137  0.999874  0.500000  1
  Pt  Pt24  1  0.000458  0.262499  0.500000  1
  Pt  Pt25  1  0.500484  0.000080  0.739341  1
  Pt  Pt26  1  0.260919  0.500250  0.000000  1
  Pt  Pt27  1  0.000664  0.500231  0.261088  1
  Pt  Pt28  1  0.500774  0.737935  0.000000  1
  Pt  Pt29  1  0.000586  0.735745  0.500000  1
  Pt  Pt30  1  0.500484  0.000080  0.260659  1
  Pt  Pt31  1  0.735931  0.000047  0.500000  1
  Pt  Pt32  1  0.737771  0.500506  0.000000  1
