# generated using pymatgen
data_YHo3Mg2(B2Rh5)2
_symmetry_space_group_name_H-M   'P 1'
_cell_length_a   9.63590528
_cell_length_b   9.63590528
_cell_length_c   3.18633500
_cell_angle_alpha   90.00000000
_cell_angle_beta   90.00000000
_cell_angle_gamma   89.86917451
_symmetry_Int_Tables_number   1
_chemical_formula_structural   YHo3Mg2(B2Rh5)2
_chemical_formula_sum   'Y1 Ho3 Mg2 B4 Rh10'
_cell_volume   295.85257015
_cell_formula_units_Z   1
loop_
 _symmetry_equiv_pos_site_id
 _symmetry_equiv_pos_as_xyz
  1  'x, y, z'
loop_
 _atom_site_type_symbol
 _atom_site_label
 _atom_site_symmetry_multiplicity
 _atom_site_fract_x
 _atom_site_fract_y
 _atom_site_fract_z
 _atom_site_occupancy
  Y  Y0  1  0.675714  0.175714  0.000000  1
  Ho  Ho1  1  0.324083  0.824083  0.000000  1
  Ho  Ho2  1  0.175739  0.324358  0.000000  1
  Ho  Ho3  1  0.824358  0.675739  0.000000  1
  Mg  Mg4  1  0.000198  0.999853  0.000000  1
  Mg  Mg5  1  0.499853  0.500198  0.000000  1
  B  B6  1  0.122575  0.622575  0.000000  1
  B  B7  1  0.877757  0.377757  0.000000  1
  B  B8  1  0.622346  0.877323  0.000000  1
  B  B9  1  0.377323  0.122346  0.000000  1
  Rh  Rh10  1  0.499421  0.999421  0.500000  1
  Rh  Rh11  1  0.000327  0.500327  0.500000  1
  Rh  Rh12  1  0.223883  0.070496  0.500000  1
  Rh  Rh13  1  0.775838  0.928422  0.500000  1
  Rh  Rh14  1  0.070385  0.775625  0.500000  1
  Rh  Rh15  1  0.724873  0.430783  0.500000  1
  Rh  Rh16  1  0.930783  0.224873  0.500000  1
  Rh  Rh17  1  0.275625  0.570385  0.500000  1
  Rh  Rh18  1  0.570496  0.723883  0.500000  1
  Rh  Rh19  1  0.428422  0.275838  0.500000  1
