# generated using pymatgen
data_Ca2Sn2Au3
_symmetry_space_group_name_H-M   'P 1'
_cell_length_a   4.85772710
_cell_length_b   4.85772771
_cell_length_c   16.31638653
_cell_angle_alpha   90.00000160
_cell_angle_beta   98.56090060
_cell_angle_gamma   60.00000722
_symmetry_Int_Tables_number   1
_chemical_formula_structural   Ca2Sn2Au3
_chemical_formula_sum   'Ca4 Sn4 Au6'
_cell_volume   328.47961132
_cell_formula_units_Z   2
loop_
 _symmetry_equiv_pos_site_id
 _symmetry_equiv_pos_as_xyz
  1  'x, y, z'
loop_
 _atom_site_type_symbol
 _atom_site_label
 _atom_site_symmetry_multiplicity
 _atom_site_fract_x
 _atom_site_fract_y
 _atom_site_fract_z
 _atom_site_occupancy
  Ca  Ca0  1  0.000000  0.000000  0.000000  1
  Ca  Ca1  1  0.846213  0.576893  0.269320  1
  Ca  Ca2  1  0.000000  0.500000  0.500000  1
  Ca  Ca3  1  0.153786  0.423108  0.730679  1
  Sn  Sn4  1  0.416968  0.291516  0.125451  1
  Sn  Sn5  1  0.252676  0.873662  0.379013  1
  Sn  Sn6  1  0.747325  0.126337  0.620986  1
  Sn  Sn7  1  0.583033  0.708484  0.874549  1
  Au  Au8  1  0.714590  0.642705  0.071886  1
  Au  Au9  1  0.130808  0.934596  0.196212  1
  Au  Au10  1  0.596732  0.201634  0.395097  1
  Au  Au11  1  0.403269  0.798365  0.604904  1
  Au  Au12  1  0.869193  0.065403  0.803789  1
  Au  Au13  1  0.285409  0.357296  0.928115  1
