# generated using pymatgen
data_Zr3Al3OsPt2
_symmetry_space_group_name_H-M   'P 1'
_cell_length_a   7.21309100
_cell_length_b   7.21309121
_cell_length_c   7.14677800
_cell_angle_alpha   90.00000000
_cell_angle_beta   90.00000000
_cell_angle_gamma   120.00000362
_symmetry_Int_Tables_number   1
_chemical_formula_structural   Zr3Al3OsPt2
_chemical_formula_sum   'Zr6 Al6 Os2 Pt4'
_cell_volume   322.02066526
_cell_formula_units_Z   2
loop_
 _symmetry_equiv_pos_site_id
 _symmetry_equiv_pos_as_xyz
  1  'x, y, z'
loop_
 _atom_site_type_symbol
 _atom_site_label
 _atom_site_symmetry_multiplicity
 _atom_site_fract_x
 _atom_site_fract_y
 _atom_site_fract_z
 _atom_site_occupancy
  Zr  Zr0  1  0.001557  0.595606  0.738155  1
  Zr  Zr1  1  0.998443  0.594049  0.261845  1
  Zr  Zr2  1  0.595606  0.001557  0.261845  1
  Zr  Zr3  1  0.594049  0.998443  0.738155  1
  Zr  Zr4  1  0.405951  0.404394  0.261845  1
  Zr  Zr5  1  0.404394  0.405951  0.738155  1
  Al  Al6  1  0.000000  0.254157  0.500000  1
  Al  Al7  1  0.733475  0.733475  0.000000  1
  Al  Al8  1  0.000000  0.266525  0.000000  1
  Al  Al9  1  0.254157  0.000000  0.500000  1
  Al  Al10  1  0.266525  0.000000  0.000000  1
  Al  Al11  1  0.745843  0.745843  0.500000  1
  Os  Os12  1  0.333333  0.666667  0.498409  1
  Os  Os13  1  0.666667  0.333333  0.501591  1
  Pt  Pt14  1  0.666667  0.333333  0.997075  1
  Pt  Pt15  1  0.000000  0.000000  0.240303  1
  Pt  Pt16  1  0.000000  0.000000  0.759697  1
  Pt  Pt17  1  0.333333  0.666667  0.002925  1
