# generated using pymatgen
data_Tb5V3(P3Ir4)4
_symmetry_space_group_name_H-M   'P 1'
_cell_length_a   12.69198700
_cell_length_b   12.69198661
_cell_length_c   3.96329000
_cell_angle_alpha   90.00000000
_cell_angle_beta   90.00000000
_cell_angle_gamma   119.99999842
_symmetry_Int_Tables_number   1
_chemical_formula_structural   Tb5V3(P3Ir4)4
_chemical_formula_sum   'Tb5 V3 P12 Ir16'
_cell_volume   552.89888458
_cell_formula_units_Z   1
loop_
 _symmetry_equiv_pos_site_id
 _symmetry_equiv_pos_as_xyz
  1  'x, y, z'
loop_
 _atom_site_type_symbol
 _atom_site_label
 _atom_site_symmetry_multiplicity
 _atom_site_fract_x
 _atom_site_fract_y
 _atom_site_fract_z
 _atom_site_occupancy
  Tb  Tb0  1  0.333333  0.666667  0.500000  1
  Tb  Tb1  1  0.666667  0.333333  0.500000  1
  Tb  Tb2  1  0.000000  0.811416  0.000000  1
  Tb  Tb3  1  0.188584  0.188584  0.000000  1
  Tb  Tb4  1  0.811416  0.000000  0.000000  1
  V  V5  1  0.000000  0.450872  0.500000  1
  V  V6  1  0.549128  0.549128  0.500000  1
  V  V7  1  0.450872  0.000000  0.500000  1
  P  P8  1  0.000000  0.635605  0.500000  1
  P  P9  1  0.364395  0.364395  0.500000  1
  P  P10  1  0.635605  0.000000  0.500000  1
  P  P11  1  0.516878  0.683771  0.000000  1
  P  P12  1  0.316229  0.833106  0.000000  1
  P  P13  1  0.166894  0.483122  0.000000  1
  P  P14  1  0.483122  0.166894  0.000000  1
  P  P15  1  0.683771  0.516878  0.000000  1
  P  P16  1  0.833106  0.316229  0.000000  1
  P  P17  1  0.000000  0.177321  0.500000  1
  P  P18  1  0.822679  0.822679  0.500000  1
  P  P19  1  0.177321  0.000000  0.500000  1
  Ir  Ir20  1  0.509619  0.867680  0.000000  1
  Ir  Ir21  1  0.132320  0.641940  0.000000  1
  Ir  Ir22  1  0.358060  0.490381  0.000000  1
  Ir  Ir23  1  0.490381  0.358060  0.000000  1
  Ir  Ir24  1  0.867680  0.509619  0.000000  1
  Ir  Ir25  1  0.641940  0.132320  0.000000  1
  Ir  Ir26  1  0.000000  0.285415  0.000000  1
  Ir  Ir27  1  0.714585  0.714585  0.000000  1
  Ir  Ir28  1  0.285415  0.000000  0.000000  1
  Ir  Ir29  1  0.625169  0.803754  0.500000  1
  Ir  Ir30  1  0.196246  0.821414  0.500000  1
  Ir  Ir31  1  0.178586  0.374831  0.500000  1
  Ir  Ir32  1  0.374831  0.178586  0.500000  1
  Ir  Ir33  1  0.803754  0.625169  0.500000  1
  Ir  Ir34  1  0.821414  0.196246  0.500000  1
  Ir  Ir35  1  0.000000  0.000000  0.500000  1
