# generated using pymatgen
data_Ba4Sm3(USe4)5
_symmetry_space_group_name_H-M   'P 1'
_cell_length_a   7.99217175
_cell_length_b   8.75642473
_cell_length_c   12.46669545
_cell_angle_alpha   89.52831332
_cell_angle_beta   89.91752959
_cell_angle_gamma   90.25946237
_symmetry_Int_Tables_number   1
_chemical_formula_structural   Ba4Sm3(USe4)5
_chemical_formula_sum   'Ba4 Sm3 U5 Se20'
_cell_volume   872.41542060
_cell_formula_units_Z   1
loop_
 _symmetry_equiv_pos_site_id
 _symmetry_equiv_pos_as_xyz
  1  'x, y, z'
loop_
 _atom_site_type_symbol
 _atom_site_label
 _atom_site_symmetry_multiplicity
 _atom_site_fract_x
 _atom_site_fract_y
 _atom_site_fract_z
 _atom_site_occupancy
  Ba  Ba0  1  0.054379  0.493461  0.330090  1
  Ba  Ba1  1  0.555418  0.507050  0.168123  1
  Ba  Ba2  1  0.944986  0.508377  0.669400  1
  Ba  Ba3  1  0.442855  0.494041  0.830867  1
  Sm  Sm4  1  0.037316  0.998670  0.320919  1
  Sm  Sm5  1  0.539275  0.001916  0.179919  1
  Sm  Sm6  1  0.962352  0.002617  0.677624  1
  U  U7  1  0.466816  0.999277  0.824362  1
  U  U8  1  0.062449  0.755607  0.006470  1
  U  U9  1  0.562121  0.244014  0.494612  1
  U  U10  1  0.939073  0.242049  0.992808  1
  U  U11  1  0.435398  0.755238  0.505578  1
  Se  Se12  1  0.667341  0.958569  0.412303  1
  Se  Se13  1  0.165676  0.044528  0.088917  1
  Se  Se14  1  0.336889  0.041223  0.596735  1
  Se  Se15  1  0.828982  0.956059  0.906864  1
  Se  Se16  1  0.444260  0.788213  0.999900  1
  Se  Se17  1  0.941238  0.219225  0.496955  1
  Se  Se18  1  0.551749  0.212350  0.991723  1
  Se  Se19  1  0.059502  0.784403  0.503540  1
  Se  Se20  1  0.848829  0.774174  0.187957  1
  Se  Se21  1  0.350391  0.225520  0.312785  1
  Se  Se22  1  0.155411  0.220850  0.812686  1
  Se  Se23  1  0.644607  0.776782  0.691625  1
  Se  Se24  1  0.325328  0.771283  0.287897  1
  Se  Se25  1  0.823477  0.229136  0.207951  1
  Se  Se26  1  0.674635  0.225544  0.712199  1
  Se  Se27  1  0.179255  0.776327  0.790414  1
  Se  Se28  1  0.176850  0.460574  0.068610  1
  Se  Se29  1  0.673467  0.537782  0.428646  1
  Se  Se30  1  0.823299  0.534086  0.928300  1
  Se  Se31  1  0.326373  0.461062  0.573222  1
