# generated using pymatgen
data_GdFeH5
_symmetry_space_group_name_H-M   'P 1'
_cell_length_a   4.28506900
_cell_length_b   4.62448400
_cell_length_c   11.36644200
_cell_angle_alpha   90.00000000
_cell_angle_beta   90.00000000
_cell_angle_gamma   90.00000000
_symmetry_Int_Tables_number   1
_chemical_formula_structural   GdFeH5
_chemical_formula_sum   'Gd4 Fe4 H20'
_cell_volume   225.24006339
_cell_formula_units_Z   4
loop_
 _symmetry_equiv_pos_site_id
 _symmetry_equiv_pos_as_xyz
  1  'x, y, z'
loop_
 _atom_site_type_symbol
 _atom_site_label
 _atom_site_symmetry_multiplicity
 _atom_site_fract_x
 _atom_site_fract_y
 _atom_site_fract_z
 _atom_site_occupancy
  Gd  Gd0  1  0.274088  0.162691  0.648881  1
  Gd  Gd1  1  0.774088  0.337309  0.351119  1
  Gd  Gd2  1  0.225912  0.837309  0.148881  1
  Gd  Gd3  1  0.725912  0.662691  0.851119  1
  Fe  Fe4  1  0.320490  0.164626  0.912824  1
  Fe  Fe5  1  0.820490  0.335374  0.087176  1
  Fe  Fe6  1  0.179510  0.835374  0.412824  1
  Fe  Fe7  1  0.679510  0.664626  0.587176  1
  H  H8  1  0.537144  0.407207  0.517854  1
  H  H9  1  0.037144  0.092793  0.482146  1
  H  H10  1  0.962856  0.592793  0.017854  1
  H  H11  1  0.462856  0.907207  0.982146  1
  H  H12  1  0.171853  0.936944  0.825766  1
  H  H13  1  0.671853  0.563056  0.174234  1
  H  H14  1  0.328147  0.063056  0.325766  1
  H  H15  1  0.828147  0.436944  0.674234  1
  H  H16  1  0.210560  0.433250  0.832440  1
  H  H17  1  0.710560  0.066750  0.167560  1
  H  H18  1  0.289440  0.566750  0.332440  1
  H  H19  1  0.789440  0.933250  0.667560  1
  H  H20  1  0.610610  0.157347  0.829293  1
  H  H21  1  0.110610  0.342653  0.170707  1
  H  H22  1  0.889390  0.842653  0.329293  1
  H  H23  1  0.389390  0.657347  0.670707  1
  H  H24  1  0.995614  0.101418  0.995014  1
  H  H25  1  0.495614  0.398582  0.004986  1
  H  H26  1  0.504386  0.898582  0.495014  1
  H  H27  1  0.004386  0.601418  0.504986  1
