# generated using pymatgen
data_Dy17Lu3(Bi2Sb)4
_symmetry_space_group_name_H-M   'P 1'
_cell_length_a   8.18540114
_cell_length_b   9.43075216
_cell_length_c   11.99057905
_cell_angle_alpha   89.99101152
_cell_angle_beta   90.06503309
_cell_angle_gamma   89.99563139
_symmetry_Int_Tables_number   1
_chemical_formula_structural   Dy17Lu3(Bi2Sb)4
_chemical_formula_sum   'Dy17 Lu3 Bi8 Sb4'
_cell_volume   925.60601815
_cell_formula_units_Z   1
loop_
 _symmetry_equiv_pos_site_id
 _symmetry_equiv_pos_as_xyz
  1  'x, y, z'
loop_
 _atom_site_type_symbol
 _atom_site_label
 _atom_site_symmetry_multiplicity
 _atom_site_fract_x
 _atom_site_fract_y
 _atom_site_fract_z
 _atom_site_occupancy
  Dy  Dy0  1  0.352652  0.749549  0.213439  1
  Dy  Dy1  1  0.852491  0.749704  0.286525  1
  Dy  Dy2  1  0.646166  0.248829  0.786960  1
  Dy  Dy3  1  0.147717  0.249393  0.713828  1
  Dy  Dy4  1  0.811392  0.436892  0.557669  1
  Dy  Dy5  1  0.310127  0.437731  0.942289  1
  Dy  Dy6  1  0.810220  0.062402  0.558021  1
  Dy  Dy7  1  0.690022  0.937731  0.057711  1
  Dy  Dy8  1  0.189479  0.562606  0.442239  1
  Dy  Dy9  1  0.471718  0.249521  0.487590  1
  Dy  Dy10  1  0.972551  0.249966  0.012219  1
  Dy  Dy11  1  0.526966  0.750042  0.512190  1
  Dy  Dy12  1  0.027413  0.749629  0.987979  1
  Dy  Dy13  1  0.314772  0.249482  0.217733  1
  Dy  Dy14  1  0.814815  0.249789  0.281706  1
  Dy  Dy15  1  0.685262  0.749651  0.782157  1
  Dy  Dy16  1  0.185040  0.750286  0.717949  1
  Lu  Lu17  1  0.688627  0.566083  0.057736  1
  Lu  Lu18  1  0.189354  0.934299  0.441956  1
  Lu  Lu19  1  0.311166  0.065833  0.942485  1
  Bi  Bi20  1  0.564904  0.995334  0.324917  1
  Bi  Bi21  1  0.065438  0.504281  0.174749  1
  Bi  Bi22  1  0.434629  0.495359  0.675216  1
  Bi  Bi23  1  0.935021  0.004226  0.825233  1
  Bi  Bi24  1  0.434381  0.004251  0.674956  1
  Bi  Bi25  1  0.934767  0.495070  0.825435  1
  Bi  Bi26  1  0.565832  0.504333  0.325001  1
  Bi  Bi27  1  0.065696  0.994974  0.174698  1
  Sb  Sb28  1  0.407159  0.752667  0.957746  1
  Sb  Sb29  1  0.908294  0.750672  0.541757  1
  Sb  Sb30  1  0.592879  0.252775  0.042498  1
  Sb  Sb31  1  0.093053  0.246642  0.457414  1
