# generated using pymatgen
data_Y10Ho6In4PdRh3
_symmetry_space_group_name_H-M   'P 1'
_cell_length_a   9.69296861
_cell_length_b   9.70828691
_cell_length_c   9.70002207
_cell_angle_alpha   59.89699967
_cell_angle_beta   59.97297067
_cell_angle_gamma   59.86026523
_symmetry_Int_Tables_number   1
_chemical_formula_structural   Y10Ho6In4PdRh3
_chemical_formula_sum   'Y10 Ho6 In4 Pd1 Rh3'
_cell_volume   644.12393354
_cell_formula_units_Z   1
loop_
 _symmetry_equiv_pos_site_id
 _symmetry_equiv_pos_as_xyz
  1  'x, y, z'
loop_
 _atom_site_type_symbol
 _atom_site_label
 _atom_site_symmetry_multiplicity
 _atom_site_fract_x
 _atom_site_fract_y
 _atom_site_fract_z
 _atom_site_occupancy
  Y  Y0  1  0.188389  0.188710  0.811975  1
  Y  Y1  1  0.604510  0.598386  0.195703  1
  Y  Y2  1  0.440014  0.063198  0.440635  1
  Y  Y3  1  0.440327  0.439238  0.059425  1
  Y  Y4  1  0.813738  0.186109  0.811930  1
  Y  Y5  1  0.187360  0.811708  0.189375  1
  Y  Y6  1  0.440019  0.064382  0.055177  1
  Y  Y7  1  0.186790  0.810946  0.812880  1
  Y  Y8  1  0.060790  0.438626  0.060483  1
  Y  Y9  1  0.814637  0.811110  0.186909  1
  Ho  Ho10  1  0.196719  0.598397  0.603486  1
  Ho  Ho11  1  0.059996  0.438792  0.440234  1
  Ho  Ho12  1  0.055374  0.064755  0.439785  1
  Ho  Ho13  1  0.813450  0.187102  0.189061  1
  Ho  Ho14  1  0.600997  0.202208  0.599631  1
  Ho  Ho15  1  0.601586  0.595628  0.600905  1
  In  In16  1  0.833337  0.833824  0.833511  1
  In  In17  1  0.831932  0.833562  0.500973  1
  In  In18  1  0.500810  0.833051  0.832446  1
  In  In19  1  0.832663  0.500431  0.833438  1
  Pd  Pd20  1  0.390758  0.820217  0.394289  1
  Rh  Rh21  1  0.390349  0.394049  0.394719  1
  Rh  Rh22  1  0.822377  0.391160  0.394846  1
  Rh  Rh23  1  0.393072  0.394415  0.818182  1
