# generated using pymatgen
data_Tb3Ho4Er(CdIr)2
_symmetry_space_group_name_H-M   'P 1'
_cell_length_a   9.61737757
_cell_length_b   9.61737826
_cell_length_c   9.61516300
_cell_angle_alpha   60.00761582
_cell_angle_beta   60.00761345
_cell_angle_gamma   59.98476169
_symmetry_Int_Tables_number   1
_chemical_formula_structural   Tb3Ho4Er(CdIr)2
_chemical_formula_sum   'Tb6 Ho8 Er2 Cd4 Ir4'
_cell_volume   628.86140441
_cell_formula_units_Z   2
loop_
 _symmetry_equiv_pos_site_id
 _symmetry_equiv_pos_as_xyz
  1  'x, y, z'
loop_
 _atom_site_type_symbol
 _atom_site_label
 _atom_site_symmetry_multiplicity
 _atom_site_fract_x
 _atom_site_fract_y
 _atom_site_fract_z
 _atom_site_occupancy
  Tb  Tb0  1  0.188479  0.811521  0.811521  1
  Tb  Tb1  1  0.811521  0.188479  0.188479  1
  Tb  Tb2  1  0.811521  0.188479  0.811521  1
  Tb  Tb3  1  0.188479  0.811521  0.188479  1
  Tb  Tb4  1  0.811545  0.811545  0.188455  1
  Tb  Tb5  1  0.188455  0.188455  0.811545  1
  Ho  Ho6  1  0.598819  0.598819  0.599081  1
  Ho  Ho7  1  0.598819  0.598819  0.203282  1
  Ho  Ho8  1  0.599081  0.203282  0.598819  1
  Ho  Ho9  1  0.203282  0.599081  0.598819  1
  Ho  Ho10  1  0.061306  0.438694  0.438694  1
  Ho  Ho11  1  0.438694  0.061306  0.061306  1
  Ho  Ho12  1  0.438694  0.061306  0.438694  1
  Ho  Ho13  1  0.061306  0.438694  0.061306  1
  Er  Er14  1  0.438658  0.438658  0.061342  1
  Er  Er15  1  0.061342  0.061342  0.438658  1
  Cd  Cd16  1  0.830685  0.830685  0.830590  1
  Cd  Cd17  1  0.830685  0.830685  0.508041  1
  Cd  Cd18  1  0.830590  0.508041  0.830685  1
  Cd  Cd19  1  0.508041  0.830590  0.830685  1
  Ir  Ir20  1  0.391817  0.391817  0.391464  1
  Ir  Ir21  1  0.391817  0.391817  0.824903  1
  Ir  Ir22  1  0.391464  0.824903  0.391817  1
  Ir  Ir23  1  0.824903  0.391464  0.391817  1
