# generated using pymatgen
data_NaMnSb12OsRu2
_symmetry_space_group_name_H-M   'P 1'
_cell_length_a   8.17676535
_cell_length_b   8.13988731
_cell_length_c   8.17608072
_cell_angle_alpha   109.37162048
_cell_angle_beta   109.58209789
_cell_angle_gamma   109.35603978
_symmetry_Int_Tables_number   1
_chemical_formula_structural   NaMnSb12OsRu2
_chemical_formula_sum   'Na1 Mn1 Sb12 Os1 Ru2'
_cell_volume   419.44717850
_cell_formula_units_Z   1
loop_
 _symmetry_equiv_pos_site_id
 _symmetry_equiv_pos_as_xyz
  1  'x, y, z'
loop_
 _atom_site_type_symbol
 _atom_site_label
 _atom_site_symmetry_multiplicity
 _atom_site_fract_x
 _atom_site_fract_y
 _atom_site_fract_z
 _atom_site_occupancy
  Na  Na0  1  0.000000  0.000000  0.000000  1
  Mn  Mn1  1  0.000000  0.500000  0.000000  1
  Sb  Sb2  1  0.336848  0.180963  0.842198  1
  Sb  Sb3  1  0.663152  0.819037  0.157802  1
  Sb  Sb4  1  0.655230  0.502687  0.841638  1
  Sb  Sb5  1  0.344770  0.497313  0.158362  1
  Sb  Sb6  1  0.186451  0.847438  0.345024  1
  Sb  Sb7  1  0.813549  0.152562  0.654976  1
  Sb  Sb8  1  0.505202  0.843110  0.662117  1
  Sb  Sb9  1  0.494798  0.156890  0.337883  1
  Sb  Sb10  1  0.842401  0.339731  0.186941  1
  Sb  Sb11  1  0.157599  0.660269  0.813059  1
  Sb  Sb12  1  0.841927  0.661760  0.504605  1
  Sb  Sb13  1  0.158073  0.338240  0.495395  1
  Os  Os14  1  0.500000  0.000000  0.000000  1
  Ru  Ru15  1  0.000000  0.000000  0.500000  1
  Ru  Ru16  1  0.500000  0.500000  0.500000  1
