# generated using pymatgen
data_Y9Lu7(AlPd)4
_symmetry_space_group_name_H-M   'P 1'
_cell_length_a   9.59730546
_cell_length_b   9.61182137
_cell_length_c   9.61146200
_cell_angle_alpha   59.90135471
_cell_angle_beta   59.94748987
_cell_angle_gamma   60.04746415
_symmetry_Int_Tables_number   1
_chemical_formula_structural   Y9Lu7(AlPd)4
_chemical_formula_sum   'Y9 Lu7 Al4 Pd4'
_cell_volume   626.45148727
_cell_formula_units_Z   1
loop_
 _symmetry_equiv_pos_site_id
 _symmetry_equiv_pos_as_xyz
  1  'x, y, z'
loop_
 _atom_site_type_symbol
 _atom_site_label
 _atom_site_symmetry_multiplicity
 _atom_site_fract_x
 _atom_site_fract_y
 _atom_site_fract_z
 _atom_site_occupancy
  Y  Y0  1  0.805950  0.194050  0.805950  1
  Y  Y1  1  0.192149  0.192416  0.808278  1
  Y  Y2  1  0.808278  0.807158  0.192149  1
  Y  Y3  1  0.936188  0.566567  0.561950  1
  Y  Y4  1  0.561950  0.935296  0.936188  1
  Y  Y5  1  0.563342  0.936658  0.563342  1
  Y  Y6  1  0.935592  0.564408  0.935592  1
  Y  Y7  1  0.561026  0.565811  0.937395  1
  Y  Y8  1  0.937395  0.935768  0.561026  1
  Lu  Lu9  1  0.355009  0.357294  0.355711  1
  Lu  Lu10  1  0.352724  0.354662  0.937212  1
  Lu  Lu11  1  0.355711  0.931987  0.355009  1
  Lu  Lu12  1  0.937212  0.355403  0.352724  1
  Lu  Lu13  1  0.806693  0.193504  0.193278  1
  Lu  Lu14  1  0.193278  0.806525  0.806693  1
  Lu  Lu15  1  0.191196  0.808804  0.191196  1
  Al  Al16  1  0.579211  0.576625  0.577601  1
  Al  Al17  1  0.579146  0.577640  0.266993  1
  Al  Al18  1  0.577601  0.266563  0.579211  1
  Al  Al19  1  0.266993  0.576220  0.579146  1
  Pd  Pd20  1  0.142159  0.141545  0.150434  1
  Pd  Pd21  1  0.149452  0.140696  0.561313  1
  Pd  Pd22  1  0.150434  0.565862  0.142159  1
  Pd  Pd23  1  0.561313  0.148540  0.149452  1
