# generated using pymatgen
data_Pa3TiSnSb4
_symmetry_space_group_name_H-M   'P 1'
_cell_length_a   9.19328000
_cell_length_b   9.19328035
_cell_length_c   6.13820300
_cell_angle_alpha   90.00000000
_cell_angle_beta   90.00000000
_cell_angle_gamma   119.99999156
_symmetry_Int_Tables_number   1
_chemical_formula_structural   Pa3TiSnSb4
_chemical_formula_sum   'Pa6 Ti2 Sn2 Sb8'
_cell_volume   449.27567706
_cell_formula_units_Z   2
loop_
 _symmetry_equiv_pos_site_id
 _symmetry_equiv_pos_as_xyz
  1  'x, y, z'
loop_
 _atom_site_type_symbol
 _atom_site_label
 _atom_site_symmetry_multiplicity
 _atom_site_fract_x
 _atom_site_fract_y
 _atom_site_fract_z
 _atom_site_occupancy
  Pa  Pa0  1  0.612479  0.000000  0.749196  1
  Pa  Pa1  1  0.387521  0.000000  0.250804  1
  Pa  Pa2  1  0.000000  0.612479  0.749196  1
  Pa  Pa3  1  0.000000  0.387521  0.250804  1
  Pa  Pa4  1  0.387521  0.387521  0.749196  1
  Pa  Pa5  1  0.612479  0.612479  0.250804  1
  Ti  Ti6  1  0.000000  0.000000  0.500000  1
  Ti  Ti7  1  0.000000  0.000000  0.000000  1
  Sn  Sn8  1  0.666667  0.333333  0.000000  1
  Sn  Sn9  1  0.333333  0.666667  0.000000  1
  Sb  Sb10  1  0.263150  0.000000  0.751654  1
  Sb  Sb11  1  0.736850  0.000000  0.248346  1
  Sb  Sb12  1  0.000000  0.263150  0.751654  1
  Sb  Sb13  1  0.000000  0.736850  0.248346  1
  Sb  Sb14  1  0.736850  0.736850  0.751654  1
  Sb  Sb15  1  0.263150  0.263150  0.248346  1
  Sb  Sb16  1  0.333333  0.666667  0.500000  1
  Sb  Sb17  1  0.666667  0.333333  0.500000  1
