# generated using pymatgen
data_RbBi(PSe3)2
_symmetry_space_group_name_H-M   'P 1'
_cell_length_a   8.14503800
_cell_length_b   7.16501593
_cell_length_c   10.66694510
_cell_angle_alpha   88.44805490
_cell_angle_beta   90.00000000
_cell_angle_gamma   90.00000000
_symmetry_Int_Tables_number   1
_chemical_formula_structural   RbBi(PSe3)2
_chemical_formula_sum   'Rb2 Bi2 P4 Se12'
_cell_volume   622.28738750
_cell_formula_units_Z   2
loop_
 _symmetry_equiv_pos_site_id
 _symmetry_equiv_pos_as_xyz
  1  'x, y, z'
loop_
 _atom_site_type_symbol
 _atom_site_label
 _atom_site_symmetry_multiplicity
 _atom_site_fract_x
 _atom_site_fract_y
 _atom_site_fract_z
 _atom_site_occupancy
  Rb  Rb0  1  0.666411  0.202168  0.995817  1
  Rb  Rb1  1  0.166411  0.797832  0.004183  1
  Bi  Bi2  1  0.930358  0.300946  0.511859  1
  Bi  Bi3  1  0.430358  0.699054  0.488141  1
  P  P4  1  0.154134  0.289675  0.788022  1
  P  P5  1  0.654134  0.710325  0.211978  1
  P  P6  1  0.865685  0.806584  0.335895  1
  P  P7  1  0.365685  0.193416  0.664105  1
  Se  Se8  1  0.059766  0.586680  0.330657  1
  Se  Se9  1  0.960268  0.081689  0.754517  1
  Se  Se10  1  0.559766  0.413320  0.669343  1
  Se  Se11  1  0.233280  0.309210  0.979335  1
  Se  Se12  1  0.578724  0.447611  0.314674  1
  Se  Se13  1  0.078724  0.552389  0.685326  1
  Se  Se14  1  0.749939  0.839780  0.526972  1
  Se  Se15  1  0.249939  0.160220  0.473028  1
  Se  Se16  1  0.453237  0.923893  0.740823  1
  Se  Se17  1  0.953237  0.076107  0.259177  1
  Se  Se18  1  0.733280  0.690790  0.020665  1
  Se  Se19  1  0.460268  0.918311  0.245483  1
