# generated using pymatgen
data_Tb2Tc5P7RuRh6
_symmetry_space_group_name_H-M   'P 1'
_cell_length_a   3.94721600
_cell_length_b   9.47712011
_cell_length_c   9.48447626
_cell_angle_alpha   119.83512871
_cell_angle_beta   89.99949517
_cell_angle_gamma   90.00111087
_symmetry_Int_Tables_number   1
_chemical_formula_structural   Tb2Tc5P7RuRh6
_chemical_formula_sum   'Tb2 Tc5 P7 Ru1 Rh6'
_cell_volume   307.77290570
_cell_formula_units_Z   1
loop_
 _symmetry_equiv_pos_site_id
 _symmetry_equiv_pos_as_xyz
  1  'x, y, z'
loop_
 _atom_site_type_symbol
 _atom_site_label
 _atom_site_symmetry_multiplicity
 _atom_site_fract_x
 _atom_site_fract_y
 _atom_site_fract_z
 _atom_site_occupancy
  Tb  Tb0  1  0.261945  0.667169  0.333088  1
  Tb  Tb1  1  0.762015  0.333163  0.666685  1
  Tc  Tc2  1  0.761904  0.093907  0.873900  1
  Tc  Tc3  1  0.761842  0.125407  0.218336  1
  Tc  Tc4  1  0.761888  0.781903  0.906492  1
  Tc  Tc5  1  0.261895  0.887376  0.160248  1
  Tc  Tc6  1  0.261931  0.839974  0.726656  1
  P  P7  1  0.261712  0.999909  0.999256  1
  P  P8  1  0.761927  0.881750  0.599711  1
  P  P9  1  0.761851  0.400017  0.282894  1
  P  P10  1  0.761868  0.718543  0.119605  1
  P  P11  1  0.262037  0.116430  0.412017  1
  P  P12  1  0.261975  0.587214  0.703862  1
  P  P13  1  0.261929  0.295046  0.883545  1
  Ru  Ru14  1  0.261802  0.272931  0.112572  1
  Rh  Rh15  1  0.761941  0.608329  0.555769  1
  Rh  Rh16  1  0.761855  0.443437  0.053847  1
  Rh  Rh17  1  0.761971  0.947076  0.391486  1
  Rh  Rh18  1  0.261893  0.367713  0.434823  1
  Rh  Rh19  1  0.261876  0.563949  0.932701  1
  Rh  Rh20  1  0.261943  0.068756  0.632512  1
