# generated using pymatgen
data_Hf8Co2RhW
_symmetry_space_group_name_H-M   'P 1'
_cell_length_a   8.63855912
_cell_length_b   8.63855772
_cell_length_c   8.60913000
_cell_angle_alpha   60.11263173
_cell_angle_beta   60.11263708
_cell_angle_gamma   60.06952397
_symmetry_Int_Tables_number   1
_chemical_formula_structural   Hf8Co2RhW
_chemical_formula_sum   'Hf16 Co4 Rh2 W2'
_cell_volume   455.29464339
_cell_formula_units_Z   2
loop_
 _symmetry_equiv_pos_site_id
 _symmetry_equiv_pos_as_xyz
  1  'x, y, z'
loop_
 _atom_site_type_symbol
 _atom_site_label
 _atom_site_symmetry_multiplicity
 _atom_site_fract_x
 _atom_site_fract_y
 _atom_site_fract_z
 _atom_site_occupancy
  Hf  Hf0  1  0.698037  0.099566  0.101197  1
  Hf  Hf1  1  0.099566  0.698037  0.101197  1
  Hf  Hf2  1  0.098939  0.098939  0.700876  1
  Hf  Hf3  1  0.098939  0.098939  0.101246  1
  Hf  Hf4  1  0.313926  0.313926  0.686074  1
  Hf  Hf5  1  0.685384  0.685384  0.314616  1
  Hf  Hf6  1  0.316044  0.688452  0.314201  1
  Hf  Hf7  1  0.688452  0.316044  0.681302  1
  Hf  Hf8  1  0.688452  0.316044  0.314201  1
  Hf  Hf9  1  0.316044  0.688452  0.681302  1
  Hf  Hf10  1  0.954575  0.954575  0.545425  1
  Hf  Hf11  1  0.548095  0.548095  0.951905  1
  Hf  Hf12  1  0.947390  0.550692  0.950798  1
  Hf  Hf13  1  0.550692  0.947390  0.551121  1
  Hf  Hf14  1  0.550692  0.947390  0.950798  1
  Hf  Hf15  1  0.947390  0.550692  0.551121  1
  Co  Co16  1  0.328656  0.888005  0.891669  1
  Co  Co17  1  0.888005  0.328656  0.891669  1
  Co  Co18  1  0.889546  0.889546  0.328379  1
  Co  Co19  1  0.889546  0.889546  0.892529  1
  Rh  Rh20  1  0.333313  0.333313  0.995359  1
  Rh  Rh21  1  0.333313  0.333313  0.338012  1
  W  W22  1  0.004171  0.330827  0.332500  1
  W  W23  1  0.330827  0.004171  0.332500  1
