# generated using pymatgen
data_Sc4P3S
_symmetry_space_group_name_H-M   'P 1'
_cell_length_a   3.74891106
_cell_length_b   6.48748716
_cell_length_c   9.91528494
_cell_angle_alpha   40.16280193
_cell_angle_beta   100.97806199
_cell_angle_gamma   106.95298646
_symmetry_Int_Tables_number   1
_chemical_formula_structural   Sc4P3S
_chemical_formula_sum   'Sc4 P3 S1'
_cell_volume   148.56826242
_cell_formula_units_Z   1
loop_
 _symmetry_equiv_pos_site_id
 _symmetry_equiv_pos_as_xyz
  1  'x, y, z'
loop_
 _atom_site_type_symbol
 _atom_site_label
 _atom_site_symmetry_multiplicity
 _atom_site_fract_x
 _atom_site_fract_y
 _atom_site_fract_z
 _atom_site_occupancy
  Sc  Sc0  1  0.905134  0.697671  0.417448  1
  Sc  Sc1  1  0.406615  0.198651  0.910322  1
  Sc  Sc2  1  0.652561  0.443271  0.159525  1
  Sc  Sc3  1  0.151680  0.940177  0.667056  1
  P  P4  1  0.527553  0.823192  0.537062  1
  P  P5  1  0.030144  0.316527  0.040490  1
  P  P6  1  0.779502  0.070166  0.788117  1
  S  S7  1  0.278949  0.569956  0.288595  1
