# generated using pymatgen
data_AcPa3(Al3Ir)6
_symmetry_space_group_name_H-M   'P 1'
_cell_length_a   7.64626218
_cell_length_b   7.67250420
_cell_length_c   9.48726300
_cell_angle_alpha   90.00000000
_cell_angle_beta   90.00000000
_cell_angle_gamma   119.57290997
_symmetry_Int_Tables_number   1
_chemical_formula_structural   AcPa3(Al3Ir)6
_chemical_formula_sum   'Ac1 Pa3 Al18 Ir6'
_cell_volume   484.07304338
_cell_formula_units_Z   1
loop_
 _symmetry_equiv_pos_site_id
 _symmetry_equiv_pos_as_xyz
  1  'x, y, z'
loop_
 _atom_site_type_symbol
 _atom_site_label
 _atom_site_symmetry_multiplicity
 _atom_site_fract_x
 _atom_site_fract_y
 _atom_site_fract_z
 _atom_site_occupancy
  Ac  Ac0  1  0.995442  0.669969  0.250000  1
  Pa  Pa1  1  0.001401  0.326558  0.750000  1
  Pa  Pa2  1  0.670863  0.997920  0.250000  1
  Pa  Pa3  1  0.329981  0.003944  0.750000  1
  Al  Al4  1  0.128500  0.135556  0.250000  1
  Al  Al5  1  0.868642  0.871207  0.750000  1
  Al  Al6  1  0.002925  0.331551  0.070977  1
  Al  Al7  1  0.996324  0.664508  0.919535  1
  Al  Al8  1  0.996324  0.664508  0.580465  1
  Al  Al9  1  0.339312  0.005937  0.429517  1
  Al  Al10  1  0.002925  0.331551  0.429023  1
  Al  Al11  1  0.664241  0.996906  0.573964  1
  Al  Al12  1  0.664241  0.996906  0.926036  1
  Al  Al13  1  0.339312  0.005937  0.070483  1
  Al  Al14  1  0.335575  0.335402  0.554248  1
  Al  Al15  1  0.662679  0.665793  0.452760  1
  Al  Al16  1  0.662679  0.665793  0.047240  1
  Al  Al17  1  0.335575  0.335402  0.945752  1
  Al  Al18  1  0.350636  0.550321  0.250000  1
  Al  Al19  1  0.656655  0.451863  0.750000  1
  Al  Al20  1  0.540343  0.330881  0.250000  1
  Al  Al21  1  0.451324  0.659794  0.750000  1
  Ir  Ir22  1  0.671746  0.326373  0.996378  1
  Ir  Ir23  1  0.328050  0.671816  0.996531  1
  Ir  Ir24  1  0.328050  0.671816  0.503469  1
  Ir  Ir25  1  0.671746  0.326373  0.503622  1
  Ir  Ir26  1  0.002254  0.002706  0.995852  1
  Ir  Ir27  1  0.002254  0.002706  0.504148  1
