# generated using pymatgen
data_RbTb5Tm(CBr6)2
_symmetry_space_group_name_H-M   'P 1'
_cell_length_a   8.90728632
_cell_length_b   8.88632772
_cell_length_c   9.41443570
_cell_angle_alpha   72.33097693
_cell_angle_beta   71.01003586
_cell_angle_gamma   72.90812279
_symmetry_Int_Tables_number   1
_chemical_formula_structural   RbTb5Tm(CBr6)2
_chemical_formula_sum   'Rb1 Tb5 Tm1 C2 Br12'
_cell_volume   655.44853284
_cell_formula_units_Z   1
loop_
 _symmetry_equiv_pos_site_id
 _symmetry_equiv_pos_as_xyz
  1  'x, y, z'
loop_
 _atom_site_type_symbol
 _atom_site_label
 _atom_site_symmetry_multiplicity
 _atom_site_fract_x
 _atom_site_fract_y
 _atom_site_fract_z
 _atom_site_occupancy
  Rb  Rb0  1  0.000267  0.499912  0.999929  1
  Tb  Tb1  1  0.777682  0.033476  0.406618  1
  Tb  Tb2  1  0.593610  0.724712  0.474794  1
  Tb  Tb3  1  0.406449  0.275317  0.525162  1
  Tb  Tb4  1  0.222185  0.966595  0.592995  1
  Tb  Tb5  1  0.525636  0.883433  0.817218  1
  Tm  Tm6  1  0.474636  0.116322  0.185171  1
  C  C7  1  0.492831  0.027012  0.421576  1
  C  C8  1  0.506984  0.973863  0.576415  1
  Br  Br9  1  0.793171  0.160280  0.082935  1
  Br  Br10  1  0.583359  0.790786  0.140691  1
  Br  Br11  1  0.352327  0.429463  0.222779  1
  Br  Br12  1  0.138919  0.071304  0.294360  1
  Br  Br13  1  0.923949  0.722460  0.353752  1
  Br  Br14  1  0.713773  0.366076  0.430478  1
  Br  Br15  1  0.286371  0.633737  0.569225  1
  Br  Br16  1  0.076290  0.277636  0.646239  1
  Br  Br17  1  0.864683  0.929290  0.703470  1
  Br  Br18  1  0.649530  0.566148  0.775445  1
  Br  Br19  1  0.415575  0.213087  0.863222  1
  Br  Br20  1  0.201777  0.839090  0.917526  1
