# generated using pymatgen
data_ErLu5(Si3Os)8
_symmetry_space_group_name_H-M   'P 1'
_cell_length_a   10.11185487
_cell_length_b   10.11185446
_cell_length_c   8.11602916
_cell_angle_alpha   90.01374971
_cell_angle_beta   90.01375511
_cell_angle_gamma   132.74373706
_symmetry_Int_Tables_number   1
_chemical_formula_structural   ErLu5(Si3Os)8
_chemical_formula_sum   'Er1 Lu5 Si24 Os8'
_cell_volume   609.44690730
_cell_formula_units_Z   1
loop_
 _symmetry_equiv_pos_site_id
 _symmetry_equiv_pos_as_xyz
  1  'x, y, z'
loop_
 _atom_site_type_symbol
 _atom_site_label
 _atom_site_symmetry_multiplicity
 _atom_site_fract_x
 _atom_site_fract_y
 _atom_site_fract_z
 _atom_site_occupancy
  Er  Er0  1  0.000000  0.000000  0.000000  1
  Lu  Lu1  1  0.498058  0.998130  0.250129  1
  Lu  Lu2  1  0.001870  0.501942  0.749871  1
  Lu  Lu3  1  0.501942  0.001870  0.749871  1
  Lu  Lu4  1  0.998130  0.498058  0.250129  1
  Lu  Lu5  1  0.500000  0.500000  0.500000  1
  Si  Si6  1  0.388671  0.154771  0.004714  1
  Si  Si7  1  0.654844  0.888774  0.495255  1
  Si  Si8  1  0.111226  0.345156  0.504745  1
  Si  Si9  1  0.845229  0.611329  0.995286  1
  Si  Si10  1  0.611329  0.845229  0.995286  1
  Si  Si11  1  0.345156  0.111226  0.504745  1
  Si  Si12  1  0.888774  0.654844  0.495255  1
  Si  Si13  1  0.154771  0.388671  0.004714  1
  Si  Si14  1  0.612951  0.378421  0.228476  1
  Si  Si15  1  0.878858  0.113570  0.271934  1
  Si  Si16  1  0.886430  0.121142  0.728066  1
  Si  Si17  1  0.621579  0.387049  0.771524  1
  Si  Si18  1  0.387049  0.621579  0.771524  1
  Si  Si19  1  0.121142  0.886430  0.728066  1
  Si  Si20  1  0.704287  0.295713  0.000000  1
  Si  Si21  1  0.795502  0.204498  0.500000  1
  Si  Si22  1  0.295713  0.704287  0.000000  1
  Si  Si23  1  0.204498  0.795502  0.500000  1
  Si  Si24  1  0.167482  0.167482  0.332924  1
  Si  Si25  1  0.667731  0.667731  0.166959  1
  Si  Si26  1  0.332269  0.332269  0.833041  1
  Si  Si27  1  0.832518  0.832518  0.667076  1
  Si  Si28  1  0.378421  0.612951  0.228476  1
  Si  Si29  1  0.113570  0.878858  0.271934  1
  Os  Os30  1  0.626988  0.626988  0.871048  1
  Os  Os31  1  0.128102  0.128102  0.627474  1
  Os  Os32  1  0.871898  0.871898  0.372526  1
  Os  Os33  1  0.373012  0.373012  0.128952  1
  Os  Os34  1  0.330163  0.669837  0.500000  1
  Os  Os35  1  0.170405  0.829595  0.000000  1
  Os  Os36  1  0.669837  0.330163  0.500000  1
  Os  Os37  1  0.829595  0.170405  0.000000  1
