# generated using pymatgen
data_Nb4AlV3Ga3Cu
_symmetry_space_group_name_H-M   'P 1'
_cell_length_a   4.96267008
_cell_length_b   5.05982534
_cell_length_c   8.45503900
_cell_angle_alpha   90.00000000
_cell_angle_beta   90.00000000
_cell_angle_gamma   120.44658884
_symmetry_Int_Tables_number   1
_chemical_formula_structural   Nb4AlV3Ga3Cu
_chemical_formula_sum   'Nb4 Al1 V3 Ga3 Cu1'
_cell_volume   183.03121120
_cell_formula_units_Z   1
loop_
 _symmetry_equiv_pos_site_id
 _symmetry_equiv_pos_as_xyz
  1  'x, y, z'
loop_
 _atom_site_type_symbol
 _atom_site_label
 _atom_site_symmetry_multiplicity
 _atom_site_fract_x
 _atom_site_fract_y
 _atom_site_fract_z
 _atom_site_occupancy
  Nb  Nb0  1  0.669556  0.335047  0.558234  1
  Nb  Nb1  1  0.326377  0.663684  0.437183  1
  Nb  Nb2  1  0.326377  0.663684  0.062817  1
  Nb  Nb3  1  0.669556  0.335047  0.941766  1
  Al  Al4  1  0.185942  0.835660  0.750000  1
  V  V5  1  0.822419  0.650971  0.250000  1
  V  V6  1  0.822487  0.170893  0.250000  1
  V  V7  1  0.340713  0.169907  0.250000  1
  Ga  Ga8  1  0.987934  0.993046  0.500171  1
  Ga  Ga9  1  0.987934  0.993046  0.999829  1
  Ga  Ga10  1  0.186732  0.351410  0.750000  1
  Cu  Cu11  1  0.673974  0.837605  0.750000  1
