# generated using pymatgen
data_Ta4Si3Ru2
_symmetry_space_group_name_H-M   'P 1'
_cell_length_a   7.55295440
_cell_length_b   7.55295381
_cell_length_c   7.55295394
_cell_angle_alpha   126.50610463
_cell_angle_beta   124.55028213
_cell_angle_gamma   80.67480680
_symmetry_Int_Tables_number   1
_chemical_formula_structural   Ta4Si3Ru2
_chemical_formula_sum   'Ta8 Si6 Ru4'
_cell_volume   275.06248138
_cell_formula_units_Z   2
loop_
 _symmetry_equiv_pos_site_id
 _symmetry_equiv_pos_as_xyz
  1  'x, y, z'
loop_
 _atom_site_type_symbol
 _atom_site_label
 _atom_site_symmetry_multiplicity
 _atom_site_fract_x
 _atom_site_fract_y
 _atom_site_fract_z
 _atom_site_occupancy
  Ta  Ta0  1  0.942538  0.909167  0.466631  1
  Ta  Ta1  1  0.057462  0.524094  0.966631  1
  Ta  Ta2  1  0.539620  0.516529  0.476908  1
  Ta  Ta3  1  0.460380  0.937287  0.976908  1
  Ta  Ta4  1  0.747311  0.084160  0.836849  1
  Ta  Ta5  1  0.252689  0.089539  0.336849  1
  Ta  Ta6  1  0.500000  0.748321  0.248321  1
  Ta  Ta7  1  0.000000  0.748321  0.748321  1
  Si  Si8  1  0.717724  0.440089  0.222366  1
  Si  Si9  1  0.282276  0.504643  0.722366  1
  Si  Si10  1  0.676333  0.182545  0.517902  1
  Si  Si11  1  0.323667  0.841569  0.506211  1
  Si  Si12  1  0.164642  0.182545  0.006211  1
  Si  Si13  1  0.835358  0.841569  0.017902  1
  Ru  Ru14  1  0.910661  0.250061  0.414312  1
  Ru  Ru15  1  0.089339  0.503651  0.339400  1
  Ru  Ru16  1  0.335750  0.250061  0.839400  1
  Ru  Ru17  1  0.664250  0.503651  0.914312  1
