# generated using pymatgen
data_Ce5AlSiTc3
_symmetry_space_group_name_H-M   'P 1'
_cell_length_a   8.31517674
_cell_length_b   8.31727758
_cell_length_c   8.31727899
_cell_angle_alpha   109.41629801
_cell_angle_beta   109.57288987
_cell_angle_gamma   109.43478307
_symmetry_Int_Tables_number   1
_chemical_formula_structural   Ce5AlSiTc3
_chemical_formula_sum   'Ce10 Al2 Si2 Tc6'
_cell_volume   442.74744708
_cell_formula_units_Z   2
loop_
 _symmetry_equiv_pos_site_id
 _symmetry_equiv_pos_as_xyz
  1  'x, y, z'
loop_
 _atom_site_type_symbol
 _atom_site_label
 _atom_site_symmetry_multiplicity
 _atom_site_fract_x
 _atom_site_fract_y
 _atom_site_fract_z
 _atom_site_occupancy
  Ce  Ce0  1  0.773898  0.776828  0.773521  1
  Ce  Ce1  1  0.303680  0.548931  0.752299  1
  Ce  Ce2  1  0.750000  0.309390  0.559390  1
  Ce  Ce3  1  0.548237  0.743192  0.295905  1
  Ce  Ce4  1  0.726102  0.499623  0.002930  1
  Ce  Ce5  1  0.003745  0.714117  0.503228  1
  Ce  Ce6  1  0.496255  0.999483  0.710372  1
  Ce  Ce7  1  0.250000  0.207837  0.957837  1
  Ce  Ce8  1  0.951763  0.247668  0.194956  1
  Ce  Ce9  1  0.196320  0.948619  0.245251  1
  Al  Al10  1  0.997772  0.087476  0.499771  1
  Al  Al11  1  0.502228  0.002000  0.089704  1
  Si  Si12  1  0.400187  0.400455  0.401722  1
  Si  Si13  1  0.099813  0.501536  0.000268  1
  Tc  Tc14  1  0.873186  0.135798  0.754674  1
  Tc  Tc15  1  0.750000  0.869063  0.119063  1
  Tc  Tc16  1  0.120315  0.747582  0.882435  1
  Tc  Tc17  1  0.250000  0.616795  0.366795  1
  Tc  Tc18  1  0.379685  0.262120  0.627267  1
  Tc  Tc19  1  0.626814  0.381488  0.262612  1
