# generated using pymatgen
data_Er6Al24Fe2Ru5Pt
_symmetry_space_group_name_H-M   'P 1'
_cell_length_a   8.74611886
_cell_length_b   8.75042367
_cell_length_c   9.50159127
_cell_angle_alpha   89.88759544
_cell_angle_beta   89.94458358
_cell_angle_gamma   119.93839044
_symmetry_Int_Tables_number   1
_chemical_formula_structural   Er6Al24Fe2Ru5Pt
_chemical_formula_sum   'Er6 Al24 Fe2 Ru5 Pt1'
_cell_volume   630.14251815
_cell_formula_units_Z   1
loop_
 _symmetry_equiv_pos_site_id
 _symmetry_equiv_pos_as_xyz
  1  'x, y, z'
loop_
 _atom_site_type_symbol
 _atom_site_label
 _atom_site_symmetry_multiplicity
 _atom_site_fract_x
 _atom_site_fract_y
 _atom_site_fract_z
 _atom_site_occupancy
  Er  Er0  1  0.191142  0.386360  0.250501  1
  Er  Er1  1  0.808858  0.613640  0.749499  1
  Er  Er2  1  0.612919  0.808753  0.249216  1
  Er  Er3  1  0.387081  0.191247  0.750784  1
  Er  Er4  1  0.194215  0.806393  0.251294  1
  Er  Er5  1  0.805785  0.193607  0.748706  1
  Al  Al6  1  0.323491  0.665218  0.020051  1
  Al  Al7  1  0.676509  0.334782  0.979949  1
  Al  Al8  1  0.666720  0.333290  0.517037  1
  Al  Al9  1  0.333280  0.666710  0.482963  1
  Al  Al10  1  0.160034  0.319893  0.576485  1
  Al  Al11  1  0.839966  0.680107  0.423515  1
  Al  Al12  1  0.680370  0.839738  0.576131  1
  Al  Al13  1  0.845308  0.674341  0.077198  1
  Al  Al14  1  0.319630  0.160262  0.423869  1
  Al  Al15  1  0.154692  0.325659  0.922802  1
  Al  Al16  1  0.159922  0.839378  0.576474  1
  Al  Al17  1  0.324797  0.157946  0.078689  1
  Al  Al18  1  0.840078  0.160622  0.423526  1
  Al  Al19  1  0.675203  0.842054  0.921311  1
  Al  Al20  1  0.839989  0.166226  0.077529  1
  Al  Al21  1  0.160011  0.833774  0.922471  1
  Al  Al22  1  0.561847  0.123890  0.249816  1
  Al  Al23  1  0.438153  0.876110  0.750184  1
  Al  Al24  1  0.880343  0.440453  0.245243  1
  Al  Al25  1  0.119657  0.559547  0.754757  1
  Al  Al26  1  0.563492  0.437262  0.253151  1
  Al  Al27  1  0.436508  0.562738  0.746849  1
  Al  Al28  1  0.999568  0.000412  0.255721  1
  Al  Al29  1  0.000432  0.999588  0.744279  1
  Fe  Fe30  1  0.000000  0.500000  0.000000  1
  Fe  Fe31  1  0.000000  0.000000  0.500000  1
  Ru  Ru32  1  0.500000  0.000000  0.000000  1
  Ru  Ru33  1  0.500000  0.000000  0.500000  1
  Ru  Ru34  1  0.000000  0.500000  0.500000  1
  Ru  Ru35  1  0.500000  0.500000  0.500000  1
  Ru  Ru36  1  0.000000  0.000000  0.000000  1
  Pt  Pt37  1  0.500000  0.500000  0.000000  1
