# generated using pymatgen
data_Y8Al(Pt11Au)2
_symmetry_space_group_name_H-M   'P 1'
_cell_length_a   8.35759300
_cell_length_b   8.35759300
_cell_length_c   8.40947700
_cell_angle_alpha   90.00000000
_cell_angle_beta   90.00000000
_cell_angle_gamma   90.00000000
_symmetry_Int_Tables_number   1
_chemical_formula_structural   Y8Al(Pt11Au)2
_chemical_formula_sum   'Y8 Al1 Pt22 Au2'
_cell_volume   587.39659272
_cell_formula_units_Z   1
loop_
 _symmetry_equiv_pos_site_id
 _symmetry_equiv_pos_as_xyz
  1  'x, y, z'
loop_
 _atom_site_type_symbol
 _atom_site_label
 _atom_site_symmetry_multiplicity
 _atom_site_fract_x
 _atom_site_fract_y
 _atom_site_fract_z
 _atom_site_occupancy
  Y  Y0  1  0.247852  0.247852  0.251184  1
  Y  Y1  1  0.752148  0.752148  0.748816  1
  Y  Y2  1  0.752148  0.752148  0.251184  1
  Y  Y3  1  0.752148  0.247852  0.748816  1
  Y  Y4  1  0.247852  0.247852  0.748816  1
  Y  Y5  1  0.247852  0.752148  0.251184  1
  Y  Y6  1  0.247852  0.752148  0.748816  1
  Y  Y7  1  0.752148  0.247852  0.251184  1
  Al  Al8  1  0.000000  0.000000  0.000000  1
  Pt  Pt9  1  0.260278  0.500000  0.000000  1
  Pt  Pt10  1  0.739722  0.500000  0.000000  1
  Pt  Pt11  1  0.000000  0.261410  0.500000  1
  Pt  Pt12  1  0.500000  0.260278  0.000000  1
  Pt  Pt13  1  0.000000  0.738590  0.500000  1
  Pt  Pt14  1  0.500000  0.739722  0.000000  1
  Pt  Pt15  1  0.500000  0.000000  0.262127  1
  Pt  Pt16  1  0.261410  0.000000  0.500000  1
  Pt  Pt17  1  0.500000  0.000000  0.737873  1
  Pt  Pt18  1  0.738590  0.000000  0.500000  1
  Pt  Pt19  1  0.000000  0.500000  0.262127  1
  Pt  Pt20  1  0.000000  0.500000  0.737873  1
  Pt  Pt21  1  0.251654  0.500000  0.500000  1
  Pt  Pt22  1  0.748346  0.500000  0.500000  1
  Pt  Pt23  1  0.500000  0.251654  0.500000  1
  Pt  Pt24  1  0.500000  0.748346  0.500000  1
  Pt  Pt25  1  0.294270  0.000000  0.000000  1
  Pt  Pt26  1  0.705730  0.000000  0.000000  1
  Pt  Pt27  1  0.000000  0.294270  0.000000  1
  Pt  Pt28  1  0.000000  0.705730  0.000000  1
  Pt  Pt29  1  0.000000  0.000000  0.292673  1
  Pt  Pt30  1  0.000000  0.000000  0.707327  1
  Au  Au31  1  0.500000  0.500000  0.255274  1
  Au  Au32  1  0.500000  0.500000  0.744726  1
