# generated using pymatgen
data_LaGa2IrPt2
_symmetry_space_group_name_H-M   'P 1'
_cell_length_a   5.69531760
_cell_length_b   5.63372924
_cell_length_c   3.97232400
_cell_angle_alpha   90.00000000
_cell_angle_beta   90.00000000
_cell_angle_gamma   119.64291524
_symmetry_Int_Tables_number   1
_chemical_formula_structural   LaGa2IrPt2
_chemical_formula_sum   'La1 Ga2 Ir1 Pt2'
_cell_volume   110.77472585
_cell_formula_units_Z   1
loop_
 _symmetry_equiv_pos_site_id
 _symmetry_equiv_pos_as_xyz
  1  'x, y, z'
loop_
 _atom_site_type_symbol
 _atom_site_label
 _atom_site_symmetry_multiplicity
 _atom_site_fract_x
 _atom_site_fract_y
 _atom_site_fract_z
 _atom_site_occupancy
  La  La0  1  0.000000  0.000000  0.000000  1
  Ga  Ga1  1  0.674862  0.337430  0.000000  1
  Ga  Ga2  1  0.325138  0.662570  0.000000  1
  Ir  Ir3  1  0.000000  0.500000  0.500000  1
  Pt  Pt4  1  0.500000  0.500000  0.500000  1
  Pt  Pt5  1  0.500000  0.000000  0.500000  1
