# generated using pymatgen
data_Ca2LaPrAl6O14
_symmetry_space_group_name_H-M   'P 1'
_cell_length_a   7.85248095
_cell_length_b   5.19500422
_cell_length_c   7.85938588
_cell_angle_alpha   90.24945265
_cell_angle_beta   89.92482070
_cell_angle_gamma   90.06519713
_symmetry_Int_Tables_number   1
_chemical_formula_structural   Ca2LaPrAl6O14
_chemical_formula_sum   'Ca2 La1 Pr1 Al6 O14'
_cell_volume   320.60968694
_cell_formula_units_Z   1
loop_
 _symmetry_equiv_pos_site_id
 _symmetry_equiv_pos_as_xyz
  1  'x, y, z'
loop_
 _atom_site_type_symbol
 _atom_site_label
 _atom_site_symmetry_multiplicity
 _atom_site_fract_x
 _atom_site_fract_y
 _atom_site_fract_z
 _atom_site_occupancy
  Ca  Ca0  1  0.162526  0.519107  0.422521  1
  Ca  Ca1  1  0.662243  0.480805  0.577739  1
  La  La2  1  0.841522  0.507609  0.094200  1
  Pr  Pr3  1  0.341897  0.491632  0.905435  1
  Al  Al4  1  0.357467  0.961483  0.603075  1
  Al  Al5  1  0.857372  0.038486  0.397541  1
  Al  Al6  1  0.643827  0.958243  0.889202  1
  Al  Al7  1  0.144908  0.041894  0.110256  1
  Al  Al8  1  0.499840  0.998091  0.244431  1
  Al  Al9  1  0.000530  0.002557  0.755275  1
  O  O10  1  0.355651  0.298143  0.616945  1
  O  O11  1  0.855785  0.701943  0.384155  1
  O  O12  1  0.636613  0.294496  0.897559  1
  O  O13  1  0.138628  0.705751  0.101564  1
  O  O14  1  0.010764  0.184357  0.263166  1
  O  O15  1  0.509773  0.813813  0.737443  1
  O  O16  1  0.398746  0.815837  0.403999  1
  O  O17  1  0.898914  0.184615  0.596210  1
  O  O18  1  0.579954  0.793987  0.079908  1
  O  O19  1  0.081957  0.206332  0.919359  1
  O  O20  1  0.344363  0.191828  0.144376  1
  O  O21  1  0.843796  0.810143  0.854929  1
  O  O22  1  0.666391  0.192574  0.327690  1
  O  O23  1  0.166531  0.806272  0.673022  1
