# generated using pymatgen
data_SrDyHo2(ZnSn)4
_symmetry_space_group_name_H-M   'P 1'
_cell_length_a   4.54988300
_cell_length_b   4.54988389
_cell_length_c   16.35787100
_cell_angle_alpha   90.00000000
_cell_angle_beta   90.00000000
_cell_angle_gamma   120.00000081
_symmetry_Int_Tables_number   1
_chemical_formula_structural   SrDyHo2(ZnSn)4
_chemical_formula_sum   'Sr1 Dy1 Ho2 Zn4 Sn4'
_cell_volume   293.26345708
_cell_formula_units_Z   1
loop_
 _symmetry_equiv_pos_site_id
 _symmetry_equiv_pos_as_xyz
  1  'x, y, z'
loop_
 _atom_site_type_symbol
 _atom_site_label
 _atom_site_symmetry_multiplicity
 _atom_site_fract_x
 _atom_site_fract_y
 _atom_site_fract_z
 _atom_site_occupancy
  Sr  Sr0  1  0.000000  0.000000  0.500000  1
  Dy  Dy1  1  0.000000  0.000000  0.000000  1
  Ho  Ho2  1  0.000000  0.000000  0.241610  1
  Ho  Ho3  1  0.000000  0.000000  0.758390  1
  Zn  Zn4  1  0.333333  0.666667  0.326111  1
  Zn  Zn5  1  0.666667  0.333333  0.673889  1
  Zn  Zn6  1  0.666667  0.333333  0.842852  1
  Zn  Zn7  1  0.333333  0.666667  0.157148  1
  Sn  Sn8  1  0.333333  0.666667  0.892029  1
  Sn  Sn9  1  0.666667  0.333333  0.107971  1
  Sn  Sn10  1  0.666667  0.333333  0.368932  1
  Sn  Sn11  1  0.333333  0.666667  0.631068  1
