# generated using pymatgen
data_Ac6In9Sn
_symmetry_space_group_name_H-M   'P 1'
_cell_length_a   6.96119619
_cell_length_b   6.97806208
_cell_length_c   11.01192100
_cell_angle_alpha   90.00000000
_cell_angle_beta   90.00000000
_cell_angle_gamma   102.14308058
_symmetry_Int_Tables_number   1
_chemical_formula_structural   Ac6In9Sn
_chemical_formula_sum   'Ac6 In9 Sn1'
_cell_volume   522.94286690
_cell_formula_units_Z   1
loop_
 _symmetry_equiv_pos_site_id
 _symmetry_equiv_pos_as_xyz
  1  'x, y, z'
loop_
 _atom_site_type_symbol
 _atom_site_label
 _atom_site_symmetry_multiplicity
 _atom_site_fract_x
 _atom_site_fract_y
 _atom_site_fract_z
 _atom_site_occupancy
  Ac  Ac0  1  0.642365  0.640142  0.250000  1
  Ac  Ac1  1  0.359741  0.363431  0.750000  1
  Ac  Ac2  1  0.202953  0.792664  0.496921  1
  Ac  Ac3  1  0.202953  0.792664  0.003079  1
  Ac  Ac4  1  0.797309  0.205164  0.497358  1
  Ac  Ac5  1  0.797309  0.205164  0.002642  1
  In  In6  1  0.026890  0.032949  0.250000  1
  In  In7  1  0.975209  0.975471  0.750000  1
  In  In8  1  0.309171  0.303467  0.055511  1
  In  In9  1  0.690390  0.694366  0.943126  1
  In  In10  1  0.309171  0.303467  0.444489  1
  In  In11  1  0.690390  0.694366  0.556874  1
  In  In12  1  0.488173  0.078671  0.250000  1
  In  In13  1  0.916382  0.510865  0.750000  1
  In  In14  1  0.507407  0.919329  0.750000  1
  Sn  Sn15  1  0.084184  0.487821  0.250000  1
