# generated using pymatgen
data_Sm2Ti4O11
_symmetry_space_group_name_H-M   'P 1'
_cell_length_a   5.09818155
_cell_length_b   7.20759975
_cell_length_c   12.59042000
_cell_angle_alpha   97.24713394
_cell_angle_beta   101.68101267
_cell_angle_gamma   110.71177431
_symmetry_Int_Tables_number   1
_chemical_formula_structural   Sm2Ti4O11
_chemical_formula_sum   'Sm4 Ti8 O22'
_cell_volume   413.78747880
_cell_formula_units_Z   2
loop_
 _symmetry_equiv_pos_site_id
 _symmetry_equiv_pos_as_xyz
  1  'x, y, z'
loop_
 _atom_site_type_symbol
 _atom_site_label
 _atom_site_symmetry_multiplicity
 _atom_site_fract_x
 _atom_site_fract_y
 _atom_site_fract_z
 _atom_site_occupancy
  Sm  Sm0  1  0.889472  0.697331  0.093382  1
  Sm  Sm1  1  0.598758  0.802670  0.406618  1
  Sm  Sm2  1  0.401243  0.197331  0.593383  1
  Sm  Sm3  1  0.110529  0.302670  0.906617  1
  Ti  Ti4  1  0.573001  0.157404  0.097538  1
  Ti  Ti5  1  0.241841  0.414367  0.190582  1
  Ti  Ti6  1  0.136893  0.085635  0.309419  1
  Ti  Ti7  1  0.818057  0.342596  0.402461  1
  Ti  Ti8  1  0.181942  0.657403  0.597538  1
  Ti  Ti9  1  0.863107  0.914366  0.690581  1
  Ti  Ti10  1  0.758160  0.585634  0.809419  1
  Ti  Ti11  1  0.426999  0.842597  0.902462  1
  O  O12  1  0.640246  0.919012  0.056652  1
  O  O13  1  0.921241  0.340919  0.059683  1
  O  O14  1  0.485828  0.417261  0.096835  1
  O  O15  1  0.259969  0.074332  0.167158  1
  O  O16  1  0.273619  0.667886  0.223865  1
  O  O17  1  0.901492  0.250000  0.250000  1
  O  O18  1  0.881867  0.832115  0.276134  1
  O  O19  1  0.518479  0.425668  0.332842  1
  O  O20  1  0.471733  0.082739  0.403165  1
  O  O21  1  0.020641  0.159083  0.440317  1
  O  O22  1  0.164581  0.580988  0.443347  1
  O  O23  1  0.835418  0.419012  0.556653  1
  O  O24  1  0.979360  0.840918  0.559682  1
  O  O25  1  0.528266  0.917260  0.596835  1
  O  O26  1  0.481521  0.574331  0.667158  1
  O  O27  1  0.118133  0.167886  0.723866  1
  O  O28  1  0.098507  0.749999  0.750000  1
  O  O29  1  0.726382  0.332115  0.776134  1
  O  O30  1  0.740032  0.925669  0.832842  1
  O  O31  1  0.514172  0.582740  0.903165  1
  O  O32  1  0.078760  0.659082  0.940318  1
  O  O33  1  0.359754  0.080988  0.943347  1
