# generated using pymatgen
data_Ta6Ga6Mo4C
_symmetry_space_group_name_H-M   'P 1'
_cell_length_a   7.68093700
_cell_length_b   7.68093489
_cell_length_c   5.17644200
_cell_angle_alpha   90.00000000
_cell_angle_beta   90.00000000
_cell_angle_gamma   119.99999615
_symmetry_Int_Tables_number   1
_chemical_formula_structural   Ta6Ga6Mo4C
_chemical_formula_sum   'Ta6 Ga6 Mo4 C1'
_cell_volume   264.47844795
_cell_formula_units_Z   1
loop_
 _symmetry_equiv_pos_site_id
 _symmetry_equiv_pos_as_xyz
  1  'x, y, z'
loop_
 _atom_site_type_symbol
 _atom_site_label
 _atom_site_symmetry_multiplicity
 _atom_site_fract_x
 _atom_site_fract_y
 _atom_site_fract_z
 _atom_site_occupancy
  Ta  Ta0  1  0.000000  0.766409  0.249463  1
  Ta  Ta1  1  0.233591  0.233591  0.249463  1
  Ta  Ta2  1  0.766409  0.000000  0.249463  1
  Ta  Ta3  1  0.000000  0.233591  0.750537  1
  Ta  Ta4  1  0.766409  0.766409  0.750537  1
  Ta  Ta5  1  0.233591  0.000000  0.750537  1
  Ga  Ga6  1  0.000000  0.404260  0.246664  1
  Ga  Ga7  1  0.595740  0.595740  0.246664  1
  Ga  Ga8  1  0.404260  0.000000  0.246664  1
  Ga  Ga9  1  0.000000  0.595740  0.753336  1
  Ga  Ga10  1  0.404260  0.404260  0.753336  1
  Ga  Ga11  1  0.595740  0.000000  0.753336  1
  Mo  Mo12  1  0.333333  0.666667  0.500000  1
  Mo  Mo13  1  0.666667  0.333333  0.500000  1
  Mo  Mo14  1  0.666667  0.333333  0.000000  1
  Mo  Mo15  1  0.333333  0.666667  0.000000  1
  C  C16  1  0.000000  0.000000  0.500000  1
