# generated using pymatgen
data_LaYbBC11
_symmetry_space_group_name_H-M   'P 1'
_cell_length_a   4.39706888
_cell_length_b   4.39553461
_cell_length_c   9.14620248
_cell_angle_alpha   91.08338926
_cell_angle_beta   88.93296577
_cell_angle_gamma   120.02866624
_symmetry_Int_Tables_number   1
_chemical_formula_structural   LaYbBC11
_chemical_formula_sum   'La1 Yb1 B1 C11'
_cell_volume   153.00968896
_cell_formula_units_Z   1
loop_
 _symmetry_equiv_pos_site_id
 _symmetry_equiv_pos_as_xyz
  1  'x, y, z'
loop_
 _atom_site_type_symbol
 _atom_site_label
 _atom_site_symmetry_multiplicity
 _atom_site_fract_x
 _atom_site_fract_y
 _atom_site_fract_z
 _atom_site_occupancy
  La  La0  1  0.338111  0.694276  0.243693  1
  Yb  Yb1  1  0.690923  0.341685  0.752512  1
  B  B2  1  0.324961  0.325251  0.511586  1
  C  C3  1  0.659297  0.992240  0.512557  1
  C  C4  1  0.992688  0.659880  0.511438  1
  C  C5  1  0.670415  0.670824  0.512014  1
  C  C6  1  0.981516  0.326684  0.508080  1
  C  C7  1  0.326211  0.981432  0.516548  1
  C  C8  1  0.668938  0.668057  0.989005  1
  C  C9  1  0.336233  0.000646  0.985824  1
  C  C10  1  0.002634  0.335246  0.991093  1
  C  C11  1  0.336280  0.335065  0.989222  1
  C  C12  1  0.003141  0.667951  0.989648  1
  C  C13  1  0.668652  0.000762  0.986778  1
