# generated using pymatgen
data_Y4TiRe2MoN12
_symmetry_space_group_name_H-M   'P 1'
_cell_length_a   7.36254375
_cell_length_b   7.41213001
_cell_length_c   6.31690346
_cell_angle_alpha   72.63963087
_cell_angle_beta   73.68740615
_cell_angle_gamma   81.96892140
_symmetry_Int_Tables_number   1
_chemical_formula_structural   Y4TiRe2MoN12
_chemical_formula_sum   'Y4 Ti1 Re2 Mo1 N12'
_cell_volume   315.18964840
_cell_formula_units_Z   1
loop_
 _symmetry_equiv_pos_site_id
 _symmetry_equiv_pos_as_xyz
  1  'x, y, z'
loop_
 _atom_site_type_symbol
 _atom_site_label
 _atom_site_symmetry_multiplicity
 _atom_site_fract_x
 _atom_site_fract_y
 _atom_site_fract_z
 _atom_site_occupancy
  Y  Y0  1  0.909785  0.084765  0.763478  1
  Y  Y1  1  0.091213  0.904893  0.262430  1
  Y  Y2  1  0.712386  0.279592  0.238874  1
  Y  Y3  1  0.302495  0.719716  0.736633  1
  Ti  Ti4  1  0.619639  0.801643  0.273110  1
  Re  Re5  1  0.379316  0.206532  0.719093  1
  Re  Re6  1  0.793733  0.618999  0.781541  1
  Mo  Mo7  1  0.199718  0.376239  0.216263  1
  N  N8  1  0.657377  0.624959  0.069209  1
  N  N9  1  0.370369  0.878899  0.354296  1
  N  N10  1  0.366725  0.334944  0.424687  1
  N  N11  1  0.120519  0.617450  0.164138  1
  N  N12  1  0.999853  0.220391  0.343369  1
  N  N13  1  0.790032  0.000269  0.147717  1
  N  N14  1  0.224800  0.009655  0.843765  1
  N  N15  1  0.619458  0.123271  0.670876  1
  N  N16  1  0.334174  0.372321  0.906788  1
  N  N17  1  0.882757  0.377010  0.829931  1
  N  N18  1  0.635685  0.667435  0.587205  1
  N  N19  1  0.989964  0.781018  0.666600  1
