# generated using pymatgen
data_Ho6Sc4Sn5Sb
_symmetry_space_group_name_H-M   'P 1'
_cell_length_a   8.77154600
_cell_length_b   8.77224778
_cell_length_c   6.23022300
_cell_angle_alpha   90.00000000
_cell_angle_beta   90.00000000
_cell_angle_gamma   119.99735366
_symmetry_Int_Tables_number   1
_chemical_formula_structural   Ho6Sc4Sn5Sb
_chemical_formula_sum   'Ho6 Sc4 Sn5 Sb1'
_cell_volume   415.17657251
_cell_formula_units_Z   1
loop_
 _symmetry_equiv_pos_site_id
 _symmetry_equiv_pos_as_xyz
  1  'x, y, z'
loop_
 _atom_site_type_symbol
 _atom_site_label
 _atom_site_symmetry_multiplicity
 _atom_site_fract_x
 _atom_site_fract_y
 _atom_site_fract_z
 _atom_site_occupancy
  Ho  Ho0  1  0.997654  0.759168  0.750000  1
  Ho  Ho1  1  0.000929  0.239675  0.250000  1
  Ho  Ho2  1  0.761254  0.760325  0.250000  1
  Ho  Ho3  1  0.760401  0.000000  0.750000  1
  Ho  Ho4  1  0.238486  0.240832  0.750000  1
  Ho  Ho5  1  0.240392  0.000000  0.250000  1
  Sc  Sc6  1  0.333530  0.666015  0.499491  1
  Sc  Sc7  1  0.667517  0.333985  0.000509  1
  Sc  Sc8  1  0.667517  0.333985  0.499491  1
  Sc  Sc9  1  0.333530  0.666015  0.000509  1
  Sn  Sn10  1  0.399303  0.398419  0.250000  1
  Sn  Sn11  1  0.000884  0.601581  0.250000  1
  Sn  Sn12  1  0.999312  0.399376  0.750000  1
  Sn  Sn13  1  0.599936  0.600624  0.750000  1
  Sn  Sn14  1  0.602548  0.000000  0.250000  1
  Sb  Sb15  1  0.396809  0.000000  0.750000  1
