# generated using pymatgen
data_Ho2TmPa3(Co3P2)6
_symmetry_space_group_name_H-M   'P 1'
_cell_length_a   3.72854600
_cell_length_b   10.46728578
_cell_length_c   12.19327811
_cell_angle_alpha   90.08534056
_cell_angle_beta   90.00000000
_cell_angle_gamma   90.00000000
_symmetry_Int_Tables_number   1
_chemical_formula_structural   Ho2TmPa3(Co3P2)6
_chemical_formula_sum   'Ho2 Tm1 Pa3 Co18 P12'
_cell_volume   475.87576133
_cell_formula_units_Z   1
loop_
 _symmetry_equiv_pos_site_id
 _symmetry_equiv_pos_as_xyz
  1  'x, y, z'
loop_
 _atom_site_type_symbol
 _atom_site_label
 _atom_site_symmetry_multiplicity
 _atom_site_fract_x
 _atom_site_fract_y
 _atom_site_fract_z
 _atom_site_occupancy
  Ho  Ho0  1  0.500000  0.186753  0.205544  1
  Ho  Ho1  1  0.000000  0.685168  0.794510  1
  Tm  Tm2  1  0.000000  0.314668  0.792735  1
  Pa  Pa3  1  0.000000  0.498829  0.528901  1
  Pa  Pa4  1  0.500000  0.001228  0.474353  1
  Pa  Pa5  1  0.500000  0.818101  0.208157  1
  Co  Co6  1  0.500000  0.499807  0.159630  1
  Co  Co7  1  0.000000  0.999578  0.843183  1
  Co  Co8  1  0.500000  0.498695  0.696246  1
  Co  Co9  1  0.000000  0.994121  0.299914  1
  Co  Co10  1  0.000000  0.499276  0.980763  1
  Co  Co11  1  0.500000  0.000737  0.015592  1
  Co  Co12  1  0.500000  0.335127  0.992237  1
  Co  Co13  1  0.500000  0.665520  0.994139  1
  Co  Co14  1  0.000000  0.168319  0.005533  1
  Co  Co15  1  0.000000  0.834591  0.007760  1
  Co  Co16  1  0.500000  0.300795  0.431181  1
  Co  Co17  1  0.500000  0.696638  0.430664  1
  Co  Co18  1  0.000000  0.196082  0.568134  1
  Co  Co19  1  0.000000  0.803020  0.571526  1
  Co  Co20  1  0.500000  0.880888  0.712823  1
  Co  Co21  1  0.500000  0.120169  0.712369  1
  Co  Co22  1  0.000000  0.622527  0.286525  1
  Co  Co23  1  0.000000  0.380679  0.288174  1
  P  P24  1  0.500000  0.499400  0.876534  1
  P  P25  1  0.000000  0.003754  0.118536  1
  P  P26  1  0.500000  0.498578  0.343625  1
  P  P27  1  0.000000  0.999649  0.658934  1
  P  P28  1  0.500000  0.305737  0.617071  1
  P  P29  1  0.500000  0.692852  0.617978  1
  P  P30  1  0.000000  0.190825  0.381768  1
  P  P31  1  0.000000  0.806343  0.389067  1
  P  P32  1  0.500000  0.847497  0.894761  1
  P  P33  1  0.500000  0.154449  0.893828  1
  P  P34  1  0.000000  0.650035  0.102512  1
  P  P35  1  0.000000  0.349561  0.104791  1
