# generated using pymatgen
data_La2DyHo3(IrO7)2
_symmetry_space_group_name_H-M   'P 1'
_cell_length_a   6.48114354
_cell_length_b   6.47787661
_cell_length_c   7.51832200
_cell_angle_alpha   90.00000000
_cell_angle_beta   90.00000000
_cell_angle_gamma   109.49885675
_symmetry_Int_Tables_number   1
_chemical_formula_structural   La2DyHo3(IrO7)2
_chemical_formula_sum   'La2 Dy1 Ho3 Ir2 O14'
_cell_volume   297.54650520
_cell_formula_units_Z   1
loop_
 _symmetry_equiv_pos_site_id
 _symmetry_equiv_pos_as_xyz
  1  'x, y, z'
loop_
 _atom_site_type_symbol
 _atom_site_label
 _atom_site_symmetry_multiplicity
 _atom_site_fract_x
 _atom_site_fract_y
 _atom_site_fract_z
 _atom_site_occupancy
  La  La0  1  0.999999  0.999922  0.500167  1
  La  La1  1  0.999999  0.999922  0.999833  1
  Dy  Dy2  1  0.515397  0.063130  0.250000  1
  Ho  Ho3  1  0.937882  0.485069  0.750000  1
  Ho  Ho4  1  0.484973  0.937653  0.750000  1
  Ho  Ho5  1  0.062197  0.515036  0.250000  1
  Ir  Ir6  1  0.499907  0.499799  0.500186  1
  Ir  Ir7  1  0.499907  0.499799  0.999814  1
  O  O8  1  0.442786  0.181205  0.535120  1
  O  O9  1  0.818817  0.556835  0.465633  1
  O  O10  1  0.442786  0.181205  0.964880  1
  O  O11  1  0.818817  0.556835  0.034367  1
  O  O12  1  0.557049  0.818592  0.466015  1
  O  O13  1  0.181099  0.443053  0.534381  1
  O  O14  1  0.557049  0.818592  0.033985  1
  O  O15  1  0.181099  0.443053  0.965619  1
  O  O16  1  0.160757  0.876847  0.250000  1
  O  O17  1  0.122784  0.838183  0.750000  1
  O  O18  1  0.837951  0.122572  0.750000  1
  O  O19  1  0.878708  0.161950  0.250000  1
  O  O20  1  0.408069  0.408724  0.250000  1
  O  O21  1  0.591969  0.592024  0.750000  1
