# generated using pymatgen
data_Dy5Tc5P12(Ir5Rh2)2
_symmetry_space_group_name_H-M   'P 1'
_cell_length_a   12.63541373
_cell_length_b   12.73098212
_cell_length_c   3.96572300
_cell_angle_alpha   90.00000000
_cell_angle_beta   90.00000000
_cell_angle_gamma   120.18525829
_symmetry_Int_Tables_number   1
_chemical_formula_structural   Dy5Tc5P12(Ir5Rh2)2
_chemical_formula_sum   'Dy5 Tc5 P12 Ir10 Rh4'
_cell_volume   551.43028927
_cell_formula_units_Z   1
loop_
 _symmetry_equiv_pos_site_id
 _symmetry_equiv_pos_as_xyz
  1  'x, y, z'
loop_
 _atom_site_type_symbol
 _atom_site_label
 _atom_site_symmetry_multiplicity
 _atom_site_fract_x
 _atom_site_fract_y
 _atom_site_fract_z
 _atom_site_occupancy
  Dy  Dy0  1  0.333691  0.667479  0.500000  1
  Dy  Dy1  1  0.666910  0.333415  0.500000  1
  Dy  Dy2  1  0.999584  0.811053  0.000000  1
  Dy  Dy3  1  0.186646  0.185227  0.000000  1
  Dy  Dy4  1  0.810391  0.998540  0.000000  1
  Tc  Tc5  1  0.996367  0.449238  0.500000  1
  Tc  Tc6  1  0.550416  0.545343  0.500000  1
  Tc  Tc7  1  0.456901  0.010905  0.500000  1
  Tc  Tc8  1  0.619903  0.798519  0.500000  1
  Tc  Tc9  1  0.201517  0.822087  0.500000  1
  P  P10  1  0.006547  0.638558  0.500000  1
  P  P11  1  0.365048  0.366431  0.500000  1
  P  P12  1  0.631796  0.993642  0.500000  1
  P  P13  1  0.519925  0.693184  0.000000  1
  P  P14  1  0.308322  0.830310  0.000000  1
  P  P15  1  0.168292  0.481998  0.000000  1
  P  P16  1  0.483547  0.168662  0.000000  1
  P  P17  1  0.684957  0.516616  0.000000  1
  P  P18  1  0.834235  0.316095  0.000000  1
  P  P19  1  0.998908  0.176533  0.500000  1
  P  P20  1  0.816979  0.820622  0.500000  1
  P  P21  1  0.176963  0.993477  0.500000  1
  Ir  Ir22  1  0.508106  0.875386  0.000000  1
  Ir  Ir23  1  0.126962  0.635834  0.000000  1
  Ir  Ir24  1  0.361515  0.492493  0.000000  1
  Ir  Ir25  1  0.488793  0.358063  0.000000  1
  Ir  Ir26  1  0.866789  0.508284  0.000000  1
  Ir  Ir27  1  0.644828  0.136115  0.000000  1
  Ir  Ir28  1  0.000109  0.283078  0.000000  1
  Ir  Ir29  1  0.717843  0.712149  0.000000  1
  Ir  Ir30  1  0.286473  0.005735  0.000000  1
  Ir  Ir31  1  0.999650  0.999207  0.500000  1
  Rh  Rh32  1  0.179992  0.375972  0.500000  1
  Rh  Rh33  1  0.373512  0.183673  0.500000  1
  Rh  Rh34  1  0.808074  0.623297  0.500000  1
  Rh  Rh35  1  0.819505  0.192777  0.500000  1
