# generated using pymatgen
data_Lu4Fe3TcRu4
_symmetry_space_group_name_H-M   'P 1'
_cell_length_a   5.21272000
_cell_length_b   5.18702946
_cell_length_c   8.67277300
_cell_angle_alpha   90.00000000
_cell_angle_beta   90.00000000
_cell_angle_gamma   120.77093598
_symmetry_Int_Tables_number   1
_chemical_formula_structural   Lu4Fe3TcRu4
_chemical_formula_sum   'Lu4 Fe3 Tc1 Ru4'
_cell_volume   201.48616465
_cell_formula_units_Z   1
loop_
 _symmetry_equiv_pos_site_id
 _symmetry_equiv_pos_as_xyz
  1  'x, y, z'
loop_
 _atom_site_type_symbol
 _atom_site_label
 _atom_site_symmetry_multiplicity
 _atom_site_fract_x
 _atom_site_fract_y
 _atom_site_fract_z
 _atom_site_occupancy
  Lu  Lu0  1  0.334529  0.668863  0.434907  1
  Lu  Lu1  1  0.667320  0.335827  0.562397  1
  Lu  Lu2  1  0.667320  0.335827  0.937603  1
  Lu  Lu3  1  0.334529  0.668863  0.065093  1
  Fe  Fe4  1  0.163406  0.823056  0.750000  1
  Fe  Fe5  1  0.341952  0.171545  0.250000  1
  Fe  Fe6  1  0.830585  0.661674  0.250000  1
  Tc  Tc7  1  0.165075  0.329691  0.750000  1
  Ru  Ru8  1  0.649671  0.819296  0.750000  1
  Ru  Ru9  1  0.010105  0.005086  0.004882  1
  Ru  Ru10  1  0.825405  0.175187  0.250000  1
  Ru  Ru11  1  0.010105  0.005086  0.495118  1
