# generated using pymatgen
data_TbBi3(SeO5)2
_symmetry_space_group_name_H-M   'P 1'
_cell_length_a   8.78597338
_cell_length_b   8.78597267
_cell_length_c   11.48849800
_cell_angle_alpha   90.00000000
_cell_angle_beta   90.00000000
_cell_angle_gamma   143.21313529
_symmetry_Int_Tables_number   1
_chemical_formula_structural   TbBi3(SeO5)2
_chemical_formula_sum   'Tb2 Bi6 Se4 O20'
_cell_volume   531.07247631
_cell_formula_units_Z   2
loop_
 _symmetry_equiv_pos_site_id
 _symmetry_equiv_pos_as_xyz
  1  'x, y, z'
loop_
 _atom_site_type_symbol
 _atom_site_label
 _atom_site_symmetry_multiplicity
 _atom_site_fract_x
 _atom_site_fract_y
 _atom_site_fract_z
 _atom_site_occupancy
  Tb  Tb0  1  0.737854  0.237854  0.607138  1
  Tb  Tb1  1  0.237854  0.737854  0.392862  1
  Bi  Bi2  1  0.233548  0.733548  0.864387  1
  Bi  Bi3  1  0.733548  0.233548  0.135613  1
  Bi  Bi4  1  0.890909  0.063810  0.393246  1
  Bi  Bi5  1  0.063810  0.890909  0.606754  1
  Bi  Bi6  1  0.390909  0.563810  0.606754  1
  Bi  Bi7  1  0.563810  0.390909  0.393246  1
  Se  Se8  1  0.386858  0.576285  0.148573  1
  Se  Se9  1  0.576285  0.386858  0.851427  1
  Se  Se10  1  0.886858  0.076285  0.851427  1
  Se  Se11  1  0.076285  0.886858  0.148573  1
  O  O12  1  0.149674  0.481739  0.229318  1
  O  O13  1  0.481739  0.149674  0.770682  1
  O  O14  1  0.649674  0.981739  0.770682  1
  O  O15  1  0.981739  0.649674  0.229318  1
  O  O16  1  0.567325  0.896802  0.501818  1
  O  O17  1  0.896802  0.567325  0.498182  1
  O  O18  1  0.067325  0.396802  0.498182  1
  O  O19  1  0.396802  0.067325  0.501818  1
  O  O20  1  0.105055  0.605055  0.697175  1
  O  O21  1  0.605055  0.105055  0.302825  1
  O  O22  1  0.553079  0.856143  0.080024  1
  O  O23  1  0.856143  0.553079  0.919976  1
  O  O24  1  0.175588  0.081176  0.259204  1
  O  O25  1  0.081176  0.175588  0.740796  1
  O  O26  1  0.675588  0.581176  0.740796  1
  O  O27  1  0.581176  0.675588  0.259204  1
  O  O28  1  0.246677  0.246677  0.500000  1
  O  O29  1  0.746677  0.746677  0.500000  1
  O  O30  1  0.356143  0.053079  0.080024  1
  O  O31  1  0.053079  0.356143  0.919976  1
