# generated using pymatgen
data_Tb5Y3Re(B8Ru)3
_symmetry_space_group_name_H-M   'P 1'
_cell_length_a   3.67770000
_cell_length_b   9.16230128
_cell_length_c   11.54981830
_cell_angle_alpha   89.84964852
_cell_angle_beta   90.00000000
_cell_angle_gamma   90.00000000
_symmetry_Int_Tables_number   1
_chemical_formula_structural   Tb5Y3Re(B8Ru)3
_chemical_formula_sum   'Tb5 Y3 Re1 B24 Ru3'
_cell_volume   389.18359453
_cell_formula_units_Z   1
loop_
 _symmetry_equiv_pos_site_id
 _symmetry_equiv_pos_as_xyz
  1  'x, y, z'
loop_
 _atom_site_type_symbol
 _atom_site_label
 _atom_site_symmetry_multiplicity
 _atom_site_fract_x
 _atom_site_fract_y
 _atom_site_fract_z
 _atom_site_occupancy
  Tb  Tb0  1  0.000000  0.823618  0.084991  1
  Tb  Tb1  1  0.000000  0.179294  0.911785  1
  Tb  Tb2  1  0.000000  0.323221  0.416294  1
  Tb  Tb3  1  0.000000  0.675720  0.586741  1
  Tb  Tb4  1  0.000000  0.442870  0.129075  1
  Y  Y5  1  0.000000  0.556557  0.872471  1
  Y  Y6  1  0.000000  0.942466  0.371558  1
  Y  Y7  1  0.000000  0.056103  0.627291  1
  Re  Re8  1  0.000000  0.362360  0.678671  1
  B  B9  1  0.500000  0.054021  0.067127  1
  B  B10  1  0.500000  0.946377  0.932419  1
  B  B11  1  0.500000  0.553686  0.432241  1
  B  B12  1  0.500000  0.447097  0.567181  1
  B  B13  1  0.500000  0.247545  0.080747  1
  B  B14  1  0.500000  0.752816  0.919545  1
  B  B15  1  0.500000  0.747397  0.419073  1
  B  B16  1  0.500000  0.252106  0.580817  1
  B  B17  1  0.500000  0.289296  0.233755  1
  B  B18  1  0.500000  0.709787  0.767187  1
  B  B19  1  0.500000  0.790147  0.266186  1
  B  B20  1  0.500000  0.209032  0.733703  1
  B  B21  1  0.500000  0.130867  0.314347  1
  B  B22  1  0.500000  0.868352  0.686016  1
  B  B23  1  0.500000  0.631925  0.185646  1
  B  B24  1  0.500000  0.368691  0.814204  1
  B  B25  1  0.500000  0.484064  0.287706  1
  B  B26  1  0.500000  0.517548  0.712718  1
  B  B27  1  0.500000  0.983561  0.211916  1
  B  B28  1  0.500000  0.016463  0.787352  1
  B  B29  1  0.500000  0.106427  0.469603  1
  B  B30  1  0.500000  0.891441  0.529434  1
  B  B31  1  0.500000  0.608856  0.030454  1
  B  B32  1  0.500000  0.392348  0.970669  1
  Ru  Ru33  1  0.000000  0.137391  0.178678  1
  Ru  Ru34  1  0.000000  0.862561  0.821580  1
  Ru  Ru35  1  0.000000  0.637989  0.320820  1
