# generated using pymatgen
data_YHo19(Bi2Ru)4
_symmetry_space_group_name_H-M   'P 1'
_cell_length_a   7.94801003
_cell_length_b   8.99807300
_cell_length_c   12.43510604
_cell_angle_alpha   90.00000000
_cell_angle_beta   90.00931977
_cell_angle_gamma   90.00000000
_symmetry_Int_Tables_number   1
_chemical_formula_structural   YHo19(Bi2Ru)4
_chemical_formula_sum   'Y1 Ho19 Bi8 Ru4'
_cell_volume   889.31866188
_cell_formula_units_Z   1
loop_
 _symmetry_equiv_pos_site_id
 _symmetry_equiv_pos_as_xyz
  1  'x, y, z'
loop_
 _atom_site_type_symbol
 _atom_site_label
 _atom_site_symmetry_multiplicity
 _atom_site_fract_x
 _atom_site_fract_y
 _atom_site_fract_z
 _atom_site_occupancy
  Y  Y0  1  0.839801  0.750000  0.791591  1
  Ho  Ho1  1  0.159882  0.250000  0.207469  1
  Ho  Ho2  1  0.340197  0.250000  0.707412  1
  Ho  Ho3  1  0.659877  0.750000  0.292558  1
  Ho  Ho4  1  0.375504  0.750000  0.690341  1
  Ho  Ho5  1  0.624341  0.250000  0.309598  1
  Ho  Ho6  1  0.875623  0.250000  0.809589  1
  Ho  Ho7  1  0.124375  0.750000  0.190417  1
  Ho  Ho8  1  0.945453  0.750000  0.504006  1
  Ho  Ho9  1  0.054658  0.250000  0.495769  1
  Ho  Ho10  1  0.445396  0.250000  0.995892  1
  Ho  Ho11  1  0.554429  0.750000  0.004377  1
  Ho  Ho12  1  0.674166  0.041927  0.564652  1
  Ho  Ho13  1  0.325785  0.958094  0.435298  1
  Ho  Ho14  1  0.174321  0.958199  0.935481  1
  Ho  Ho15  1  0.325785  0.541906  0.435298  1
  Ho  Ho16  1  0.825766  0.041900  0.064727  1
  Ho  Ho17  1  0.674166  0.458073  0.564652  1
  Ho  Ho18  1  0.825766  0.458100  0.064727  1
  Ho  Ho19  1  0.174321  0.541801  0.935481  1
  Bi  Bi20  1  0.567072  0.492915  0.827586  1
  Bi  Bi21  1  0.432657  0.506871  0.172496  1
  Bi  Bi22  1  0.067644  0.506656  0.672344  1
  Bi  Bi23  1  0.432657  0.993129  0.172496  1
  Bi  Bi24  1  0.932591  0.493082  0.327476  1
  Bi  Bi25  1  0.567072  0.007085  0.827586  1
  Bi  Bi26  1  0.932591  0.006918  0.327476  1
  Bi  Bi27  1  0.067644  0.993344  0.672344  1
  Ru  Ru28  1  0.574157  0.750000  0.510184  1
  Ru  Ru29  1  0.425911  0.250000  0.489868  1
  Ru  Ru30  1  0.074148  0.250000  0.989816  1
  Ru  Ru31  1  0.926240  0.750000  0.010991  1
