# generated using pymatgen
data_HfTaV3Os
_symmetry_space_group_name_H-M   'P 1'
_cell_length_a   5.11708559
_cell_length_b   5.11708568
_cell_length_c   5.12714293
_cell_angle_alpha   60.06486393
_cell_angle_beta   60.06485645
_cell_angle_gamma   60.00000252
_symmetry_Int_Tables_number   1
_chemical_formula_structural   HfTaV3Os
_chemical_formula_sum   'Hf1 Ta1 V3 Os1'
_cell_volume   95.02346772
_cell_formula_units_Z   1
loop_
 _symmetry_equiv_pos_site_id
 _symmetry_equiv_pos_as_xyz
  1  'x, y, z'
loop_
 _atom_site_type_symbol
 _atom_site_label
 _atom_site_symmetry_multiplicity
 _atom_site_fract_x
 _atom_site_fract_y
 _atom_site_fract_z
 _atom_site_occupancy
  Hf  Hf0  1  0.250557  0.250557  0.248329  1
  Ta  Ta1  1  0.999649  0.999649  0.001054  1
  V  V2  1  0.625201  0.124510  0.625088  1
  V  V3  1  0.124510  0.625201  0.625088  1
  V  V4  1  0.625201  0.625201  0.625088  1
  Os  Os5  1  0.624882  0.624882  0.125355  1
