# generated using pymatgen
data_Dy7Zr(Si4Tc3)4
_symmetry_space_group_name_H-M   'P 1'
_cell_length_a   6.78286324
_cell_length_b   6.77887593
_cell_length_c   12.71966368
_cell_angle_alpha   89.86387016
_cell_angle_beta   90.14056548
_cell_angle_gamma   90.20831500
_symmetry_Int_Tables_number   1
_chemical_formula_structural   Dy7Zr(Si4Tc3)4
_chemical_formula_sum   'Dy7 Zr1 Si16 Tc12'
_cell_volume   584.84526784
_cell_formula_units_Z   1
loop_
 _symmetry_equiv_pos_site_id
 _symmetry_equiv_pos_as_xyz
  1  'x, y, z'
loop_
 _atom_site_type_symbol
 _atom_site_label
 _atom_site_symmetry_multiplicity
 _atom_site_fract_x
 _atom_site_fract_y
 _atom_site_fract_z
 _atom_site_occupancy
  Dy  Dy0  1  0.005645  0.663188  0.030820  1
  Dy  Dy1  1  0.995129  0.336114  0.530674  1
  Dy  Dy2  1  0.662659  0.006278  0.968625  1
  Dy  Dy3  1  0.162026  0.492716  0.780717  1
  Dy  Dy4  1  0.837425  0.506173  0.282458  1
  Dy  Dy5  1  0.493329  0.162443  0.218945  1
  Dy  Dy6  1  0.505447  0.837022  0.718900  1
  Zr  Zr7  1  0.340566  0.988625  0.466776  1
  Si  Si8  1  0.022246  0.730577  0.438916  1
  Si  Si9  1  0.983702  0.270152  0.939426  1
  Si  Si10  1  0.723887  0.019961  0.561251  1
  Si  Si11  1  0.224484  0.480420  0.189359  1
  Si  Si12  1  0.773040  0.518561  0.687357  1
  Si  Si13  1  0.481915  0.227382  0.809904  1
  Si  Si14  1  0.520011  0.776044  0.314135  1
  Si  Si15  1  0.270415  0.983943  0.060639  1
  Si  Si16  1  0.886534  0.805057  0.813785  1
  Si  Si17  1  0.117221  0.192497  0.317619  1
  Si  Si18  1  0.805499  0.886132  0.185917  1
  Si  Si19  1  0.305158  0.616042  0.563556  1
  Si  Si20  1  0.693898  0.386689  0.064202  1
  Si  Si21  1  0.611664  0.301940  0.436381  1
  Si  Si22  1  0.386777  0.693409  0.936149  1
  Si  Si23  1  0.195560  0.113554  0.682544  1
  Tc  Tc24  1  0.318284  0.481994  0.380122  1
  Tc  Tc25  1  0.812974  0.021322  0.370195  1
  Tc  Tc26  1  0.980449  0.187766  0.132807  1
  Tc  Tc27  1  0.022552  0.814951  0.628898  1
  Tc  Tc28  1  0.685685  0.516545  0.879503  1
  Tc  Tc29  1  0.477391  0.312076  0.617274  1
  Tc  Tc30  1  0.514613  0.684057  0.122494  1
  Tc  Tc31  1  0.187320  0.980083  0.867890  1
  Tc  Tc32  1  0.661155  0.669877  0.499562  1
  Tc  Tc33  1  0.834073  0.163637  0.748125  1
  Tc  Tc34  1  0.165563  0.837216  0.253968  1
  Tc  Tc35  1  0.335699  0.335557  0.000103  1
