# generated using pymatgen
data_La15Y5(Ir3Rh)3
_symmetry_space_group_name_H-M   'P 1'
_cell_length_a   11.33602615
_cell_length_b   11.33690516
_cell_length_c   6.60049792
_cell_angle_alpha   89.73032290
_cell_angle_beta   90.12208514
_cell_angle_gamma   90.14998355
_symmetry_Int_Tables_number   1
_chemical_formula_structural   La15Y5(Ir3Rh)3
_chemical_formula_sum   'La15 Y5 Ir9 Rh3'
_cell_volume   848.25177721
_cell_formula_units_Z   1
loop_
 _symmetry_equiv_pos_site_id
 _symmetry_equiv_pos_as_xyz
  1  'x, y, z'
loop_
 _atom_site_type_symbol
 _atom_site_label
 _atom_site_symmetry_multiplicity
 _atom_site_fract_x
 _atom_site_fract_y
 _atom_site_fract_z
 _atom_site_occupancy
  La  La0  1  0.284575  0.091200  0.391590  1
  La  La1  1  0.287615  0.910692  0.893119  1
  La  La2  1  0.712990  0.089253  0.897244  1
  La  La3  1  0.711783  0.910369  0.396487  1
  La  La4  1  0.589787  0.787099  0.893974  1
  La  La5  1  0.588809  0.211925  0.396082  1
  La  La6  1  0.409658  0.787067  0.394608  1
  La  La7  1  0.408927  0.212442  0.896285  1
  La  La8  1  0.210484  0.408489  0.604379  1
  La  La9  1  0.211194  0.584105  0.105833  1
  La  La10  1  0.790755  0.410693  0.105407  1
  La  La11  1  0.788283  0.587733  0.602893  1
  La  La12  1  0.911956  0.713582  0.106192  1
  La  La13  1  0.914495  0.287153  0.603747  1
  La  La14  1  0.089097  0.711380  0.602780  1
  Y  Y15  1  0.086906  0.289925  0.105990  1
  Y  Y16  1  0.999221  0.000028  0.500148  1
  Y  Y17  1  0.002857  0.003884  0.001396  1
  Y  Y18  1  0.500317  0.498773  0.002556  1
  Y  Y19  1  0.498920  0.499291  0.502032  1
  Ir  Ir20  1  0.854467  0.153170  0.245499  1
  Ir  Ir21  1  0.850150  0.850190  0.750692  1
  Ir  Ir22  1  0.149793  0.151335  0.750900  1
  Ir  Ir23  1  0.151977  0.851921  0.251036  1
  Ir  Ir24  1  0.649711  0.349992  0.749668  1
  Ir  Ir25  1  0.647631  0.652448  0.252034  1
  Ir  Ir26  1  0.347389  0.347808  0.249496  1
  Ir  Ir27  1  0.349468  0.649452  0.750520  1
  Ir  Ir28  1  0.000161  0.499383  0.369099  1
  Rh  Rh29  1  0.499645  0.000946  0.126555  1
  Rh  Rh30  1  0.500272  0.999916  0.625810  1
  Rh  Rh31  1  0.000705  0.498358  0.875946  1
