# generated using pymatgen
data_Th2Ga6CuPd
_symmetry_space_group_name_H-M   'P 1'
_cell_length_a   5.98373487
_cell_length_b   5.98373394
_cell_length_c   6.06377800
_cell_angle_alpha   90.00000000
_cell_angle_beta   90.00000000
_cell_angle_gamma   118.00032694
_symmetry_Int_Tables_number   1
_chemical_formula_structural   Th2Ga6CuPd
_chemical_formula_sum   'Th2 Ga6 Cu1 Pd1'
_cell_volume   191.69973827
_cell_formula_units_Z   1
loop_
 _symmetry_equiv_pos_site_id
 _symmetry_equiv_pos_as_xyz
  1  'x, y, z'
loop_
 _atom_site_type_symbol
 _atom_site_label
 _atom_site_symmetry_multiplicity
 _atom_site_fract_x
 _atom_site_fract_y
 _atom_site_fract_z
 _atom_site_occupancy
  Th  Th0  1  0.245201  0.754799  0.750000  1
  Th  Th1  1  0.758690  0.241310  0.250000  1
  Ga  Ga2  1  0.657212  0.342788  0.750000  1
  Ga  Ga3  1  0.347382  0.652618  0.250000  1
  Ga  Ga4  1  0.733918  0.736018  0.992218  1
  Ga  Ga5  1  0.733918  0.736018  0.507782  1
  Ga  Ga6  1  0.263982  0.266082  0.992218  1
  Ga  Ga7  1  0.263982  0.266082  0.507782  1
  Cu  Cu8  1  0.887555  0.112445  0.750000  1
  Pd  Pd9  1  0.108158  0.891842  0.250000  1
