# generated using pymatgen
data_Nd12ZnCo4Pb
_symmetry_space_group_name_H-M   'P 1'
_cell_length_a   8.63307301
_cell_length_b   8.63307490
_cell_length_c   8.63307309
_cell_angle_alpha   112.68737374
_cell_angle_beta   108.75460018
_cell_angle_gamma   107.02456861
_symmetry_Int_Tables_number   1
_chemical_formula_structural   Nd12ZnCo4Pb
_chemical_formula_sum   'Nd12 Zn1 Co4 Pb1'
_cell_volume   494.02318226
_cell_formula_units_Z   1
loop_
 _symmetry_equiv_pos_site_id
 _symmetry_equiv_pos_as_xyz
  1  'x, y, z'
loop_
 _atom_site_type_symbol
 _atom_site_label
 _atom_site_symmetry_multiplicity
 _atom_site_fract_x
 _atom_site_fract_y
 _atom_site_fract_z
 _atom_site_occupancy
  Nd  Nd0  1  0.425255  0.226298  0.198956  1
  Nd  Nd1  1  0.574745  0.773702  0.801044  1
  Nd  Nd2  1  0.027341  0.226298  0.801044  1
  Nd  Nd3  1  0.972659  0.773702  0.198956  1
  Nd  Nd4  1  0.179693  0.285409  0.465101  1
  Nd  Nd5  1  0.820307  0.714591  0.534899  1
  Nd  Nd6  1  0.179693  0.714591  0.894285  1
  Nd  Nd7  1  0.820307  0.285409  0.105715  1
  Nd  Nd8  1  0.323280  0.637169  0.313889  1
  Nd  Nd9  1  0.676720  0.362831  0.686111  1
  Nd  Nd10  1  0.323280  0.009392  0.686111  1
  Nd  Nd11  1  0.676720  0.990608  0.313889  1
  Zn  Zn12  1  0.000000  0.000000  0.000000  1
  Co  Co13  1  0.346249  0.000000  0.346249  1
  Co  Co14  1  0.653751  0.000000  0.653751  1
  Co  Co15  1  0.111334  0.611334  0.500000  1
  Co  Co16  1  0.888666  0.388666  0.500000  1
  Pb  Pb17  1  0.500000  0.500000  0.000000  1
