# generated using pymatgen
data_Y10B2I15
_symmetry_space_group_name_H-M   'P 1'
_cell_length_a   9.62612918
_cell_length_b   10.37527648
_cell_length_c   11.31794790
_cell_angle_alpha   91.67181895
_cell_angle_beta   114.44427049
_cell_angle_gamma   110.49489673
_symmetry_Int_Tables_number   1
_chemical_formula_structural   Y10B2I15
_chemical_formula_sum   'Y10 B2 I15'
_cell_volume   943.61601056
_cell_formula_units_Z   1
loop_
 _symmetry_equiv_pos_site_id
 _symmetry_equiv_pos_as_xyz
  1  'x, y, z'
loop_
 _atom_site_type_symbol
 _atom_site_label
 _atom_site_symmetry_multiplicity
 _atom_site_fract_x
 _atom_site_fract_y
 _atom_site_fract_z
 _atom_site_occupancy
  Y  Y0  1  0.784192  0.393854  0.267993  1
  Y  Y1  1  0.215808  0.606146  0.732007  1
  Y  Y2  1  0.662414  0.751470  0.824950  1
  Y  Y3  1  0.337586  0.248530  0.175050  1
  Y  Y4  1  0.523067  0.712289  0.085990  1
  Y  Y5  1  0.476933  0.287711  0.914010  1
  Y  Y6  1  0.580647  0.043958  0.309528  1
  Y  Y7  1  0.419353  0.956042  0.690472  1
  Y  Y8  1  0.707649  0.070059  0.045619  1
  Y  Y9  1  0.292351  0.929941  0.954381  1
  B  B10  1  0.468508  0.822718  0.879982  1
  B  B11  1  0.531492  0.177282  0.120018  1
  I  I12  1  0.000000  0.000000  0.000000  1
  I  I13  1  0.638820  0.882748  0.582426  1
  I  I14  1  0.361180  0.117252  0.417574  1
  I  I15  1  0.885569  0.299605  0.531870  1
  I  I16  1  0.114431  0.700395  0.468130  1
  I  I17  1  0.284756  0.760048  0.178136  1
  I  I18  1  0.715244  0.239952  0.821864  1
  I  I19  1  0.055340  0.340301  0.225666  1
  I  I20  1  0.160071  0.056049  0.701469  1
  I  I21  1  0.839929  0.943951  0.298531  1
  I  I22  1  0.227996  0.409659  0.942006  1
  I  I23  1  0.772004  0.590341  0.057994  1
  I  I24  1  0.409290  0.459248  0.659219  1
  I  I25  1  0.590710  0.540752  0.340781  1
  I  I26  1  0.944660  0.659699  0.774334  1
