# generated using pymatgen
data_Rb12In2BiSb5
_symmetry_space_group_name_H-M   'P 1'
_cell_length_a   6.37366000
_cell_length_b   11.12355505
_cell_length_c   13.04342337
_cell_angle_alpha   79.32458555
_cell_angle_beta   90.00000000
_cell_angle_gamma   90.00000000
_symmetry_Int_Tables_number   1
_chemical_formula_structural   Rb12In2BiSb5
_chemical_formula_sum   'Rb12 In2 Bi1 Sb5'
_cell_volume   908.74425510
_cell_formula_units_Z   1
loop_
 _symmetry_equiv_pos_site_id
 _symmetry_equiv_pos_as_xyz
  1  'x, y, z'
loop_
 _atom_site_type_symbol
 _atom_site_label
 _atom_site_symmetry_multiplicity
 _atom_site_fract_x
 _atom_site_fract_y
 _atom_site_fract_z
 _atom_site_occupancy
  Rb  Rb0  1  0.750000  0.459809  0.078593  1
  Rb  Rb1  1  0.250000  0.540509  0.920578  1
  Rb  Rb2  1  0.750000  0.738786  0.229808  1
  Rb  Rb3  1  0.250000  0.266876  0.769046  1
  Rb  Rb4  1  0.250000  0.570988  0.525256  1
  Rb  Rb5  1  0.750000  0.429318  0.476451  1
  Rb  Rb6  1  0.250000  0.861057  0.017897  1
  Rb  Rb7  1  0.750000  0.132247  0.975215  1
  Rb  Rb8  1  0.250000  0.879217  0.676547  1
  Rb  Rb9  1  0.750000  0.120666  0.325630  1
  Rb  Rb10  1  0.250000  0.919840  0.371891  1
  Rb  Rb11  1  0.750000  0.077074  0.630174  1
  In  In12  1  0.250000  0.323324  0.281137  1
  In  In13  1  0.750000  0.679619  0.721350  1
  Bi  Bi14  1  0.250000  0.163710  0.122659  1
  Sb  Sb15  1  0.750000  0.834798  0.873934  1
  Sb  Sb16  1  0.250000  0.212919  0.496279  1
  Sb  Sb17  1  0.750000  0.787101  0.505958  1
  Sb  Sb18  1  0.250000  0.577667  0.218072  1
  Sb  Sb19  1  0.750000  0.424476  0.783525  1
