# generated using pymatgen
data_Pr4GaSe3
_symmetry_space_group_name_H-M   'P 1'
_cell_length_a   7.44404610
_cell_length_b   7.44404580
_cell_length_c   7.44404584
_cell_angle_alpha   131.86484994
_cell_angle_beta   131.86484821
_cell_angle_gamma   70.44256457
_symmetry_Int_Tables_number   1
_chemical_formula_structural   Pr4GaSe3
_chemical_formula_sum   'Pr4 Ga1 Se3'
_cell_volume   224.17966002
_cell_formula_units_Z   1
loop_
 _symmetry_equiv_pos_site_id
 _symmetry_equiv_pos_as_xyz
  1  'x, y, z'
loop_
 _atom_site_type_symbol
 _atom_site_label
 _atom_site_symmetry_multiplicity
 _atom_site_fract_x
 _atom_site_fract_y
 _atom_site_fract_z
 _atom_site_occupancy
  Pr  Pr0  1  0.251121  0.251121  0.000000  1
  Pr  Pr1  1  0.748879  0.748879  0.000000  1
  Pr  Pr2  1  0.500000  0.000000  0.500000  1
  Pr  Pr3  1  0.000000  0.500000  0.500000  1
  Ga  Ga4  1  0.500000  0.500000  0.000000  1
  Se  Se5  1  0.000000  0.000000  0.000000  1
  Se  Se6  1  0.750000  0.250000  0.500000  1
  Se  Se7  1  0.250000  0.750000  0.500000  1
