# generated using pymatgen
data_Ti4P4OsRu3
_symmetry_space_group_name_H-M   'P 1'
_cell_length_a   3.79419900
_cell_length_b   6.19826982
_cell_length_c   7.13526966
_cell_angle_alpha   90.07938663
_cell_angle_beta   90.00000000
_cell_angle_gamma   90.00000000
_symmetry_Int_Tables_number   1
_chemical_formula_structural   Ti4P4OsRu3
_chemical_formula_sum   'Ti4 P4 Os1 Ru3'
_cell_volume   167.80332321
_cell_formula_units_Z   1
loop_
 _symmetry_equiv_pos_site_id
 _symmetry_equiv_pos_as_xyz
  1  'x, y, z'
loop_
 _atom_site_type_symbol
 _atom_site_label
 _atom_site_symmetry_multiplicity
 _atom_site_fract_x
 _atom_site_fract_y
 _atom_site_fract_z
 _atom_site_occupancy
  Ti  Ti0  1  0.750000  0.522948  0.322496  1
  Ti  Ti1  1  0.250000  0.975799  0.822564  1
  Ti  Ti2  1  0.750000  0.025326  0.178513  1
  Ti  Ti3  1  0.250000  0.476470  0.676921  1
  P  P4  1  0.250000  0.729679  0.125849  1
  P  P5  1  0.250000  0.229615  0.375887  1
  P  P6  1  0.750000  0.270382  0.873720  1
  P  P7  1  0.750000  0.769331  0.624398  1
  Os  Os8  1  0.250000  0.343467  0.058764  1
  Ru  Ru9  1  0.250000  0.845668  0.439980  1
  Ru  Ru10  1  0.750000  0.155330  0.560415  1
  Ru  Ru11  1  0.750000  0.655987  0.940494  1
