# generated using pymatgen
data_Zr8InCu3Ni5Hg3
_symmetry_space_group_name_H-M   'P 1'
_cell_length_a   7.20447564
_cell_length_b   7.21494098
_cell_length_c   6.76962061
_cell_angle_alpha   90.10613192
_cell_angle_beta   90.05303613
_cell_angle_gamma   89.84180569
_symmetry_Int_Tables_number   1
_chemical_formula_structural   Zr8InCu3Ni5Hg3
_chemical_formula_sum   'Zr8 In1 Cu3 Ni5 Hg3'
_cell_volume   351.88188148
_cell_formula_units_Z   1
loop_
 _symmetry_equiv_pos_site_id
 _symmetry_equiv_pos_as_xyz
  1  'x, y, z'
loop_
 _atom_site_type_symbol
 _atom_site_label
 _atom_site_symmetry_multiplicity
 _atom_site_fract_x
 _atom_site_fract_y
 _atom_site_fract_z
 _atom_site_occupancy
  Zr  Zr0  1  0.662964  0.334256  0.993430  1
  Zr  Zr1  1  0.344167  0.656761  0.986678  1
  Zr  Zr2  1  0.838314  0.846170  0.507216  1
  Zr  Zr3  1  0.155511  0.160573  0.507339  1
  Zr  Zr4  1  0.175223  0.181504  0.994967  1
  Zr  Zr5  1  0.818090  0.825534  0.994392  1
  Zr  Zr6  1  0.319679  0.681496  0.509902  1
  Zr  Zr7  1  0.683837  0.314811  0.504371  1
  In  In8  1  0.496677  0.001163  0.750266  1
  Cu  Cu9  1  0.376132  0.377153  0.278501  1
  Cu  Cu10  1  0.624908  0.622705  0.276440  1
  Cu  Cu11  1  0.125622  0.872987  0.220174  1
  Ni  Ni12  1  0.879877  0.122831  0.228731  1
  Ni  Ni13  1  0.624700  0.623836  0.726227  1
  Ni  Ni14  1  0.377544  0.375096  0.725552  1
  Ni  Ni15  1  0.123194  0.876221  0.773412  1
  Ni  Ni16  1  0.874709  0.123793  0.772569  1
  Hg  Hg17  1  0.499872  0.000065  0.249754  1
  Hg  Hg18  1  0.999293  0.500611  0.250565  1
  Hg  Hg19  1  0.999689  0.502434  0.749514  1
