# generated using pymatgen
data_Tb2Co3Tc6Ni3P7
_symmetry_space_group_name_H-M   'P 1'
_cell_length_a   9.30470600
_cell_length_b   9.30470606
_cell_length_c   3.77507500
_cell_angle_alpha   90.00000000
_cell_angle_beta   90.00000000
_cell_angle_gamma   120.00000402
_symmetry_Int_Tables_number   1
_chemical_formula_structural   Tb2Co3Tc6Ni3P7
_chemical_formula_sum   'Tb2 Co3 Tc6 Ni3 P7'
_cell_volume   283.04892642
_cell_formula_units_Z   1
loop_
 _symmetry_equiv_pos_site_id
 _symmetry_equiv_pos_as_xyz
  1  'x, y, z'
loop_
 _atom_site_type_symbol
 _atom_site_label
 _atom_site_symmetry_multiplicity
 _atom_site_fract_x
 _atom_site_fract_y
 _atom_site_fract_z
 _atom_site_occupancy
  Tb  Tb0  1  0.000000  0.000000  0.000000  1
  Tb  Tb1  1  0.333333  0.666667  0.500000  1
  Co  Co2  1  0.824356  0.603700  0.000000  1
  Co  Co3  1  0.396300  0.220657  0.000000  1
  Co  Co4  1  0.779343  0.175644  0.000000  1
  Tc  Tc5  1  0.062355  0.770944  0.500000  1
  Tc  Tc6  1  0.229056  0.291411  0.500000  1
  Tc  Tc7  1  0.708589  0.937645  0.500000  1
  Tc  Tc8  1  0.876418  0.421408  0.500000  1
  Tc  Tc9  1  0.578592  0.455010  0.500000  1
  Tc  Tc10  1  0.544990  0.123582  0.500000  1
  Ni  Ni11  1  0.090501  0.399270  0.000000  1
  Ni  Ni12  1  0.600730  0.691231  0.000000  1
  Ni  Ni13  1  0.308769  0.909499  0.000000  1
  P  P14  1  0.790204  0.733728  0.500000  1
  P  P15  1  0.266272  0.056476  0.500000  1
  P  P16  1  0.943524  0.209796  0.500000  1
  P  P17  1  0.666667  0.333333  0.000000  1
  P  P18  1  0.076459  0.631816  0.000000  1
  P  P19  1  0.368184  0.444643  0.000000  1
  P  P20  1  0.555357  0.923541  0.000000  1
