# generated using pymatgen
data_Lu4Zr2NbBi2
_symmetry_space_group_name_H-M   'P 1'
_cell_length_a   8.01253928
_cell_length_b   8.01253885
_cell_length_c   4.32413500
_cell_angle_alpha   90.00000000
_cell_angle_beta   90.00000000
_cell_angle_gamma   119.60633889
_symmetry_Int_Tables_number   1
_chemical_formula_structural   Lu4Zr2NbBi2
_chemical_formula_sum   'Lu4 Zr2 Nb1 Bi2'
_cell_volume   241.36779298
_cell_formula_units_Z   1
loop_
 _symmetry_equiv_pos_site_id
 _symmetry_equiv_pos_as_xyz
  1  'x, y, z'
loop_
 _atom_site_type_symbol
 _atom_site_label
 _atom_site_symmetry_multiplicity
 _atom_site_fract_x
 _atom_site_fract_y
 _atom_site_fract_z
 _atom_site_occupancy
  Lu  Lu0  1  0.763164  0.763164  0.500000  1
  Lu  Lu1  1  0.605888  0.002414  0.000000  1
  Lu  Lu2  1  0.002414  0.605888  0.000000  1
  Lu  Lu3  1  0.391349  0.391349  0.000000  1
  Zr  Zr4  1  0.231862  0.004564  0.500000  1
  Zr  Zr5  1  0.004564  0.231862  0.500000  1
  Nb  Nb6  1  0.006455  0.006455  0.000000  1
  Bi  Bi7  1  0.328552  0.665753  0.500000  1
  Bi  Bi8  1  0.665753  0.328552  0.500000  1
