# generated using pymatgen
data_Tb2B4Ir3Rh2
_symmetry_space_group_name_H-M   'P 1'
_cell_length_a   7.52817537
_cell_length_b   6.32495466
_cell_length_c   5.62704091
_cell_angle_alpha   77.83888014
_cell_angle_beta   55.21681969
_cell_angle_gamma   46.94429446
_symmetry_Int_Tables_number   1
_chemical_formula_structural   Tb2B4Ir3Rh2
_chemical_formula_sum   'Tb2 B4 Ir3 Rh2'
_cell_volume   153.49170250
_cell_formula_units_Z   1
loop_
 _symmetry_equiv_pos_site_id
 _symmetry_equiv_pos_as_xyz
  1  'x, y, z'
loop_
 _atom_site_type_symbol
 _atom_site_label
 _atom_site_symmetry_multiplicity
 _atom_site_fract_x
 _atom_site_fract_y
 _atom_site_fract_z
 _atom_site_occupancy
  Tb  Tb0  1  0.857497  0.857497  0.142503  1
  Tb  Tb1  1  0.142503  0.142503  0.857497  1
  B  B2  1  0.787908  0.481264  0.518736  1
  B  B3  1  0.212092  0.518736  0.481264  1
  B  B4  1  0.518736  0.212092  0.787908  1
  B  B5  1  0.481264  0.787908  0.212092  1
  Ir  Ir6  1  0.750000  0.750000  0.750000  1
  Ir  Ir7  1  0.500000  0.500000  0.500000  1
  Ir  Ir8  1  0.250000  0.250000  0.250000  1
  Rh  Rh9  1  0.500000  0.500000  0.000000  1
  Rh  Rh10  1  0.000000  0.000000  0.500000  1
