# generated using pymatgen
data_Ti12Zn5Au3O4
_symmetry_space_group_name_H-M   'P 1'
_cell_length_a   6.91046288
_cell_length_b   6.91046288
_cell_length_c   6.91046288
_cell_angle_alpha   90.12226249
_cell_angle_beta   90.12226249
_cell_angle_gamma   90.12226249
_symmetry_Int_Tables_number   1
_chemical_formula_structural   Ti12Zn5Au3O4
_chemical_formula_sum   'Ti12 Zn5 Au3 O4'
_cell_volume   330.00342244
_cell_formula_units_Z   1
loop_
 _symmetry_equiv_pos_site_id
 _symmetry_equiv_pos_as_xyz
  1  'x, y, z'
loop_
 _atom_site_type_symbol
 _atom_site_label
 _atom_site_symmetry_multiplicity
 _atom_site_fract_x
 _atom_site_fract_y
 _atom_site_fract_z
 _atom_site_occupancy
  Ti  Ti0  1  0.789793  0.958986  0.375358  1
  Ti  Ti1  1  0.711310  0.041830  0.874910  1
  Ti  Ti2  1  0.213357  0.457878  0.121449  1
  Ti  Ti3  1  0.289066  0.543452  0.622973  1
  Ti  Ti4  1  0.958986  0.375358  0.789793  1
  Ti  Ti5  1  0.041830  0.874910  0.711310  1
  Ti  Ti6  1  0.457878  0.121449  0.213357  1
  Ti  Ti7  1  0.543452  0.622973  0.289066  1
  Ti  Ti8  1  0.375358  0.789793  0.958986  1
  Ti  Ti9  1  0.874910  0.711310  0.041830  1
  Ti  Ti10  1  0.121449  0.213357  0.457878  1
  Ti  Ti11  1  0.622973  0.289066  0.543452  1
  Zn  Zn12  1  0.679580  0.679580  0.679580  1
  Zn  Zn13  1  0.570533  0.438849  0.924980  1
  Zn  Zn14  1  0.438849  0.924980  0.570533  1
  Zn  Zn15  1  0.924980  0.570533  0.438849  1
  Zn  Zn16  1  0.067515  0.067515  0.067515  1
  Au  Au17  1  0.179719  0.818875  0.321088  1
  Au  Au18  1  0.321088  0.179719  0.818875  1
  Au  Au19  1  0.818875  0.321088  0.179719  1
  O  O20  1  0.874859  0.125245  0.624635  1
  O  O21  1  0.624635  0.874859  0.125245  1
  O  O22  1  0.125245  0.624635  0.874859  1
  O  O23  1  0.373761  0.373761  0.373761  1
