# generated using pymatgen
data_Y2Re7Si4Mo
_symmetry_space_group_name_H-M   'P 1'
_cell_length_a   7.15363086
_cell_length_b   7.69618798
_cell_length_c   4.17990700
_cell_angle_alpha   90.00000000
_cell_angle_beta   90.00000000
_cell_angle_gamma   90.10064071
_symmetry_Int_Tables_number   1
_chemical_formula_structural   Y2Re7Si4Mo
_chemical_formula_sum   'Y2 Re7 Si4 Mo1'
_cell_volume   230.12730001
_cell_formula_units_Z   1
loop_
 _symmetry_equiv_pos_site_id
 _symmetry_equiv_pos_as_xyz
  1  'x, y, z'
loop_
 _atom_site_type_symbol
 _atom_site_label
 _atom_site_symmetry_multiplicity
 _atom_site_fract_x
 _atom_site_fract_y
 _atom_site_fract_z
 _atom_site_occupancy
  Y  Y0  1  0.500755  0.498850  0.000000  1
  Y  Y1  1  0.999128  0.999924  0.500000  1
  Re  Re2  1  0.155620  0.604917  0.500000  1
  Re  Re3  1  0.083460  0.340513  0.000000  1
  Re  Re4  1  0.918810  0.657524  0.000000  1
  Re  Re5  1  0.416953  0.840543  0.500000  1
  Re  Re6  1  0.581529  0.163564  0.500000  1
  Re  Re7  1  0.343855  0.107291  0.000000  1
  Re  Re8  1  0.846187  0.393978  0.500000  1
  Si  Si9  1  0.223594  0.806119  0.000000  1
  Si  Si10  1  0.778031  0.195574  0.000000  1
  Si  Si11  1  0.723770  0.693069  0.500000  1
  Si  Si12  1  0.276930  0.305383  0.500000  1
  Mo  Mo13  1  0.651378  0.892752  0.000000  1
