# generated using pymatgen
data_Nb20Al3Os7
_symmetry_space_group_name_H-M   'P 1'
_cell_length_a   9.93394903
_cell_length_b   9.94761004
_cell_length_c   5.18210900
_cell_angle_alpha   90.00000000
_cell_angle_beta   90.00000000
_cell_angle_gamma   90.22426039
_symmetry_Int_Tables_number   1
_chemical_formula_structural   Nb20Al3Os7
_chemical_formula_sum   'Nb20 Al3 Os7'
_cell_volume   512.08717166
_cell_formula_units_Z   1
loop_
 _symmetry_equiv_pos_site_id
 _symmetry_equiv_pos_as_xyz
  1  'x, y, z'
loop_
 _atom_site_type_symbol
 _atom_site_label
 _atom_site_symmetry_multiplicity
 _atom_site_fract_x
 _atom_site_fract_y
 _atom_site_fract_z
 _atom_site_occupancy
  Nb  Nb0  1  0.394483  0.393983  0.000000  1
  Nb  Nb1  1  0.895748  0.106448  0.500000  1
  Nb  Nb2  1  0.105976  0.894660  0.500000  1
  Nb  Nb3  1  0.603344  0.603285  0.000000  1
  Nb  Nb4  1  0.129177  0.462939  0.000000  1
  Nb  Nb5  1  0.964789  0.372153  0.500000  1
  Nb  Nb6  1  0.035655  0.622648  0.500000  1
  Nb  Nb7  1  0.869959  0.535526  0.000000  1
  Nb  Nb8  1  0.372472  0.965950  0.500000  1
  Nb  Nb9  1  0.627495  0.035920  0.500000  1
  Nb  Nb10  1  0.463179  0.126977  0.000000  1
  Nb  Nb11  1  0.534482  0.871866  0.000000  1
  Nb  Nb12  1  0.181873  0.183062  0.251247  1
  Nb  Nb13  1  0.682467  0.317476  0.750424  1
  Nb  Nb14  1  0.320426  0.682356  0.750047  1
  Nb  Nb15  1  0.813733  0.819346  0.251444  1
  Nb  Nb16  1  0.320426  0.682356  0.249953  1
  Nb  Nb17  1  0.682467  0.317476  0.249576  1
  Nb  Nb18  1  0.181873  0.183062  0.748753  1
  Nb  Nb19  1  0.813733  0.819346  0.748556  1
  Al  Al20  1  0.000491  0.001864  0.000000  1
  Al  Al21  1  0.500485  0.500077  0.500000  1
  Al  Al22  1  0.068932  0.743784  0.000000  1
  Os  Os23  1  0.256460  0.934513  0.000000  1
  Os  Os24  1  0.434809  0.244313  0.500000  1
  Os  Os25  1  0.564216  0.755939  0.500000  1
  Os  Os26  1  0.743558  0.065635  0.000000  1
  Os  Os27  1  0.244622  0.436235  0.500000  1
  Os  Os28  1  0.756747  0.564896  0.500000  1
  Os  Os29  1  0.935921  0.255909  0.000000  1
