# generated using pymatgen
data_La3Tb(Ho4Bi3)4
_symmetry_space_group_name_H-M   'P 1'
_cell_length_a   8.32844447
_cell_length_b   9.55418900
_cell_length_c   12.18199200
_cell_angle_alpha   90.00000000
_cell_angle_beta   90.01934524
_cell_angle_gamma   90.00000000
_symmetry_Int_Tables_number   1
_chemical_formula_structural   La3Tb(Ho4Bi3)4
_chemical_formula_sum   'La3 Tb1 Ho16 Bi12'
_cell_volume   969.33971816
_cell_formula_units_Z   1
loop_
 _symmetry_equiv_pos_site_id
 _symmetry_equiv_pos_as_xyz
  1  'x, y, z'
loop_
 _atom_site_type_symbol
 _atom_site_label
 _atom_site_symmetry_multiplicity
 _atom_site_fract_x
 _atom_site_fract_y
 _atom_site_fract_z
 _atom_site_occupancy
  La  La0  1  0.317396  0.250000  0.221286  1
  La  La1  1  0.816213  0.250000  0.278728  1
  La  La2  1  0.683421  0.750000  0.779283  1
  Tb  Tb3  1  0.185661  0.750000  0.717640  1
  Ho  Ho4  1  0.350037  0.750000  0.217461  1
  Ho  Ho5  1  0.851457  0.750000  0.283504  1
  Ho  Ho6  1  0.647431  0.250000  0.780427  1
  Ho  Ho7  1  0.148933  0.250000  0.718008  1
  Ho  Ho8  1  0.690666  0.565314  0.060677  1
  Ho  Ho9  1  0.192394  0.935613  0.440383  1
  Ho  Ho10  1  0.309258  0.064225  0.937874  1
  Ho  Ho11  1  0.806999  0.435769  0.561075  1
  Ho  Ho12  1  0.309258  0.435775  0.937874  1
  Ho  Ho13  1  0.806999  0.064231  0.561075  1
  Ho  Ho14  1  0.690666  0.934686  0.060677  1
  Ho  Ho15  1  0.192394  0.564387  0.440383  1
  Ho  Ho16  1  0.475287  0.250000  0.489213  1
  Ho  Ho17  1  0.977633  0.250000  0.011026  1
  Ho  Ho18  1  0.523251  0.750000  0.514155  1
  Ho  Ho19  1  0.024138  0.750000  0.987397  1
  Bi  Bi20  1  0.402218  0.750000  0.962753  1
  Bi  Bi21  1  0.909401  0.750000  0.538926  1
  Bi  Bi22  1  0.596020  0.250000  0.034141  1
  Bi  Bi23  1  0.094602  0.250000  0.465306  1
  Bi  Bi24  1  0.565078  0.988791  0.329877  1
  Bi  Bi25  1  0.064739  0.510962  0.170944  1
  Bi  Bi26  1  0.429717  0.492333  0.672261  1
  Bi  Bi27  1  0.939600  0.007407  0.827282  1
  Bi  Bi28  1  0.429717  0.007667  0.672261  1
  Bi  Bi29  1  0.939600  0.492593  0.827282  1
  Bi  Bi30  1  0.565078  0.511209  0.329877  1
  Bi  Bi31  1  0.064739  0.989038  0.170944  1
