# generated using pymatgen
data_K2Rb6PaSb4
_symmetry_space_group_name_H-M   'P 1'
_cell_length_a   12.12932201
_cell_length_b   12.12932215
_cell_length_c   12.12932200
_cell_angle_alpha   60.00000040
_cell_angle_beta   60.00000004
_cell_angle_gamma   59.99999881
_symmetry_Int_Tables_number   1
_chemical_formula_structural   K2Rb6PaSb4
_chemical_formula_sum   'K4 Rb12 Pa2 Sb8'
_cell_volume   1261.81179289
_cell_formula_units_Z   2
loop_
 _symmetry_equiv_pos_site_id
 _symmetry_equiv_pos_as_xyz
  1  'x, y, z'
loop_
 _atom_site_type_symbol
 _atom_site_label
 _atom_site_symmetry_multiplicity
 _atom_site_fract_x
 _atom_site_fract_y
 _atom_site_fract_z
 _atom_site_occupancy
  K  K0  1  0.625000  0.125000  0.625000  1
  K  K1  1  0.625000  0.625000  0.125000  1
  K  K2  1  0.125000  0.625000  0.625000  1
  K  K3  1  0.625000  0.625000  0.625000  1
  Rb  Rb4  1  0.029263  0.029263  0.470737  1
  Rb  Rb5  1  0.779263  0.220737  0.220737  1
  Rb  Rb6  1  0.220737  0.779263  0.779263  1
  Rb  Rb7  1  0.779263  0.779263  0.220737  1
  Rb  Rb8  1  0.779263  0.220737  0.779263  1
  Rb  Rb9  1  0.220737  0.779263  0.220737  1
  Rb  Rb10  1  0.470737  0.029263  0.470737  1
  Rb  Rb11  1  0.470737  0.029263  0.029263  1
  Rb  Rb12  1  0.029263  0.470737  0.470737  1
  Rb  Rb13  1  0.029263  0.470737  0.029263  1
  Rb  Rb14  1  0.220737  0.220737  0.779263  1
  Rb  Rb15  1  0.470737  0.470737  0.029263  1
  Pa  Pa16  1  0.750000  0.750000  0.750000  1
  Pa  Pa17  1  0.500000  0.500000  0.500000  1
  Sb  Sb18  1  0.397792  0.806624  0.397792  1
  Sb  Sb19  1  0.852208  0.852208  0.443376  1
  Sb  Sb20  1  0.443376  0.852208  0.852208  1
  Sb  Sb21  1  0.852208  0.852208  0.852208  1
  Sb  Sb22  1  0.806624  0.397792  0.397792  1
  Sb  Sb23  1  0.397792  0.397792  0.397792  1
  Sb  Sb24  1  0.397792  0.397792  0.806624  1
  Sb  Sb25  1  0.852208  0.443376  0.852208  1
