# generated using pymatgen
data_BiP4PbAu4
_symmetry_space_group_name_H-M   'P 1'
_cell_length_a   6.04370480
_cell_length_b   6.04370383
_cell_length_c   11.39978400
_cell_angle_alpha   90.00000000
_cell_angle_beta   90.00000000
_cell_angle_gamma   148.63996184
_symmetry_Int_Tables_number   1
_chemical_formula_structural   BiP4PbAu4
_chemical_formula_sum   'Bi1 P4 Pb1 Au4'
_cell_volume   216.69663295
_cell_formula_units_Z   1
loop_
 _symmetry_equiv_pos_site_id
 _symmetry_equiv_pos_as_xyz
  1  'x, y, z'
loop_
 _atom_site_type_symbol
 _atom_site_label
 _atom_site_symmetry_multiplicity
 _atom_site_fract_x
 _atom_site_fract_y
 _atom_site_fract_z
 _atom_site_occupancy
  Bi  Bi0  1  0.522939  0.477061  0.750000  1
  P  P1  1  0.798925  0.201075  0.542398  1
  P  P2  1  0.201943  0.798057  0.043736  1
  P  P3  1  0.201943  0.798057  0.456264  1
  P  P4  1  0.798925  0.201075  0.957602  1
  Pb  Pb5  1  0.474669  0.525331  0.250000  1
  Au  Au6  1  0.001104  0.998896  0.998874  1
  Au  Au7  1  0.774128  0.225872  0.750000  1
  Au  Au8  1  0.001104  0.998896  0.501126  1
  Au  Au9  1  0.224319  0.775681  0.250000  1
