# generated using pymatgen
data_TbY3Zr4F28
_symmetry_space_group_name_H-M   'P 1'
_cell_length_a   5.76629118
_cell_length_b   9.12566453
_cell_length_c   12.25885794
_cell_angle_alpha   62.40878662
_cell_angle_beta   90.00809436
_cell_angle_gamma   89.96711184
_symmetry_Int_Tables_number   1
_chemical_formula_structural   TbY3Zr4F28
_chemical_formula_sum   'Tb1 Y3 Zr4 F28'
_cell_volume   571.71458947
_cell_formula_units_Z   1
loop_
 _symmetry_equiv_pos_site_id
 _symmetry_equiv_pos_as_xyz
  1  'x, y, z'
loop_
 _atom_site_type_symbol
 _atom_site_label
 _atom_site_symmetry_multiplicity
 _atom_site_fract_x
 _atom_site_fract_y
 _atom_site_fract_z
 _atom_site_occupancy
  Tb  Tb0  1  0.756744  0.815462  0.766248  1
  Y  Y1  1  0.743312  0.815667  0.266241  1
  Y  Y2  1  0.243290  0.184403  0.233844  1
  Y  Y3  1  0.257079  0.183977  0.733849  1
  Zr  Zr4  1  0.744280  0.274376  0.454912  1
  Zr  Zr5  1  0.244185  0.725782  0.045330  1
  Zr  Zr6  1  0.255240  0.725537  0.544938  1
  Zr  Zr7  1  0.755516  0.274089  0.954852  1
  F  F8  1  0.466773  0.712062  0.921390  1
  F  F9  1  0.966800  0.288646  0.578624  1
  F  F10  1  0.533555  0.288581  0.078654  1
  F  F11  1  0.034140  0.711067  0.420863  1
  F  F12  1  0.453480  0.280751  0.549531  1
  F  F13  1  0.953345  0.719646  0.950615  1
  F  F14  1  0.546050  0.719187  0.450318  1
  F  F15  1  0.046035  0.280565  0.049722  1
  F  F16  1  0.768023  0.525287  0.858342  1
  F  F17  1  0.267606  0.474360  0.641592  1
  F  F18  1  0.233074  0.474642  0.142327  1
  F  F19  1  0.732579  0.525421  0.357732  1
  F  F20  1  0.759772  0.023448  0.057753  1
  F  F21  1  0.259684  0.976313  0.441990  1
  F  F22  1  0.240219  0.976461  0.942067  1
  F  F23  1  0.739791  0.023713  0.558388  1
  F  F24  1  0.983671  0.733972  0.648762  1
  F  F25  1  0.484426  0.266396  0.850472  1
  F  F26  1  0.014071  0.266139  0.350057  1
  F  F27  1  0.514081  0.733893  0.150063  1
  F  F28  1  0.034229  0.746417  0.173259  1
  F  F29  1  0.533230  0.253818  0.327253  1
  F  F30  1  0.966797  0.252984  0.827456  1
  F  F31  1  0.466076  0.746439  0.672468  1
  F  F32  1  0.429082  0.973312  0.234985  1
  F  F33  1  0.928443  0.026895  0.265162  1
  F  F34  1  0.572670  0.027733  0.765164  1
  F  F35  1  0.072652  0.972563  0.734775  1
