# generated using pymatgen
data_DyY5Sc2O12
_symmetry_space_group_name_H-M   'P 1'
_cell_length_a   6.62838729
_cell_length_b   6.62711005
_cell_length_c   6.62541200
_cell_angle_alpha   91.99225912
_cell_angle_beta   91.99341463
_cell_angle_gamma   92.00085014
_symmetry_Int_Tables_number   1
_chemical_formula_structural   DyY5Sc2O12
_chemical_formula_sum   'Dy1 Y5 Sc2 O12'
_cell_volume   290.49269816
_cell_formula_units_Z   1
loop_
 _symmetry_equiv_pos_site_id
 _symmetry_equiv_pos_as_xyz
  1  'x, y, z'
loop_
 _atom_site_type_symbol
 _atom_site_label
 _atom_site_symmetry_multiplicity
 _atom_site_fract_x
 _atom_site_fract_y
 _atom_site_fract_z
 _atom_site_occupancy
  Dy  Dy0  1  0.747173  0.931757  0.439409  1
  Y  Y1  1  0.931806  0.439328  0.747203  1
  Y  Y2  1  0.439236  0.747125  0.931837  1
  Y  Y3  1  0.252865  0.068233  0.560723  1
  Y  Y4  1  0.068235  0.560671  0.252867  1
  Y  Y5  1  0.560716  0.252917  0.068103  1
  Sc  Sc6  1  0.499970  0.500000  0.500007  1
  Sc  Sc7  1  0.000071  0.000031  0.000033  1
  O  O8  1  0.592789  0.462867  0.805878  1
  O  O9  1  0.463372  0.806051  0.592503  1
  O  O10  1  0.805647  0.593308  0.462814  1
  O  O11  1  0.407233  0.537191  0.194146  1
  O  O12  1  0.537326  0.193567  0.407243  1
  O  O13  1  0.194143  0.407216  0.537150  1
  O  O14  1  0.068770  0.914493  0.306012  1
  O  O15  1  0.914520  0.305758  0.069257  1
  O  O16  1  0.694408  0.930958  0.086022  1
  O  O17  1  0.085441  0.694219  0.930799  1
  O  O18  1  0.930460  0.085131  0.693447  1
  O  O19  1  0.305818  0.069179  0.914547  1
