# generated using pymatgen
data_Ho8Er2InPb5
_symmetry_space_group_name_H-M   'P 1'
_cell_length_a   9.00052205
_cell_length_b   9.00052179
_cell_length_c   6.63440701
_cell_angle_alpha   89.99721665
_cell_angle_beta   89.99721571
_cell_angle_gamma   120.05910865
_symmetry_Int_Tables_number   1
_chemical_formula_structural   Ho8Er2InPb5
_chemical_formula_sum   'Ho8 Er2 In1 Pb5'
_cell_volume   465.16726712
_cell_formula_units_Z   1
loop_
 _symmetry_equiv_pos_site_id
 _symmetry_equiv_pos_as_xyz
  1  'x, y, z'
loop_
 _atom_site_type_symbol
 _atom_site_label
 _atom_site_symmetry_multiplicity
 _atom_site_fract_x
 _atom_site_fract_y
 _atom_site_fract_z
 _atom_site_occupancy
  Ho  Ho0  1  0.663769  0.333640  0.998236  1
  Ho  Ho1  1  0.333640  0.663769  0.998236  1
  Ho  Ho2  1  0.760489  0.760489  0.749878  1
  Ho  Ho3  1  0.239155  0.004802  0.749914  1
  Ho  Ho4  1  0.004802  0.239155  0.749914  1
  Ho  Ho5  1  0.237865  0.237865  0.250122  1
  Ho  Ho6  1  0.762260  0.999563  0.250113  1
  Ho  Ho7  1  0.999563  0.762260  0.250113  1
  Er  Er8  1  0.333654  0.663836  0.501760  1
  Er  Er9  1  0.663836  0.333654  0.501760  1
  In  In10  1  0.396607  0.396607  0.749476  1
  Pb  Pb11  1  0.606343  0.000453  0.749529  1
  Pb  Pb12  1  0.000453  0.606343  0.749529  1
  Pb  Pb13  1  0.604636  0.604636  0.250480  1
  Pb  Pb14  1  0.394382  0.998546  0.250470  1
  Pb  Pb15  1  0.998546  0.394382  0.250470  1
