# generated using pymatgen
data_Y6Ni16P13Pd3Pt
_symmetry_space_group_name_H-M   'P 1'
_cell_length_a   12.79423700
_cell_length_b   12.79423702
_cell_length_c   3.79561500
_cell_angle_alpha   90.00000000
_cell_angle_beta   90.00000000
_cell_angle_gamma   120.00000253
_symmetry_Int_Tables_number   1
_chemical_formula_structural   Y6Ni16P13Pd3Pt
_chemical_formula_sum   'Y6 Ni16 P13 Pd3 Pt1'
_cell_volume   538.07344372
_cell_formula_units_Z   1
loop_
 _symmetry_equiv_pos_site_id
 _symmetry_equiv_pos_as_xyz
  1  'x, y, z'
loop_
 _atom_site_type_symbol
 _atom_site_label
 _atom_site_symmetry_multiplicity
 _atom_site_fract_x
 _atom_site_fract_y
 _atom_site_fract_z
 _atom_site_occupancy
  Y  Y0  1  0.468376  0.185627  0.000000  1
  Y  Y1  1  0.717252  0.531624  0.000000  1
  Y  Y2  1  0.814373  0.282748  0.000000  1
  Y  Y3  1  0.529166  0.811976  0.500000  1
  Y  Y4  1  0.282811  0.470834  0.500000  1
  Y  Y5  1  0.188024  0.717189  0.500000  1
  Ni  Ni6  1  0.333333  0.666667  0.000000  1
  Ni  Ni7  1  0.198457  0.093568  0.000000  1
  Ni  Ni8  1  0.895111  0.801543  0.000000  1
  Ni  Ni9  1  0.906432  0.104889  0.000000  1
  Ni  Ni10  1  0.439147  0.420405  0.000000  1
  Ni  Ni11  1  0.981258  0.560853  0.000000  1
  Ni  Ni12  1  0.579595  0.018742  0.000000  1
  Ni  Ni13  1  0.564340  0.589371  0.500000  1
  Ni  Ni14  1  0.025031  0.435660  0.500000  1
  Ni  Ni15  1  0.410629  0.974969  0.500000  1
  Ni  Ni16  1  0.079510  0.322291  0.000000  1
  Ni  Ni17  1  0.242780  0.920490  0.000000  1
  Ni  Ni18  1  0.677709  0.757220  0.000000  1
  Ni  Ni19  1  0.927159  0.679089  0.500000  1
  Ni  Ni20  1  0.751930  0.072841  0.500000  1
  Ni  Ni21  1  0.320911  0.248070  0.500000  1
  P  P22  1  0.240449  0.287190  0.000000  1
  P  P23  1  0.046741  0.759551  0.000000  1
  P  P24  1  0.712810  0.953259  0.000000  1
  P  P25  1  0.764745  0.712804  0.500000  1
  P  P26  1  0.948059  0.235255  0.500000  1
  P  P27  1  0.287196  0.051941  0.500000  1
  P  P28  1  0.476828  0.616484  0.000000  1
  P  P29  1  0.139656  0.523172  0.000000  1
  P  P30  1  0.383516  0.860344  0.000000  1
  P  P31  1  0.517592  0.391153  0.500000  1
  P  P32  1  0.873561  0.482408  0.500000  1
  P  P33  1  0.608847  0.126439  0.500000  1
  P  P34  1  0.000000  0.000000  0.000000  1
  Pd  Pd35  1  0.840749  0.924205  0.500000  1
  Pd  Pd36  1  0.083457  0.159251  0.500000  1
  Pd  Pd37  1  0.075795  0.916543  0.500000  1
  Pt  Pt38  1  0.666667  0.333333  0.500000  1
