# generated using pymatgen
data_Tb3TiFe7CoP6
_symmetry_space_group_name_H-M   'P 1'
_cell_length_a   3.73803200
_cell_length_b   10.66743000
_cell_length_c   12.33191900
_cell_angle_alpha   90.00000000
_cell_angle_beta   90.00000000
_cell_angle_gamma   90.00000000
_symmetry_Int_Tables_number   1
_chemical_formula_structural   Tb3TiFe7CoP6
_chemical_formula_sum   'Tb6 Ti2 Fe14 Co2 P12'
_cell_volume   491.73767112
_cell_formula_units_Z   2
loop_
 _symmetry_equiv_pos_site_id
 _symmetry_equiv_pos_as_xyz
  1  'x, y, z'
loop_
 _atom_site_type_symbol
 _atom_site_label
 _atom_site_symmetry_multiplicity
 _atom_site_fract_x
 _atom_site_fract_y
 _atom_site_fract_z
 _atom_site_occupancy
  Tb  Tb0  1  0.000000  0.500000  0.531175  1
  Tb  Tb1  1  0.500000  0.000000  0.468825  1
  Tb  Tb2  1  0.500000  0.823825  0.205366  1
  Tb  Tb3  1  0.500000  0.176175  0.205366  1
  Tb  Tb4  1  0.000000  0.676175  0.794634  1
  Tb  Tb5  1  0.000000  0.323825  0.794634  1
  Ti  Ti6  1  0.500000  0.500000  0.153324  1
  Ti  Ti7  1  0.000000  0.000000  0.846676  1
  Fe  Fe8  1  0.000000  0.500000  0.990418  1
  Fe  Fe9  1  0.500000  0.000000  0.009582  1
  Fe  Fe10  1  0.500000  0.327235  0.999243  1
  Fe  Fe11  1  0.500000  0.672765  0.999243  1
  Fe  Fe12  1  0.000000  0.172765  0.000757  1
  Fe  Fe13  1  0.000000  0.827235  0.000757  1
  Fe  Fe14  1  0.500000  0.297800  0.430304  1
  Fe  Fe15  1  0.500000  0.702200  0.430304  1
  Fe  Fe16  1  0.000000  0.202200  0.569696  1
  Fe  Fe17  1  0.000000  0.797800  0.569696  1
  Fe  Fe18  1  0.500000  0.884039  0.703370  1
  Fe  Fe19  1  0.500000  0.115961  0.703370  1
  Fe  Fe20  1  0.000000  0.615961  0.296630  1
  Fe  Fe21  1  0.000000  0.384039  0.296630  1
  Co  Co22  1  0.500000  0.500000  0.706408  1
  Co  Co23  1  0.000000  0.000000  0.293592  1
  P  P24  1  0.500000  0.500000  0.891583  1
  P  P25  1  0.000000  0.000000  0.108417  1
  P  P26  1  0.500000  0.500000  0.356513  1
  P  P27  1  0.000000  0.000000  0.643487  1
  P  P28  1  0.500000  0.308536  0.614499  1
  P  P29  1  0.500000  0.691464  0.614499  1
  P  P30  1  0.000000  0.191464  0.385501  1
  P  P31  1  0.000000  0.808536  0.385501  1
  P  P32  1  0.500000  0.843545  0.891686  1
  P  P33  1  0.500000  0.156455  0.891686  1
  P  P34  1  0.000000  0.656455  0.108314  1
  P  P35  1  0.000000  0.343545  0.108314  1
