# generated using pymatgen
data_AlBr35
_symmetry_space_group_name_H-M   'P 1'
_cell_length_a   15.98197694
_cell_length_b   11.40028128
_cell_length_c   10.79188300
_cell_angle_alpha   88.81408278
_cell_angle_beta   66.02770512
_cell_angle_gamma   92.31545406
_symmetry_Int_Tables_number   1
_chemical_formula_structural   AlBr35
_chemical_formula_sum   'Al1 Br35'
_cell_volume   1793.71352310
_cell_formula_units_Z   1
loop_
 _symmetry_equiv_pos_site_id
 _symmetry_equiv_pos_as_xyz
  1  'x, y, z'
loop_
 _atom_site_type_symbol
 _atom_site_label
 _atom_site_symmetry_multiplicity
 _atom_site_fract_x
 _atom_site_fract_y
 _atom_site_fract_z
 _atom_site_occupancy
  Al  Al0  1  0.196098  0.363527  0.458477  1
  Br  Br1  1  0.502401  0.311027  0.566653  1
  Br  Br2  1  0.735384  0.581036  0.589848  1
  Br  Br3  1  0.470422  0.701777  0.767220  1
  Br  Br4  1  0.063429  0.874797  0.817126  1
  Br  Br5  1  0.891283  0.151247  0.032345  1
  Br  Br6  1  0.619675  0.357034  0.322416  1
  Br  Br7  1  0.618291  0.320571  0.851289  1
  Br  Br8  1  0.340274  0.800325  0.726776  1
  Br  Br9  1  0.334962  0.601403  0.176432  1
  Br  Br10  1  0.664436  0.122440  0.811534  1
  Br  Br11  1  0.877199  0.557599  0.379617  1
  Br  Br12  1  0.068533  0.900935  0.581587  1
  Br  Br13  1  0.900437  0.124281  0.267541  1
  Br  Br14  1  0.883195  0.186386  0.810649  1
  Br  Br15  1  0.638651  0.075162  0.253735  1
  Br  Br16  1  0.038349  0.842310  0.069652  1
  Br  Br17  1  0.365025  0.014814  0.763096  1
  Br  Br18  1  0.884555  0.336935  0.329100  1
  Br  Br19  1  0.886275  0.899744  0.669761  1
  Br  Br20  1  0.905393  0.631452  0.790736  1
  Br  Br21  1  0.336844  0.046858  0.201307  1
  Br  Br22  1  0.320806  0.339575  0.248605  1
  Br  Br23  1  0.592505  0.602765  0.817923  1
  Br  Br24  1  0.073531  0.430834  0.430240  1
  Br  Br25  1  0.717192  0.892879  0.769926  1
  Br  Br26  1  0.877071  0.423792  0.809352  1
  Br  Br27  1  0.493995  0.059606  0.227537  1
  Br  Br28  1  0.177171  0.213904  0.610251  1
  Br  Br29  1  0.688383  0.799348  0.248664  1
  Br  Br30  1  0.863765  0.818482  0.162917  1
  Br  Br31  1  0.387262  0.232833  0.807454  1
  Br  Br32  1  0.372465  0.451476  0.558056  1
  Br  Br33  1  0.652360  0.580713  0.287086  1
  Br  Br34  1  0.235553  0.542811  0.557524  1
  Br  Br35  1  0.326828  0.809322  0.227572  1
