# generated using pymatgen
data_Yb4Ta2NiRuO12
_symmetry_space_group_name_H-M   'P 1'
_cell_length_a   5.38757190
_cell_length_b   5.61997366
_cell_length_c   7.71949543
_cell_angle_alpha   89.72583161
_cell_angle_beta   89.18830447
_cell_angle_gamma   89.98623370
_symmetry_Int_Tables_number   1
_chemical_formula_structural   Yb4Ta2NiRuO12
_chemical_formula_sum   'Yb4 Ta2 Ni1 Ru1 O12'
_cell_volume   233.70484325
_cell_formula_units_Z   1
loop_
 _symmetry_equiv_pos_site_id
 _symmetry_equiv_pos_as_xyz
  1  'x, y, z'
loop_
 _atom_site_type_symbol
 _atom_site_label
 _atom_site_symmetry_multiplicity
 _atom_site_fract_x
 _atom_site_fract_y
 _atom_site_fract_z
 _atom_site_occupancy
  Yb  Yb0  1  0.519559  0.932037  0.764707  1
  Yb  Yb1  1  0.017808  0.555523  0.239440  1
  Yb  Yb2  1  0.982192  0.444477  0.760560  1
  Yb  Yb3  1  0.480441  0.067963  0.235293  1
  Ta  Ta4  1  0.500000  0.500000  0.500000  1
  Ta  Ta5  1  0.000000  0.000000  0.000000  1
  Ni  Ni6  1  0.500000  0.500000  0.000000  1
  Ru  Ru7  1  0.000000  0.000000  0.500000  1
  O  O8  1  0.202422  0.296125  0.445371  1
  O  O9  1  0.701332  0.206815  0.559021  1
  O  O10  1  0.297424  0.808118  0.046709  1
  O  O11  1  0.810069  0.708628  0.950286  1
  O  O12  1  0.797578  0.703875  0.554629  1
  O  O13  1  0.298668  0.793185  0.440979  1
  O  O14  1  0.702576  0.191882  0.953291  1
  O  O15  1  0.189931  0.291372  0.049714  1
  O  O16  1  0.602384  0.469088  0.257414  1
  O  O17  1  0.102240  0.032289  0.746204  1
  O  O18  1  0.897760  0.967711  0.253796  1
  O  O19  1  0.397616  0.530912  0.742586  1
