# generated using pymatgen
data_NdTm2Mg(Co4P3)2
_symmetry_space_group_name_H-M   'P 1'
_cell_length_a   3.73602600
_cell_length_b   10.64979000
_cell_length_c   12.30091700
_cell_angle_alpha   90.00000000
_cell_angle_beta   90.00000000
_cell_angle_gamma   90.00000000
_symmetry_Int_Tables_number   1
_chemical_formula_structural   NdTm2Mg(Co4P3)2
_chemical_formula_sum   'Nd2 Tm4 Mg2 Co16 P12'
_cell_volume   489.42756121
_cell_formula_units_Z   2
loop_
 _symmetry_equiv_pos_site_id
 _symmetry_equiv_pos_as_xyz
  1  'x, y, z'
loop_
 _atom_site_type_symbol
 _atom_site_label
 _atom_site_symmetry_multiplicity
 _atom_site_fract_x
 _atom_site_fract_y
 _atom_site_fract_z
 _atom_site_occupancy
  Nd  Nd0  1  0.000000  0.500000  0.527059  1
  Nd  Nd1  1  0.500000  0.000000  0.472941  1
  Tm  Tm2  1  0.500000  0.822378  0.205144  1
  Tm  Tm3  1  0.500000  0.177622  0.205144  1
  Tm  Tm4  1  0.000000  0.677622  0.794856  1
  Tm  Tm5  1  0.000000  0.322378  0.794856  1
  Mg  Mg6  1  0.500000  0.500000  0.153757  1
  Mg  Mg7  1  0.000000  0.000000  0.846243  1
  Co  Co8  1  0.500000  0.500000  0.709494  1
  Co  Co9  1  0.000000  0.000000  0.290506  1
  Co  Co10  1  0.000000  0.500000  0.988701  1
  Co  Co11  1  0.500000  0.000000  0.011299  1
  Co  Co12  1  0.500000  0.332367  0.996642  1
  Co  Co13  1  0.500000  0.667633  0.996642  1
  Co  Co14  1  0.000000  0.167633  0.003358  1
  Co  Co15  1  0.000000  0.832367  0.003358  1
  Co  Co16  1  0.500000  0.295929  0.430483  1
  Co  Co17  1  0.500000  0.704071  0.430483  1
  Co  Co18  1  0.000000  0.204071  0.569517  1
  Co  Co19  1  0.000000  0.795929  0.569517  1
  Co  Co20  1  0.500000  0.877544  0.709088  1
  Co  Co21  1  0.500000  0.122456  0.709088  1
  Co  Co22  1  0.000000  0.622456  0.290912  1
  Co  Co23  1  0.000000  0.377544  0.290912  1
  P  P24  1  0.500000  0.500000  0.885971  1
  P  P25  1  0.000000  0.000000  0.114029  1
  P  P26  1  0.500000  0.500000  0.351449  1
  P  P27  1  0.000000  0.000000  0.648551  1
  P  P28  1  0.500000  0.306767  0.617768  1
  P  P29  1  0.500000  0.693233  0.617768  1
  P  P30  1  0.000000  0.193233  0.382232  1
  P  P31  1  0.000000  0.806767  0.382232  1
  P  P32  1  0.500000  0.837850  0.893020  1
  P  P33  1  0.500000  0.162150  0.893020  1
  P  P34  1  0.000000  0.662150  0.106980  1
  P  P35  1  0.000000  0.337850  0.106980  1
