# generated using pymatgen
data_CaPr2Mg3AgSn2
_symmetry_space_group_name_H-M   'P 1'
_cell_length_a   7.71040737
_cell_length_b   7.71040851
_cell_length_c   4.65120000
_cell_angle_alpha   90.00000000
_cell_angle_beta   90.00000000
_cell_angle_gamma   119.58991958
_symmetry_Int_Tables_number   1
_chemical_formula_structural   CaPr2Mg3AgSn2
_chemical_formula_sum   'Ca1 Pr2 Mg3 Ag1 Sn2'
_cell_volume   240.45298773
_cell_formula_units_Z   1
loop_
 _symmetry_equiv_pos_site_id
 _symmetry_equiv_pos_as_xyz
  1  'x, y, z'
loop_
 _atom_site_type_symbol
 _atom_site_label
 _atom_site_symmetry_multiplicity
 _atom_site_fract_x
 _atom_site_fract_y
 _atom_site_fract_z
 _atom_site_occupancy
  Ca  Ca0  1  0.412686  0.412686  0.500000  1
  Pr  Pr1  1  0.586165  0.000701  0.500000  1
  Pr  Pr2  1  0.000701  0.586165  0.500000  1
  Mg  Mg3  1  0.763426  0.763426  0.000000  1
  Mg  Mg4  1  0.237306  0.000282  0.000000  1
  Mg  Mg5  1  0.000282  0.237306  0.000000  1
  Ag  Ag6  1  0.999397  0.999397  0.500000  1
  Sn  Sn7  1  0.667489  0.332548  0.000000  1
  Sn  Sn8  1  0.332548  0.667489  0.000000  1
