# generated using pymatgen
data_TbEr9NiBi5
_symmetry_space_group_name_H-M   'P 1'
_cell_length_a   8.04532800
_cell_length_b   9.33677100
_cell_length_c   12.04155300
_cell_angle_alpha   90.00000000
_cell_angle_beta   90.00000000
_cell_angle_gamma   90.00000000
_symmetry_Int_Tables_number   1
_chemical_formula_structural   TbEr9NiBi5
_chemical_formula_sum   'Tb2 Er18 Ni2 Bi10'
_cell_volume   904.52997458
_cell_formula_units_Z   2
loop_
 _symmetry_equiv_pos_site_id
 _symmetry_equiv_pos_as_xyz
  1  'x, y, z'
loop_
 _atom_site_type_symbol
 _atom_site_label
 _atom_site_symmetry_multiplicity
 _atom_site_fract_x
 _atom_site_fract_y
 _atom_site_fract_z
 _atom_site_occupancy
  Tb  Tb0  1  0.575699  0.500000  0.775028  1
  Tb  Tb1  1  0.424301  0.500000  0.275028  1
  Er  Er2  1  0.433776  0.178178  0.562610  1
  Er  Er3  1  0.566224  0.821822  0.062610  1
  Er  Er4  1  0.072617  0.724371  0.435997  1
  Er  Er5  1  0.927383  0.275629  0.935997  1
  Er  Er6  1  0.072617  0.275629  0.435997  1
  Er  Er7  1  0.927383  0.724371  0.935997  1
  Er  Er8  1  0.433776  0.821822  0.562610  1
  Er  Er9  1  0.566224  0.178178  0.062610  1
  Er  Er10  1  0.905410  0.000000  0.201165  1
  Er  Er11  1  0.094590  0.000000  0.701165  1
  Er  Er12  1  0.259443  0.500000  0.993854  1
  Er  Er13  1  0.740557  0.500000  0.493854  1
  Er  Er14  1  0.198465  0.000000  0.998312  1
  Er  Er15  1  0.801535  0.000000  0.498312  1
  Er  Er16  1  0.088902  0.500000  0.717786  1
  Er  Er17  1  0.911098  0.500000  0.217786  1
  Er  Er18  1  0.378594  0.000000  0.304425  1
  Er  Er19  1  0.621406  0.000000  0.804425  1
  Ni  Ni20  1  0.173278  0.000000  0.485581  1
  Ni  Ni21  1  0.826722  0.000000  0.985581  1
  Bi  Bi22  1  0.816684  0.743013  0.672140  1
  Bi  Bi23  1  0.183316  0.256987  0.172140  1
  Bi  Bi24  1  0.682713  0.241115  0.325464  1
  Bi  Bi25  1  0.317287  0.758885  0.825464  1
  Bi  Bi26  1  0.682713  0.758885  0.325464  1
  Bi  Bi27  1  0.317287  0.241115  0.825464  1
  Bi  Bi28  1  0.816684  0.256987  0.672140  1
  Bi  Bi29  1  0.183316  0.743013  0.172140  1
  Bi  Bi30  1  0.347599  0.500000  0.531427  1
  Bi  Bi31  1  0.652401  0.500000  0.031427  1
