# generated using pymatgen
data_Ho9Er(SnBi2)2
_symmetry_space_group_name_H-M   'P 1'
_cell_length_a   9.08073300
_cell_length_b   9.05013996
_cell_length_c   6.41839000
_cell_angle_alpha   89.99681493
_cell_angle_beta   90.00158186
_cell_angle_gamma   119.88860968
_symmetry_Int_Tables_number   1
_chemical_formula_structural   Ho9Er(SnBi2)2
_chemical_formula_sum   'Ho9 Er1 Sn2 Bi4'
_cell_volume   457.31907101
_cell_formula_units_Z   1
loop_
 _symmetry_equiv_pos_site_id
 _symmetry_equiv_pos_as_xyz
  1  'x, y, z'
loop_
 _atom_site_type_symbol
 _atom_site_label
 _atom_site_symmetry_multiplicity
 _atom_site_fract_x
 _atom_site_fract_y
 _atom_site_fract_z
 _atom_site_occupancy
  Ho  Ho0  1  0.994364  0.758967  0.749959  1
  Ho  Ho1  1  0.994364  0.235397  0.250041  1
  Ho  Ho2  1  0.757049  0.761965  0.250064  1
  Ho  Ho3  1  0.757049  0.995084  0.749936  1
  Ho  Ho4  1  0.244824  0.245044  0.749979  1
  Ho  Ho5  1  0.244824  0.999780  0.250021  1
  Ho  Ho6  1  0.664820  0.332409  0.000000  1
  Ho  Ho7  1  0.664887  0.332442  0.500000  1
  Ho  Ho8  1  0.340749  0.670375  0.000000  1
  Er  Er9  1  0.340875  0.670438  0.500000  1
  Sn  Sn10  1  0.608131  0.606245  0.749777  1
  Sn  Sn11  1  0.608131  0.001887  0.250223  1
  Bi  Bi12  1  0.388598  0.998659  0.749824  1
  Bi  Bi13  1  0.388598  0.389938  0.250176  1
  Bi  Bi14  1  0.001369  0.609392  0.250175  1
  Bi  Bi15  1  0.001369  0.391977  0.749825  1
