# generated using pymatgen
data_KSr21Al2(GaSn)6
_symmetry_space_group_name_H-M   'P 1'
_cell_length_a   12.23760901
_cell_length_b   12.24344847
_cell_length_c   12.24344735
_cell_angle_alpha   60.05168352
_cell_angle_beta   60.01577503
_cell_angle_gamma   60.01577662
_symmetry_Int_Tables_number   1
_chemical_formula_structural   KSr21Al2(GaSn)6
_chemical_formula_sum   'K1 Sr21 Al2 Ga6 Sn6'
_cell_volume   1297.96205723
_cell_formula_units_Z   1
loop_
 _symmetry_equiv_pos_site_id
 _symmetry_equiv_pos_as_xyz
  1  'x, y, z'
loop_
 _atom_site_type_symbol
 _atom_site_label
 _atom_site_symmetry_multiplicity
 _atom_site_fract_x
 _atom_site_fract_y
 _atom_site_fract_z
 _atom_site_occupancy
  K  K0  1  0.500048  0.499952  0.499952  1
  Sr  Sr1  1  0.870142  0.869513  0.390203  1
  Sr  Sr2  1  0.608704  0.130435  0.130435  1
  Sr  Sr3  1  0.870142  0.390203  0.869513  1
  Sr  Sr4  1  0.130426  0.130435  0.130435  1
  Sr  Sr5  1  0.389376  0.870042  0.870042  1
  Sr  Sr6  1  0.870539  0.870042  0.870042  1
  Sr  Sr7  1  0.164973  0.834702  0.500129  1
  Sr  Sr8  1  0.834611  0.499994  0.499994  1
  Sr  Sr9  1  0.130444  0.130477  0.608634  1
  Sr  Sr10  1  0.835077  0.166525  0.499157  1
  Sr  Sr11  1  0.165402  0.499994  0.499994  1
  Sr  Sr12  1  0.130444  0.608634  0.130477  1
  Sr  Sr13  1  0.499241  0.499157  0.166525  1
  Sr  Sr14  1  0.499389  0.166044  0.835179  1
  Sr  Sr15  1  0.499389  0.835179  0.166044  1
  Sr  Sr16  1  0.500196  0.500129  0.834702  1
  Sr  Sr17  1  0.499241  0.166525  0.499157  1
  Sr  Sr18  1  0.164973  0.500129  0.834702  1
  Sr  Sr19  1  0.999929  0.000071  0.000071  1
  Sr  Sr20  1  0.500196  0.834702  0.500129  1
  Sr  Sr21  1  0.835077  0.499157  0.166525  1
  Al  Al22  1  0.694756  0.915959  0.694530  1
  Al  Al23  1  0.694756  0.694530  0.915959  1
  Ga  Ga24  1  0.693067  0.693776  0.693776  1
  Ga  Ga25  1  0.306351  0.080931  0.306368  1
  Ga  Ga26  1  0.919382  0.693776  0.693776  1
  Ga  Ga27  1  0.306351  0.306368  0.080931  1
  Ga  Ga28  1  0.080991  0.306353  0.306353  1
  Ga  Ga29  1  0.306303  0.306353  0.306353  1
  Sn  Sn30  1  0.783211  0.216836  0.783186  1
  Sn  Sn31  1  0.783233  0.216767  0.216767  1
  Sn  Sn32  1  0.216767  0.783186  0.216836  1
  Sn  Sn33  1  0.216895  0.783105  0.783105  1
  Sn  Sn34  1  0.783211  0.783186  0.216836  1
  Sn  Sn35  1  0.216767  0.216836  0.783186  1
