# generated using pymatgen
data_Cs3Rb(InBr3)4
_symmetry_space_group_name_H-M   'P 1'
_cell_length_a   9.22769700
_cell_length_b   9.22769723
_cell_length_c   11.36445700
_cell_angle_alpha   90.00000000
_cell_angle_beta   90.00000000
_cell_angle_gamma   120.00000275
_symmetry_Int_Tables_number   1
_chemical_formula_structural   Cs3Rb(InBr3)4
_chemical_formula_sum   'Cs3 Rb1 In4 Br12'
_cell_volume   838.04236069
_cell_formula_units_Z   1
loop_
 _symmetry_equiv_pos_site_id
 _symmetry_equiv_pos_as_xyz
  1  'x, y, z'
loop_
 _atom_site_type_symbol
 _atom_site_label
 _atom_site_symmetry_multiplicity
 _atom_site_fract_x
 _atom_site_fract_y
 _atom_site_fract_z
 _atom_site_occupancy
  Cs  Cs0  1  0.666667  0.333334  0.128241  1
  Cs  Cs1  1  0.000000  0.000000  0.277311  1
  Cs  Cs2  1  0.000000  0.000000  0.722396  1
  Rb  Rb3  1  0.333334  0.666667  0.871170  1
  In  In4  1  0.333334  0.666667  0.249495  1
  In  In5  1  0.333334  0.666667  0.497346  1
  In  In6  1  0.666667  0.333334  0.503489  1
  In  In7  1  0.666667  0.333334  0.750707  1
  Br  Br8  1  0.116705  0.399543  0.131000  1
  Br  Br9  1  0.600457  0.717163  0.131000  1
  Br  Br10  1  0.282839  0.883296  0.131000  1
  Br  Br11  1  0.687813  0.095684  0.389904  1
  Br  Br12  1  0.407872  0.312187  0.389904  1
  Br  Br13  1  0.904317  0.592128  0.389904  1
  Br  Br14  1  0.097460  0.410015  0.613243  1
  Br  Br15  1  0.589985  0.687443  0.613243  1
  Br  Br16  1  0.312557  0.902541  0.613243  1
  Br  Br17  1  0.713637  0.112357  0.865800  1
  Br  Br18  1  0.398720  0.286363  0.865800  1
  Br  Br19  1  0.887644  0.601281  0.865800  1
