# generated using pymatgen
data_Tb3Dy2Co19(SiP3)3
_symmetry_space_group_name_H-M   'P 1'
_cell_length_a   12.06744405
_cell_length_b   12.06744401
_cell_length_c   3.69712800
_cell_angle_alpha   90.00000000
_cell_angle_beta   90.00000000
_cell_angle_gamma   120.01035084
_symmetry_Int_Tables_number   1
_chemical_formula_structural   Tb3Dy2Co19(SiP3)3
_chemical_formula_sum   'Tb3 Dy2 Co19 Si3 P9'
_cell_volume   466.20872569
_cell_formula_units_Z   1
loop_
 _symmetry_equiv_pos_site_id
 _symmetry_equiv_pos_as_xyz
  1  'x, y, z'
loop_
 _atom_site_type_symbol
 _atom_site_label
 _atom_site_symmetry_multiplicity
 _atom_site_fract_x
 _atom_site_fract_y
 _atom_site_fract_z
 _atom_site_occupancy
  Tb  Tb0  1  0.333325  0.666612  0.000000  1
  Tb  Tb1  1  0.666612  0.333325  0.000000  1
  Tb  Tb2  1  0.814942  0.814942  0.500000  1
  Dy  Dy3  1  0.185263  0.000048  0.500000  1
  Dy  Dy4  1  0.000048  0.185263  0.500000  1
  Co  Co5  1  0.202449  0.377677  0.000000  1
  Co  Co6  1  0.622054  0.824828  0.000000  1
  Co  Co7  1  0.175396  0.797549  0.000000  1
  Co  Co8  1  0.824828  0.622054  0.000000  1
  Co  Co9  1  0.797549  0.175396  0.000000  1
  Co  Co10  1  0.377677  0.202449  0.000000  1
  Co  Co11  1  0.557169  0.000088  0.000000  1
  Co  Co12  1  0.000088  0.557169  0.000000  1
  Co  Co13  1  0.442652  0.442652  0.000000  1
  Co  Co14  1  0.126654  0.485128  0.500000  1
  Co  Co15  1  0.514600  0.641315  0.500000  1
  Co  Co16  1  0.358544  0.873334  0.500000  1
  Co  Co17  1  0.641315  0.514600  0.500000  1
  Co  Co18  1  0.873334  0.358544  0.500000  1
  Co  Co19  1  0.485128  0.126654  0.500000  1
  Co  Co20  1  0.715832  0.000218  0.500000  1
  Co  Co21  1  0.000218  0.715832  0.500000  1
  Co  Co22  1  0.284111  0.284111  0.500000  1
  Co  Co23  1  0.000260  0.000260  0.000000  1
  Si  Si24  1  0.369768  0.999992  0.000000  1
  Si  Si25  1  0.999992  0.369768  0.000000  1
  Si  Si26  1  0.629804  0.629804  0.000000  1
  P  P27  1  0.313493  0.478976  0.500000  1
  P  P28  1  0.520969  0.834568  0.500000  1
  P  P29  1  0.165534  0.686376  0.500000  1
  P  P30  1  0.834568  0.520969  0.500000  1
  P  P31  1  0.686376  0.165534  0.500000  1
  P  P32  1  0.478976  0.313493  0.500000  1
  P  P33  1  0.818106  0.000406  0.000000  1
  P  P34  1  0.000406  0.818106  0.000000  1
  P  P35  1  0.181958  0.181958  0.000000  1
