# generated using pymatgen
data_DyY9(Ga2Ru3)2
_symmetry_space_group_name_H-M   'P 1'
_cell_length_a   8.33758150
_cell_length_b   8.34023642
_cell_length_c   8.33758100
_cell_angle_alpha   109.47766346
_cell_angle_beta   109.46477136
_cell_angle_gamma   109.47766974
_symmetry_Int_Tables_number   1
_chemical_formula_structural   DyY9(Ga2Ru3)2
_chemical_formula_sum   'Dy1 Y9 Ga4 Ru6'
_cell_volume   446.27451599
_cell_formula_units_Z   1
loop_
 _symmetry_equiv_pos_site_id
 _symmetry_equiv_pos_as_xyz
  1  'x, y, z'
loop_
 _atom_site_type_symbol
 _atom_site_label
 _atom_site_symmetry_multiplicity
 _atom_site_fract_x
 _atom_site_fract_y
 _atom_site_fract_z
 _atom_site_occupancy
  Dy  Dy0  1  0.000000  0.216098  0.000000  1
  Y  Y1  1  0.749806  0.433083  0.183151  1
  Y  Y2  1  0.433345  0.683279  0.250194  1
  Y  Y3  1  0.250248  0.066713  0.316996  1
  Y  Y4  1  0.218484  0.500229  0.499220  1
  Y  Y5  1  0.816849  0.249933  0.566655  1
  Y  Y6  1  0.500781  0.001009  0.719265  1
  Y  Y7  1  0.066747  0.816465  0.749752  1
  Y  Y8  1  0.280735  0.281744  0.781517  1
  Y  Y9  1  0.683006  0.749717  0.933253  1
  Ga  Ga10  1  0.000000  0.586121  0.000000  1
  Ga  Ga11  1  0.500249  0.000605  0.088571  1
  Ga  Ga12  1  0.911429  0.912035  0.411679  1
  Ga  Ga13  1  0.588321  0.500356  0.499751  1
  Ru  Ru14  1  0.374759  0.249964  0.125841  1
  Ru  Ru15  1  0.874160  0.124124  0.248916  1
  Ru  Ru16  1  0.124067  0.750488  0.374080  1
  Ru  Ru17  1  0.751083  0.875206  0.625242  1
  Ru  Ru18  1  0.625919  0.376408  0.749984  1
  Ru  Ru19  1  0.250016  0.626422  0.875934  1
