# generated using pymatgen
data_Li4Yb5Pd4
_symmetry_space_group_name_H-M   'P 1'
_cell_length_a   8.70450452
_cell_length_b   8.70450582
_cell_length_c   8.70450502
_cell_angle_alpha   92.82401188
_cell_angle_beta   92.82401204
_cell_angle_gamma   154.35106924
_symmetry_Int_Tables_number   1
_chemical_formula_structural   Li4Yb5Pd4
_chemical_formula_sum   'Li4 Yb5 Pd4'
_cell_volume   278.35847042
_cell_formula_units_Z   1
loop_
 _symmetry_equiv_pos_site_id
 _symmetry_equiv_pos_as_xyz
  1  'x, y, z'
loop_
 _atom_site_type_symbol
 _atom_site_label
 _atom_site_symmetry_multiplicity
 _atom_site_fract_x
 _atom_site_fract_y
 _atom_site_fract_z
 _atom_site_occupancy
  Li  Li0  1  0.602153  0.076102  0.678254  1
  Li  Li1  1  0.923898  0.602153  0.526051  1
  Li  Li2  1  0.076102  0.397847  0.473949  1
  Li  Li3  1  0.397847  0.923898  0.321746  1
  Yb  Yb4  1  0.127657  0.787911  0.915568  1
  Yb  Yb5  1  0.212089  0.127657  0.339745  1
  Yb  Yb6  1  0.872343  0.212089  0.084432  1
  Yb  Yb7  1  0.500000  0.500000  0.000000  1
  Yb  Yb8  1  0.787911  0.872343  0.660255  1
  Pd  Pd9  1  0.437338  0.257084  0.694422  1
  Pd  Pd10  1  0.562662  0.742916  0.305578  1
  Pd  Pd11  1  0.257084  0.562662  0.819746  1
  Pd  Pd12  1  0.742916  0.437338  0.180254  1
