# generated using pymatgen
data_ZnIr3RhPb3O14
_symmetry_space_group_name_H-M   'P 1'
_cell_length_a   7.32404423
_cell_length_b   7.22403399
_cell_length_c   7.32404500
_cell_angle_alpha   59.54098464
_cell_angle_beta   60.00001005
_cell_angle_gamma   59.54098654
_symmetry_Int_Tables_number   1
_chemical_formula_structural   ZnIr3RhPb3O14
_chemical_formula_sum   'Zn1 Ir3 Rh1 Pb3 O14'
_cell_volume   272.09373313
_cell_formula_units_Z   1
loop_
 _symmetry_equiv_pos_site_id
 _symmetry_equiv_pos_as_xyz
  1  'x, y, z'
loop_
 _atom_site_type_symbol
 _atom_site_label
 _atom_site_symmetry_multiplicity
 _atom_site_fract_x
 _atom_site_fract_y
 _atom_site_fract_z
 _atom_site_occupancy
  Zn  Zn0  1  0.125000  0.625000  0.125000  1
  Ir  Ir1  1  0.125000  0.625000  0.625000  1
  Ir  Ir2  1  0.625000  0.625000  0.125000  1
  Ir  Ir3  1  0.625000  0.625000  0.625000  1
  Rh  Rh4  1  0.625000  0.125000  0.625000  1
  Pb  Pb5  1  0.625000  0.125000  0.125000  1
  Pb  Pb6  1  0.125000  0.125000  0.625000  1
  Pb  Pb7  1  0.125000  0.125000  0.125000  1
  O  O8  1  0.693083  0.706171  0.300372  1
  O  O9  1  0.291938  0.292361  0.707851  1
  O  O10  1  0.707851  0.292361  0.707851  1
  O  O11  1  0.300372  0.706171  0.300372  1
  O  O12  1  0.300372  0.706171  0.693083  1
  O  O13  1  0.707851  0.292361  0.291938  1
  O  O14  1  0.556917  0.543829  0.949628  1
  O  O15  1  0.958062  0.957639  0.542149  1
  O  O16  1  0.542149  0.957639  0.542149  1
  O  O17  1  0.949628  0.543829  0.949628  1
  O  O18  1  0.949628  0.543829  0.556917  1
  O  O19  1  0.542149  0.957639  0.958062  1
  O  O20  1  0.232966  0.301103  0.232966  1
  O  O21  1  0.017034  0.948897  0.017034  1
