# generated using pymatgen
data_Y20GaSi3Bi8
_symmetry_space_group_name_H-M   'P 1'
_cell_length_a   12.18342303
_cell_length_b   9.21743700
_cell_length_c   8.09898368
_cell_angle_alpha   90.00000000
_cell_angle_beta   90.14707845
_cell_angle_gamma   90.00000000
_symmetry_Int_Tables_number   1
_chemical_formula_structural   Y20GaSi3Bi8
_chemical_formula_sum   'Y20 Ga1 Si3 Bi8'
_cell_volume   909.51233731
_cell_formula_units_Z   1
loop_
 _symmetry_equiv_pos_site_id
 _symmetry_equiv_pos_as_xyz
  1  'x, y, z'
loop_
 _atom_site_type_symbol
 _atom_site_label
 _atom_site_symmetry_multiplicity
 _atom_site_fract_x
 _atom_site_fract_y
 _atom_site_fract_z
 _atom_site_occupancy
  Y  Y0  1  0.564121  0.051054  0.319111  1
  Y  Y1  1  0.064778  0.451599  0.182419  1
  Y  Y2  1  0.435706  0.551336  0.680667  1
  Y  Y3  1  0.935645  0.946617  0.818849  1
  Y  Y4  1  0.435706  0.948664  0.680667  1
  Y  Y5  1  0.935645  0.553383  0.818849  1
  Y  Y6  1  0.564121  0.448946  0.319111  1
  Y  Y7  1  0.064778  0.048401  0.182419  1
  Y  Y8  1  0.711541  0.250000  0.662095  1
  Y  Y9  1  0.214241  0.250000  0.836990  1
  Y  Y10  1  0.289151  0.750000  0.338228  1
  Y  Y11  1  0.789030  0.750000  0.161814  1
  Y  Y12  1  0.500635  0.250000  0.958479  1
  Y  Y13  1  0.001430  0.250000  0.539089  1
  Y  Y14  1  0.499266  0.750000  0.041258  1
  Y  Y15  1  0.999255  0.750000  0.459136  1
  Y  Y16  1  0.793446  0.250000  0.137808  1
  Y  Y17  1  0.296006  0.250000  0.364661  1
  Y  Y18  1  0.204070  0.750000  0.865204  1
  Y  Y19  1  0.703769  0.750000  0.635287  1
  Ga  Ga20  1  0.977928  0.250000  0.913569  1
  Si  Si21  1  0.480675  0.250000  0.583677  1
  Si  Si22  1  0.019306  0.750000  0.083789  1
  Si  Si23  1  0.519213  0.750000  0.416727  1
  Bi  Bi24  1  0.826426  0.009741  0.430823  1
  Bi  Bi25  1  0.327147  0.490215  0.069519  1
  Bi  Bi26  1  0.173662  0.510230  0.569124  1
  Bi  Bi27  1  0.673035  0.989689  0.930582  1
  Bi  Bi28  1  0.173662  0.989770  0.569124  1
  Bi  Bi29  1  0.673035  0.510311  0.930582  1
  Bi  Bi30  1  0.826426  0.490259  0.430823  1
  Bi  Bi31  1  0.327147  0.009785  0.069519  1
