# generated using pymatgen
data_KBa4Fe8(NiP5)2
_symmetry_space_group_name_H-M   'P 1'
_cell_length_a   8.69234105
_cell_length_b   8.69155001
_cell_length_c   8.69553376
_cell_angle_alpha   121.81894527
_cell_angle_beta   121.76792228
_cell_angle_gamma   86.93028960
_symmetry_Int_Tables_number   1
_chemical_formula_structural   KBa4Fe8(NiP5)2
_chemical_formula_sum   'K1 Ba4 Fe8 Ni2 P10'
_cell_volume   451.19475105
_cell_formula_units_Z   1
loop_
 _symmetry_equiv_pos_site_id
 _symmetry_equiv_pos_as_xyz
  1  'x, y, z'
loop_
 _atom_site_type_symbol
 _atom_site_label
 _atom_site_symmetry_multiplicity
 _atom_site_fract_x
 _atom_site_fract_y
 _atom_site_fract_z
 _atom_site_occupancy
  K  K0  1  0.000344  0.999964  0.000465  1
  Ba  Ba1  1  0.391060  0.801779  0.194169  1
  Ba  Ba2  1  0.802119  0.607904  0.410196  1
  Ba  Ba3  1  0.198070  0.392386  0.589494  1
  Ba  Ba4  1  0.608477  0.198010  0.805916  1
  Fe  Fe5  1  0.752045  0.249006  0.500782  1
  Fe  Fe6  1  0.150521  0.050444  0.700041  1
  Fe  Fe7  1  0.547914  0.850731  0.899018  1
  Fe  Fe8  1  0.650545  0.550162  0.700415  1
  Fe  Fe9  1  0.052364  0.352671  0.904713  1
  Fe  Fe10  1  0.449708  0.152937  0.102479  1
  Fe  Fe11  1  0.849905  0.947182  0.297536  1
  Fe  Fe12  1  0.247868  0.747302  0.495159  1
  Ni  Ni13  1  0.948729  0.649676  0.098488  1
  Ni  Ni14  1  0.350850  0.450424  0.300995  1
  P  P15  1  0.938765  0.534739  0.791336  1
  P  P16  1  0.339699  0.336698  0.993066  1
  P  P17  1  0.739593  0.140198  0.199948  1
  P  P18  1  0.143394  0.946327  0.407560  1
  P  P19  1  0.543417  0.746291  0.608189  1
  P  P20  1  0.652026  0.661652  0.996355  1
  P  P21  1  0.056970  0.457645  0.199979  1
  P  P22  1  0.466136  0.256545  0.404490  1
  P  P23  1  0.860431  0.058906  0.599536  1
  P  P24  1  0.259046  0.860422  0.799677  1
