# generated using pymatgen
data_Li5Ga6
_symmetry_space_group_name_H-M   'P 1'
_cell_length_a   7.54630473
_cell_length_b   7.62342902
_cell_length_c   7.57766709
_cell_angle_alpha   99.99883086
_cell_angle_beta   131.17057037
_cell_angle_gamma   120.26563864
_symmetry_Int_Tables_number   1
_chemical_formula_structural   Li5Ga6
_chemical_formula_sum   'Li5 Ga6'
_cell_volume   178.27934786
_cell_formula_units_Z   1
loop_
 _symmetry_equiv_pos_site_id
 _symmetry_equiv_pos_as_xyz
  1  'x, y, z'
loop_
 _atom_site_type_symbol
 _atom_site_label
 _atom_site_symmetry_multiplicity
 _atom_site_fract_x
 _atom_site_fract_y
 _atom_site_fract_z
 _atom_site_occupancy
  Li  Li0  1  0.243864  0.998803  0.189261  1
  Li  Li1  1  0.454843  0.200040  0.000163  1
  Li  Li2  1  0.611390  0.818614  0.896176  1
  Li  Li3  1  0.584803  0.662911  0.200101  1
  Li  Li4  1  0.986386  0.473799  0.982868  1
  Ga  Ga5  1  0.781622  0.009251  0.706968  1
  Ga  Ga6  1  0.831163  0.166963  0.438202  1
  Ga  Ga7  1  0.171342  0.830172  0.448909  1
  Ga  Ga8  1  0.401836  0.324547  0.684480  1
  Ga  Ga9  1  0.470543  0.488850  0.433976  1
  Ga  Ga10  1  0.061753  0.649928  0.703194  1
