# generated using pymatgen
data_Pm4GePt3
_symmetry_space_group_name_H-M   'P 1'
_cell_length_a   7.53585670
_cell_length_b   5.83463890
_cell_length_c   4.42121400
_cell_angle_alpha   90.00000000
_cell_angle_beta   90.00000000
_cell_angle_gamma   89.46953569
_symmetry_Int_Tables_number   1
_chemical_formula_structural   Pm4GePt3
_chemical_formula_sum   'Pm4 Ge1 Pt3'
_cell_volume   194.38803850
_cell_formula_units_Z   1
loop_
 _symmetry_equiv_pos_site_id
 _symmetry_equiv_pos_as_xyz
  1  'x, y, z'
loop_
 _atom_site_type_symbol
 _atom_site_label
 _atom_site_symmetry_multiplicity
 _atom_site_fract_x
 _atom_site_fract_y
 _atom_site_fract_z
 _atom_site_occupancy
  Pm  Pm0  1  0.104963  0.505588  0.000000  1
  Pm  Pm1  1  0.592066  0.746302  0.000000  1
  Pm  Pm2  1  0.231431  0.013947  0.499999  1
  Pm  Pm3  1  0.737995  0.235341  0.499999  1
  Ge  Ge4  1  0.876145  0.728381  0.499999  1
  Pt  Pt5  1  0.459605  0.225165  0.000000  1
  Pt  Pt6  1  0.956346  0.016235  0.000000  1
  Pt  Pt7  1  0.374779  0.529041  0.499999  1
