# generated using pymatgen
data_Cs2Rb2TmPaTe6
_symmetry_space_group_name_H-M   'P 1'
_cell_length_a   15.14548300
_cell_length_b   7.53069018
_cell_length_c   10.04456689
_cell_angle_alpha   70.60370821
_cell_angle_beta   90.00000000
_cell_angle_gamma   90.00000000
_symmetry_Int_Tables_number   1
_chemical_formula_structural   Cs2Rb2TmPaTe6
_chemical_formula_sum   'Cs4 Rb4 Tm2 Pa2 Te12'
_cell_volume   1080.62060824
_cell_formula_units_Z   2
loop_
 _symmetry_equiv_pos_site_id
 _symmetry_equiv_pos_as_xyz
  1  'x, y, z'
loop_
 _atom_site_type_symbol
 _atom_site_label
 _atom_site_symmetry_multiplicity
 _atom_site_fract_x
 _atom_site_fract_y
 _atom_site_fract_z
 _atom_site_occupancy
  Cs  Cs0  1  0.952477  0.669654  0.665314  1
  Cs  Cs1  1  0.452477  0.830346  0.334686  1
  Cs  Cs2  1  0.047186  0.331541  0.336059  1
  Cs  Cs3  1  0.547186  0.168459  0.663941  1
  Rb  Rb4  1  0.868192  0.083506  0.899820  1
  Rb  Rb5  1  0.368192  0.416494  0.100180  1
  Rb  Rb6  1  0.131969  0.925551  0.100690  1
  Rb  Rb7  1  0.631969  0.574449  0.899310  1
  Tm  Tm8  1  0.250209  0.346701  0.707893  1
  Tm  Tm9  1  0.750209  0.153299  0.292107  1
  Pa  Pa10  1  0.749894  0.653432  0.291878  1
  Pa  Pa11  1  0.249894  0.846568  0.708122  1
  Te  Te12  1  0.909556  0.906966  0.274740  1
  Te  Te13  1  0.409556  0.593034  0.725260  1
  Te  Te14  1  0.090635  0.085867  0.725629  1
  Te  Te15  1  0.590635  0.414133  0.274371  1
  Te  Te16  1  0.816341  0.306587  0.520696  1
  Te  Te17  1  0.316341  0.193413  0.479304  1
  Te  Te18  1  0.183532  0.702299  0.479552  1
  Te  Te19  1  0.683532  0.797701  0.520448  1
  Te  Te20  1  0.841180  0.503673  0.079364  1
  Te  Te21  1  0.341180  0.996327  0.920636  1
  Te  Te22  1  0.158829  0.505871  0.920470  1
  Te  Te23  1  0.658829  0.994129  0.079530  1
