# generated using pymatgen
data_Lu4HfRu3F28
_symmetry_space_group_name_H-M   'P 1'
_cell_length_a   5.50966046
_cell_length_b   8.79090725
_cell_length_c   11.82221306
_cell_angle_alpha   63.59354827
_cell_angle_beta   89.96605040
_cell_angle_gamma   90.01135431
_symmetry_Int_Tables_number   1
_chemical_formula_structural   Lu4HfRu3F28
_chemical_formula_sum   'Lu4 Hf1 Ru3 F28'
_cell_volume   512.86277572
_cell_formula_units_Z   1
loop_
 _symmetry_equiv_pos_site_id
 _symmetry_equiv_pos_as_xyz
  1  'x, y, z'
loop_
 _atom_site_type_symbol
 _atom_site_label
 _atom_site_symmetry_multiplicity
 _atom_site_fract_x
 _atom_site_fract_y
 _atom_site_fract_z
 _atom_site_occupancy
  Lu  Lu0  1  0.256870  0.813954  0.273867  1
  Lu  Lu1  1  0.741899  0.184009  0.734548  1
  Lu  Lu2  1  0.758543  0.188888  0.231358  1
  Lu  Lu3  1  0.241701  0.814752  0.764039  1
  Hf  Hf4  1  0.754555  0.727200  0.044485  1
  Ru  Ru5  1  0.242673  0.273439  0.953897  1
  Ru  Ru6  1  0.257292  0.271336  0.456485  1
  Ru  Ru7  1  0.744107  0.726093  0.545581  1
  F  F8  1  0.950267  0.705225  0.417058  1
  F  F9  1  0.048592  0.292571  0.582974  1
  F  F10  1  0.448672  0.294760  0.082091  1
  F  F11  1  0.534827  0.706863  0.918075  1
  F  F12  1  0.474025  0.734930  0.150379  1
  F  F13  1  0.528689  0.274000  0.853889  1
  F  F14  1  0.970459  0.265752  0.358830  1
  F  F15  1  0.033086  0.730595  0.642561  1
  F  F16  1  0.970814  0.753427  0.172764  1
  F  F17  1  0.041079  0.253832  0.822570  1
  F  F18  1  0.462857  0.248974  0.327157  1
  F  F19  1  0.541228  0.748683  0.675525  1
  F  F20  1  0.774432  0.474365  0.142833  1
  F  F21  1  0.226242  0.515516  0.858359  1
  F  F22  1  0.268418  0.513425  0.360043  1
  F  F23  1  0.732359  0.484572  0.640419  1
  F  F24  1  0.946232  0.275504  0.048233  1
  F  F25  1  0.054623  0.722096  0.948135  1
  F  F26  1  0.446537  0.718202  0.453673  1
  F  F27  1  0.551551  0.278451  0.550129  1
  F  F28  1  0.744723  0.966407  0.452513  1
  F  F29  1  0.256957  0.029815  0.549108  1
  F  F30  1  0.246378  0.033004  0.047503  1
  F  F31  1  0.757585  0.978819  0.941617  1
  F  F32  1  0.569738  0.975837  0.235344  1
  F  F33  1  0.425326  0.024840  0.765283  1
  F  F34  1  0.070961  0.026413  0.267180  1
  F  F35  1  0.925703  0.973448  0.731495  1
