# generated using pymatgen
data_Y5Ho3(As3Rh4)4
_symmetry_space_group_name_H-M   'P 1'
_cell_length_a   13.43029800
_cell_length_b   13.43029778
_cell_length_c   4.04551600
_cell_angle_alpha   90.00000000
_cell_angle_beta   90.00000000
_cell_angle_gamma   120.00000053
_symmetry_Int_Tables_number   1
_chemical_formula_structural   Y5Ho3(As3Rh4)4
_chemical_formula_sum   'Y5 Ho3 As12 Rh16'
_cell_volume   631.93999721
_cell_formula_units_Z   1
loop_
 _symmetry_equiv_pos_site_id
 _symmetry_equiv_pos_as_xyz
  1  'x, y, z'
loop_
 _atom_site_type_symbol
 _atom_site_label
 _atom_site_symmetry_multiplicity
 _atom_site_fract_x
 _atom_site_fract_y
 _atom_site_fract_z
 _atom_site_occupancy
  Y  Y0  1  0.188487  0.188487  0.500000  1
  Y  Y1  1  0.811513  0.000000  0.500000  1
  Y  Y2  1  0.000000  0.811513  0.500000  1
  Y  Y3  1  0.333333  0.666667  0.000000  1
  Y  Y4  1  0.666667  0.333333  0.000000  1
  Ho  Ho5  1  0.558708  0.558708  0.000000  1
  Ho  Ho6  1  0.441292  0.000000  0.000000  1
  Ho  Ho7  1  0.000000  0.441292  0.000000  1
  As  As8  1  0.824072  0.824072  0.000000  1
  As  As9  1  0.175928  0.000000  0.000000  1
  As  As10  1  0.000000  0.175928  0.000000  1
  As  As11  1  0.174346  0.486793  0.500000  1
  As  As12  1  0.513207  0.687553  0.500000  1
  As  As13  1  0.312447  0.825654  0.500000  1
  As  As14  1  0.687553  0.513207  0.500000  1
  As  As15  1  0.825654  0.312447  0.500000  1
  As  As16  1  0.486793  0.174346  0.500000  1
  As  As17  1  0.350321  0.350321  0.000000  1
  As  As18  1  0.649679  0.000000  0.000000  1
  As  As19  1  0.000000  0.649679  0.000000  1
  Rh  Rh20  1  0.721988  0.721988  0.500000  1
  Rh  Rh21  1  0.278012  0.000000  0.500000  1
  Rh  Rh22  1  0.000000  0.278012  0.500000  1
  Rh  Rh23  1  0.177175  0.374029  0.000000  1
  Rh  Rh24  1  0.625971  0.803146  0.000000  1
  Rh  Rh25  1  0.196854  0.822825  0.000000  1
  Rh  Rh26  1  0.803146  0.625971  0.000000  1
  Rh  Rh27  1  0.822825  0.196854  0.000000  1
  Rh  Rh28  1  0.374029  0.177175  0.000000  1
  Rh  Rh29  1  0.353736  0.480566  0.500000  1
  Rh  Rh30  1  0.519434  0.873172  0.500000  1
  Rh  Rh31  1  0.126828  0.646264  0.500000  1
  Rh  Rh32  1  0.873172  0.519434  0.500000  1
  Rh  Rh33  1  0.646264  0.126828  0.500000  1
  Rh  Rh34  1  0.480566  0.353736  0.500000  1
  Rh  Rh35  1  0.000000  0.000000  0.000000  1
