# generated using pymatgen
data_Nb6AgCl19
_symmetry_space_group_name_H-M   'P 1'
_cell_length_a   6.88172500
_cell_length_b   6.95400700
_cell_length_c   28.63649600
_cell_angle_alpha   90.00000000
_cell_angle_beta   90.00000000
_cell_angle_gamma   90.00000000
_symmetry_Int_Tables_number   1
_chemical_formula_structural   Nb6AgCl19
_chemical_formula_sum   'Nb12 Ag2 Cl38'
_cell_volume   1370.41566197
_cell_formula_units_Z   2
loop_
 _symmetry_equiv_pos_site_id
 _symmetry_equiv_pos_as_xyz
  1  'x, y, z'
loop_
 _atom_site_type_symbol
 _atom_site_label
 _atom_site_symmetry_multiplicity
 _atom_site_fract_x
 _atom_site_fract_y
 _atom_site_fract_z
 _atom_site_occupancy
  Nb  Nb0  1  0.288150  0.339848  0.108141  1
  Nb  Nb1  1  0.711850  0.339848  0.391859  1
  Nb  Nb2  1  0.288150  0.660152  0.891859  1
  Nb  Nb3  1  0.711850  0.660152  0.608141  1
  Nb  Nb4  1  0.711850  0.660152  0.891859  1
  Nb  Nb5  1  0.288150  0.660152  0.608141  1
  Nb  Nb6  1  0.711850  0.339848  0.108141  1
  Nb  Nb7  1  0.288150  0.339848  0.391859  1
  Nb  Nb8  1  0.500000  0.779817  0.809688  1
  Nb  Nb9  1  0.500000  0.779817  0.690312  1
  Nb  Nb10  1  0.500000  0.220183  0.190312  1
  Nb  Nb11  1  0.500000  0.220183  0.309688  1
  Ag  Ag12  1  0.000000  0.500000  0.000000  1
  Ag  Ag13  1  0.000000  0.500000  0.500000  1
  Cl  Cl14  1  0.263782  0.624028  0.060456  1
  Cl  Cl15  1  0.736218  0.624028  0.439544  1
  Cl  Cl16  1  0.263782  0.375972  0.939544  1
  Cl  Cl17  1  0.736218  0.375972  0.560456  1
  Cl  Cl18  1  0.736218  0.375972  0.939544  1
  Cl  Cl19  1  0.263782  0.375972  0.560456  1
  Cl  Cl20  1  0.736218  0.624028  0.060456  1
  Cl  Cl21  1  0.263782  0.624028  0.439544  1
  Cl  Cl22  1  0.000000  0.810680  0.939210  1
  Cl  Cl23  1  0.000000  0.810680  0.560790  1
  Cl  Cl24  1  0.500000  0.544615  0.343459  1
  Cl  Cl25  1  0.500000  0.544615  0.156541  1
  Cl  Cl26  1  0.500000  0.455385  0.656541  1
  Cl  Cl27  1  0.500000  0.455385  0.843459  1
  Cl  Cl28  1  0.250057  0.036483  0.348337  1
  Cl  Cl29  1  0.749943  0.036483  0.151663  1
  Cl  Cl30  1  0.250057  0.963517  0.651663  1
  Cl  Cl31  1  0.749943  0.963517  0.848337  1
  Cl  Cl32  1  0.749943  0.963517  0.651663  1
  Cl  Cl33  1  0.250057  0.963517  0.848337  1
  Cl  Cl34  1  0.749943  0.036483  0.348337  1
  Cl  Cl35  1  0.250057  0.036483  0.151663  1
  Cl  Cl36  1  0.500000  0.175188  0.447058  1
  Cl  Cl37  1  0.500000  0.175188  0.052942  1
  Cl  Cl38  1  0.500000  0.824812  0.552942  1
  Cl  Cl39  1  0.500000  0.824812  0.947058  1
  Cl  Cl40  1  0.500000  0.945363  0.250000  1
  Cl  Cl41  1  0.500000  0.054637  0.750000  1
  Cl  Cl42  1  0.264528  0.357634  0.250000  1
  Cl  Cl43  1  0.735472  0.357634  0.250000  1
  Cl  Cl44  1  0.264528  0.642366  0.750000  1
  Cl  Cl45  1  0.735472  0.642366  0.750000  1
  Cl  Cl46  1  0.000000  0.470854  0.345700  1
  Cl  Cl47  1  0.000000  0.470854  0.154300  1
  Cl  Cl48  1  0.000000  0.529146  0.654300  1
  Cl  Cl49  1  0.000000  0.529146  0.845700  1
  Cl  Cl50  1  0.000000  0.189320  0.439210  1
  Cl  Cl51  1  0.000000  0.189320  0.060790  1
