# generated using pymatgen
data_Tb5Dy3Ga3Co
_symmetry_space_group_name_H-M   'P 1'
_cell_length_a   10.05355304
_cell_length_b   10.05355345
_cell_length_c   6.96675300
_cell_angle_alpha   90.00000000
_cell_angle_beta   90.00000000
_cell_angle_gamma   120.00192762
_symmetry_Int_Tables_number   1
_chemical_formula_structural   Tb5Dy3Ga3Co
_chemical_formula_sum   'Tb10 Dy6 Ga6 Co2'
_cell_volume   609.80611342
_cell_formula_units_Z   2
loop_
 _symmetry_equiv_pos_site_id
 _symmetry_equiv_pos_as_xyz
  1  'x, y, z'
loop_
 _atom_site_type_symbol
 _atom_site_label
 _atom_site_symmetry_multiplicity
 _atom_site_fract_x
 _atom_site_fract_y
 _atom_site_fract_z
 _atom_site_occupancy
  Tb  Tb0  1  0.462936  0.537065  0.291890  1
  Tb  Tb1  1  0.537066  0.462935  0.791890  1
  Tb  Tb2  1  0.462952  0.925874  0.291881  1
  Tb  Tb3  1  0.074126  0.537048  0.291881  1
  Tb  Tb4  1  0.925874  0.462951  0.791881  1
  Tb  Tb5  1  0.537048  0.074126  0.791881  1
  Tb  Tb6  1  0.333353  0.666650  0.673359  1
  Tb  Tb7  1  0.666649  0.333352  0.173359  1
  Tb  Tb8  1  0.999986  0.000012  0.269290  1
  Tb  Tb9  1  0.000014  0.999988  0.769290  1
  Dy  Dy10  1  0.172524  0.827475  0.989382  1
  Dy  Dy11  1  0.827475  0.172524  0.489382  1
  Dy  Dy12  1  0.172500  0.345019  0.989373  1
  Dy  Dy13  1  0.654982  0.827501  0.989373  1
  Dy  Dy14  1  0.345019  0.172500  0.489371  1
  Dy  Dy15  1  0.827499  0.654980  0.489371  1
  Ga  Ga16  1  0.163389  0.836610  0.540478  1
  Ga  Ga17  1  0.836610  0.163389  0.040479  1
  Ga  Ga18  1  0.163356  0.326709  0.540469  1
  Ga  Ga19  1  0.673290  0.836644  0.540469  1
  Ga  Ga20  1  0.326709  0.163357  0.040471  1
  Ga  Ga21  1  0.836643  0.673291  0.040471  1
  Co  Co22  1  0.333341  0.666658  0.055154  1
  Co  Co23  1  0.666658  0.333342  0.555154  1
