# generated using pymatgen
data_La8YPt6
_symmetry_space_group_name_H-M   'P 1'
_cell_length_a   7.80649860
_cell_length_b   7.80649894
_cell_length_c   7.80649904
_cell_angle_alpha   71.79565601
_cell_angle_beta   71.79565644
_cell_angle_gamma   71.79565330
_symmetry_Int_Tables_number   1
_chemical_formula_structural   La8YPt6
_chemical_formula_sum   'La8 Y1 Pt6'
_cell_volume   416.96748694
_cell_formula_units_Z   1
loop_
 _symmetry_equiv_pos_site_id
 _symmetry_equiv_pos_as_xyz
  1  'x, y, z'
loop_
 _atom_site_type_symbol
 _atom_site_label
 _atom_site_symmetry_multiplicity
 _atom_site_fract_x
 _atom_site_fract_y
 _atom_site_fract_z
 _atom_site_occupancy
  La  La0  1  0.799743  0.799743  0.799743  1
  La  La1  1  0.200257  0.200257  0.200257  1
  La  La2  1  0.328812  0.610623  0.835360  1
  La  La3  1  0.835360  0.328812  0.610623  1
  La  La4  1  0.610623  0.835360  0.328812  1
  La  La5  1  0.671188  0.389377  0.164640  1
  La  La6  1  0.164640  0.671188  0.389377  1
  La  La7  1  0.389377  0.164640  0.671188  1
  Y  Y8  1  0.000000  0.000000  0.000000  1
  Pt  Pt9  1  0.163286  0.959476  0.593624  1
  Pt  Pt10  1  0.593624  0.163286  0.959476  1
  Pt  Pt11  1  0.959476  0.593624  0.163286  1
  Pt  Pt12  1  0.836714  0.040524  0.406376  1
  Pt  Pt13  1  0.406376  0.836714  0.040524  1
  Pt  Pt14  1  0.040524  0.406376  0.836714  1
