# generated using pymatgen
data_Rb4BiSbCl12
_symmetry_space_group_name_H-M   'P 1'
_cell_length_a   13.06886050
_cell_length_b   13.06886045
_cell_length_c   13.06885986
_cell_angle_alpha   131.90564392
_cell_angle_beta   131.90564459
_cell_angle_gamma   70.37809340
_symmetry_Int_Tables_number   1
_chemical_formula_structural   Rb4BiSbCl12
_chemical_formula_sum   'Rb8 Bi2 Sb2 Cl24'
_cell_volume   1211.60752218
_cell_formula_units_Z   2
loop_
 _symmetry_equiv_pos_site_id
 _symmetry_equiv_pos_as_xyz
  1  'x, y, z'
loop_
 _atom_site_type_symbol
 _atom_site_label
 _atom_site_symmetry_multiplicity
 _atom_site_fract_x
 _atom_site_fract_y
 _atom_site_fract_z
 _atom_site_occupancy
  Rb  Rb0  1  0.375000  0.838583  0.963583  1
  Rb  Rb1  1  0.588583  0.625000  0.463583  1
  Rb  Rb2  1  0.875000  0.838583  0.463583  1
  Rb  Rb3  1  0.588583  0.125000  0.963583  1
  Rb  Rb4  1  0.875000  0.411417  0.036417  1
  Rb  Rb5  1  0.161417  0.125000  0.536417  1
  Rb  Rb6  1  0.375000  0.411417  0.536417  1
  Rb  Rb7  1  0.161417  0.625000  0.036417  1
  Bi  Bi8  1  0.500000  0.500000  0.000000  1
  Bi  Bi9  1  0.250000  0.750000  0.500000  1
  Sb  Sb10  1  0.000000  0.000000  0.000000  1
  Sb  Sb11  1  0.750000  0.250000  0.500000  1
  Cl  Cl12  1  0.751488  0.495700  0.255788  1
  Cl  Cl13  1  0.504300  0.248512  0.744212  1
  Cl  Cl14  1  0.372434  0.372434  0.000000  1
  Cl  Cl15  1  0.122434  0.622434  0.500000  1
  Cl  Cl16  1  0.377566  0.877566  0.500000  1
  Cl  Cl17  1  0.627566  0.627566  0.000000  1
  Cl  Cl18  1  0.112958  0.112958  0.000000  1
  Cl  Cl19  1  0.862958  0.362958  0.500000  1
  Cl  Cl20  1  0.637042  0.137042  0.500000  1
  Cl  Cl21  1  0.887042  0.887042  0.000000  1
  Cl  Cl22  1  0.227149  0.000088  0.227061  1
  Cl  Cl23  1  0.750088  0.023027  0.272939  1
  Cl  Cl24  1  0.504300  0.760087  0.255788  1
  Cl  Cl25  1  0.522851  0.249912  0.272939  1
  Cl  Cl26  1  0.976973  0.249912  0.727061  1
  Cl  Cl27  1  0.999912  0.226973  0.227061  1
  Cl  Cl28  1  0.999912  0.772851  0.772939  1
  Cl  Cl29  1  0.773027  0.000088  0.772939  1
  Cl  Cl30  1  0.750088  0.477149  0.727061  1
  Cl  Cl31  1  0.245700  0.489913  0.244212  1
  Cl  Cl32  1  0.245700  0.001488  0.755788  1
  Cl  Cl33  1  0.998512  0.754300  0.244212  1
  Cl  Cl34  1  0.510087  0.754300  0.755788  1
  Cl  Cl35  1  0.239913  0.495700  0.744212  1
