# generated using pymatgen
data_Tb6Al24FeIr6Ru
_symmetry_space_group_name_H-M   'P 1'
_cell_length_a   8.82272600
_cell_length_b   8.82272613
_cell_length_c   9.50186800
_cell_angle_alpha   90.00000000
_cell_angle_beta   90.00000000
_cell_angle_gamma   119.99999950
_symmetry_Int_Tables_number   1
_chemical_formula_structural   Tb6Al24FeIr6Ru
_chemical_formula_sum   'Tb6 Al24 Fe1 Ir6 Ru1'
_cell_volume   640.53846862
_cell_formula_units_Z   1
loop_
 _symmetry_equiv_pos_site_id
 _symmetry_equiv_pos_as_xyz
  1  'x, y, z'
loop_
 _atom_site_type_symbol
 _atom_site_label
 _atom_site_symmetry_multiplicity
 _atom_site_fract_x
 _atom_site_fract_y
 _atom_site_fract_z
 _atom_site_occupancy
  Tb  Tb0  1  0.384071  0.192035  0.250050  1
  Tb  Tb1  1  0.807965  0.192035  0.250050  1
  Tb  Tb2  1  0.807965  0.615929  0.250050  1
  Tb  Tb3  1  0.615929  0.807965  0.749950  1
  Tb  Tb4  1  0.192035  0.807965  0.749950  1
  Tb  Tb5  1  0.192035  0.384071  0.749950  1
  Al  Al6  1  0.437292  0.874583  0.250408  1
  Al  Al7  1  0.125417  0.562708  0.250408  1
  Al  Al8  1  0.437292  0.562708  0.250408  1
  Al  Al9  1  0.562708  0.125417  0.749592  1
  Al  Al10  1  0.874583  0.437292  0.749592  1
  Al  Al11  1  0.562708  0.437292  0.749592  1
  Al  Al12  1  0.160791  0.839209  0.424364  1
  Al  Al13  1  0.160791  0.321583  0.424364  1
  Al  Al14  1  0.678417  0.839209  0.424364  1
  Al  Al15  1  0.839209  0.160791  0.575636  1
  Al  Al16  1  0.839209  0.678417  0.575636  1
  Al  Al17  1  0.321583  0.160791  0.575636  1
  Al  Al18  1  0.836873  0.163127  0.923172  1
  Al  Al19  1  0.836873  0.673745  0.923172  1
  Al  Al20  1  0.326255  0.163127  0.923172  1
  Al  Al21  1  0.163127  0.836873  0.076828  1
  Al  Al22  1  0.163127  0.326255  0.076828  1
  Al  Al23  1  0.673745  0.836873  0.076828  1
  Al  Al24  1  0.333333  0.666667  0.527340  1
  Al  Al25  1  0.666667  0.333333  0.472660  1
  Al  Al26  1  0.666667  0.333333  0.028492  1
  Al  Al27  1  0.333333  0.666667  0.971508  1
  Al  Al28  1  0.000000  0.000000  0.255960  1
  Al  Al29  1  0.000000  0.000000  0.744040  1
  Fe  Fe30  1  0.000000  0.000000  0.500000  1
  Ir  Ir31  1  0.500000  0.000000  0.500000  1
  Ir  Ir32  1  0.000000  0.500000  0.500000  1
  Ir  Ir33  1  0.500000  0.500000  0.500000  1
  Ir  Ir34  1  0.500000  0.000000  0.000000  1
  Ir  Ir35  1  0.000000  0.500000  0.000000  1
  Ir  Ir36  1  0.500000  0.500000  0.000000  1
  Ru  Ru37  1  0.000000  0.000000  0.000000  1
