# generated using pymatgen
data_Yb3ThAl8
_symmetry_space_group_name_H-M   'P 1'
_cell_length_a   9.66249719
_cell_length_b   9.66249735
_cell_length_c   9.66249697
_cell_angle_alpha   34.13817268
_cell_angle_beta   34.13817105
_cell_angle_gamma   34.13817239
_symmetry_Int_Tables_number   1
_chemical_formula_structural   Yb3ThAl8
_chemical_formula_sum   'Yb3 Th1 Al8'
_cell_volume   253.30857167
_cell_formula_units_Z   1
loop_
 _symmetry_equiv_pos_site_id
 _symmetry_equiv_pos_as_xyz
  1  'x, y, z'
loop_
 _atom_site_type_symbol
 _atom_site_label
 _atom_site_symmetry_multiplicity
 _atom_site_fract_x
 _atom_site_fract_y
 _atom_site_fract_z
 _atom_site_occupancy
  Yb  Yb0  1  0.375504  0.375504  0.375504  1
  Yb  Yb1  1  0.000865  0.000865  0.000865  1
  Yb  Yb2  1  0.498481  0.498481  0.498481  1
  Th  Th3  1  0.874482  0.874482  0.874482  1
  Al  Al4  1  0.437679  0.935466  0.437679  1
  Al  Al5  1  0.937077  0.441098  0.937077  1
  Al  Al6  1  0.437679  0.437679  0.935466  1
  Al  Al7  1  0.937077  0.937077  0.441098  1
  Al  Al8  1  0.186251  0.186251  0.186251  1
  Al  Al9  1  0.688338  0.688338  0.688338  1
  Al  Al10  1  0.935466  0.437679  0.437679  1
  Al  Al11  1  0.441098  0.937077  0.937077  1
