# generated using pymatgen
data_CsHf7Zr5Te16
_symmetry_space_group_name_H-M   'P 1'
_cell_length_a   7.84115957
_cell_length_b   11.18909277
_cell_length_c   11.80821954
_cell_angle_alpha   118.09987406
_cell_angle_beta   109.37372227
_cell_angle_gamma   90.01783328
_symmetry_Int_Tables_number   1
_chemical_formula_structural   CsHf7Zr5Te16
_chemical_formula_sum   'Cs1 Hf7 Zr5 Te16'
_cell_volume   846.74096520
_cell_formula_units_Z   1
loop_
 _symmetry_equiv_pos_site_id
 _symmetry_equiv_pos_as_xyz
  1  'x, y, z'
loop_
 _atom_site_type_symbol
 _atom_site_label
 _atom_site_symmetry_multiplicity
 _atom_site_fract_x
 _atom_site_fract_y
 _atom_site_fract_z
 _atom_site_occupancy
  Cs  Cs0  1  0.500361  0.000149  0.000190  1
  Hf  Hf1  1  0.694178  0.509446  0.633888  1
  Hf  Hf2  1  0.381239  0.876325  0.507307  1
  Hf  Hf3  1  0.876706  0.875153  0.509188  1
  Hf  Hf4  1  0.186074  0.630558  0.124065  1
  Hf  Hf5  1  0.688590  0.631912  0.123660  1
  Hf  Hf6  1  0.305750  0.491163  0.366802  1
  Hf  Hf7  1  0.811829  0.492921  0.370044  1
  Zr  Zr8  1  0.122520  0.125802  0.490533  1
  Zr  Zr9  1  0.619162  0.123617  0.492292  1
  Zr  Zr10  1  0.311009  0.367202  0.874917  1
  Zr  Zr11  1  0.813319  0.368424  0.875290  1
  Zr  Zr12  1  0.188805  0.507253  0.630545  1
  Te  Te13  1  0.730392  0.053687  0.711115  1
  Te  Te14  1  0.227107  0.053699  0.706610  1
  Te  Te15  1  0.848190  0.657108  0.945510  1
  Te  Te16  1  0.346267  0.653564  0.946180  1
  Te  Te17  1  0.548277  0.294010  0.348916  1
  Te  Te18  1  0.045743  0.288683  0.341083  1
  Te  Te19  1  0.771789  0.939486  0.290984  1
  Te  Te20  1  0.268366  0.939566  0.286917  1
  Te  Te21  1  0.657059  0.350830  0.060521  1
  Te  Te22  1  0.154158  0.346696  0.059100  1
  Te  Te23  1  0.950258  0.712183  0.654971  1
  Te  Te24  1  0.453161  0.708573  0.650005  1
  Te  Te25  1  0.956604  0.333431  0.665146  1
  Te  Te26  1  0.459354  0.335799  0.666601  1
  Te  Te27  1  0.541487  0.665030  0.332909  1
  Te  Te28  1  0.042242  0.667730  0.334707  1
