# generated using pymatgen
data_Ho7IrI12
_symmetry_space_group_name_H-M   'P 1'
_cell_length_a   9.74070697
_cell_length_b   9.74070726
_cell_length_c   9.74070678
_cell_angle_alpha   106.99041777
_cell_angle_beta   106.99041860
_cell_angle_gamma   106.99042571
_symmetry_Int_Tables_number   1
_chemical_formula_structural   Ho7IrI12
_chemical_formula_sum   'Ho7 Ir1 I12'
_cell_volume   769.89335381
_cell_formula_units_Z   1
loop_
 _symmetry_equiv_pos_site_id
 _symmetry_equiv_pos_as_xyz
  1  'x, y, z'
loop_
 _atom_site_type_symbol
 _atom_site_label
 _atom_site_symmetry_multiplicity
 _atom_site_fract_x
 _atom_site_fract_y
 _atom_site_fract_z
 _atom_site_occupancy
  Ho  Ho0  1  0.405193  0.476485  0.203714  1
  Ho  Ho1  1  0.203714  0.405193  0.476485  1
  Ho  Ho2  1  0.476485  0.203714  0.405193  1
  Ho  Ho3  1  0.594807  0.523515  0.796286  1
  Ho  Ho4  1  0.796286  0.594807  0.523515  1
  Ho  Ho5  1  0.523515  0.796286  0.594807  1
  Ho  Ho6  1  0.000000  0.000000  0.000000  1
  Ir  Ir7  1  0.500000  0.500000  0.500000  1
  I  I8  1  0.033951  0.337167  0.110695  1
  I  I9  1  0.110695  0.033951  0.337167  1
  I  I10  1  0.337167  0.110695  0.033951  1
  I  I11  1  0.966049  0.662833  0.889305  1
  I  I12  1  0.889305  0.966049  0.662833  1
  I  I13  1  0.662833  0.889305  0.966049  1
  I  I14  1  0.725475  0.573768  0.176909  1
  I  I15  1  0.176909  0.725475  0.573768  1
  I  I16  1  0.573768  0.176909  0.725475  1
  I  I17  1  0.274525  0.426232  0.823091  1
  I  I18  1  0.823091  0.274525  0.426232  1
  I  I19  1  0.426232  0.823091  0.274525  1
