# generated using pymatgen
data_Dy4Ga2ReRu5
_symmetry_space_group_name_H-M   'P 1'
_cell_length_a   5.23645579
_cell_length_b   5.49255993
_cell_length_c   8.92815700
_cell_angle_alpha   90.00000000
_cell_angle_beta   90.00000000
_cell_angle_gamma   121.63148936
_symmetry_Int_Tables_number   1
_chemical_formula_structural   Dy4Ga2ReRu5
_chemical_formula_sum   'Dy4 Ga2 Re1 Ru5'
_cell_volume   218.63894067
_cell_formula_units_Z   1
loop_
 _symmetry_equiv_pos_site_id
 _symmetry_equiv_pos_as_xyz
  1  'x, y, z'
loop_
 _atom_site_type_symbol
 _atom_site_label
 _atom_site_symmetry_multiplicity
 _atom_site_fract_x
 _atom_site_fract_y
 _atom_site_fract_z
 _atom_site_occupancy
  Dy  Dy0  1  0.338522  0.669262  0.441294  1
  Dy  Dy1  1  0.659005  0.329502  0.564551  1
  Dy  Dy2  1  0.659005  0.329502  0.935449  1
  Dy  Dy3  1  0.338522  0.669262  0.058706  1
  Ga  Ga4  1  0.830650  0.167378  0.250000  1
  Ga  Ga5  1  0.830650  0.663272  0.250000  1
  Re  Re6  1  0.667682  0.833841  0.750000  1
  Ru  Ru7  1  0.985010  0.992506  0.501203  1
  Ru  Ru8  1  0.985010  0.992506  0.998797  1
  Ru  Ru9  1  0.339424  0.169712  0.250000  1
  Ru  Ru10  1  0.183260  0.837479  0.750000  1
  Ru  Ru11  1  0.183260  0.345781  0.750000  1
