# generated using pymatgen
data_LiTlBPd6
_symmetry_space_group_name_H-M   'P 1'
_cell_length_a   5.80859180
_cell_length_b   5.80859156
_cell_length_c   5.80859100
_cell_angle_alpha   59.99999751
_cell_angle_beta   59.99999885
_cell_angle_gamma   59.99999789
_symmetry_Int_Tables_number   1
_chemical_formula_structural   LiTlBPd6
_chemical_formula_sum   'Li1 Tl1 B1 Pd6'
_cell_volume   138.57901750
_cell_formula_units_Z   1
loop_
 _symmetry_equiv_pos_site_id
 _symmetry_equiv_pos_as_xyz
  1  'x, y, z'
loop_
 _atom_site_type_symbol
 _atom_site_label
 _atom_site_symmetry_multiplicity
 _atom_site_fract_x
 _atom_site_fract_y
 _atom_site_fract_z
 _atom_site_occupancy
  Li  Li0  1  0.250000  0.250000  0.250000  1
  Tl  Tl1  1  0.750000  0.750000  0.750000  1
  B  B2  1  0.000000  0.000000  0.000000  1
  Pd  Pd3  1  0.744842  0.255158  0.255158  1
  Pd  Pd4  1  0.255158  0.744842  0.255158  1
  Pd  Pd5  1  0.744842  0.744842  0.255158  1
  Pd  Pd6  1  0.255158  0.255158  0.744842  1
  Pd  Pd7  1  0.744842  0.255158  0.744842  1
  Pd  Pd8  1  0.255158  0.744842  0.744842  1
