# generated using pymatgen
data_Er3Tm9GaCo4Ir
_symmetry_space_group_name_H-M   'P 1'
_cell_length_a   8.13207800
_cell_length_b   8.13040606
_cell_length_c   8.13040603
_cell_angle_alpha   111.15054487
_cell_angle_beta   110.81541551
_cell_angle_gamma   106.48058438
_symmetry_Int_Tables_number   1
_chemical_formula_structural   Er3Tm9GaCo4Ir
_chemical_formula_sum   'Er3 Tm9 Ga1 Co4 Ir1'
_cell_volume   413.01156524
_cell_formula_units_Z   1
loop_
 _symmetry_equiv_pos_site_id
 _symmetry_equiv_pos_as_xyz
  1  'x, y, z'
loop_
 _atom_site_type_symbol
 _atom_site_label
 _atom_site_symmetry_multiplicity
 _atom_site_fract_x
 _atom_site_fract_y
 _atom_site_fract_z
 _atom_site_occupancy
  Er  Er0  1  0.580983  0.273603  0.307382  1
  Er  Er1  1  0.182517  0.219205  0.401857  1
  Er  Er2  1  0.182517  0.780658  0.963313  1
  Tm  Tm3  1  0.682031  0.487059  0.805314  1
  Tm  Tm4  1  0.682031  0.876718  0.194973  1
  Tm  Tm5  1  0.966469  0.273548  0.692920  1
  Tm  Tm6  1  0.033479  0.726131  0.307348  1
  Tm  Tm7  1  0.318002  0.123089  0.804872  1
  Tm  Tm8  1  0.318002  0.513130  0.194912  1
  Tm  Tm9  1  0.817425  0.219190  0.036461  1
  Tm  Tm10  1  0.817425  0.780964  0.598237  1
  Tm  Tm11  1  0.419216  0.726443  0.692772  1
  Ga  Ga12  1  0.499989  0.999922  0.500066  1
  Co  Co13  1  0.886220  0.886436  0.999783  1
  Co  Co14  1  0.371427  0.499974  0.871454  1
  Co  Co15  1  0.628705  0.500122  0.128583  1
  Co  Co16  1  0.113182  0.113515  0.999667  1
  Ir  Ir17  1  0.000380  0.500293  0.500086  1
