# generated using pymatgen
data_Th4NiB16Ir3
_symmetry_space_group_name_H-M   'P 1'
_cell_length_a   7.07884074
_cell_length_b   7.07884124
_cell_length_c   7.07884101
_cell_angle_alpha   112.36674201
_cell_angle_beta   111.64879024
_cell_angle_gamma   104.51007266
_symmetry_Int_Tables_number   1
_chemical_formula_structural   Th4NiB16Ir3
_chemical_formula_sum   'Th4 Ni1 B16 Ir3'
_cell_volume   271.53457075
_cell_formula_units_Z   1
loop_
 _symmetry_equiv_pos_site_id
 _symmetry_equiv_pos_as_xyz
  1  'x, y, z'
loop_
 _atom_site_type_symbol
 _atom_site_label
 _atom_site_symmetry_multiplicity
 _atom_site_fract_x
 _atom_site_fract_y
 _atom_site_fract_z
 _atom_site_occupancy
  Th  Th0  1  0.210490  0.210491  0.999999  1
  Th  Th1  1  0.789509  0.789509  0.999999  1
  Th  Th2  1  0.749128  0.249299  0.499828  1
  Th  Th3  1  0.250530  0.750701  0.499828  1
  Ni  Ni4  1  0.260581  0.500000  0.760581  1
  B  B5  1  0.109199  0.268277  0.377476  1
  B  B6  1  0.893767  0.736470  0.630237  1
  B  B7  1  0.893767  0.263530  0.157298  1
  B  B8  1  0.109199  0.731723  0.840921  1
  B  B9  1  0.732375  0.891387  0.623763  1
  B  B10  1  0.264393  0.108671  0.373063  1
  B  B11  1  0.732375  0.108613  0.840987  1
  B  B12  1  0.264393  0.891329  0.155723  1
  B  B13  1  0.412613  0.417840  0.530237  1
  B  B14  1  0.891242  0.891010  0.476614  1
  B  B15  1  0.585604  0.108990  0.000231  1
  B  B16  1  0.112397  0.582160  0.994774  1
  B  B17  1  0.585604  0.585373  0.476614  1
  B  B18  1  0.112397  0.117624  0.530237  1
  B  B19  1  0.891242  0.414627  0.000231  1
  B  B20  1  0.412613  0.882376  0.994774  1
  Ir  Ir21  1  0.497942  0.265157  0.763099  1
  Ir  Ir22  1  0.497942  0.734843  0.232785  1
  Ir  Ir23  1  0.740700  0.500000  0.240700  1
