# generated using pymatgen
data_Nd4Ga4NiIr2Rh
_symmetry_space_group_name_H-M   'P 1'
_cell_length_a   4.40630900
_cell_length_b   7.09405841
_cell_length_c   7.77776188
_cell_angle_alpha   89.87220218
_cell_angle_beta   90.00000000
_cell_angle_gamma   90.00000000
_symmetry_Int_Tables_number   1
_chemical_formula_structural   Nd4Ga4NiIr2Rh
_chemical_formula_sum   'Nd4 Ga4 Ni1 Ir2 Rh1'
_cell_volume   243.12144725
_cell_formula_units_Z   1
loop_
 _symmetry_equiv_pos_site_id
 _symmetry_equiv_pos_as_xyz
  1  'x, y, z'
loop_
 _atom_site_type_symbol
 _atom_site_label
 _atom_site_symmetry_multiplicity
 _atom_site_fract_x
 _atom_site_fract_y
 _atom_site_fract_z
 _atom_site_occupancy
  Nd  Nd0  1  0.250000  0.023655  0.809704  1
  Nd  Nd1  1  0.250000  0.522331  0.692859  1
  Nd  Nd2  1  0.750000  0.978641  0.192071  1
  Nd  Nd3  1  0.750000  0.479455  0.305860  1
  Ga  Ga4  1  0.250000  0.162513  0.424425  1
  Ga  Ga5  1  0.250000  0.665954  0.066619  1
  Ga  Ga6  1  0.750000  0.835973  0.579191  1
  Ga  Ga7  1  0.750000  0.337933  0.924369  1
  Ni  Ni8  1  0.750000  0.709502  0.899045  1
  Ir  Ir9  1  0.250000  0.284412  0.102998  1
  Ir  Ir10  1  0.750000  0.217365  0.604745  1
  Rh  Rh11  1  0.250000  0.782266  0.398115  1
