# generated using pymatgen
data_TlCuHg(P3Pd10)2
_symmetry_space_group_name_H-M   'P 1'
_cell_length_a   8.60420825
_cell_length_b   8.60420880
_cell_length_c   8.60420800
_cell_angle_alpha   60.00000306
_cell_angle_beta   60.00000097
_cell_angle_gamma   59.99999608
_symmetry_Int_Tables_number   1
_chemical_formula_structural   TlCuHg(P3Pd10)2
_chemical_formula_sum   'Tl1 Cu1 Hg1 P6 Pd20'
_cell_volume   450.42009431
_cell_formula_units_Z   1
loop_
 _symmetry_equiv_pos_site_id
 _symmetry_equiv_pos_as_xyz
  1  'x, y, z'
loop_
 _atom_site_type_symbol
 _atom_site_label
 _atom_site_symmetry_multiplicity
 _atom_site_fract_x
 _atom_site_fract_y
 _atom_site_fract_z
 _atom_site_occupancy
  Tl  Tl0  1  0.250000  0.250000  0.250000  1
  Cu  Cu1  1  0.000000  0.000000  0.000000  1
  Hg  Hg2  1  0.750000  0.750000  0.750000  1
  P  P3  1  0.734955  0.265045  0.265045  1
  P  P4  1  0.265045  0.734955  0.734955  1
  P  P5  1  0.265045  0.734955  0.265045  1
  P  P6  1  0.734955  0.265045  0.734955  1
  P  P7  1  0.265045  0.265045  0.734955  1
  P  P8  1  0.734955  0.734955  0.265045  1
  Pd  Pd9  1  0.383904  0.383904  0.383904  1
  Pd  Pd10  1  0.616536  0.616536  0.616536  1
  Pd  Pd11  1  0.383904  0.383904  0.848286  1
  Pd  Pd12  1  0.383904  0.848286  0.383904  1
  Pd  Pd13  1  0.616536  0.616536  0.150393  1
  Pd  Pd14  1  0.616536  0.150393  0.616536  1
  Pd  Pd15  1  0.848286  0.383904  0.383904  1
  Pd  Pd16  1  0.150393  0.616536  0.616536  1
  Pd  Pd17  1  0.340994  0.999857  0.999857  1
  Pd  Pd18  1  0.659293  0.999857  0.999857  1
  Pd  Pd19  1  0.999857  0.340994  0.659293  1
  Pd  Pd20  1  0.999857  0.659293  0.340994  1
  Pd  Pd21  1  0.999857  0.340994  0.999857  1
  Pd  Pd22  1  0.659293  0.999857  0.340994  1
  Pd  Pd23  1  0.999857  0.659293  0.999857  1
  Pd  Pd24  1  0.340994  0.999857  0.659293  1
  Pd  Pd25  1  0.999857  0.999857  0.340994  1
  Pd  Pd26  1  0.999857  0.999857  0.659293  1
  Pd  Pd27  1  0.659293  0.340994  0.999857  1
  Pd  Pd28  1  0.340994  0.659293  0.999857  1
