# generated using pymatgen
data_Eu2AuN2
_symmetry_space_group_name_H-M   'P 1'
_cell_length_a   7.02616862
_cell_length_b   7.02616865
_cell_length_c   7.02616871
_cell_angle_alpha   149.75640375
_cell_angle_beta   149.75640167
_cell_angle_gamma   43.29909234
_symmetry_Int_Tables_number   1
_chemical_formula_structural   Eu2AuN2
_chemical_formula_sum   'Eu2 Au1 N2'
_cell_volume   87.76062165
_cell_formula_units_Z   1
loop_
 _symmetry_equiv_pos_site_id
 _symmetry_equiv_pos_as_xyz
  1  'x, y, z'
loop_
 _atom_site_type_symbol
 _atom_site_label
 _atom_site_symmetry_multiplicity
 _atom_site_fract_x
 _atom_site_fract_y
 _atom_site_fract_z
 _atom_site_occupancy
  Eu  Eu0  1  0.342600  0.342600  0.000000  1
  Eu  Eu1  1  0.657400  0.657400  0.000000  1
  Au  Au2  1  0.000000  0.000000  0.000000  1
  N  N3  1  0.160744  0.160744  0.000000  1
  N  N4  1  0.839256  0.839256  0.000000  1
