# generated using pymatgen
data_Ce3Dy2(SiB4)2
_symmetry_space_group_name_H-M   'P 1'
_cell_length_a   7.29758869
_cell_length_b   7.29758869
_cell_length_c   8.24072400
_cell_angle_alpha   90.00000000
_cell_angle_beta   90.00000000
_cell_angle_gamma   90.09847140
_symmetry_Int_Tables_number   1
_chemical_formula_structural   Ce3Dy2(SiB4)2
_chemical_formula_sum   'Ce6 Dy4 Si4 B16'
_cell_volume   438.85746654
_cell_formula_units_Z   2
loop_
 _symmetry_equiv_pos_site_id
 _symmetry_equiv_pos_as_xyz
  1  'x, y, z'
loop_
 _atom_site_type_symbol
 _atom_site_label
 _atom_site_symmetry_multiplicity
 _atom_site_fract_x
 _atom_site_fract_y
 _atom_site_fract_z
 _atom_site_occupancy
  Ce  Ce0  1  0.682309  0.182660  0.227483  1
  Ce  Ce1  1  0.317340  0.817691  0.772517  1
  Ce  Ce2  1  0.317340  0.817691  0.227483  1
  Ce  Ce3  1  0.818427  0.681573  0.227514  1
  Ce  Ce4  1  0.818427  0.681573  0.772486  1
  Ce  Ce5  1  0.682309  0.182660  0.772517  1
  Dy  Dy6  1  0.181143  0.318857  0.780712  1
  Dy  Dy7  1  0.181143  0.318857  0.219288  1
  Dy  Dy8  1  0.001714  0.000907  0.500000  1
  Dy  Dy9  1  0.499093  0.498286  0.500000  1
  Si  Si10  1  0.116295  0.613565  0.500000  1
  Si  Si11  1  0.886435  0.383705  0.500000  1
  Si  Si12  1  0.383087  0.116913  0.500000  1
  Si  Si13  1  0.613797  0.886203  0.500000  1
  B  B14  1  0.173315  0.039344  0.000000  1
  B  B15  1  0.828056  0.962116  0.000000  1
  B  B16  1  0.960805  0.172860  0.000000  1
  B  B17  1  0.327140  0.539195  0.000000  1
  B  B18  1  0.039873  0.828084  0.000000  1
  B  B19  1  0.671916  0.460127  0.000000  1
  B  B20  1  0.537884  0.671944  0.000000  1
  B  B21  1  0.460656  0.326685  0.000000  1
  B  B22  1  0.091685  0.591027  0.000000  1
  B  B23  1  0.908973  0.408315  0.000000  1
  B  B24  1  0.409336  0.090664  0.000000  1
  B  B25  1  0.590895  0.909105  0.000000  1
  B  B26  1  0.000652  0.000348  0.159235  1
  B  B27  1  0.000652  0.000348  0.840765  1
  B  B28  1  0.499652  0.499348  0.840765  1
  B  B29  1  0.499652  0.499348  0.159235  1
