# generated using pymatgen
data_Tm4Ni2OsRu5
_symmetry_space_group_name_H-M   'P 1'
_cell_length_a   5.21623434
_cell_length_b   5.19375964
_cell_length_c   8.74960500
_cell_angle_alpha   90.00000000
_cell_angle_beta   90.00000000
_cell_angle_gamma   120.56969645
_symmetry_Int_Tables_number   1
_chemical_formula_structural   Tm4Ni2OsRu5
_chemical_formula_sum   'Tm4 Ni2 Os1 Ru5'
_cell_volume   204.09678229
_cell_formula_units_Z   1
loop_
 _symmetry_equiv_pos_site_id
 _symmetry_equiv_pos_as_xyz
  1  'x, y, z'
loop_
 _atom_site_type_symbol
 _atom_site_label
 _atom_site_symmetry_multiplicity
 _atom_site_fract_x
 _atom_site_fract_y
 _atom_site_fract_z
 _atom_site_occupancy
  Tm  Tm0  1  0.668063  0.338534  0.565147  1
  Tm  Tm1  1  0.335781  0.671734  0.434165  1
  Tm  Tm2  1  0.335781  0.671734  0.065835  1
  Tm  Tm3  1  0.668063  0.338534  0.934853  1
  Ni  Ni4  1  0.160066  0.819513  0.750000  1
  Ni  Ni5  1  0.833802  0.661651  0.250000  1
  Os  Os6  1  0.161677  0.322889  0.750000  1
  Ru  Ru7  1  0.006084  0.013795  0.499754  1
  Ru  Ru8  1  0.006084  0.013795  0.000246  1
  Ru  Ru9  1  0.643604  0.812226  0.750000  1
  Ru  Ru10  1  0.833021  0.166011  0.250000  1
  Ru  Ru11  1  0.347973  0.169584  0.250000  1
