# generated using pymatgen
data_Dy2Pa(ZnPd)3
_symmetry_space_group_name_H-M   'P 1'
_cell_length_a   7.42269196
_cell_length_b   7.42269227
_cell_length_c   3.73834700
_cell_angle_alpha   90.00000000
_cell_angle_beta   90.00000000
_cell_angle_gamma   119.91667915
_symmetry_Int_Tables_number   1
_chemical_formula_structural   Dy2Pa(ZnPd)3
_chemical_formula_sum   'Dy2 Pa1 Zn3 Pd3'
_cell_volume   178.52422514
_cell_formula_units_Z   1
loop_
 _symmetry_equiv_pos_site_id
 _symmetry_equiv_pos_as_xyz
  1  'x, y, z'
loop_
 _atom_site_type_symbol
 _atom_site_label
 _atom_site_symmetry_multiplicity
 _atom_site_fract_x
 _atom_site_fract_y
 _atom_site_fract_z
 _atom_site_occupancy
  Dy  Dy0  1  0.596520  0.995980  0.500000  1
  Dy  Dy1  1  0.995980  0.596520  0.500000  1
  Pa  Pa2  1  0.405973  0.405973  0.500000  1
  Zn  Zn3  1  0.752387  0.752387  0.000000  1
  Zn  Zn4  1  0.257085  0.993946  0.000000  1
  Zn  Zn5  1  0.993946  0.257085  0.000000  1
  Pd  Pd6  1  0.653563  0.335107  0.000000  1
  Pd  Pd7  1  0.335107  0.653563  0.000000  1
  Pd  Pd8  1  0.009440  0.009440  0.500000  1
