# generated using pymatgen
data_Dy3Th(TcB6)2
_symmetry_space_group_name_H-M   'P 1'
_cell_length_a   3.73615800
_cell_length_b   9.20751411
_cell_length_c   11.61227546
_cell_angle_alpha   90.12081521
_cell_angle_beta   90.00000000
_cell_angle_gamma   90.00000000
_symmetry_Int_Tables_number   1
_chemical_formula_structural   Dy3Th(TcB6)2
_chemical_formula_sum   'Dy6 Th2 Tc4 B24'
_cell_volume   399.46983581
_cell_formula_units_Z   2
loop_
 _symmetry_equiv_pos_site_id
 _symmetry_equiv_pos_as_xyz
  1  'x, y, z'
loop_
 _atom_site_type_symbol
 _atom_site_label
 _atom_site_symmetry_multiplicity
 _atom_site_fract_x
 _atom_site_fract_y
 _atom_site_fract_z
 _atom_site_occupancy
  Dy  Dy0  1  0.000000  0.824684  0.084697  1
  Dy  Dy1  1  0.000000  0.175316  0.915303  1
  Dy  Dy2  1  0.000000  0.942836  0.368416  1
  Dy  Dy3  1  0.000000  0.057164  0.631584  1
  Dy  Dy4  1  0.000000  0.442653  0.128181  1
  Dy  Dy5  1  0.000000  0.557347  0.871819  1
  Th  Th6  1  0.000000  0.321784  0.413301  1
  Th  Th7  1  0.000000  0.678216  0.586699  1
  Tc  Tc8  1  0.000000  0.638565  0.319827  1
  Tc  Tc9  1  0.000000  0.361435  0.680173  1
  Tc  Tc10  1  0.000000  0.138513  0.178947  1
  Tc  Tc11  1  0.000000  0.861487  0.821053  1
  B  B12  1  0.500000  0.555795  0.429462  1
  B  B13  1  0.500000  0.444205  0.570538  1
  B  B14  1  0.500000  0.053457  0.066602  1
  B  B15  1  0.500000  0.946543  0.933398  1
  B  B16  1  0.500000  0.749870  0.415004  1
  B  B17  1  0.500000  0.250130  0.584996  1
  B  B18  1  0.500000  0.247956  0.080370  1
  B  B19  1  0.500000  0.752044  0.919630  1
  B  B20  1  0.500000  0.791540  0.263595  1
  B  B21  1  0.500000  0.208460  0.736405  1
  B  B22  1  0.500000  0.289573  0.231800  1
  B  B23  1  0.500000  0.710427  0.768200  1
  B  B24  1  0.500000  0.631581  0.184045  1
  B  B25  1  0.500000  0.368419  0.815955  1
  B  B26  1  0.500000  0.129394  0.311869  1
  B  B27  1  0.500000  0.870606  0.688131  1
  B  B28  1  0.500000  0.982557  0.210399  1
  B  B29  1  0.500000  0.017443  0.789601  1
  B  B30  1  0.500000  0.485398  0.285106  1
  B  B31  1  0.500000  0.514602  0.714894  1
  B  B32  1  0.500000  0.602982  0.028436  1
  B  B33  1  0.500000  0.397018  0.971564  1
  B  B34  1  0.500000  0.099714  0.472261  1
  B  B35  1  0.500000  0.900286  0.527739  1
