# generated using pymatgen
data_YTm7(WO6)4
_symmetry_space_group_name_H-M   'P 1'
_cell_length_a   5.34414900
_cell_length_b   7.64029708
_cell_length_c   11.37604700
_cell_angle_alpha   75.28035937
_cell_angle_beta   90.00000000
_cell_angle_gamma   90.00000000
_symmetry_Int_Tables_number   1
_chemical_formula_structural   YTm7(WO6)4
_chemical_formula_sum   'Y1 Tm7 W4 O24'
_cell_volume   449.24971187
_cell_formula_units_Z   1
loop_
 _symmetry_equiv_pos_site_id
 _symmetry_equiv_pos_as_xyz
  1  'x, y, z'
loop_
 _atom_site_type_symbol
 _atom_site_label
 _atom_site_symmetry_multiplicity
 _atom_site_fract_x
 _atom_site_fract_y
 _atom_site_fract_z
 _atom_site_occupancy
  Y  Y0  1  0.684510  0.500000  0.250000  1
  Tm  Tm1  1  0.184718  0.796056  0.077784  1
  Tm  Tm2  1  0.260699  0.000000  0.750000  1
  Tm  Tm3  1  0.740677  0.000000  0.250000  1
  Tm  Tm4  1  0.315635  0.500000  0.750000  1
  Tm  Tm5  1  0.184718  0.203944  0.422216  1
  Tm  Tm6  1  0.815852  0.205074  0.921177  1
  Tm  Tm7  1  0.815852  0.794926  0.578823  1
  W  W8  1  0.744592  0.723622  0.884785  1
  W  W9  1  0.255338  0.724341  0.386080  1
  W  W10  1  0.744592  0.276378  0.615215  1
  W  W11  1  0.255338  0.275659  0.113920  1
  O  O12  1  0.852774  0.365163  0.451595  1
  O  O13  1  0.464226  0.848339  0.930553  1
  O  O14  1  0.852774  0.634837  0.048405  1
  O  O15  1  0.021632  0.290011  0.729377  1
  O  O16  1  0.980675  0.286122  0.229992  1
  O  O17  1  0.149599  0.364632  0.949412  1
  O  O18  1  0.636995  0.488322  0.885176  1
  O  O19  1  0.537086  0.152054  0.069091  1
  O  O20  1  0.149599  0.635368  0.550588  1
  O  O21  1  0.021632  0.709989  0.770623  1
  O  O22  1  0.458499  0.206373  0.273990  1
  O  O23  1  0.040978  0.941155  0.396255  1
  O  O24  1  0.464226  0.151661  0.569447  1
  O  O25  1  0.980675  0.713878  0.270008  1
  O  O26  1  0.958347  0.058132  0.605516  1
  O  O27  1  0.540030  0.207975  0.774265  1
  O  O28  1  0.540030  0.792025  0.725735  1
  O  O29  1  0.040978  0.058845  0.103745  1
  O  O30  1  0.636995  0.511678  0.614824  1
  O  O31  1  0.357900  0.511910  0.113147  1
  O  O32  1  0.458499  0.793627  0.226010  1
  O  O33  1  0.357900  0.488090  0.386853  1
  O  O34  1  0.537086  0.847946  0.430909  1
  O  O35  1  0.958347  0.941868  0.894484  1
