# generated using pymatgen
data_Gd(Cd10Pd)2
_symmetry_space_group_name_H-M   'P 1'
_cell_length_a   11.04096820
_cell_length_b   11.04096833
_cell_length_c   11.04096900
_cell_angle_alpha   60.00000099
_cell_angle_beta   60.00000060
_cell_angle_gamma   60.00000079
_symmetry_Int_Tables_number   1
_chemical_formula_structural   Gd(Cd10Pd)2
_chemical_formula_sum   'Gd2 Cd40 Pd4'
_cell_volume   951.71414393
_cell_formula_units_Z   2
loop_
 _symmetry_equiv_pos_site_id
 _symmetry_equiv_pos_as_xyz
  1  'x, y, z'
loop_
 _atom_site_type_symbol
 _atom_site_label
 _atom_site_symmetry_multiplicity
 _atom_site_fract_x
 _atom_site_fract_y
 _atom_site_fract_z
 _atom_site_occupancy
  Gd  Gd0  1  0.500000  0.500000  0.500000  1
  Gd  Gd1  1  0.750000  0.750000  0.750000  1
  Cd  Cd2  1  0.568060  0.302897  0.302897  1
  Cd  Cd3  1  0.302897  0.568060  0.826146  1
  Cd  Cd4  1  0.302897  0.826146  0.568060  1
  Cd  Cd5  1  0.826146  0.302897  0.302897  1
  Cd  Cd6  1  0.302897  0.302897  0.568060  1
  Cd  Cd7  1  0.568060  0.826146  0.302897  1
  Cd  Cd8  1  0.826146  0.568060  0.302897  1
  Cd  Cd9  1  0.302897  0.302897  0.826146  1
  Cd  Cd10  1  0.302897  0.568060  0.302897  1
  Cd  Cd11  1  0.826146  0.302897  0.568060  1
  Cd  Cd12  1  0.568060  0.302897  0.826146  1
  Cd  Cd13  1  0.302897  0.826146  0.302897  1
  Cd  Cd14  1  0.681940  0.947103  0.947103  1
  Cd  Cd15  1  0.947103  0.681940  0.423854  1
  Cd  Cd16  1  0.947103  0.423854  0.681940  1
  Cd  Cd17  1  0.423854  0.947103  0.947103  1
  Cd  Cd18  1  0.947103  0.947103  0.681940  1
  Cd  Cd19  1  0.681940  0.423854  0.947103  1
  Cd  Cd20  1  0.423854  0.681940  0.947103  1
  Cd  Cd21  1  0.947103  0.947103  0.423854  1
  Cd  Cd22  1  0.947103  0.681940  0.947103  1
  Cd  Cd23  1  0.423854  0.947103  0.681940  1
  Cd  Cd24  1  0.681940  0.947103  0.423854  1
  Cd  Cd25  1  0.947103  0.423854  0.947103  1
  Cd  Cd26  1  0.861960  0.861960  0.138040  1
  Cd  Cd27  1  0.138040  0.138040  0.861960  1
  Cd  Cd28  1  0.861960  0.138040  0.861960  1
  Cd  Cd29  1  0.138040  0.861960  0.138040  1
  Cd  Cd30  1  0.138040  0.861960  0.861960  1
  Cd  Cd31  1  0.861960  0.138040  0.138040  1
  Cd  Cd32  1  0.388040  0.388040  0.111960  1
  Cd  Cd33  1  0.111960  0.111960  0.388040  1
  Cd  Cd34  1  0.388040  0.111960  0.388040  1
  Cd  Cd35  1  0.111960  0.388040  0.111960  1
  Cd  Cd36  1  0.111960  0.388040  0.388040  1
  Cd  Cd37  1  0.388040  0.111960  0.111960  1
  Cd  Cd38  1  0.125000  0.625000  0.625000  1
  Cd  Cd39  1  0.625000  0.125000  0.625000  1
  Cd  Cd40  1  0.625000  0.625000  0.125000  1
  Cd  Cd41  1  0.625000  0.625000  0.625000  1
  Pd  Pd42  1  0.625000  0.125000  0.125000  1
  Pd  Pd43  1  0.125000  0.625000  0.125000  1
  Pd  Pd44  1  0.125000  0.125000  0.625000  1
  Pd  Pd45  1  0.125000  0.125000  0.125000  1
