# generated using pymatgen
data_Dy3RuI3
_symmetry_space_group_name_H-M   'P 1'
_cell_length_a   4.24045400
_cell_length_b   8.83612546
_cell_length_c   12.29446879
_cell_angle_alpha   86.14311814
_cell_angle_beta   90.00000000
_cell_angle_gamma   90.00000000
_symmetry_Int_Tables_number   1
_chemical_formula_structural   Dy3RuI3
_chemical_formula_sum   'Dy6 Ru2 I6'
_cell_volume   459.62038808
_cell_formula_units_Z   2
loop_
 _symmetry_equiv_pos_site_id
 _symmetry_equiv_pos_as_xyz
  1  'x, y, z'
loop_
 _atom_site_type_symbol
 _atom_site_label
 _atom_site_symmetry_multiplicity
 _atom_site_fract_x
 _atom_site_fract_y
 _atom_site_fract_z
 _atom_site_occupancy
  Dy  Dy0  1  0.750000  0.130424  0.125905  1
  Dy  Dy1  1  0.250000  0.869576  0.874095  1
  Dy  Dy2  1  0.750000  0.099647  0.683521  1
  Dy  Dy3  1  0.250000  0.900353  0.316479  1
  Dy  Dy4  1  0.250000  0.258977  0.896422  1
  Dy  Dy5  1  0.750000  0.741023  0.103578  1
  Ru  Ru6  1  0.750000  0.052872  0.906826  1
  Ru  Ru7  1  0.250000  0.947128  0.093174  1
  I  I8  1  0.250000  0.354250  0.635835  1
  I  I9  1  0.750000  0.645750  0.364165  1
  I  I10  1  0.750000  0.143173  0.392942  1
  I  I11  1  0.250000  0.856827  0.607058  1
  I  I12  1  0.250000  0.427501  0.133381  1
  I  I13  1  0.750000  0.572499  0.866619  1
