# generated using pymatgen
data_DyTm7Sc12Si15Bi
_symmetry_space_group_name_H-M   'P 1'
_cell_length_a   7.13225987
_cell_length_b   7.36831588
_cell_length_c   13.98759921
_cell_angle_alpha   90.10241458
_cell_angle_beta   88.58057184
_cell_angle_gamma   90.19165055
_symmetry_Int_Tables_number   1
_chemical_formula_structural   DyTm7Sc12Si15Bi
_chemical_formula_sum   'Dy1 Tm7 Sc12 Si15 Bi1'
_cell_volume   734.85597304
_cell_formula_units_Z   1
loop_
 _symmetry_equiv_pos_site_id
 _symmetry_equiv_pos_as_xyz
  1  'x, y, z'
loop_
 _atom_site_type_symbol
 _atom_site_label
 _atom_site_symmetry_multiplicity
 _atom_site_fract_x
 _atom_site_fract_y
 _atom_site_fract_z
 _atom_site_occupancy
  Dy  Dy0  1  0.011603  0.176847  0.095698  1
  Tm  Tm1  1  0.988067  0.823551  0.903791  1
  Tm  Tm2  1  0.489645  0.676408  0.903911  1
  Tm  Tm3  1  0.994153  0.831458  0.598337  1
  Tm  Tm4  1  0.511235  0.323861  0.097260  1
  Tm  Tm5  1  0.997638  0.170569  0.399025  1
  Tm  Tm6  1  0.510976  0.315470  0.397914  1
  Tm  Tm7  1  0.513905  0.687796  0.601154  1
  Sc  Sc8  1  0.165949  0.501285  0.755780  1
  Sc  Sc9  1  0.832800  0.498233  0.251951  1
  Sc  Sc10  1  0.332995  0.002158  0.250678  1
  Sc  Sc11  1  0.668882  0.998120  0.751101  1
  Sc  Sc12  1  0.350995  0.155336  0.631686  1
  Sc  Sc13  1  0.656251  0.827527  0.373031  1
  Sc  Sc14  1  0.152020  0.682744  0.369297  1
  Sc  Sc15  1  0.666075  0.821970  0.124002  1
  Sc  Sc16  1  0.828802  0.326793  0.625935  1
  Sc  Sc17  1  0.332019  0.176024  0.875430  1
  Sc  Sc18  1  0.831537  0.324288  0.875456  1
  Sc  Sc19  1  0.168101  0.676032  0.124757  1
  Si  Si20  1  0.038045  0.117636  0.751415  1
  Si  Si21  1  0.959214  0.885515  0.246135  1
  Si  Si22  1  0.459841  0.614539  0.247795  1
  Si  Si23  1  0.536761  0.386640  0.752738  1
  Si  Si24  1  0.290166  0.865648  0.753193  1
  Si  Si25  1  0.709128  0.127870  0.246733  1
  Si  Si26  1  0.209106  0.371773  0.249228  1
  Si  Si27  1  0.794363  0.630685  0.751771  1
  Si  Si28  1  0.809649  0.540395  0.456894  1
  Si  Si29  1  0.325546  0.963681  0.459920  1
  Si  Si30  1  0.841724  0.535197  0.039371  1
  Si  Si31  1  0.675565  0.038803  0.538495  1
  Si  Si32  1  0.157022  0.467132  0.960853  1
  Si  Si33  1  0.656781  0.034242  0.960322  1
  Si  Si34  1  0.343736  0.965877  0.040031  1
  Bi  Bi35  1  0.189699  0.457897  0.538909  1
