# generated using pymatgen
data_Cs3Pr(VSe4)2
_symmetry_space_group_name_H-M   'P 1'
_cell_length_a   10.61514415
_cell_length_b   7.39118500
_cell_length_c   12.50579807
_cell_angle_alpha   90.00104904
_cell_angle_beta   89.64017235
_cell_angle_gamma   89.99961362
_symmetry_Int_Tables_number   1
_chemical_formula_structural   Cs3Pr(VSe4)2
_chemical_formula_sum   'Cs6 Pr2 V4 Se16'
_cell_volume   981.16673585
_cell_formula_units_Z   2
loop_
 _symmetry_equiv_pos_site_id
 _symmetry_equiv_pos_as_xyz
  1  'x, y, z'
loop_
 _atom_site_type_symbol
 _atom_site_label
 _atom_site_symmetry_multiplicity
 _atom_site_fract_x
 _atom_site_fract_y
 _atom_site_fract_z
 _atom_site_occupancy
  Cs  Cs0  1  0.365201  0.804403  0.086374  1
  Cs  Cs1  1  0.399342  0.305841  0.343724  1
  Cs  Cs2  1  0.841621  0.308768  0.431208  1
  Cs  Cs3  1  0.158381  0.808733  0.568785  1
  Cs  Cs4  1  0.600645  0.805847  0.656276  1
  Cs  Cs5  1  0.634791  0.304395  0.913645  1
  Pr  Pr6  1  0.891049  0.781180  0.147895  1
  Pr  Pr7  1  0.108948  0.281147  0.852104  1
  V  V8  1  0.088186  0.335878  0.152110  1
  V  V9  1  0.637696  0.806628  0.308518  1
  V  V10  1  0.362314  0.306582  0.691466  1
  V  V11  1  0.911819  0.835838  0.847896  1
  Se  Se12  1  0.930230  0.400169  0.034928  1
  Se  Se13  1  0.271115  0.307060  0.054961  1
  Se  Se14  1  0.667329  0.047829  0.195235  1
  Se  Se15  1  0.655040  0.553745  0.200647  1
  Se  Se16  1  0.056250  0.076595  0.249754  1
  Se  Se17  1  0.098497  0.576811  0.266584  1
  Se  Se18  1  0.449468  0.813549  0.394107  1
  Se  Se19  1  0.814094  0.804044  0.413332  1
  Se  Se20  1  0.185898  0.303982  0.586694  1
  Se  Se21  1  0.550512  0.313544  0.605882  1
  Se  Se22  1  0.901504  0.076742  0.733414  1
  Se  Se23  1  0.943751  0.576549  0.750250  1
  Se  Se24  1  0.344957  0.053752  0.799342  1
  Se  Se25  1  0.332681  0.547753  0.804760  1
  Se  Se26  1  0.728910  0.807026  0.945043  1
  Se  Se27  1  0.069770  0.900165  0.965067  1
