# generated using pymatgen
data_Lu4InCuPt10
_symmetry_space_group_name_H-M   'P 1'
_cell_length_a   4.15162000
_cell_length_b   5.78628227
_cell_length_c   11.50815823
_cell_angle_alpha   86.88206364
_cell_angle_beta   90.00000000
_cell_angle_gamma   90.00000000
_symmetry_Int_Tables_number   1
_chemical_formula_structural   Lu4InCuPt10
_chemical_formula_sum   'Lu4 In1 Cu1 Pt10'
_cell_volume   276.04486318
_cell_formula_units_Z   1
loop_
 _symmetry_equiv_pos_site_id
 _symmetry_equiv_pos_as_xyz
  1  'x, y, z'
loop_
 _atom_site_type_symbol
 _atom_site_label
 _atom_site_symmetry_multiplicity
 _atom_site_fract_x
 _atom_site_fract_y
 _atom_site_fract_z
 _atom_site_occupancy
  Lu  Lu0  1  0.500000  0.754551  0.373780  1
  Lu  Lu1  1  0.500000  0.715523  0.861528  1
  Lu  Lu2  1  0.500000  0.284477  0.138472  1
  Lu  Lu3  1  0.500000  0.245449  0.626220  1
  In  In4  1  0.000000  0.000000  0.000000  1
  Cu  Cu5  1  0.000000  0.000000  0.500000  1
  Pt  Pt6  1  0.000000  0.018947  0.253661  1
  Pt  Pt7  1  0.000000  0.981053  0.746339  1
  Pt  Pt8  1  0.000000  0.500000  0.000000  1
  Pt  Pt9  1  0.000000  0.500000  0.500000  1
  Pt  Pt10  1  0.000000  0.519321  0.251625  1
  Pt  Pt11  1  0.000000  0.480679  0.748375  1
  Pt  Pt12  1  0.500000  0.251961  0.381210  1
  Pt  Pt13  1  0.500000  0.224698  0.879816  1
  Pt  Pt14  1  0.500000  0.775302  0.120184  1
  Pt  Pt15  1  0.500000  0.748039  0.618790  1
