# generated using pymatgen
data_TbDy7(ZnI6)2
_symmetry_space_group_name_H-M   'P 1'
_cell_length_a   4.18364800
_cell_length_b   14.16204006
_cell_length_c   14.90028106
_cell_angle_alpha   90.01029925
_cell_angle_beta   90.00000000
_cell_angle_gamma   90.00000000
_symmetry_Int_Tables_number   1
_chemical_formula_structural   TbDy7(ZnI6)2
_chemical_formula_sum   'Tb1 Dy7 Zn2 I12'
_cell_volume   882.82659763
_cell_formula_units_Z   1
loop_
 _symmetry_equiv_pos_site_id
 _symmetry_equiv_pos_as_xyz
  1  'x, y, z'
loop_
 _atom_site_type_symbol
 _atom_site_label
 _atom_site_symmetry_multiplicity
 _atom_site_fract_x
 _atom_site_fract_y
 _atom_site_fract_z
 _atom_site_occupancy
  Tb  Tb0  1  0.000000  0.385800  0.076975  1
  Dy  Dy1  1  0.500000  0.113879  0.347379  1
  Dy  Dy2  1  0.500000  0.886133  0.652574  1
  Dy  Dy3  1  0.500000  0.613985  0.152558  1
  Dy  Dy4  1  0.500000  0.386197  0.847319  1
  Dy  Dy5  1  0.000000  0.113937  0.576778  1
  Dy  Dy6  1  0.000000  0.886076  0.423213  1
  Dy  Dy7  1  0.000000  0.614108  0.923114  1
  Zn  Zn8  1  0.500000  0.999997  0.500001  1
  Zn  Zn9  1  0.500000  0.500325  0.999785  1
  I  I10  1  0.500000  0.244832  0.163353  1
  I  I11  1  0.500000  0.754637  0.836986  1
  I  I12  1  0.500000  0.745390  0.337018  1
  I  I13  1  0.500000  0.254603  0.662990  1
  I  I14  1  0.000000  0.259889  0.413759  1
  I  I15  1  0.000000  0.740118  0.586264  1
  I  I16  1  0.000000  0.759908  0.086268  1
  I  I17  1  0.000000  0.239954  0.913435  1
  I  I18  1  0.000000  0.998896  0.238593  1
  I  I19  1  0.000000  0.001080  0.761417  1
  I  I20  1  0.000000  0.499166  0.261653  1
  I  I21  1  0.000000  0.501092  0.738569  1
