# generated using pymatgen
data_Y2LuAl12Os3Rh
_symmetry_space_group_name_H-M   'P 1'
_cell_length_a   8.85642100
_cell_length_b   8.78740374
_cell_length_c   9.53472100
_cell_angle_alpha   90.00000000
_cell_angle_beta   90.00000000
_cell_angle_gamma   120.26015008
_symmetry_Int_Tables_number   1
_chemical_formula_structural   Y2LuAl12Os3Rh
_chemical_formula_sum   'Y4 Lu2 Al24 Os6 Rh2'
_cell_volume   640.93353658
_cell_formula_units_Z   2
loop_
 _symmetry_equiv_pos_site_id
 _symmetry_equiv_pos_as_xyz
  1  'x, y, z'
loop_
 _atom_site_type_symbol
 _atom_site_label
 _atom_site_symmetry_multiplicity
 _atom_site_fract_x
 _atom_site_fract_y
 _atom_site_fract_z
 _atom_site_occupancy
  Y  Y0  1  0.616730  0.803102  0.250000  1
  Y  Y1  1  0.383270  0.196898  0.750000  1
  Y  Y2  1  0.186374  0.803102  0.250000  1
  Y  Y3  1  0.813626  0.196898  0.750000  1
  Lu  Lu4  1  0.197777  0.395556  0.250000  1
  Lu  Lu5  1  0.802223  0.604444  0.750000  1
  Al  Al6  1  0.333007  0.666015  0.021438  1
  Al  Al7  1  0.666993  0.333985  0.978562  1
  Al  Al8  1  0.666993  0.333985  0.521438  1
  Al  Al9  1  0.333007  0.666015  0.478562  1
  Al  Al10  1  0.164296  0.328592  0.574006  1
  Al  Al11  1  0.835704  0.671408  0.425994  1
  Al  Al12  1  0.675165  0.836583  0.577778  1
  Al  Al13  1  0.835704  0.671408  0.074006  1
  Al  Al14  1  0.324835  0.163417  0.422222  1
  Al  Al15  1  0.164296  0.328592  0.925994  1
  Al  Al16  1  0.161419  0.836583  0.577778  1
  Al  Al17  1  0.324835  0.163417  0.077778  1
  Al  Al18  1  0.838581  0.163417  0.422222  1
  Al  Al19  1  0.675165  0.836583  0.922222  1
  Al  Al20  1  0.838581  0.163417  0.077778  1
  Al  Al21  1  0.161419  0.836583  0.922222  1
  Al  Al22  1  0.559984  0.119967  0.250000  1
  Al  Al23  1  0.440016  0.880033  0.750000  1
  Al  Al24  1  0.877009  0.437124  0.250000  1
  Al  Al25  1  0.122991  0.562876  0.750000  1
  Al  Al26  1  0.560113  0.437124  0.250000  1
  Al  Al27  1  0.439887  0.562876  0.750000  1
  Al  Al28  1  0.002655  0.005310  0.250000  1
  Al  Al29  1  0.997345  0.994690  0.750000  1
  Os  Os30  1  0.000000  0.500000  0.000000  1
  Os  Os31  1  0.500000  0.500000  0.000000  1
  Os  Os32  1  0.000000  0.500000  0.500000  1
  Os  Os33  1  0.500000  0.500000  0.500000  1
  Os  Os34  1  0.000000  0.000000  0.000000  1
  Os  Os35  1  0.000000  0.000000  0.500000  1
  Rh  Rh36  1  0.500000  0.000000  0.000000  1
  Rh  Rh37  1  0.500000  0.000000  0.500000  1
