# generated using pymatgen
data_Nd6DyErAu4
_symmetry_space_group_name_H-M   'P 1'
_cell_length_a   5.03702000
_cell_length_b   7.33004445
_cell_length_c   9.23222749
_cell_angle_alpha   89.95395183
_cell_angle_beta   90.00000000
_cell_angle_gamma   90.00000000
_symmetry_Int_Tables_number   1
_chemical_formula_structural   Nd6DyErAu4
_chemical_formula_sum   'Nd6 Dy1 Er1 Au4'
_cell_volume   340.86832040
_cell_formula_units_Z   1
loop_
 _symmetry_equiv_pos_site_id
 _symmetry_equiv_pos_as_xyz
  1  'x, y, z'
loop_
 _atom_site_type_symbol
 _atom_site_label
 _atom_site_symmetry_multiplicity
 _atom_site_fract_x
 _atom_site_fract_y
 _atom_site_fract_z
 _atom_site_occupancy
  Nd  Nd0  1  0.250000  0.347498  0.588222  1
  Nd  Nd1  1  0.750000  0.652223  0.411697  1
  Nd  Nd2  1  0.250000  0.491577  0.175652  1
  Nd  Nd3  1  0.250000  0.991989  0.323453  1
  Nd  Nd4  1  0.750000  0.510293  0.822874  1
  Nd  Nd5  1  0.750000  0.007362  0.676759  1
  Dy  Dy6  1  0.750000  0.149680  0.079457  1
  Er  Er7  1  0.250000  0.851181  0.920932  1
  Au  Au8  1  0.250000  0.244035  0.910852  1
  Au  Au9  1  0.250000  0.756817  0.608372  1
  Au  Au10  1  0.750000  0.754520  0.087292  1
  Au  Au11  1  0.750000  0.242824  0.394436  1
