# generated using pymatgen
data_KCeNiS3
_symmetry_space_group_name_H-M   'P 1'
_cell_length_a   7.20798023
_cell_length_b   7.20798030
_cell_length_c   10.59564443
_cell_angle_alpha   89.91175668
_cell_angle_beta   90.08824337
_cell_angle_gamma   147.76574807
_symmetry_Int_Tables_number   1
_chemical_formula_structural   KCeNiS3
_chemical_formula_sum   'K2 Ce2 Ni2 S6'
_cell_volume   293.62456440
_cell_formula_units_Z   2
loop_
 _symmetry_equiv_pos_site_id
 _symmetry_equiv_pos_as_xyz
  1  'x, y, z'
loop_
 _atom_site_type_symbol
 _atom_site_label
 _atom_site_symmetry_multiplicity
 _atom_site_fract_x
 _atom_site_fract_y
 _atom_site_fract_z
 _atom_site_occupancy
  K  K0  1  0.257732  0.742269  0.250002  1
  K  K1  1  0.742269  0.257732  0.749998  1
  Ce  Ce2  1  0.000000  0.000000  0.000000  1
  Ce  Ce3  1  0.000000  0.000000  0.500000  1
  Ni  Ni4  1  0.531387  0.468614  0.249943  1
  Ni  Ni5  1  0.468614  0.531387  0.750057  1
  S  S6  1  0.623290  0.376711  0.072135  1
  S  S7  1  0.946756  0.053244  0.249660  1
  S  S8  1  0.623545  0.376456  0.427709  1
  S  S9  1  0.376456  0.623545  0.572290  1
  S  S10  1  0.053244  0.946756  0.750340  1
  S  S11  1  0.376711  0.623290  0.927865  1
