# generated using pymatgen
data_CaZr3(Al3Ir)6
_symmetry_space_group_name_H-M   'P 1'
_cell_length_a   7.50012263
_cell_length_b   7.49778696
_cell_length_c   9.36500300
_cell_angle_alpha   90.00000000
_cell_angle_beta   90.00000000
_cell_angle_gamma   119.67090358
_symmetry_Int_Tables_number   1
_chemical_formula_structural   CaZr3(Al3Ir)6
_chemical_formula_sum   'Ca1 Zr3 Al18 Ir6'
_cell_volume   457.58384869
_cell_formula_units_Z   1
loop_
 _symmetry_equiv_pos_site_id
 _symmetry_equiv_pos_as_xyz
  1  'x, y, z'
loop_
 _atom_site_type_symbol
 _atom_site_label
 _atom_site_symmetry_multiplicity
 _atom_site_fract_x
 _atom_site_fract_y
 _atom_site_fract_z
 _atom_site_occupancy
  Ca  Ca0  1  0.328361  0.005520  0.750000  1
  Zr  Zr1  1  0.995526  0.672562  0.250000  1
  Zr  Zr2  1  0.006198  0.329578  0.750000  1
  Zr  Zr3  1  0.669779  0.993557  0.250000  1
  Al  Al4  1  0.122470  0.123624  0.250000  1
  Al  Al5  1  0.871758  0.876843  0.750000  1
  Al  Al6  1  0.998129  0.334392  0.077542  1
  Al  Al7  1  0.000514  0.663885  0.926266  1
  Al  Al8  1  0.000514  0.663885  0.573734  1
  Al  Al9  1  0.335178  0.999343  0.421455  1
  Al  Al10  1  0.998129  0.334392  0.422458  1
  Al  Al11  1  0.666662  0.001837  0.573941  1
  Al  Al12  1  0.666662  0.001837  0.926059  1
  Al  Al13  1  0.335178  0.999343  0.078545  1
  Al  Al14  1  0.331662  0.332586  0.555549  1
  Al  Al15  1  0.668442  0.667923  0.440438  1
  Al  Al16  1  0.668442  0.667923  0.059562  1
  Al  Al17  1  0.331662  0.332586  0.944451  1
  Al  Al18  1  0.337627  0.552008  0.250000  1
  Al  Al19  1  0.668245  0.452430  0.750000  1
  Al  Al20  1  0.553725  0.339270  0.250000  1
  Al  Al21  1  0.445091  0.654047  0.750000  1
  Ir  Ir22  1  0.673830  0.329450  0.001932  1
  Ir  Ir23  1  0.328456  0.672166  0.002806  1
  Ir  Ir24  1  0.328456  0.672166  0.497194  1
  Ir  Ir25  1  0.673830  0.329450  0.498068  1
  Ir  Ir26  1  0.997736  0.998697  0.002073  1
  Ir  Ir27  1  0.997736  0.998697  0.497927  1
