# generated using pymatgen
data_TbYb3Sm4(B6Ru)4
_symmetry_space_group_name_H-M   'P 1'
_cell_length_a   3.71063300
_cell_length_b   9.15024191
_cell_length_c   11.55482215
_cell_angle_alpha   90.05109278
_cell_angle_beta   90.00000000
_cell_angle_gamma   90.00000000
_symmetry_Int_Tables_number   1
_chemical_formula_structural   TbYb3Sm4(B6Ru)4
_chemical_formula_sum   'Tb1 Yb3 Sm4 B24 Ru4'
_cell_volume   392.32291107
_cell_formula_units_Z   1
loop_
 _symmetry_equiv_pos_site_id
 _symmetry_equiv_pos_as_xyz
  1  'x, y, z'
loop_
 _atom_site_type_symbol
 _atom_site_label
 _atom_site_symmetry_multiplicity
 _atom_site_fract_x
 _atom_site_fract_y
 _atom_site_fract_z
 _atom_site_occupancy
  Tb  Tb0  1  0.000000  0.941982  0.369660  1
  Yb  Yb1  1  0.000000  0.058811  0.632566  1
  Yb  Yb2  1  0.000000  0.440953  0.131950  1
  Yb  Yb3  1  0.000000  0.558900  0.867231  1
  Sm  Sm4  1  0.000000  0.322586  0.415819  1
  Sm  Sm5  1  0.000000  0.677358  0.587594  1
  Sm  Sm6  1  0.000000  0.820645  0.083545  1
  Sm  Sm7  1  0.000000  0.178295  0.912717  1
  B  B8  1  0.500000  0.554699  0.431590  1
  B  B9  1  0.500000  0.444711  0.568961  1
  B  B10  1  0.500000  0.055203  0.068033  1
  B  B11  1  0.500000  0.944768  0.931127  1
  B  B12  1  0.500000  0.748419  0.417345  1
  B  B13  1  0.500000  0.250113  0.583559  1
  B  B14  1  0.500000  0.250475  0.083343  1
  B  B15  1  0.500000  0.749642  0.916372  1
  B  B16  1  0.500000  0.788200  0.265057  1
  B  B17  1  0.500000  0.210915  0.734353  1
  B  B18  1  0.500000  0.290327  0.234551  1
  B  B19  1  0.500000  0.710819  0.765579  1
  B  B20  1  0.500000  0.627423  0.185052  1
  B  B21  1  0.500000  0.372160  0.814267  1
  B  B22  1  0.500000  0.129949  0.314145  1
  B  B23  1  0.500000  0.871810  0.685987  1
  B  B24  1  0.500000  0.983820  0.211654  1
  B  B25  1  0.500000  0.016564  0.787432  1
  B  B26  1  0.500000  0.483012  0.287309  1
  B  B27  1  0.500000  0.516743  0.712539  1
  B  B28  1  0.500000  0.594674  0.026230  1
  B  B29  1  0.500000  0.405170  0.973433  1
  B  B30  1  0.500000  0.099184  0.473613  1
  B  B31  1  0.500000  0.901830  0.528312  1
  Ru  Ru32  1  0.000000  0.637717  0.319390  1
  Ru  Ru33  1  0.000000  0.361816  0.680131  1
  Ru  Ru34  1  0.000000  0.138175  0.179106  1
  Ru  Ru35  1  0.000000  0.862132  0.820449  1
