# generated using pymatgen
data_La3Nd5(Sn4Pt3)4
_symmetry_space_group_name_H-M   'P 1'
_cell_length_a   14.77456900
_cell_length_b   14.77456954
_cell_length_c   4.43941900
_cell_angle_alpha   90.00000000
_cell_angle_beta   90.00000000
_cell_angle_gamma   119.99999654
_symmetry_Int_Tables_number   1
_chemical_formula_structural   La3Nd5(Sn4Pt3)4
_chemical_formula_sum   'La3 Nd5 Sn16 Pt12'
_cell_volume   839.24051273
_cell_formula_units_Z   1
loop_
 _symmetry_equiv_pos_site_id
 _symmetry_equiv_pos_as_xyz
  1  'x, y, z'
loop_
 _atom_site_type_symbol
 _atom_site_label
 _atom_site_symmetry_multiplicity
 _atom_site_fract_x
 _atom_site_fract_y
 _atom_site_fract_z
 _atom_site_occupancy
  La  La0  1  0.182724  0.000000  0.500000  1
  La  La1  1  0.817276  0.817276  0.500000  1
  La  La2  1  0.000000  0.182724  0.500000  1
  Nd  Nd3  1  0.666667  0.333333  0.000000  1
  Nd  Nd4  1  0.333333  0.666667  0.000000  1
  Nd  Nd5  1  0.564382  0.000000  0.000000  1
  Nd  Nd6  1  0.435618  0.435618  0.000000  1
  Nd  Nd7  1  0.000000  0.564382  0.000000  1
  Sn  Sn8  1  0.496806  0.127395  0.500000  1
  Sn  Sn9  1  0.872605  0.369411  0.500000  1
  Sn  Sn10  1  0.630589  0.503194  0.500000  1
  Sn  Sn11  1  0.503194  0.630589  0.500000  1
  Sn  Sn12  1  0.369411  0.872605  0.500000  1
  Sn  Sn13  1  0.127395  0.496806  0.500000  1
  Sn  Sn14  1  0.373730  0.185644  0.000000  1
  Sn  Sn15  1  0.814356  0.188087  0.000000  1
  Sn  Sn16  1  0.811913  0.626270  0.000000  1
  Sn  Sn17  1  0.626270  0.811913  0.000000  1
  Sn  Sn18  1  0.000000  0.000000  0.000000  1
  Sn  Sn19  1  0.188087  0.814356  0.000000  1
  Sn  Sn20  1  0.722814  0.000000  0.500000  1
  Sn  Sn21  1  0.277186  0.277186  0.500000  1
  Sn  Sn22  1  0.000000  0.722814  0.500000  1
  Sn  Sn23  1  0.185644  0.373730  0.000000  1
  Pt  Pt24  1  0.000000  0.365408  0.000000  1
  Pt  Pt25  1  0.365408  0.000000  0.000000  1
  Pt  Pt26  1  0.478292  0.300387  0.500000  1
  Pt  Pt27  1  0.699613  0.177906  0.500000  1
  Pt  Pt28  1  0.822094  0.521708  0.500000  1
  Pt  Pt29  1  0.521708  0.822094  0.500000  1
  Pt  Pt30  1  0.177906  0.699613  0.500000  1
  Pt  Pt31  1  0.300387  0.478292  0.500000  1
  Pt  Pt32  1  0.000000  0.820668  0.000000  1
  Pt  Pt33  1  0.179332  0.179332  0.000000  1
  Pt  Pt34  1  0.820668  0.000000  0.000000  1
  Pt  Pt35  1  0.634592  0.634592  0.000000  1
