# generated using pymatgen
data_Th8AlCo4Si11
_symmetry_space_group_name_H-M   'P 1'
_cell_length_a   8.08718100
_cell_length_b   8.08718226
_cell_length_c   8.29079100
_cell_angle_alpha   89.99975203
_cell_angle_beta   90.00024797
_cell_angle_gamma   119.99045241
_symmetry_Int_Tables_number   1
_chemical_formula_structural   Th8AlCo4Si11
_chemical_formula_sum   'Th8 Al1 Co4 Si11'
_cell_volume   469.63750028
_cell_formula_units_Z   1
loop_
 _symmetry_equiv_pos_site_id
 _symmetry_equiv_pos_as_xyz
  1  'x, y, z'
loop_
 _atom_site_type_symbol
 _atom_site_label
 _atom_site_symmetry_multiplicity
 _atom_site_fract_x
 _atom_site_fract_y
 _atom_site_fract_z
 _atom_site_occupancy
  Th  Th0  1  0.500904  0.499096  0.750937  1
  Th  Th1  1  0.501048  0.498952  0.249066  1
  Th  Th2  1  0.001631  0.502288  0.749243  1
  Th  Th3  1  0.001332  0.502123  0.250757  1
  Th  Th4  1  0.497712  0.998369  0.749243  1
  Th  Th5  1  0.497877  0.998668  0.250757  1
  Th  Th6  1  0.001131  0.998869  0.748883  1
  Th  Th7  1  0.001109  0.998891  0.251110  1
  Al  Al8  1  0.828654  0.171346  0.999869  1
  Co  Co9  1  0.662173  0.337827  0.999814  1
  Co  Co10  1  0.332844  0.667156  0.000192  1
  Co  Co11  1  0.333050  0.666950  0.499832  1
  Co  Co12  1  0.666705  0.333295  0.500183  1
  Si  Si13  1  0.170788  0.829212  0.000101  1
  Si  Si14  1  0.341160  0.170245  0.999906  1
  Si  Si15  1  0.170896  0.829104  0.499886  1
  Si  Si16  1  0.658025  0.826301  0.000096  1
  Si  Si17  1  0.829150  0.170850  0.500119  1
  Si  Si18  1  0.829755  0.658840  0.999906  1
  Si  Si19  1  0.658119  0.828790  0.499898  1
  Si  Si20  1  0.173699  0.341975  0.000096  1
  Si  Si21  1  0.342237  0.171210  0.500104  1
  Si  Si22  1  0.171210  0.341881  0.499898  1
  Si  Si23  1  0.828790  0.657763  0.500104  1
