# generated using pymatgen
data_Ti10Ga2SnSb5
_symmetry_space_group_name_H-M   'P 1'
_cell_length_a   8.24150166
_cell_length_b   8.21764928
_cell_length_c   5.53611200
_cell_angle_alpha   90.00000000
_cell_angle_beta   90.00000000
_cell_angle_gamma   119.90430222
_symmetry_Int_Tables_number   1
_chemical_formula_structural   Ti10Ga2SnSb5
_chemical_formula_sum   'Ti10 Ga2 Sn1 Sb5'
_cell_volume   325.01802048
_cell_formula_units_Z   1
loop_
 _symmetry_equiv_pos_site_id
 _symmetry_equiv_pos_as_xyz
  1  'x, y, z'
loop_
 _atom_site_type_symbol
 _atom_site_label
 _atom_site_symmetry_multiplicity
 _atom_site_fract_x
 _atom_site_fract_y
 _atom_site_fract_z
 _atom_site_occupancy
  Ti  Ti0  1  0.731735  0.731381  0.750000  1
  Ti  Ti1  1  0.268265  0.999646  0.750000  1
  Ti  Ti2  1  0.000000  0.267506  0.750000  1
  Ti  Ti3  1  0.270629  0.269681  0.250000  1
  Ti  Ti4  1  0.729371  0.999051  0.250000  1
  Ti  Ti5  1  0.000000  0.731692  0.250000  1
  Ti  Ti6  1  0.665744  0.333300  0.000341  1
  Ti  Ti7  1  0.334256  0.667558  0.000341  1
  Ti  Ti8  1  0.334256  0.667558  0.499659  1
  Ti  Ti9  1  0.665744  0.333300  0.499659  1
  Ga  Ga10  1  0.000000  0.001161  0.001180  1
  Ga  Ga11  1  0.000000  0.001161  0.498820  1
  Sn  Sn12  1  0.000000  0.386400  0.250000  1
  Sb  Sb13  1  0.388090  0.388677  0.750000  1
  Sb  Sb14  1  0.611910  0.000587  0.750000  1
  Sb  Sb15  1  0.000000  0.609146  0.750000  1
  Sb  Sb16  1  0.611987  0.612090  0.250000  1
  Sb  Sb17  1  0.388013  0.000103  0.250000  1
