# generated using pymatgen
data_Dy4(Ga8Pt3)3
_symmetry_space_group_name_H-M   'P 1'
_cell_length_a   7.50622694
_cell_length_b   7.59064624
_cell_length_c   13.37908655
_cell_angle_alpha   84.75691298
_cell_angle_beta   79.56460727
_cell_angle_gamma   60.22511948
_symmetry_Int_Tables_number   1
_chemical_formula_structural   Dy4(Ga8Pt3)3
_chemical_formula_sum   'Dy4 Ga24 Pt9'
_cell_volume   650.72012332
_cell_formula_units_Z   1
loop_
 _symmetry_equiv_pos_site_id
 _symmetry_equiv_pos_as_xyz
  1  'x, y, z'
loop_
 _atom_site_type_symbol
 _atom_site_label
 _atom_site_symmetry_multiplicity
 _atom_site_fract_x
 _atom_site_fract_y
 _atom_site_fract_z
 _atom_site_occupancy
  Dy  Dy0  1  0.392963  0.169141  0.811629  1
  Dy  Dy1  1  0.607037  0.830859  0.188371  1
  Dy  Dy2  1  0.732420  0.497103  0.812037  1
  Dy  Dy3  1  0.267580  0.502897  0.187963  1
  Ga  Ga4  1  0.685534  0.833864  0.938554  1
  Ga  Ga5  1  0.314466  0.166136  0.061446  1
  Ga  Ga6  1  0.145800  0.833041  0.558451  1
  Ga  Ga7  1  0.854200  0.166959  0.441549  1
  Ga  Ga8  1  0.477939  0.166962  0.555615  1
  Ga  Ga9  1  0.522061  0.833038  0.444385  1
  Ga  Ga10  1  0.220926  0.165417  0.322839  1
  Ga  Ga11  1  0.779074  0.834583  0.677161  1
  Ga  Ga12  1  0.437772  0.503212  0.676138  1
  Ga  Ga13  1  0.562228  0.496788  0.323862  1
  Ga  Ga14  1  0.106435  0.164143  0.675752  1
  Ga  Ga15  1  0.893565  0.835857  0.324248  1
  Ga  Ga16  1  0.357600  0.498082  0.938726  1
  Ga  Ga17  1  0.642400  0.501918  0.061274  1
  Ga  Ga18  1  0.020159  0.169536  0.943035  1
  Ga  Ga19  1  0.979841  0.830464  0.056965  1
  Ga  Ga20  1  0.187229  0.499170  0.443386  1
  Ga  Ga21  1  0.812771  0.500830  0.556614  1
  Ga  Ga22  1  0.733812  0.163841  0.181950  1
  Ga  Ga23  1  0.266188  0.836159  0.818050  1
  Ga  Ga24  1  0.060734  0.630770  0.817371  1
  Ga  Ga25  1  0.939266  0.369230  0.182629  1
  Ga  Ga26  1  0.855547  0.040168  0.817135  1
  Ga  Ga27  1  0.144453  0.959832  0.182865  1
  Pt  Pt28  1  0.117167  0.496209  0.639027  1
  Pt  Pt29  1  0.882833  0.503791  0.360973  1
  Pt  Pt30  1  0.660300  0.169718  0.999163  1
  Pt  Pt31  1  0.339700  0.830282  0.000837  1
  Pt  Pt32  1  0.541374  0.166773  0.360151  1
  Pt  Pt33  1  0.458626  0.833227  0.639849  1
  Pt  Pt34  1  0.779387  0.171554  0.637232  1
  Pt  Pt35  1  0.220613  0.828446  0.362768  1
  Pt  Pt36  1  0.000000  0.500000  0.000000  1
