# generated using pymatgen
data_Ho17Tm3(Bi2As)4
_symmetry_space_group_name_H-M   'P 1'
_cell_length_a   8.01287805
_cell_length_b   9.11149104
_cell_length_c   12.01958512
_cell_angle_alpha   89.98952132
_cell_angle_beta   89.98765588
_cell_angle_gamma   89.99604509
_symmetry_Int_Tables_number   1
_chemical_formula_structural   Ho17Tm3(Bi2As)4
_chemical_formula_sum   'Ho17 Tm3 Bi8 As4'
_cell_volume   877.54105728
_cell_formula_units_Z   1
loop_
 _symmetry_equiv_pos_site_id
 _symmetry_equiv_pos_as_xyz
  1  'x, y, z'
loop_
 _atom_site_type_symbol
 _atom_site_label
 _atom_site_symmetry_multiplicity
 _atom_site_fract_x
 _atom_site_fract_y
 _atom_site_fract_z
 _atom_site_occupancy
  Ho  Ho0  1  0.317133  0.443639  0.437074  1
  Ho  Ho1  1  0.182886  0.443574  0.937133  1
  Ho  Ho2  1  0.317131  0.056289  0.437101  1
  Ho  Ho3  1  0.817070  0.943453  0.062851  1
  Ho  Ho4  1  0.682971  0.556474  0.562918  1
  Ho  Ho5  1  0.156309  0.749861  0.210746  1
  Ho  Ho6  1  0.343652  0.750117  0.710761  1
  Ho  Ho7  1  0.843655  0.249836  0.789219  1
  Ho  Ho8  1  0.656351  0.250023  0.289152  1
  Ho  Ho9  1  0.463824  0.750052  0.999957  1
  Ho  Ho10  1  0.036102  0.750096  0.499960  1
  Ho  Ho11  1  0.536216  0.250010  0.000003  1
  Ho  Ho12  1  0.963611  0.249964  0.500071  1
  Ho  Ho13  1  0.634419  0.749920  0.292662  1
  Ho  Ho14  1  0.865629  0.750104  0.792715  1
  Ho  Ho15  1  0.365654  0.249854  0.707430  1
  Ho  Ho16  1  0.134309  0.249969  0.207193  1
  Tm  Tm17  1  0.817354  0.556748  0.062923  1
  Tm  Tm18  1  0.682655  0.943326  0.562912  1
  Tm  Tm19  1  0.182605  0.056645  0.937025  1
  Bi  Bi20  1  0.925454  0.509977  0.326728  1
  Bi  Bi21  1  0.574530  0.989949  0.826770  1
  Bi  Bi22  1  0.074487  0.009985  0.673257  1
  Bi  Bi23  1  0.425547  0.489940  0.173141  1
  Bi  Bi24  1  0.074434  0.490035  0.673221  1
  Bi  Bi25  1  0.425603  0.009918  0.173104  1
  Bi  Bi26  1  0.925579  0.990038  0.326864  1
  Bi  Bi27  1  0.574404  0.509937  0.826905  1
  As  As28  1  0.413063  0.750334  0.478634  1
  As  As29  1  0.087153  0.750272  0.978489  1
  As  As30  1  0.587395  0.249390  0.521582  1
  As  As31  1  0.912815  0.250273  0.021498  1
