# generated using pymatgen
data_Eu3MnMoC6
_symmetry_space_group_name_H-M   'P 1'
_cell_length_a   8.30725800
_cell_length_b   8.30725846
_cell_length_c   5.17766200
_cell_angle_alpha   90.00000000
_cell_angle_beta   90.00000000
_cell_angle_gamma   119.99999815
_symmetry_Int_Tables_number   1
_chemical_formula_structural   Eu3MnMoC6
_chemical_formula_sum   'Eu6 Mn2 Mo2 C12'
_cell_volume   309.44235488
_cell_formula_units_Z   2
loop_
 _symmetry_equiv_pos_site_id
 _symmetry_equiv_pos_as_xyz
  1  'x, y, z'
loop_
 _atom_site_type_symbol
 _atom_site_label
 _atom_site_symmetry_multiplicity
 _atom_site_fract_x
 _atom_site_fract_y
 _atom_site_fract_z
 _atom_site_occupancy
  Eu  Eu0  1  0.606393  0.681992  0.750000  1
  Eu  Eu1  1  0.924402  0.606393  0.250000  1
  Eu  Eu2  1  0.681992  0.075598  0.250000  1
  Eu  Eu3  1  0.318008  0.924402  0.750000  1
  Eu  Eu4  1  0.075598  0.393607  0.750000  1
  Eu  Eu5  1  0.393607  0.318008  0.250000  1
  Mn  Mn6  1  0.666667  0.333333  0.750000  1
  Mn  Mn7  1  0.333333  0.666667  0.250000  1
  Mo  Mo8  1  0.000000  0.000000  0.500000  1
  Mo  Mo9  1  0.000000  0.000000  0.000000  1
  C  C10  1  0.951007  0.760445  0.750000  1
  C  C11  1  0.190562  0.951007  0.250000  1
  C  C12  1  0.760445  0.809438  0.250000  1
  C  C13  1  0.239555  0.190562  0.750000  1
  C  C14  1  0.809438  0.048993  0.750000  1
  C  C15  1  0.048993  0.239555  0.250000  1
  C  C16  1  0.852519  0.571546  0.750000  1
  C  C17  1  0.280973  0.852519  0.250000  1
  C  C18  1  0.571546  0.719027  0.250000  1
  C  C19  1  0.428454  0.280973  0.750000  1
  C  C20  1  0.147481  0.428454  0.250000  1
  C  C21  1  0.719027  0.147481  0.750000  1
