# generated using pymatgen
data_GdI15
_symmetry_space_group_name_H-M   'P 1'
_cell_length_a   4.54709339
_cell_length_b   13.51162235
_cell_length_c   17.10366800
_cell_angle_alpha   61.51454206
_cell_angle_beta   97.19821025
_cell_angle_gamma   97.06775377
_symmetry_Int_Tables_number   1
_chemical_formula_structural   GdI15
_chemical_formula_sum   'Gd1 I15'
_cell_volume   913.91531709
_cell_formula_units_Z   1
loop_
 _symmetry_equiv_pos_site_id
 _symmetry_equiv_pos_as_xyz
  1  'x, y, z'
loop_
 _atom_site_type_symbol
 _atom_site_label
 _atom_site_symmetry_multiplicity
 _atom_site_fract_x
 _atom_site_fract_y
 _atom_site_fract_z
 _atom_site_occupancy
  Gd  Gd0  1  0.174064  0.457726  0.996249  1
  I  I1  1  0.054996  0.434471  0.490733  1
  I  I2  1  0.275481  0.013292  0.502473  1
  I  I3  1  0.762815  0.972480  0.030683  1
  I  I4  1  0.122629  0.338032  0.378532  1
  I  I5  1  0.811276  0.233383  0.632809  1
  I  I6  1  0.038537  0.809563  0.201297  1
  I  I7  1  0.170284  0.709722  0.857563  1
  I  I8  1  0.735376  0.483711  0.108233  1
  I  I9  1  0.473879  0.835646  0.949991  1
  I  I10  1  0.205582  0.118431  0.310589  1
  I  I11  1  0.949493  0.532499  0.621011  1
  I  I12  1  0.613584  0.426863  0.884458  1
  I  I13  1  0.134648  0.199355  0.113115  1
  I  I14  1  0.114932  0.770671  0.553655  1
  I  I15  1  0.362421  0.664153  0.368608  1
