# generated using pymatgen
data_Nd9Ho11Pb16
_symmetry_space_group_name_H-M   'P 1'
_cell_length_a   8.27866050
_cell_length_b   8.40006948
_cell_length_c   15.82168075
_cell_angle_alpha   90.00982622
_cell_angle_beta   90.13349220
_cell_angle_gamma   90.27002107
_symmetry_Int_Tables_number   1
_chemical_formula_structural   Nd9Ho11Pb16
_chemical_formula_sum   'Nd9 Ho11 Pb16'
_cell_volume   1100.24539534
_cell_formula_units_Z   1
loop_
 _symmetry_equiv_pos_site_id
 _symmetry_equiv_pos_as_xyz
  1  'x, y, z'
loop_
 _atom_site_type_symbol
 _atom_site_label
 _atom_site_symmetry_multiplicity
 _atom_site_fract_x
 _atom_site_fract_y
 _atom_site_fract_z
 _atom_site_occupancy
  Nd  Nd0  1  0.128838  0.339501  0.619636  1
  Nd  Nd1  1  0.472845  0.679619  0.598221  1
  Nd  Nd2  1  0.973907  0.821722  0.903375  1
  Nd  Nd3  1  0.526420  0.321721  0.097987  1
  Nd  Nd4  1  0.028067  0.176508  0.399739  1
  Nd  Nd5  1  0.525842  0.322495  0.401151  1
  Nd  Nd6  1  0.026516  0.177870  0.098202  1
  Nd  Nd7  1  0.474677  0.678877  0.902743  1
  Nd  Nd8  1  0.972528  0.822402  0.598377  1
  Ho  Ho9  1  0.631623  0.159227  0.622339  1
  Ho  Ho10  1  0.131399  0.341560  0.878577  1
  Ho  Ho11  1  0.368014  0.841914  0.121836  1
  Ho  Ho12  1  0.869329  0.657858  0.378076  1
  Ho  Ho13  1  0.370167  0.842289  0.376202  1
  Ho  Ho14  1  0.868483  0.658833  0.122130  1
  Ho  Ho15  1  0.631106  0.157871  0.879767  1
  Ho  Ho16  1  0.795948  0.494943  0.750706  1
  Ho  Ho17  1  0.297761  0.004280  0.750922  1
  Ho  Ho18  1  0.203607  0.505449  0.248831  1
  Ho  Ho19  1  0.703622  0.995480  0.250194  1
  Pb  Pb20  1  0.709855  0.960793  0.456752  1
  Pb  Pb21  1  0.208544  0.539240  0.043208  1
  Pb  Pb22  1  0.291004  0.039527  0.957135  1
  Pb  Pb23  1  0.783312  0.463995  0.542813  1
  Pb  Pb24  1  0.294251  0.033352  0.542509  1
  Pb  Pb25  1  0.791790  0.461109  0.957009  1
  Pb  Pb26  1  0.708832  0.960053  0.043931  1
  Pb  Pb27  1  0.210667  0.541889  0.453275  1
  Pb  Pb28  1  0.435607  0.371282  0.752237  1
  Pb  Pb29  1  0.932334  0.125627  0.751860  1
  Pb  Pb30  1  0.566038  0.628720  0.249562  1
  Pb  Pb31  1  0.065274  0.870924  0.249774  1
  Pb  Pb32  1  0.662778  0.850885  0.750675  1
  Pb  Pb33  1  0.161574  0.651536  0.751240  1
  Pb  Pb34  1  0.338488  0.150376  0.249369  1
  Pb  Pb35  1  0.838952  0.350275  0.249641  1
