# generated using pymatgen
data_Ho3Zr2Sn3S
_symmetry_space_group_name_H-M   'P 1'
_cell_length_a   8.89806900
_cell_length_b   8.89806942
_cell_length_c   6.23735400
_cell_angle_alpha   90.00000000
_cell_angle_beta   90.00000000
_cell_angle_gamma   120.00000214
_symmetry_Int_Tables_number   1
_chemical_formula_structural   Ho3Zr2Sn3S
_chemical_formula_sum   'Ho6 Zr4 Sn6 S2'
_cell_volume   427.68357769
_cell_formula_units_Z   2
loop_
 _symmetry_equiv_pos_site_id
 _symmetry_equiv_pos_as_xyz
  1  'x, y, z'
loop_
 _atom_site_type_symbol
 _atom_site_label
 _atom_site_symmetry_multiplicity
 _atom_site_fract_x
 _atom_site_fract_y
 _atom_site_fract_z
 _atom_site_occupancy
  Ho  Ho0  1  0.751099  0.751099  0.750000  1
  Ho  Ho1  1  0.248901  0.000000  0.750000  1
  Ho  Ho2  1  0.000000  0.248901  0.750000  1
  Ho  Ho3  1  0.248901  0.248901  0.250000  1
  Ho  Ho4  1  0.751099  0.000000  0.250000  1
  Ho  Ho5  1  0.000000  0.751099  0.250000  1
  Zr  Zr6  1  0.666667  0.333333  0.000000  1
  Zr  Zr7  1  0.333333  0.666667  0.000000  1
  Zr  Zr8  1  0.333333  0.666667  0.500000  1
  Zr  Zr9  1  0.666667  0.333333  0.500000  1
  Sn  Sn10  1  0.400969  0.400969  0.750000  1
  Sn  Sn11  1  0.599031  0.000000  0.750000  1
  Sn  Sn12  1  0.000000  0.599031  0.750000  1
  Sn  Sn13  1  0.599031  0.599031  0.250000  1
  Sn  Sn14  1  0.400969  0.000000  0.250000  1
  Sn  Sn15  1  0.000000  0.400969  0.250000  1
  S  S16  1  0.000000  0.000000  0.000000  1
  S  S17  1  0.000000  0.000000  0.500000  1
