# generated using pymatgen
data_YHo7(TmBi)12
_symmetry_space_group_name_H-M   'P 1'
_cell_length_a   8.19386829
_cell_length_b   9.45834000
_cell_length_c   11.97133142
_cell_angle_alpha   90.00000000
_cell_angle_beta   89.96956895
_cell_angle_gamma   90.00000000
_symmetry_Int_Tables_number   1
_chemical_formula_structural   YHo7(TmBi)12
_chemical_formula_sum   'Y1 Ho7 Tm12 Bi12'
_cell_volume   927.78274941
_cell_formula_units_Z   1
loop_
 _symmetry_equiv_pos_site_id
 _symmetry_equiv_pos_as_xyz
  1  'x, y, z'
loop_
 _atom_site_type_symbol
 _atom_site_label
 _atom_site_symmetry_multiplicity
 _atom_site_fract_x
 _atom_site_fract_y
 _atom_site_fract_z
 _atom_site_occupancy
  Y  Y0  1  0.146242  0.250000  0.716159  1
  Ho  Ho1  1  0.186515  0.750000  0.718480  1
  Ho  Ho2  1  0.686583  0.750000  0.781590  1
  Ho  Ho3  1  0.813420  0.250000  0.281466  1
  Ho  Ho4  1  0.313458  0.250000  0.218396  1
  Ho  Ho5  1  0.353971  0.750000  0.216520  1
  Ho  Ho6  1  0.853908  0.750000  0.283461  1
  Ho  Ho7  1  0.646186  0.250000  0.783635  1
  Tm  Tm8  1  0.024836  0.750000  0.988912  1
  Tm  Tm9  1  0.524872  0.750000  0.511099  1
  Tm  Tm10  1  0.975011  0.250000  0.011346  1
  Tm  Tm11  1  0.475138  0.250000  0.488806  1
  Tm  Tm12  1  0.307245  0.434811  0.940776  1
  Tm  Tm13  1  0.806902  0.065307  0.559480  1
  Tm  Tm14  1  0.692922  0.934638  0.059547  1
  Tm  Tm15  1  0.192920  0.565400  0.440406  1
  Tm  Tm16  1  0.692922  0.565362  0.059547  1
  Tm  Tm17  1  0.192920  0.934600  0.440406  1
  Tm  Tm18  1  0.307245  0.065189  0.940776  1
  Tm  Tm19  1  0.806902  0.434693  0.559480  1
  Bi  Bi20  1  0.433843  0.003663  0.672962  1
  Bi  Bi21  1  0.933147  0.496477  0.827203  1
  Bi  Bi22  1  0.566544  0.503920  0.326995  1
  Bi  Bi23  1  0.066538  0.996128  0.172967  1
  Bi  Bi24  1  0.566544  0.996080  0.326995  1
  Bi  Bi25  1  0.066538  0.503872  0.172967  1
  Bi  Bi26  1  0.433843  0.496337  0.672962  1
  Bi  Bi27  1  0.933147  0.003523  0.827203  1
  Bi  Bi28  1  0.406357  0.750000  0.957460  1
  Bi  Bi29  1  0.906302  0.750000  0.542521  1
  Bi  Bi30  1  0.593692  0.250000  0.042463  1
  Bi  Bi31  1  0.093388  0.250000  0.457012  1
