# generated using pymatgen
data_Ba4Fe4IrPtN6
_symmetry_space_group_name_H-M   'P 1'
_cell_length_a   6.81931751
_cell_length_b   6.81931835
_cell_length_c   6.77563440
_cell_angle_alpha   88.76643228
_cell_angle_beta   88.76643995
_cell_angle_gamma   117.09483465
_symmetry_Int_Tables_number   1
_chemical_formula_structural   Ba4Fe4IrPtN6
_chemical_formula_sum   'Ba4 Fe4 Ir1 Pt1 N6'
_cell_volume   280.26945202
_cell_formula_units_Z   1
loop_
 _symmetry_equiv_pos_site_id
 _symmetry_equiv_pos_as_xyz
  1  'x, y, z'
loop_
 _atom_site_type_symbol
 _atom_site_label
 _atom_site_symmetry_multiplicity
 _atom_site_fract_x
 _atom_site_fract_y
 _atom_site_fract_z
 _atom_site_occupancy
  Ba  Ba0  1  0.840031  0.673544  0.901330  1
  Ba  Ba1  1  0.326456  0.159969  0.598670  1
  Ba  Ba2  1  0.166442  0.329034  0.099943  1
  Ba  Ba3  1  0.670966  0.833558  0.400057  1
  Fe  Fe4  1  0.554570  0.150955  0.109319  1
  Fe  Fe5  1  0.443611  0.845026  0.899510  1
  Fe  Fe6  1  0.849045  0.445430  0.390681  1
  Fe  Fe7  1  0.154974  0.556389  0.600490  1
  Ir  Ir8  1  0.193048  0.806952  0.250000  1
  Pt  Pt9  1  0.808067  0.191933  0.750000  1
  N  N10  1  0.380956  0.619044  0.750000  1
  N  N11  1  0.615601  0.384399  0.250000  1
  N  N12  1  0.014185  0.717751  0.502305  1
  N  N13  1  0.709273  0.009474  0.011411  1
  N  N14  1  0.990526  0.290727  0.488589  1
  N  N15  1  0.282249  0.985815  0.997695  1
