# generated using pymatgen
data_Y3PaAl17GaIr6
_symmetry_space_group_name_H-M   'P 1'
_cell_length_a   7.56952462
_cell_length_b   7.55923665
_cell_length_c   9.45371800
_cell_angle_alpha   90.00000000
_cell_angle_beta   90.00000000
_cell_angle_gamma   119.51480994
_symmetry_Int_Tables_number   1
_chemical_formula_structural   Y3PaAl17GaIr6
_chemical_formula_sum   'Y3 Pa1 Al17 Ga1 Ir6'
_cell_volume   470.74144389
_cell_formula_units_Z   1
loop_
 _symmetry_equiv_pos_site_id
 _symmetry_equiv_pos_as_xyz
  1  'x, y, z'
loop_
 _atom_site_type_symbol
 _atom_site_label
 _atom_site_symmetry_multiplicity
 _atom_site_fract_x
 _atom_site_fract_y
 _atom_site_fract_z
 _atom_site_occupancy
  Y  Y0  1  0.004752  0.328484  0.750000  1
  Y  Y1  1  0.676075  0.993586  0.250000  1
  Y  Y2  1  0.328602  0.004217  0.750000  1
  Pa  Pa3  1  0.994597  0.675438  0.250000  1
  Al  Al4  1  0.871045  0.872479  0.750000  1
  Al  Al5  1  0.001070  0.333388  0.074553  1
  Al  Al6  1  0.998330  0.663841  0.921618  1
  Al  Al7  1  0.998330  0.663841  0.578382  1
  Al  Al8  1  0.339471  0.003738  0.425603  1
  Al  Al9  1  0.001070  0.333388  0.425447  1
  Al  Al10  1  0.664591  0.999505  0.575470  1
  Al  Al11  1  0.664591  0.999505  0.924530  1
  Al  Al12  1  0.339471  0.003738  0.074397  1
  Al  Al13  1  0.332258  0.332296  0.557468  1
  Al  Al14  1  0.662060  0.664741  0.449915  1
  Al  Al15  1  0.662060  0.664741  0.050085  1
  Al  Al16  1  0.332258  0.332296  0.942532  1
  Al  Al17  1  0.337713  0.548664  0.250000  1
  Al  Al18  1  0.659406  0.449553  0.750000  1
  Al  Al19  1  0.548583  0.340793  0.250000  1
  Al  Al20  1  0.450380  0.661073  0.750000  1
  Ga  Ga21  1  0.139479  0.138246  0.250000  1
  Ir  Ir22  1  0.672845  0.329538  0.002101  1
  Ir  Ir23  1  0.325271  0.670843  0.001986  1
  Ir  Ir24  1  0.325271  0.670843  0.498014  1
  Ir  Ir25  1  0.672845  0.329538  0.497899  1
  Ir  Ir26  1  0.998788  0.995845  0.001083  1
  Ir  Ir27  1  0.998788  0.995845  0.498917  1
