# generated using pymatgen
data_SrLi2CaSi2Sb
_symmetry_space_group_name_H-M   'P 1'
_cell_length_a   9.92984273
_cell_length_b   9.92984549
_cell_length_c   7.12809900
_cell_angle_alpha   90.00000000
_cell_angle_beta   90.00000000
_cell_angle_gamma   153.11399802
_symmetry_Int_Tables_number   1
_chemical_formula_structural   SrLi2CaSi2Sb
_chemical_formula_sum   'Sr2 Li4 Ca2 Si4 Sb2'
_cell_volume   317.83761622
_cell_formula_units_Z   2
loop_
 _symmetry_equiv_pos_site_id
 _symmetry_equiv_pos_as_xyz
  1  'x, y, z'
loop_
 _atom_site_type_symbol
 _atom_site_label
 _atom_site_symmetry_multiplicity
 _atom_site_fract_x
 _atom_site_fract_y
 _atom_site_fract_z
 _atom_site_occupancy
  Sr  Sr0  1  0.552480  0.447520  0.250000  1
  Sr  Sr1  1  0.447520  0.552480  0.750000  1
  Li  Li2  1  0.185061  0.814939  0.053105  1
  Li  Li3  1  0.185061  0.814939  0.446895  1
  Li  Li4  1  0.814939  0.185061  0.946895  1
  Li  Li5  1  0.814939  0.185061  0.553105  1
  Ca  Ca6  1  0.345139  0.654861  0.250000  1
  Ca  Ca7  1  0.654861  0.345139  0.750000  1
  Si  Si8  1  0.054410  0.945590  0.917382  1
  Si  Si9  1  0.945590  0.054410  0.082618  1
  Si  Si10  1  0.945590  0.054410  0.417382  1
  Si  Si11  1  0.054410  0.945590  0.582618  1
  Sb  Sb12  1  0.722459  0.277541  0.250000  1
  Sb  Sb13  1  0.277541  0.722459  0.750000  1
