# generated using pymatgen
data_Ti2P2IrRu
_symmetry_space_group_name_H-M   'P 1'
_cell_length_a   3.76060400
_cell_length_b   6.26270800
_cell_length_c   7.14844300
_cell_angle_alpha   90.00000000
_cell_angle_beta   90.00000000
_cell_angle_gamma   90.00000000
_symmetry_Int_Tables_number   1
_chemical_formula_structural   Ti2P2IrRu
_chemical_formula_sum   'Ti4 P4 Ir2 Ru2'
_cell_volume   168.35701822
_cell_formula_units_Z   2
loop_
 _symmetry_equiv_pos_site_id
 _symmetry_equiv_pos_as_xyz
  1  'x, y, z'
loop_
 _atom_site_type_symbol
 _atom_site_label
 _atom_site_symmetry_multiplicity
 _atom_site_fract_x
 _atom_site_fract_y
 _atom_site_fract_z
 _atom_site_occupancy
  Ti  Ti0  1  0.750000  0.524861  0.325408  1
  Ti  Ti1  1  0.250000  0.976813  0.824724  1
  Ti  Ti2  1  0.750000  0.024861  0.174592  1
  Ti  Ti3  1  0.250000  0.476813  0.675276  1
  P  P4  1  0.250000  0.737612  0.118813  1
  P  P5  1  0.250000  0.237612  0.381187  1
  P  P6  1  0.750000  0.266323  0.871683  1
  P  P7  1  0.750000  0.766323  0.628317  1
  Ir  Ir8  1  0.250000  0.346450  0.064208  1
  Ir  Ir9  1  0.250000  0.846450  0.435792  1
  Ru  Ru10  1  0.750000  0.147939  0.559453  1
  Ru  Ru11  1  0.750000  0.647939  0.940547  1
