# generated using pymatgen
data_LaPrGd4Ta2O14
_symmetry_space_group_name_H-M   'P 1'
_cell_length_a   6.58738138
_cell_length_b   6.58738177
_cell_length_c   7.67456703
_cell_angle_alpha   90.00587638
_cell_angle_beta   90.00587529
_cell_angle_gamma   110.58805849
_symmetry_Int_Tables_number   1
_chemical_formula_structural   LaPrGd4Ta2O14
_chemical_formula_sum   'La1 Pr1 Gd4 Ta2 O14'
_cell_volume   311.75756574
_cell_formula_units_Z   1
loop_
 _symmetry_equiv_pos_site_id
 _symmetry_equiv_pos_as_xyz
  1  'x, y, z'
loop_
 _atom_site_type_symbol
 _atom_site_label
 _atom_site_symmetry_multiplicity
 _atom_site_fract_x
 _atom_site_fract_y
 _atom_site_fract_z
 _atom_site_occupancy
  La  La0  1  0.000000  0.000000  0.000000  1
  Pr  Pr1  1  0.000000  0.000000  0.500000  1
  Gd  Gd2  1  0.517816  0.057937  0.250043  1
  Gd  Gd3  1  0.942063  0.482184  0.749957  1
  Gd  Gd4  1  0.057937  0.517816  0.250043  1
  Gd  Gd5  1  0.482184  0.942063  0.749957  1
  Ta  Ta6  1  0.500000  0.500000  0.000000  1
  Ta  Ta7  1  0.500000  0.500000  0.500000  1
  O  O8  1  0.884530  0.158892  0.250585  1
  O  O9  1  0.841108  0.115470  0.749415  1
  O  O10  1  0.817165  0.560313  0.034271  1
  O  O11  1  0.439687  0.182835  0.965729  1
  O  O12  1  0.817489  0.561336  0.465832  1
  O  O13  1  0.438664  0.182511  0.534168  1
  O  O14  1  0.571950  0.571950  0.749991  1
  O  O15  1  0.428050  0.428050  0.250009  1
  O  O16  1  0.182511  0.438664  0.534168  1
  O  O17  1  0.560313  0.817165  0.034271  1
  O  O18  1  0.182835  0.439687  0.965729  1
  O  O19  1  0.561336  0.817489  0.465832  1
  O  O20  1  0.158892  0.884530  0.250585  1
  O  O21  1  0.115470  0.841108  0.749415  1
