# generated using pymatgen
data_La3Cd3PtAu2
_symmetry_space_group_name_H-M   'P 1'
_cell_length_a   8.04930900
_cell_length_b   8.04930918
_cell_length_c   4.04751800
_cell_angle_alpha   90.00000000
_cell_angle_beta   90.00000000
_cell_angle_gamma   120.00000336
_symmetry_Int_Tables_number   1
_chemical_formula_structural   La3Cd3PtAu2
_chemical_formula_sum   'La3 Cd3 Pt1 Au2'
_cell_volume   227.11018699
_cell_formula_units_Z   1
loop_
 _symmetry_equiv_pos_site_id
 _symmetry_equiv_pos_as_xyz
  1  'x, y, z'
loop_
 _atom_site_type_symbol
 _atom_site_label
 _atom_site_symmetry_multiplicity
 _atom_site_fract_x
 _atom_site_fract_y
 _atom_site_fract_z
 _atom_site_occupancy
  La  La0  1  0.419081  0.013743  0.000000  1
  La  La1  1  0.594662  0.580919  0.000000  1
  La  La2  1  0.986257  0.405338  0.000000  1
  Cd  Cd3  1  0.745841  0.999786  0.500000  1
  Cd  Cd4  1  0.253945  0.254159  0.500000  1
  Cd  Cd5  1  0.000214  0.746055  0.500000  1
  Pt  Pt6  1  0.666667  0.333333  0.500000  1
  Au  Au7  1  0.333333  0.666667  0.500000  1
  Au  Au8  1  0.000000  0.000000  0.000000  1
