# generated using pymatgen
data_Pr6Cd23As
_symmetry_space_group_name_H-M   'P 1'
_cell_length_a   10.10328263
_cell_length_b   10.10780224
_cell_length_c   10.10329394
_cell_angle_alpha   60.04248825
_cell_angle_beta   60.04786167
_cell_angle_gamma   60.04260570
_symmetry_Int_Tables_number   1
_chemical_formula_structural   Pr6Cd23As
_chemical_formula_sum   'Pr6 Cd23 As1'
_cell_volume   730.30331121
_cell_formula_units_Z   1
loop_
 _symmetry_equiv_pos_site_id
 _symmetry_equiv_pos_as_xyz
  1  'x, y, z'
loop_
 _atom_site_type_symbol
 _atom_site_label
 _atom_site_symmetry_multiplicity
 _atom_site_fract_x
 _atom_site_fract_y
 _atom_site_fract_z
 _atom_site_occupancy
  Pr  Pr0  1  0.792520  0.792499  0.207247  1
  Pr  Pr1  1  0.207515  0.792707  0.207514  1
  Pr  Pr2  1  0.792756  0.207500  0.207478  1
  Pr  Pr3  1  0.207480  0.207501  0.792753  1
  Pr  Pr4  1  0.792485  0.207293  0.792486  1
  Pr  Pr5  1  0.207244  0.792500  0.792522  1
  Cd  Cd6  1  0.833213  0.833148  0.500471  1
  Cd  Cd7  1  0.833176  0.500461  0.833176  1
  Cd  Cd8  1  0.500471  0.833148  0.833213  1
  Cd  Cd9  1  0.833349  0.833342  0.833349  1
  Cd  Cd10  1  0.166787  0.166852  0.499529  1
  Cd  Cd11  1  0.166824  0.499539  0.166824  1
  Cd  Cd12  1  0.499529  0.166852  0.166787  1
  Cd  Cd13  1  0.166651  0.166658  0.166651  1
  Cd  Cd14  1  0.621886  0.621882  0.134559  1
  Cd  Cd15  1  0.621872  0.134586  0.621872  1
  Cd  Cd16  1  0.134560  0.621882  0.621886  1
  Cd  Cd17  1  0.621744  0.621749  0.621744  1
  Cd  Cd18  1  0.378114  0.378118  0.865441  1
  Cd  Cd19  1  0.378128  0.865414  0.378128  1
  Cd  Cd20  1  0.865440  0.378118  0.378114  1
  Cd  Cd21  1  0.378256  0.378251  0.378256  1
  Cd  Cd22  1  0.000000  0.000000  0.500000  1
  Cd  Cd23  1  0.500000  0.000000  0.500000  1
  Cd  Cd24  1  0.000000  0.500000  0.500000  1
  Cd  Cd25  1  0.500000  0.500000  0.000000  1
  Cd  Cd26  1  0.000000  0.500000  0.000000  1
  Cd  Cd27  1  0.500000  0.000000  0.000000  1
  Cd  Cd28  1  0.500000  0.500000  0.500000  1
  As  As29  1  0.000000  0.000000  0.000000  1
