# generated using pymatgen
data_TbDy5Al24(CoRu3)2
_symmetry_space_group_name_H-M   'P 1'
_cell_length_a   8.75519300
_cell_length_b   8.75377636
_cell_length_c   9.52132400
_cell_angle_alpha   90.00000000
_cell_angle_beta   90.00000000
_cell_angle_gamma   120.00534973
_symmetry_Int_Tables_number   1
_chemical_formula_structural   TbDy5Al24(CoRu3)2
_chemical_formula_sum   'Tb1 Dy5 Al24 Co2 Ru6'
_cell_volume   631.92528445
_cell_formula_units_Z   1
loop_
 _symmetry_equiv_pos_site_id
 _symmetry_equiv_pos_as_xyz
  1  'x, y, z'
loop_
 _atom_site_type_symbol
 _atom_site_label
 _atom_site_symmetry_multiplicity
 _atom_site_fract_x
 _atom_site_fract_y
 _atom_site_fract_z
 _atom_site_occupancy
  Tb  Tb0  1  0.193404  0.386807  0.750000  1
  Dy  Dy1  1  0.387111  0.193553  0.250000  1
  Dy  Dy2  1  0.806441  0.193553  0.250000  1
  Dy  Dy3  1  0.806450  0.612901  0.250000  1
  Dy  Dy4  1  0.612980  0.806522  0.750000  1
  Dy  Dy5  1  0.193542  0.806522  0.750000  1
  Al  Al6  1  0.438675  0.877349  0.250000  1
  Al  Al7  1  0.122646  0.561323  0.250000  1
  Al  Al8  1  0.438677  0.561323  0.250000  1
  Al  Al9  1  0.561323  0.122646  0.750000  1
  Al  Al10  1  0.877194  0.438701  0.750000  1
  Al  Al11  1  0.561506  0.438701  0.750000  1
  Al  Al12  1  0.159832  0.840161  0.423409  1
  Al  Al13  1  0.159829  0.319660  0.423323  1
  Al  Al14  1  0.680326  0.840161  0.423409  1
  Al  Al15  1  0.840059  0.159776  0.576540  1
  Al  Al16  1  0.840162  0.680322  0.576582  1
  Al  Al17  1  0.319718  0.159776  0.576540  1
  Al  Al18  1  0.840059  0.159776  0.923460  1
  Al  Al19  1  0.840162  0.680322  0.923418  1
  Al  Al20  1  0.319718  0.159776  0.923460  1
  Al  Al21  1  0.159832  0.840161  0.076591  1
  Al  Al22  1  0.159829  0.319660  0.076677  1
  Al  Al23  1  0.680326  0.840161  0.076591  1
  Al  Al24  1  0.333387  0.666776  0.514584  1
  Al  Al25  1  0.666663  0.333325  0.485318  1
  Al  Al26  1  0.666663  0.333325  0.014682  1
  Al  Al27  1  0.333387  0.666776  0.985416  1
  Al  Al28  1  0.000001  0.000003  0.250000  1
  Al  Al29  1  0.999921  0.999842  0.750000  1
  Co  Co30  1  0.000006  0.000012  0.500009  1
  Co  Co31  1  0.000006  0.000012  0.999991  1
  Ru  Ru32  1  0.500018  0.000036  0.499987  1
  Ru  Ru33  1  0.999924  0.500062  0.499923  1
  Ru  Ru34  1  0.500138  0.500062  0.499923  1
  Ru  Ru35  1  0.500018  0.000036  0.000013  1
  Ru  Ru36  1  0.999924  0.500062  0.000077  1
  Ru  Ru37  1  0.500138  0.500062  0.000077  1
