# generated using pymatgen
data_Nb4Si2IrRu9
_symmetry_space_group_name_H-M   'P 1'
_cell_length_a   4.07684800
_cell_length_b   5.43706641
_cell_length_c   10.60973992
_cell_angle_alpha   89.69574951
_cell_angle_beta   90.00000000
_cell_angle_gamma   90.00000000
_symmetry_Int_Tables_number   1
_chemical_formula_structural   Nb4Si2IrRu9
_chemical_formula_sum   'Nb4 Si2 Ir1 Ru9'
_cell_volume   235.17316943
_cell_formula_units_Z   1
loop_
 _symmetry_equiv_pos_site_id
 _symmetry_equiv_pos_as_xyz
  1  'x, y, z'
loop_
 _atom_site_type_symbol
 _atom_site_label
 _atom_site_symmetry_multiplicity
 _atom_site_fract_x
 _atom_site_fract_y
 _atom_site_fract_z
 _atom_site_occupancy
  Nb  Nb0  1  0.500000  0.837404  0.361859  1
  Nb  Nb1  1  0.500000  0.167773  0.641270  1
  Nb  Nb2  1  0.500000  0.325716  0.138011  1
  Nb  Nb3  1  0.500000  0.664682  0.858390  1
  Si  Si4  1  0.000000  0.505468  0.498979  1
  Si  Si5  1  0.000000  0.001664  0.999898  1
  Ir  Ir6  1  0.000000  0.581147  0.250456  1
  Ru  Ru7  1  0.000000  0.505222  0.997205  1
  Ru  Ru8  1  0.000000  0.013115  0.504426  1
  Ru  Ru9  1  0.000000  0.409557  0.743929  1
  Ru  Ru10  1  0.000000  0.081473  0.249149  1
  Ru  Ru11  1  0.000000  0.909048  0.756515  1
  Ru  Ru12  1  0.500000  0.819695  0.106791  1
  Ru  Ru13  1  0.500000  0.174600  0.895498  1
  Ru  Ru14  1  0.500000  0.325784  0.393179  1
  Ru  Ru15  1  0.500000  0.677653  0.604443  1
