# generated using pymatgen
data_Sc11FeIr2Os
_symmetry_space_group_name_H-M   'P 1'
_cell_length_a   9.43715065
_cell_length_b   9.43715057
_cell_length_c   9.44574300
_cell_angle_alpha   59.96987316
_cell_angle_beta   59.96987346
_cell_angle_gamma   60.06025013
_symmetry_Int_Tables_number   1
_chemical_formula_structural   Sc11FeIr2Os
_chemical_formula_sum   'Sc22 Fe2 Ir4 Os2'
_cell_volume   594.84274398
_cell_formula_units_Z   2
loop_
 _symmetry_equiv_pos_site_id
 _symmetry_equiv_pos_as_xyz
  1  'x, y, z'
loop_
 _atom_site_type_symbol
 _atom_site_label
 _atom_site_symmetry_multiplicity
 _atom_site_fract_x
 _atom_site_fract_y
 _atom_site_fract_z
 _atom_site_occupancy
  Sc  Sc0  1  0.808229  0.808229  0.191771  1
  Sc  Sc1  1  0.192060  0.807940  0.192060  1
  Sc  Sc2  1  0.807940  0.192060  0.192060  1
  Sc  Sc3  1  0.191771  0.191771  0.808229  1
  Sc  Sc4  1  0.807940  0.192060  0.807940  1
  Sc  Sc5  1  0.192060  0.807940  0.807940  1
  Sc  Sc6  1  0.613715  0.613715  0.156281  1
  Sc  Sc7  1  0.616286  0.156281  0.613715  1
  Sc  Sc8  1  0.156281  0.616286  0.613715  1
  Sc  Sc9  1  0.613715  0.613715  0.616286  1
  Sc  Sc10  1  0.386285  0.386285  0.843719  1
  Sc  Sc11  1  0.383714  0.843719  0.386285  1
  Sc  Sc12  1  0.843719  0.383714  0.386285  1
  Sc  Sc13  1  0.386285  0.386285  0.383714  1
  Sc  Sc14  1  0.842812  0.842812  0.473268  1
  Sc  Sc15  1  0.841107  0.473268  0.842812  1
  Sc  Sc16  1  0.473268  0.841107  0.842812  1
  Sc  Sc17  1  0.842812  0.842812  0.841107  1
  Sc  Sc18  1  0.157188  0.157188  0.526732  1
  Sc  Sc19  1  0.158893  0.526732  0.157188  1
  Sc  Sc20  1  0.526732  0.158893  0.157188  1
  Sc  Sc21  1  0.157188  0.157188  0.158893  1
  Fe  Fe22  1  0.000000  0.000000  0.000000  1
  Fe  Fe23  1  0.500000  0.500000  0.500000  1
  Ir  Ir24  1  0.500000  0.000000  0.500000  1
  Ir  Ir25  1  0.000000  0.500000  0.500000  1
  Ir  Ir26  1  0.000000  0.500000  0.000000  1
  Ir  Ir27  1  0.500000  0.000000  0.000000  1
  Os  Os28  1  0.000000  0.000000  0.500000  1
  Os  Os29  1  0.500000  0.500000  0.000000  1
