# generated using pymatgen
data_Th6Cd23S
_symmetry_space_group_name_H-M   'P 1'
_cell_length_a   9.97926053
_cell_length_b   9.97933574
_cell_length_c   9.98198883
_cell_angle_alpha   61.04195237
_cell_angle_beta   61.04116530
_cell_angle_gamma   61.05122570
_symmetry_Int_Tables_number   1
_chemical_formula_structural   Th6Cd23S
_chemical_formula_sum   'Th6 Cd23 S1'
_cell_volume   719.45084442
_cell_formula_units_Z   1
loop_
 _symmetry_equiv_pos_site_id
 _symmetry_equiv_pos_as_xyz
  1  'x, y, z'
loop_
 _atom_site_type_symbol
 _atom_site_label
 _atom_site_symmetry_multiplicity
 _atom_site_fract_x
 _atom_site_fract_y
 _atom_site_fract_z
 _atom_site_occupancy
  Th  Th0  1  0.798572  0.798573  0.202102  1
  Th  Th1  1  0.201429  0.797906  0.201420  1
  Th  Th2  1  0.797903  0.201429  0.201422  1
  Th  Th3  1  0.201428  0.201427  0.797898  1
  Th  Th4  1  0.798571  0.202094  0.798580  1
  Th  Th5  1  0.202097  0.798571  0.798578  1
  Cd  Cd6  1  0.833799  0.833798  0.496750  1
  Cd  Cd7  1  0.833807  0.496746  0.833799  1
  Cd  Cd8  1  0.496746  0.833808  0.833799  1
  Cd  Cd9  1  0.835225  0.835224  0.835219  1
  Cd  Cd10  1  0.166201  0.166202  0.503250  1
  Cd  Cd11  1  0.166193  0.503254  0.166201  1
  Cd  Cd12  1  0.503254  0.166192  0.166201  1
  Cd  Cd13  1  0.164775  0.164776  0.164781  1
  Cd  Cd14  1  0.622185  0.622184  0.136567  1
  Cd  Cd15  1  0.622182  0.136554  0.622197  1
  Cd  Cd16  1  0.136555  0.622182  0.622197  1
  Cd  Cd17  1  0.620848  0.620846  0.620860  1
  Cd  Cd18  1  0.377815  0.377816  0.863433  1
  Cd  Cd19  1  0.377818  0.863446  0.377803  1
  Cd  Cd20  1  0.863445  0.377818  0.377803  1
  Cd  Cd21  1  0.379152  0.379154  0.379140  1
  Cd  Cd22  1  0.000000  0.000000  0.500000  1
  Cd  Cd23  1  0.500000  0.000000  0.500000  1
  Cd  Cd24  1  0.000000  0.500000  0.500000  1
  Cd  Cd25  1  0.500000  0.500000  0.000000  1
  Cd  Cd26  1  0.000000  0.500000  0.000000  1
  Cd  Cd27  1  0.500000  0.000000  0.000000  1
  Cd  Cd28  1  0.500000  0.500000  0.500000  1
  S  S29  1  0.000000  0.000000  0.000000  1
