# generated using pymatgen
data_Tb3DySc4(ReB6)4
_symmetry_space_group_name_H-M   'P 1'
_cell_length_a   3.59600400
_cell_length_b   9.01500500
_cell_length_c   11.40108700
_cell_angle_alpha   89.99863649
_cell_angle_beta   90.00000000
_cell_angle_gamma   90.00000000
_symmetry_Int_Tables_number   1
_chemical_formula_structural   Tb3DySc4(ReB6)4
_chemical_formula_sum   'Tb3 Dy1 Sc4 Re4 B24'
_cell_volume   369.60037036
_cell_formula_units_Z   1
loop_
 _symmetry_equiv_pos_site_id
 _symmetry_equiv_pos_as_xyz
  1  'x, y, z'
loop_
 _atom_site_type_symbol
 _atom_site_label
 _atom_site_symmetry_multiplicity
 _atom_site_fract_x
 _atom_site_fract_y
 _atom_site_fract_z
 _atom_site_occupancy
  Tb  Tb0  1  0.000000  0.321659  0.414176  1
  Tb  Tb1  1  0.000000  0.678267  0.585869  1
  Tb  Tb2  1  0.000000  0.821764  0.085786  1
  Dy  Dy3  1  0.000000  0.178251  0.914110  1
  Sc  Sc4  1  0.000000  0.944226  0.370418  1
  Sc  Sc5  1  0.000000  0.055880  0.629602  1
  Sc  Sc6  1  0.000000  0.444095  0.129433  1
  Sc  Sc7  1  0.000000  0.555741  0.870502  1
  Re  Re8  1  0.000000  0.641238  0.318295  1
  Re  Re9  1  0.000000  0.358613  0.681919  1
  Re  Re10  1  0.000000  0.141309  0.181602  1
  Re  Re11  1  0.000000  0.858932  0.818294  1
  B  B12  1  0.500000  0.554579  0.432250  1
  B  B13  1  0.500000  0.445355  0.567820  1
  B  B14  1  0.500000  0.054690  0.067538  1
  B  B15  1  0.500000  0.945662  0.932263  1
  B  B16  1  0.500000  0.754371  0.417875  1
  B  B17  1  0.500000  0.245656  0.582247  1
  B  B18  1  0.500000  0.254270  0.081890  1
  B  B19  1  0.500000  0.745713  0.917849  1
  B  B20  1  0.500000  0.795254  0.265075  1
  B  B21  1  0.500000  0.204740  0.735113  1
  B  B22  1  0.500000  0.295162  0.234806  1
  B  B23  1  0.500000  0.704806  0.765115  1
  B  B24  1  0.500000  0.628962  0.182980  1
  B  B25  1  0.500000  0.370832  0.817143  1
  B  B26  1  0.500000  0.128989  0.316916  1
  B  B27  1  0.500000  0.871102  0.683067  1
  B  B28  1  0.500000  0.981495  0.213824  1
  B  B29  1  0.500000  0.018781  0.786255  1
  B  B30  1  0.500000  0.481383  0.286070  1
  B  B31  1  0.500000  0.518475  0.713960  1
  B  B32  1  0.500000  0.595198  0.025971  1
  B  B33  1  0.500000  0.404526  0.973933  1
  B  B34  1  0.500000  0.095222  0.474018  1
  B  B35  1  0.500000  0.904802  0.526015  1
