# generated using pymatgen
data_DyTh2Cu3(Ni5B)2
_symmetry_space_group_name_H-M   'P 1'
_cell_length_a   5.02530900
_cell_length_b   5.02530976
_cell_length_c   10.88308400
_cell_angle_alpha   90.00000000
_cell_angle_beta   90.00000000
_cell_angle_gamma   119.99997525
_symmetry_Int_Tables_number   1
_chemical_formula_structural   DyTh2Cu3(Ni5B)2
_chemical_formula_sum   'Dy1 Th2 Cu3 Ni10 B2'
_cell_volume   238.01719307
_cell_formula_units_Z   1
loop_
 _symmetry_equiv_pos_site_id
 _symmetry_equiv_pos_as_xyz
  1  'x, y, z'
loop_
 _atom_site_type_symbol
 _atom_site_label
 _atom_site_symmetry_multiplicity
 _atom_site_fract_x
 _atom_site_fract_y
 _atom_site_fract_z
 _atom_site_occupancy
  Dy  Dy0  1  0.000000  0.000000  0.999941  1
  Th  Th1  1  0.000000  0.000000  0.332619  1
  Th  Th2  1  0.000000  0.000000  0.670634  1
  Cu  Cu3  1  0.333333  0.666667  0.315926  1
  Cu  Cu4  1  0.666667  0.333333  0.315630  1
  Cu  Cu5  1  0.666667  0.333333  0.684080  1
  Ni  Ni6  1  0.499581  0.999162  0.499859  1
  Ni  Ni7  1  0.499581  0.500419  0.499859  1
  Ni  Ni8  1  0.000838  0.500419  0.499859  1
  Ni  Ni9  1  0.333333  0.666667  0.682801  1
  Ni  Ni10  1  0.499997  0.999994  0.129321  1
  Ni  Ni11  1  0.499997  0.500003  0.129321  1
  Ni  Ni12  1  0.000006  0.500003  0.129321  1
  Ni  Ni13  1  0.499179  0.998357  0.870309  1
  Ni  Ni14  1  0.499179  0.500821  0.870309  1
  Ni  Ni15  1  0.001643  0.500821  0.870309  1
  B  B16  1  0.333333  0.666667  0.999948  1
  B  B17  1  0.666667  0.333333  0.999954  1
