# generated using pymatgen
data_Mg4Sn2B4IrRh9
_symmetry_space_group_name_H-M   'P 1'
_cell_length_a   9.62826083
_cell_length_b   9.62826083
_cell_length_c   2.99254200
_cell_angle_alpha   90.00000000
_cell_angle_beta   90.00000000
_cell_angle_gamma   89.95231035
_symmetry_Int_Tables_number   1
_chemical_formula_structural   Mg4Sn2B4IrRh9
_chemical_formula_sum   'Mg4 Sn2 B4 Ir1 Rh9'
_cell_volume   277.41874195
_cell_formula_units_Z   1
loop_
 _symmetry_equiv_pos_site_id
 _symmetry_equiv_pos_as_xyz
  1  'x, y, z'
loop_
 _atom_site_type_symbol
 _atom_site_label
 _atom_site_symmetry_multiplicity
 _atom_site_fract_x
 _atom_site_fract_y
 _atom_site_fract_z
 _atom_site_occupancy
  Mg  Mg0  1  0.676820  0.176820  0.000000  1
  Mg  Mg1  1  0.323180  0.823180  0.000000  1
  Mg  Mg2  1  0.175830  0.324170  0.000000  1
  Mg  Mg3  1  0.824170  0.675830  0.000000  1
  Sn  Sn4  1  0.000000  0.000000  0.000000  1
  Sn  Sn5  1  0.500000  0.500000  0.000000  1
  B  B6  1  0.122500  0.622500  0.000000  1
  B  B7  1  0.877500  0.377500  0.000000  1
  B  B8  1  0.621564  0.878436  0.000000  1
  B  B9  1  0.378436  0.121564  0.000000  1
  Ir  Ir10  1  0.500000  0.000000  0.500000  1
  Rh  Rh11  1  0.000000  0.500000  0.500000  1
  Rh  Rh12  1  0.221376  0.073259  0.500000  1
  Rh  Rh13  1  0.778624  0.926741  0.500000  1
  Rh  Rh14  1  0.071025  0.776992  0.500000  1
  Rh  Rh15  1  0.723008  0.428975  0.500000  1
  Rh  Rh16  1  0.928975  0.223008  0.500000  1
  Rh  Rh17  1  0.276992  0.571025  0.500000  1
  Rh  Rh18  1  0.573259  0.721376  0.500000  1
  Rh  Rh19  1  0.426741  0.278624  0.500000  1
