# generated using pymatgen
data_Dy2BeSiBr2
_symmetry_space_group_name_H-M   'P 1'
_cell_length_a   3.89194100
_cell_length_b   3.89193908
_cell_length_c   11.34221000
_cell_angle_alpha   90.00000000
_cell_angle_beta   90.00000000
_cell_angle_gamma   119.99997384
_symmetry_Int_Tables_number   1
_chemical_formula_structural   Dy2BeSiBr2
_chemical_formula_sum   'Dy2 Be1 Si1 Br2'
_cell_volume   148.78553520
_cell_formula_units_Z   1
loop_
 _symmetry_equiv_pos_site_id
 _symmetry_equiv_pos_as_xyz
  1  'x, y, z'
loop_
 _atom_site_type_symbol
 _atom_site_label
 _atom_site_symmetry_multiplicity
 _atom_site_fract_x
 _atom_site_fract_y
 _atom_site_fract_z
 _atom_site_occupancy
  Dy  Dy0  1  0.000000  0.000000  0.172066  1
  Dy  Dy1  1  0.000000  0.000000  0.826090  1
  Be  Be2  1  0.333333  0.666667  0.011209  1
  Si  Si3  1  0.666667  0.333333  0.991307  1
  Br  Br4  1  0.333333  0.666667  0.662410  1
  Br  Br5  1  0.666667  0.333333  0.336918  1
