# generated using pymatgen
data_YLu7(CoAg)2
_symmetry_space_group_name_H-M   'P 1'
_cell_length_a   9.23884263
_cell_length_b   9.23884271
_cell_length_c   9.23928400
_cell_angle_alpha   59.99841993
_cell_angle_beta   59.99841965
_cell_angle_gamma   60.00316781
_symmetry_Int_Tables_number   1
_chemical_formula_structural   YLu7(CoAg)2
_chemical_formula_sum   'Y2 Lu14 Co4 Ag4'
_cell_volume   557.64586205
_cell_formula_units_Z   2
loop_
 _symmetry_equiv_pos_site_id
 _symmetry_equiv_pos_as_xyz
  1  'x, y, z'
loop_
 _atom_site_type_symbol
 _atom_site_label
 _atom_site_symmetry_multiplicity
 _atom_site_fract_x
 _atom_site_fract_y
 _atom_site_fract_z
 _atom_site_occupancy
  Y  Y0  1  0.563239  0.563239  0.936761  1
  Y  Y1  1  0.936761  0.936761  0.563239  1
  Lu  Lu2  1  0.347404  0.347404  0.348278  1
  Lu  Lu3  1  0.347404  0.347404  0.956914  1
  Lu  Lu4  1  0.348278  0.956914  0.347404  1
  Lu  Lu5  1  0.956914  0.348278  0.347404  1
  Lu  Lu6  1  0.812415  0.187585  0.187585  1
  Lu  Lu7  1  0.187585  0.812415  0.812415  1
  Lu  Lu8  1  0.187585  0.812415  0.187585  1
  Lu  Lu9  1  0.812415  0.187585  0.812415  1
  Lu  Lu10  1  0.188171  0.188171  0.811829  1
  Lu  Lu11  1  0.811829  0.811829  0.188171  1
  Lu  Lu12  1  0.938332  0.561668  0.561668  1
  Lu  Lu13  1  0.561668  0.938332  0.938332  1
  Lu  Lu14  1  0.561668  0.938332  0.561668  1
  Lu  Lu15  1  0.938332  0.561668  0.938332  1
  Co  Co16  1  0.142047  0.142047  0.140286  1
  Co  Co17  1  0.142047  0.142047  0.575621  1
  Co  Co18  1  0.140286  0.575621  0.142047  1
  Co  Co19  1  0.575621  0.140286  0.142047  1
  Ag  Ag20  1  0.582093  0.582093  0.580205  1
  Ag  Ag21  1  0.582093  0.582093  0.255608  1
  Ag  Ag22  1  0.580205  0.255608  0.582093  1
  Ag  Ag23  1  0.255608  0.580205  0.582093  1
