# generated using pymatgen
data_Er6NbCo(Ni4P3)4
_symmetry_space_group_name_H-M   'P 1'
_cell_length_a   3.74775000
_cell_length_b   10.54528600
_cell_length_c   12.29103200
_cell_angle_alpha   90.00000000
_cell_angle_beta   90.00000000
_cell_angle_gamma   90.00000000
_symmetry_Int_Tables_number   1
_chemical_formula_structural   Er6NbCo(Ni4P3)4
_chemical_formula_sum   'Er6 Nb1 Co1 Ni16 P12'
_cell_volume   485.75505077
_cell_formula_units_Z   1
loop_
 _symmetry_equiv_pos_site_id
 _symmetry_equiv_pos_as_xyz
  1  'x, y, z'
loop_
 _atom_site_type_symbol
 _atom_site_label
 _atom_site_symmetry_multiplicity
 _atom_site_fract_x
 _atom_site_fract_y
 _atom_site_fract_z
 _atom_site_occupancy
  Er  Er0  1  0.750000  0.250000  0.473096  1
  Er  Er1  1  0.250000  0.750000  0.520807  1
  Er  Er2  1  0.250000  0.930259  0.793145  1
  Er  Er3  1  0.250000  0.569741  0.793145  1
  Er  Er4  1  0.750000  0.066660  0.205375  1
  Er  Er5  1  0.750000  0.433340  0.205375  1
  Nb  Nb6  1  0.250000  0.250000  0.846052  1
  Co  Co7  1  0.250000  0.750000  0.983993  1
  Ni  Ni8  1  0.750000  0.750000  0.160994  1
  Ni  Ni9  1  0.250000  0.250000  0.298520  1
  Ni  Ni10  1  0.750000  0.750000  0.701912  1
  Ni  Ni11  1  0.750000  0.250000  0.017406  1
  Ni  Ni12  1  0.250000  0.423877  0.011404  1
  Ni  Ni13  1  0.250000  0.076123  0.011404  1
  Ni  Ni14  1  0.750000  0.588343  0.996672  1
  Ni  Ni15  1  0.750000  0.911657  0.996672  1
  Ni  Ni16  1  0.250000  0.450227  0.569271  1
  Ni  Ni17  1  0.250000  0.049773  0.569271  1
  Ni  Ni18  1  0.750000  0.551241  0.429765  1
  Ni  Ni19  1  0.750000  0.948759  0.429765  1
  Ni  Ni20  1  0.250000  0.871217  0.289403  1
  Ni  Ni21  1  0.250000  0.628783  0.289403  1
  Ni  Ni22  1  0.750000  0.127816  0.706382  1
  Ni  Ni23  1  0.750000  0.372184  0.706382  1
  P  P24  1  0.250000  0.250000  0.120551  1
  P  P25  1  0.750000  0.750000  0.879637  1
  P  P26  1  0.250000  0.250000  0.645473  1
  P  P27  1  0.750000  0.750000  0.346334  1
  P  P28  1  0.250000  0.436734  0.382967  1
  P  P29  1  0.250000  0.063266  0.382967  1
  P  P30  1  0.750000  0.565834  0.614410  1
  P  P31  1  0.750000  0.934166  0.614410  1
  P  P32  1  0.250000  0.897460  0.109146  1
  P  P33  1  0.250000  0.602540  0.109146  1
  P  P34  1  0.750000  0.089359  0.894673  1
  P  P35  1  0.750000  0.410641  0.894673  1
