# generated using pymatgen
data_Pr3Dy3(Lu7Sb6)2
_symmetry_space_group_name_H-M   'P 1'
_cell_length_a   8.05586829
_cell_length_b   9.14557000
_cell_length_c   11.69548400
_cell_angle_alpha   90.00000000
_cell_angle_beta   89.98453785
_cell_angle_gamma   90.00000000
_symmetry_Int_Tables_number   1
_chemical_formula_structural   Pr3Dy3(Lu7Sb6)2
_chemical_formula_sum   'Pr3 Dy3 Lu14 Sb12'
_cell_volume   861.67068647
_cell_formula_units_Z   1
loop_
 _symmetry_equiv_pos_site_id
 _symmetry_equiv_pos_as_xyz
  1  'x, y, z'
loop_
 _atom_site_type_symbol
 _atom_site_label
 _atom_site_symmetry_multiplicity
 _atom_site_fract_x
 _atom_site_fract_y
 _atom_site_fract_z
 _atom_site_occupancy
  Pr  Pr0  1  0.824707  0.750000  0.772366  1
  Pr  Pr1  1  0.660323  0.250000  0.290489  1
  Pr  Pr2  1  0.175842  0.250000  0.228909  1
  Dy  Dy3  1  0.675247  0.750000  0.272555  1
  Dy  Dy4  1  0.838698  0.250000  0.789112  1
  Dy  Dy5  1  0.323385  0.250000  0.730219  1
  Lu  Lu6  1  0.310602  0.561560  0.433927  1
  Lu  Lu7  1  0.189684  0.938148  0.934368  1
  Lu  Lu8  1  0.310602  0.938440  0.433927  1
  Lu  Lu9  1  0.689256  0.438915  0.565976  1
  Lu  Lu10  1  0.810957  0.439106  0.063777  1
  Lu  Lu11  1  0.976594  0.750000  0.496817  1
  Lu  Lu12  1  0.162237  0.750000  0.211077  1
  Lu  Lu13  1  0.474155  0.250000  0.003103  1
  Lu  Lu14  1  0.810957  0.060894  0.063777  1
  Lu  Lu15  1  0.189684  0.561852  0.934368  1
  Lu  Lu16  1  0.024181  0.250000  0.503973  1
  Lu  Lu17  1  0.337678  0.750000  0.709334  1
  Lu  Lu18  1  0.689256  0.061085  0.565976  1
  Lu  Lu19  1  0.524948  0.750000  0.994270  1
  Sb  Sb20  1  0.098527  0.250000  0.968878  1
  Sb  Sb21  1  0.938084  0.498278  0.328549  1
  Sb  Sb22  1  0.436931  0.985878  0.170098  1
  Sb  Sb23  1  0.068845  0.992831  0.670845  1
  Sb  Sb24  1  0.436931  0.514122  0.170098  1
  Sb  Sb25  1  0.595657  0.750000  0.527450  1
  Sb  Sb26  1  0.397703  0.250000  0.479202  1
  Sb  Sb27  1  0.558709  0.490250  0.826971  1
  Sb  Sb28  1  0.068845  0.507169  0.670845  1
  Sb  Sb29  1  0.903984  0.750000  0.033225  1
  Sb  Sb30  1  0.558709  0.009750  0.826971  1
  Sb  Sb31  1  0.938084  0.001722  0.328549  1
