# generated using pymatgen
data_Ho10Ga3NiBi2
_symmetry_space_group_name_H-M   'P 1'
_cell_length_a   8.53605618
_cell_length_b   8.53605564
_cell_length_c   8.72818081
_cell_angle_alpha   124.25821173
_cell_angle_beta   124.25820695
_cell_angle_gamma   81.30429692
_symmetry_Int_Tables_number   1
_chemical_formula_structural   Ho10Ga3NiBi2
_chemical_formula_sum   'Ho10 Ga3 Ni1 Bi2'
_cell_volume   421.46980838
_cell_formula_units_Z   1
loop_
 _symmetry_equiv_pos_site_id
 _symmetry_equiv_pos_as_xyz
  1  'x, y, z'
loop_
 _atom_site_type_symbol
 _atom_site_label
 _atom_site_symmetry_multiplicity
 _atom_site_fract_x
 _atom_site_fract_y
 _atom_site_fract_z
 _atom_site_occupancy
  Ho  Ho0  1  0.996691  0.994322  0.991013  1
  Ho  Ho1  1  0.505678  0.503309  0.008987  1
  Ho  Ho2  1  0.015697  0.497881  0.794139  1
  Ho  Ho3  1  0.721558  0.203742  0.205861  1
  Ho  Ho4  1  0.515339  0.706858  0.500000  1
  Ho  Ho5  1  0.195839  0.040942  0.500000  1
  Ho  Ho6  1  0.002119  0.484303  0.205861  1
  Ho  Ho7  1  0.296258  0.778442  0.794139  1
  Ho  Ho8  1  0.459058  0.304161  0.500000  1
  Ho  Ho9  1  0.793142  0.984661  0.500000  1
  Ga  Ga10  1  0.352234  0.855360  0.207594  1
  Ga  Ga11  1  0.644640  0.147766  0.792406  1
  Ga  Ga12  1  0.865315  0.634685  0.500000  1
  Ni  Ni13  1  0.124181  0.375819  0.500000  1
  Bi  Bi14  1  0.756125  0.743875  0.000000  1
  Bi  Bi15  1  0.256125  0.243875  0.000000  1
