# generated using pymatgen
data_NaEuPd4
_symmetry_space_group_name_H-M   'P 1'
_cell_length_a   5.54642976
_cell_length_b   5.54642977
_cell_length_c   5.54642900
_cell_angle_alpha   59.99999863
_cell_angle_beta   59.99999855
_cell_angle_gamma   60.00000255
_symmetry_Int_Tables_number   1
_chemical_formula_structural   NaEuPd4
_chemical_formula_sum   'Na1 Eu1 Pd4'
_cell_volume   120.64949117
_cell_formula_units_Z   1
loop_
 _symmetry_equiv_pos_site_id
 _symmetry_equiv_pos_as_xyz
  1  'x, y, z'
loop_
 _atom_site_type_symbol
 _atom_site_label
 _atom_site_symmetry_multiplicity
 _atom_site_fract_x
 _atom_site_fract_y
 _atom_site_fract_z
 _atom_site_occupancy
  Na  Na0  1  0.750000  0.750000  0.750000  1
  Eu  Eu1  1  0.500000  0.500000  0.500000  1
  Pd  Pd2  1  0.124980  0.124980  0.625059  1
  Pd  Pd3  1  0.124980  0.625059  0.124980  1
  Pd  Pd4  1  0.124980  0.124980  0.124980  1
  Pd  Pd5  1  0.625059  0.124980  0.124980  1
