# generated using pymatgen
data_Tb6DyCo6Sn22Au
_symmetry_space_group_name_H-M   'P 1'
_cell_length_a   9.69146437
_cell_length_b   9.69437286
_cell_length_c   9.96266531
_cell_angle_alpha   89.99999843
_cell_angle_beta   89.97534417
_cell_angle_gamma   120.00991568
_symmetry_Int_Tables_number   1
_chemical_formula_structural   Tb6DyCo6Sn22Au
_chemical_formula_sum   'Tb6 Dy1 Co6 Sn22 Au1'
_cell_volume   810.53512404
_cell_formula_units_Z   1
loop_
 _symmetry_equiv_pos_site_id
 _symmetry_equiv_pos_as_xyz
  1  'x, y, z'
loop_
 _atom_site_type_symbol
 _atom_site_label
 _atom_site_symmetry_multiplicity
 _atom_site_fract_x
 _atom_site_fract_y
 _atom_site_fract_z
 _atom_site_occupancy
  Tb  Tb0  1  0.000004  0.000002  0.999978  1
  Tb  Tb1  1  0.478847  0.521033  0.306414  1
  Tb  Tb2  1  0.521258  0.478955  0.693556  1
  Tb  Tb3  1  0.478847  0.957814  0.306414  1
  Tb  Tb4  1  0.521258  0.042303  0.693556  1
  Tb  Tb5  1  0.042219  0.521109  0.306621  1
  Dy  Dy6  1  0.958089  0.479044  0.693448  1
  Co  Co7  1  0.832074  0.167729  0.196453  1
  Co  Co8  1  0.167765  0.832089  0.803475  1
  Co  Co9  1  0.832074  0.664344  0.196453  1
  Co  Co10  1  0.167765  0.335678  0.803475  1
  Co  Co11  1  0.335696  0.167847  0.196461  1
  Co  Co12  1  0.664286  0.832143  0.803580  1
  Sn  Sn13  1  0.346273  0.999956  0.999979  1
  Sn  Sn14  1  0.653684  0.000005  0.999994  1
  Sn  Sn15  1  0.000023  0.346308  0.999930  1
  Sn  Sn16  1  0.000023  0.653715  0.999930  1
  Sn  Sn17  1  0.653684  0.653678  0.999994  1
  Sn  Sn18  1  0.346273  0.346317  0.999979  1
  Sn  Sn19  1  0.333337  0.666669  0.816785  1
  Sn  Sn20  1  0.666583  0.333291  0.183151  1
  Sn  Sn21  1  0.783504  0.216950  0.453029  1
  Sn  Sn22  1  0.216420  0.783011  0.547209  1
  Sn  Sn23  1  0.783504  0.566555  0.453029  1
  Sn  Sn24  1  0.216420  0.433409  0.547209  1
  Sn  Sn25  1  0.433420  0.216710  0.452909  1
  Sn  Sn26  1  0.566541  0.783270  0.547205  1
  Sn  Sn27  1  0.333267  0.666634  0.118321  1
  Sn  Sn28  1  0.666984  0.333492  0.881436  1
  Sn  Sn29  1  0.113341  0.886491  0.278133  1
  Sn  Sn30  1  0.886613  0.113631  0.721814  1
  Sn  Sn31  1  0.113341  0.226849  0.278133  1
  Sn  Sn32  1  0.886613  0.772983  0.721814  1
  Sn  Sn33  1  0.773224  0.886612  0.278165  1
  Sn  Sn34  1  0.226750  0.113376  0.721947  1
  Au  Au35  1  0.999996  0.999998  0.500019  1
