# generated using pymatgen
data_Er2PaGa5Fe
_symmetry_space_group_name_H-M   'P 1'
_cell_length_a   6.92770640
_cell_length_b   6.92770683
_cell_length_c   4.28192600
_cell_angle_alpha   90.00000000
_cell_angle_beta   90.00000000
_cell_angle_gamma   122.06514743
_symmetry_Int_Tables_number   1
_chemical_formula_structural   Er2PaGa5Fe
_chemical_formula_sum   'Er2 Pa1 Ga5 Fe1'
_cell_volume   174.15247835
_cell_formula_units_Z   1
loop_
 _symmetry_equiv_pos_site_id
 _symmetry_equiv_pos_as_xyz
  1  'x, y, z'
loop_
 _atom_site_type_symbol
 _atom_site_label
 _atom_site_symmetry_multiplicity
 _atom_site_fract_x
 _atom_site_fract_y
 _atom_site_fract_z
 _atom_site_occupancy
  Er  Er0  1  0.603142  0.992852  0.000000  1
  Er  Er1  1  0.992852  0.603142  0.000000  1
  Pa  Pa2  1  0.384448  0.384448  0.000000  1
  Ga  Ga3  1  0.230149  0.989558  0.500000  1
  Ga  Ga4  1  0.989558  0.230149  0.500000  1
  Ga  Ga5  1  0.760993  0.760993  0.500000  1
  Ga  Ga6  1  0.325583  0.661578  0.500000  1
  Ga  Ga7  1  0.661578  0.325583  0.500000  1
  Fe  Fe8  1  0.051698  0.051698  0.000000  1
