# generated using pymatgen
data_Pm2Ge3
_symmetry_space_group_name_H-M   'P 1'
_cell_length_a   4.19436222
_cell_length_b   5.77478737
_cell_length_c   7.67911838
_cell_angle_alpha   105.37479354
_cell_angle_beta   123.41595213
_cell_angle_gamma   110.94620361
_symmetry_Int_Tables_number   1
_chemical_formula_structural   Pm2Ge3
_chemical_formula_sum   'Pm2 Ge3'
_cell_volume   116.78444425
_cell_formula_units_Z   1
loop_
 _symmetry_equiv_pos_site_id
 _symmetry_equiv_pos_as_xyz
  1  'x, y, z'
loop_
 _atom_site_type_symbol
 _atom_site_label
 _atom_site_symmetry_multiplicity
 _atom_site_fract_x
 _atom_site_fract_y
 _atom_site_fract_z
 _atom_site_occupancy
  Pm  Pm0  1  0.175427  0.333506  0.493348  1
  Pm  Pm1  1  0.275101  0.434799  0.042239  1
  Ge  Ge2  1  0.423070  0.881217  0.466196  1
  Ge  Ge3  1  0.224256  0.882590  0.768601  1
  Ge  Ge4  1  0.026887  0.887140  0.069513  1
