# generated using pymatgen
data_Zr6TaTi3Al12Co7
_symmetry_space_group_name_H-M   'P 1'
_cell_length_a   8.56481431
_cell_length_b   8.56481301
_cell_length_c   8.56481452
_cell_angle_alpha   59.96728287
_cell_angle_beta   59.96728866
_cell_angle_gamma   59.96728427
_symmetry_Int_Tables_number   1
_chemical_formula_structural   Zr6TaTi3Al12Co7
_chemical_formula_sum   'Zr6 Ta1 Ti3 Al12 Co7'
_cell_volume   443.93203845
_cell_formula_units_Z   1
loop_
 _symmetry_equiv_pos_site_id
 _symmetry_equiv_pos_as_xyz
  1  'x, y, z'
loop_
 _atom_site_type_symbol
 _atom_site_label
 _atom_site_symmetry_multiplicity
 _atom_site_fract_x
 _atom_site_fract_y
 _atom_site_fract_z
 _atom_site_occupancy
  Zr  Zr0  1  0.692131  0.307318  0.307318  1
  Zr  Zr1  1  0.692901  0.307156  0.692901  1
  Zr  Zr2  1  0.692901  0.692901  0.307156  1
  Zr  Zr3  1  0.307156  0.692901  0.692901  1
  Zr  Zr4  1  0.307318  0.692131  0.307318  1
  Zr  Zr5  1  0.307318  0.307318  0.692131  1
  Ta  Ta6  1  0.119065  0.119065  0.119065  1
  Ti  Ti7  1  0.644729  0.118521  0.118521  1
  Ti  Ti8  1  0.118521  0.644729  0.118521  1
  Ti  Ti9  1  0.118521  0.118521  0.644729  1
  Al  Al10  1  0.358945  0.879236  0.879236  1
  Al  Al11  1  0.879236  0.358945  0.879236  1
  Al  Al12  1  0.879236  0.879236  0.358945  1
  Al  Al13  1  0.880476  0.880476  0.880476  1
  Al  Al14  1  0.994793  0.336611  0.336611  1
  Al  Al15  1  0.336611  0.994793  0.336611  1
  Al  Al16  1  0.336611  0.336611  0.994793  1
  Al  Al17  1  0.334344  0.334344  0.334344  1
  Al  Al18  1  0.002976  0.665779  0.665779  1
  Al  Al19  1  0.665779  0.002976  0.665779  1
  Al  Al20  1  0.665779  0.665779  0.002976  1
  Al  Al21  1  0.665528  0.665528  0.665528  1
  Co  Co22  1  0.999918  0.999918  0.999918  1
  Co  Co23  1  0.493960  0.003572  0.003572  1
  Co  Co24  1  0.497479  0.003142  0.497479  1
  Co  Co25  1  0.497479  0.497479  0.003142  1
  Co  Co26  1  0.003142  0.497479  0.497479  1
  Co  Co27  1  0.003572  0.493960  0.003572  1
  Co  Co28  1  0.003572  0.003572  0.493960  1
