# generated using pymatgen
data_Nd5Lu3(P7Ir8)2
_symmetry_space_group_name_H-M   'P 1'
_cell_length_a   3.95608500
_cell_length_b   12.77150821
_cell_length_c   13.17249071
_cell_angle_alpha   80.94166730
_cell_angle_beta   90.00000000
_cell_angle_gamma   90.00000000
_symmetry_Int_Tables_number   1
_chemical_formula_structural   Nd5Lu3(P7Ir8)2
_chemical_formula_sum   'Nd5 Lu3 P14 Ir16'
_cell_volume   657.24209026
_cell_formula_units_Z   1
loop_
 _symmetry_equiv_pos_site_id
 _symmetry_equiv_pos_as_xyz
  1  'x, y, z'
loop_
 _atom_site_type_symbol
 _atom_site_label
 _atom_site_symmetry_multiplicity
 _atom_site_fract_x
 _atom_site_fract_y
 _atom_site_fract_z
 _atom_site_occupancy
  Nd  Nd0  1  0.250000  0.519738  0.294101  1
  Nd  Nd1  1  0.750000  0.720113  0.897274  1
  Nd  Nd2  1  0.250000  0.105275  0.787700  1
  Nd  Nd3  1  0.750000  0.895684  0.211782  1
  Nd  Nd4  1  0.250000  0.279654  0.102067  1
  Lu  Lu5  1  0.750000  0.792109  0.560301  1
  Lu  Lu6  1  0.250000  0.207528  0.440285  1
  Lu  Lu7  1  0.750000  0.479588  0.705219  1
  P  P8  1  0.250000  0.907241  0.413731  1
  P  P9  1  0.750000  0.472211  0.127968  1
  P  P10  1  0.250000  0.527998  0.868555  1
  P  P11  1  0.750000  0.093329  0.587701  1
  P  P12  1  0.250000  0.742127  0.081564  1
  P  P13  1  0.750000  0.258621  0.917636  1
  P  P14  1  0.750000  0.156915  0.285478  1
  P  P15  1  0.250000  0.840987  0.714193  1
  P  P16  1  0.250000  0.051646  0.100594  1
  P  P17  1  0.750000  0.948679  0.898762  1
  P  P18  1  0.250000  0.316385  0.687701  1
  P  P19  1  0.750000  0.686372  0.314009  1
  P  P20  1  0.250000  0.607921  0.566756  1
  P  P21  1  0.750000  0.388704  0.436368  1
  Ir  Ir22  1  0.250000  0.991514  0.575411  1
  Ir  Ir23  1  0.750000  0.009528  0.425143  1
  Ir  Ir24  1  0.250000  0.660253  0.726583  1
  Ir  Ir25  1  0.750000  0.335816  0.272460  1
  Ir  Ir26  1  0.250000  0.551422  0.046451  1
  Ir  Ir27  1  0.750000  0.449220  0.949671  1
  Ir  Ir28  1  0.250000  0.063508  0.274588  1
  Ir  Ir29  1  0.750000  0.935309  0.725301  1
  Ir  Ir30  1  0.250000  0.421807  0.525150  1
  Ir  Ir31  1  0.750000  0.578484  0.480081  1
  Ir  Ir32  1  0.250000  0.914917  0.996966  1
  Ir  Ir33  1  0.750000  0.085754  0.002329  1
  Ir  Ir34  1  0.250000  0.729800  0.399443  1
  Ir  Ir35  1  0.750000  0.271184  0.603103  1
  Ir  Ir36  1  0.250000  0.344505  0.854998  1
  Ir  Ir37  1  0.750000  0.658155  0.142578  1
