# generated using pymatgen
data_NaY4Er2Co6Sn23
_symmetry_space_group_name_H-M   'P 1'
_cell_length_a   9.72869486
_cell_length_b   9.72869620
_cell_length_c   9.97217740
_cell_angle_alpha   90.02798458
_cell_angle_beta   89.97201905
_cell_angle_gamma   119.96090027
_symmetry_Int_Tables_number   1
_chemical_formula_structural   NaY4Er2Co6Sn23
_chemical_formula_sum   'Na1 Y4 Er2 Co6 Sn23'
_cell_volume   817.71272587
_cell_formula_units_Z   1
loop_
 _symmetry_equiv_pos_site_id
 _symmetry_equiv_pos_as_xyz
  1  'x, y, z'
loop_
 _atom_site_type_symbol
 _atom_site_label
 _atom_site_symmetry_multiplicity
 _atom_site_fract_x
 _atom_site_fract_y
 _atom_site_fract_z
 _atom_site_occupancy
  Na  Na0  1  0.000053  0.999947  0.000167  1
  Y  Y1  1  0.479294  0.520706  0.305207  1
  Y  Y2  1  0.958471  0.479185  0.694725  1
  Y  Y3  1  0.520815  0.041529  0.694725  1
  Y  Y4  1  0.520735  0.479265  0.694521  1
  Er  Er5  1  0.039701  0.519784  0.304642  1
  Er  Er6  1  0.480216  0.960299  0.304642  1
  Co  Co7  1  0.170435  0.829565  0.798947  1
  Co  Co8  1  0.659266  0.829647  0.799138  1
  Co  Co9  1  0.170353  0.340734  0.799138  1
  Co  Co10  1  0.829267  0.170733  0.201340  1
  Co  Co11  1  0.340955  0.169649  0.201163  1
  Co  Co12  1  0.830351  0.659045  0.201163  1
  Sn  Sn13  1  0.000065  0.999935  0.499916  1
  Sn  Sn14  1  0.116448  0.883552  0.272047  1
  Sn  Sn15  1  0.768078  0.884139  0.272016  1
  Sn  Sn16  1  0.115861  0.231922  0.272016  1
  Sn  Sn17  1  0.884223  0.115777  0.728312  1
  Sn  Sn18  1  0.231419  0.115664  0.728203  1
  Sn  Sn19  1  0.884336  0.768581  0.728203  1
  Sn  Sn20  1  0.343832  0.999751  0.000123  1
  Sn  Sn21  1  0.656119  0.656117  0.000132  1
  Sn  Sn22  1  0.000232  0.344097  0.000135  1
  Sn  Sn23  1  0.343883  0.343881  0.000132  1
  Sn  Sn24  1  0.000249  0.656168  0.000123  1
  Sn  Sn25  1  0.655903  0.999768  0.000135  1
  Sn  Sn26  1  0.782171  0.563124  0.453348  1
  Sn  Sn27  1  0.781550  0.218450  0.453418  1
  Sn  Sn28  1  0.436876  0.217829  0.453348  1
  Sn  Sn29  1  0.218097  0.437130  0.545890  1
  Sn  Sn30  1  0.218677  0.781323  0.545348  1
  Sn  Sn31  1  0.562870  0.781903  0.545890  1
  Sn  Sn32  1  0.666711  0.333289  0.185841  1
  Sn  Sn33  1  0.333363  0.666637  0.814280  1
  Sn  Sn34  1  0.666595  0.333405  0.885221  1
  Sn  Sn35  1  0.332531  0.667469  0.116405  1
