# generated using pymatgen
data_NdHo2Lu2(In2Pt)2
_symmetry_space_group_name_H-M   'P 1'
_cell_length_a   3.60850000
_cell_length_b   8.18118300
_cell_length_c   18.26455900
_cell_angle_alpha   90.00000000
_cell_angle_beta   90.00000000
_cell_angle_gamma   90.00000000
_symmetry_Int_Tables_number   1
_chemical_formula_structural   NdHo2Lu2(In2Pt)2
_chemical_formula_sum   'Nd2 Ho4 Lu4 In8 Pt4'
_cell_volume   539.20263698
_cell_formula_units_Z   2
loop_
 _symmetry_equiv_pos_site_id
 _symmetry_equiv_pos_as_xyz
  1  'x, y, z'
loop_
 _atom_site_type_symbol
 _atom_site_label
 _atom_site_symmetry_multiplicity
 _atom_site_fract_x
 _atom_site_fract_y
 _atom_site_fract_z
 _atom_site_occupancy
  Nd  Nd0  1  0.000000  0.000000  0.000000  1
  Nd  Nd1  1  0.000000  0.500000  0.500000  1
  Ho  Ho2  1  0.000000  0.241932  0.219775  1
  Ho  Ho3  1  0.000000  0.758068  0.780225  1
  Ho  Ho4  1  0.000000  0.258068  0.719775  1
  Ho  Ho5  1  0.000000  0.741932  0.280225  1
  Lu  Lu6  1  0.000000  0.118601  0.413366  1
  Lu  Lu7  1  0.000000  0.881399  0.586634  1
  Lu  Lu8  1  0.000000  0.381399  0.913366  1
  Lu  Lu9  1  0.000000  0.618601  0.086634  1
  In  In10  1  0.500000  0.420457  0.348477  1
  In  In11  1  0.500000  0.579543  0.651523  1
  In  In12  1  0.500000  0.079543  0.848477  1
  In  In13  1  0.500000  0.920457  0.151523  1
  In  In14  1  0.500000  0.300748  0.066899  1
  In  In15  1  0.500000  0.699252  0.933101  1
  In  In16  1  0.500000  0.199252  0.566899  1
  In  In17  1  0.500000  0.800748  0.433101  1
  Pt  Pt18  1  0.500000  0.025603  0.304730  1
  Pt  Pt19  1  0.500000  0.974397  0.695270  1
  Pt  Pt20  1  0.500000  0.474397  0.804730  1
  Pt  Pt21  1  0.500000  0.525603  0.195270  1
