# generated using pymatgen
data_Y3FeCo7MoP6
_symmetry_space_group_name_H-M   'P 1'
_cell_length_a   3.73679400
_cell_length_b   10.60447600
_cell_length_c   12.22351600
_cell_angle_alpha   90.00000000
_cell_angle_beta   90.00000000
_cell_angle_gamma   90.00000000
_symmetry_Int_Tables_number   1
_chemical_formula_structural   Y3FeCo7MoP6
_chemical_formula_sum   'Y6 Fe2 Co14 Mo2 P12'
_cell_volume   484.37811841
_cell_formula_units_Z   2
loop_
 _symmetry_equiv_pos_site_id
 _symmetry_equiv_pos_as_xyz
  1  'x, y, z'
loop_
 _atom_site_type_symbol
 _atom_site_label
 _atom_site_symmetry_multiplicity
 _atom_site_fract_x
 _atom_site_fract_y
 _atom_site_fract_z
 _atom_site_occupancy
  Y  Y0  1  0.000000  0.500000  0.524642  1
  Y  Y1  1  0.500000  0.000000  0.475358  1
  Y  Y2  1  0.500000  0.819126  0.203362  1
  Y  Y3  1  0.500000  0.180874  0.203362  1
  Y  Y4  1  0.000000  0.680874  0.796638  1
  Y  Y5  1  0.000000  0.319126  0.796638  1
  Fe  Fe6  1  0.000000  0.500000  0.986875  1
  Fe  Fe7  1  0.500000  0.000000  0.013125  1
  Co  Co8  1  0.500000  0.500000  0.698573  1
  Co  Co9  1  0.000000  0.000000  0.301427  1
  Co  Co10  1  0.500000  0.331269  0.991171  1
  Co  Co11  1  0.500000  0.668731  0.991171  1
  Co  Co12  1  0.000000  0.168731  0.008829  1
  Co  Co13  1  0.000000  0.831269  0.008829  1
  Co  Co14  1  0.500000  0.294771  0.431713  1
  Co  Co15  1  0.500000  0.705229  0.431713  1
  Co  Co16  1  0.000000  0.205229  0.568287  1
  Co  Co17  1  0.000000  0.794771  0.568287  1
  Co  Co18  1  0.500000  0.878404  0.706694  1
  Co  Co19  1  0.500000  0.121596  0.706694  1
  Co  Co20  1  0.000000  0.621596  0.293306  1
  Co  Co21  1  0.000000  0.378404  0.293306  1
  Mo  Mo22  1  0.500000  0.500000  0.155481  1
  Mo  Mo23  1  0.000000  0.000000  0.844519  1
  P  P24  1  0.500000  0.500000  0.882447  1
  P  P25  1  0.000000  0.000000  0.117553  1
  P  P26  1  0.500000  0.500000  0.348632  1
  P  P27  1  0.000000  0.000000  0.651368  1
  P  P28  1  0.500000  0.309908  0.616615  1
  P  P29  1  0.500000  0.690092  0.616615  1
  P  P30  1  0.000000  0.190092  0.383385  1
  P  P31  1  0.000000  0.809908  0.383385  1
  P  P32  1  0.500000  0.845735  0.894759  1
  P  P33  1  0.500000  0.154265  0.894759  1
  P  P34  1  0.000000  0.654265  0.105241  1
  P  P35  1  0.000000  0.345735  0.105241  1
