# generated using pymatgen
data_Zr5Fe3(Co4P3)4
_symmetry_space_group_name_H-M   'P 1'
_cell_length_a   11.82250800
_cell_length_b   11.82250864
_cell_length_c   3.61416100
_cell_angle_alpha   90.00000000
_cell_angle_beta   90.00000000
_cell_angle_gamma   119.99999822
_symmetry_Int_Tables_number   1
_chemical_formula_structural   Zr5Fe3(Co4P3)4
_chemical_formula_sum   'Zr5 Fe3 Co16 P12'
_cell_volume   437.47918179
_cell_formula_units_Z   1
loop_
 _symmetry_equiv_pos_site_id
 _symmetry_equiv_pos_as_xyz
  1  'x, y, z'
loop_
 _atom_site_type_symbol
 _atom_site_label
 _atom_site_symmetry_multiplicity
 _atom_site_fract_x
 _atom_site_fract_y
 _atom_site_fract_z
 _atom_site_occupancy
  Zr  Zr0  1  0.666667  0.333333  0.000000  1
  Zr  Zr1  1  0.333333  0.666667  0.000000  1
  Zr  Zr2  1  0.815235  0.815235  0.500000  1
  Zr  Zr3  1  0.184765  0.000000  0.500000  1
  Zr  Zr4  1  0.000000  0.184765  0.500000  1
  Fe  Fe5  1  0.449575  0.449575  0.000000  1
  Fe  Fe6  1  0.550425  0.000000  0.000000  1
  Fe  Fe7  1  0.000000  0.550425  0.000000  1
  Co  Co8  1  0.197700  0.376391  0.000000  1
  Co  Co9  1  0.178691  0.802300  0.000000  1
  Co  Co10  1  0.821309  0.623609  0.000000  1
  Co  Co11  1  0.802300  0.178691  0.000000  1
  Co  Co12  1  0.376391  0.197700  0.000000  1
  Co  Co13  1  0.127855  0.483733  0.500000  1
  Co  Co14  1  0.355879  0.872145  0.500000  1
  Co  Co15  1  0.516267  0.644121  0.500000  1
  Co  Co16  1  0.644121  0.516267  0.500000  1
  Co  Co17  1  0.872145  0.355879  0.500000  1
  Co  Co18  1  0.483733  0.127855  0.500000  1
  Co  Co19  1  0.000000  0.000000  0.000000  1
  Co  Co20  1  0.715954  0.000000  0.500000  1
  Co  Co21  1  0.000000  0.715954  0.500000  1
  Co  Co22  1  0.623609  0.821309  0.000000  1
  Co  Co23  1  0.284046  0.284046  0.500000  1
  P  P24  1  0.636758  0.636758  0.000000  1
  P  P25  1  0.363242  0.000000  0.000000  1
  P  P26  1  0.000000  0.363242  0.000000  1
  P  P27  1  0.482627  0.316650  0.500000  1
  P  P28  1  0.683350  0.165978  0.500000  1
  P  P29  1  0.834022  0.517373  0.500000  1
  P  P30  1  0.517373  0.834022  0.500000  1
  P  P31  1  0.165978  0.683350  0.500000  1
  P  P32  1  0.822645  0.000000  0.000000  1
  P  P33  1  0.000000  0.822645  0.000000  1
  P  P34  1  0.316650  0.482627  0.500000  1
  P  P35  1  0.177355  0.177355  0.000000  1
