# generated using pymatgen
data_Pa6Ni17P12Pd
_symmetry_space_group_name_H-M   'P 1'
_cell_length_a   3.82064100
_cell_length_b   10.55181000
_cell_length_c   12.45685600
_cell_angle_alpha   90.00000000
_cell_angle_beta   90.00041990
_cell_angle_gamma   90.00000000
_symmetry_Int_Tables_number   1
_chemical_formula_structural   Pa6Ni17P12Pd
_chemical_formula_sum   'Pa6 Ni17 P12 Pd1'
_cell_volume   502.19413741
_cell_formula_units_Z   1
loop_
 _symmetry_equiv_pos_site_id
 _symmetry_equiv_pos_as_xyz
  1  'x, y, z'
loop_
 _atom_site_type_symbol
 _atom_site_label
 _atom_site_symmetry_multiplicity
 _atom_site_fract_x
 _atom_site_fract_y
 _atom_site_fract_z
 _atom_site_occupancy
  Pa  Pa0  1  0.751532  0.000000  0.487868  1
  Pa  Pa1  1  0.252342  0.500000  0.516677  1
  Pa  Pa2  1  0.251826  0.686653  0.802547  1
  Pa  Pa3  1  0.251826  0.313347  0.802547  1
  Pa  Pa4  1  0.751973  0.808867  0.199158  1
  Pa  Pa5  1  0.751973  0.191133  0.199158  1
  Ni  Ni6  1  0.751780  0.000000  0.020820  1
  Ni  Ni7  1  0.251993  0.500000  0.982135  1
  Ni  Ni8  1  0.251669  0.196583  0.570480  1
  Ni  Ni9  1  0.251669  0.803417  0.570480  1
  Ni  Ni10  1  0.751674  0.303855  0.433188  1
  Ni  Ni11  1  0.751674  0.696145  0.433188  1
  Ni  Ni12  1  0.251728  0.625563  0.286095  1
  Ni  Ni13  1  0.251728  0.374437  0.286095  1
  Ni  Ni14  1  0.752077  0.879365  0.704665  1
  Ni  Ni15  1  0.752077  0.120635  0.704665  1
  Ni  Ni16  1  0.251982  0.172023  0.008660  1
  Ni  Ni17  1  0.251982  0.827977  0.008660  1
  Ni  Ni18  1  0.751993  0.332102  0.999129  1
  Ni  Ni19  1  0.751993  0.667898  0.999129  1
  Ni  Ni20  1  0.750464  0.500000  0.154591  1
  Ni  Ni21  1  0.251748  0.000000  0.278912  1
  Ni  Ni22  1  0.751740  0.500000  0.697496  1
  P  P23  1  0.252147  0.189189  0.379295  1
  P  P24  1  0.252147  0.810811  0.379295  1
  P  P25  1  0.751946  0.323996  0.616047  1
  P  P26  1  0.751946  0.676004  0.616047  1
  P  P27  1  0.251885  0.000000  0.115356  1
  P  P28  1  0.751798  0.500000  0.883951  1
  P  P29  1  0.251795  0.648302  0.106215  1
  P  P30  1  0.251795  0.351698  0.106215  1
  P  P31  1  0.751664  0.844999  0.900592  1
  P  P32  1  0.751664  0.155001  0.900592  1
  P  P33  1  0.251822  0.000000  0.655868  1
  P  P34  1  0.751890  0.500000  0.337001  1
  Pd  Pd35  1  0.251657  0.000000  0.857182  1
