# generated using pymatgen
data_SmEuTa2Bi2O11
_symmetry_space_group_name_H-M   'P 1'
_cell_length_a   6.63459061
_cell_length_b   7.73258074
_cell_length_c   9.83753649
_cell_angle_alpha   101.40136368
_cell_angle_beta   90.30950993
_cell_angle_gamma   90.11501513
_symmetry_Int_Tables_number   1
_chemical_formula_structural   SmEuTa2Bi2O11
_chemical_formula_sum   'Sm2 Eu2 Ta4 Bi4 O22'
_cell_volume   494.72131623
_cell_formula_units_Z   2
loop_
 _symmetry_equiv_pos_site_id
 _symmetry_equiv_pos_as_xyz
  1  'x, y, z'
loop_
 _atom_site_type_symbol
 _atom_site_label
 _atom_site_symmetry_multiplicity
 _atom_site_fract_x
 _atom_site_fract_y
 _atom_site_fract_z
 _atom_site_occupancy
  Sm  Sm0  1  0.748702  0.369384  0.482129  1
  Sm  Sm1  1  0.251298  0.630616  0.517871  1
  Eu  Eu2  1  0.759614  0.873215  0.492528  1
  Eu  Eu3  1  0.240386  0.126785  0.507472  1
  Ta  Ta4  1  0.913539  0.701570  0.806186  1
  Ta  Ta5  1  0.086461  0.298430  0.193814  1
  Ta  Ta6  1  0.915817  0.200861  0.807572  1
  Ta  Ta7  1  0.084183  0.799139  0.192428  1
  Bi  Bi8  1  0.433090  0.956843  0.815504  1
  Bi  Bi9  1  0.566910  0.043157  0.184496  1
  Bi  Bi10  1  0.390923  0.455403  0.826425  1
  Bi  Bi11  1  0.609077  0.544597  0.173575  1
  O  O12  1  0.217391  0.726724  0.760499  1
  O  O13  1  0.782609  0.273276  0.239501  1
  O  O14  1  0.632422  0.664046  0.843463  1
  O  O15  1  0.367578  0.335954  0.156537  1
  O  O16  1  0.631416  0.253838  0.840283  1
  O  O17  1  0.368584  0.746162  0.159717  1
  O  O18  1  0.895185  0.155999  0.592433  1
  O  O19  1  0.104815  0.844001  0.407567  1
  O  O20  1  0.216029  0.152165  0.758687  1
  O  O21  1  0.783971  0.847835  0.241313  1
  O  O22  1  0.897652  0.639244  0.595226  1
  O  O23  1  0.102348  0.360756  0.404774  1
  O  O24  1  0.025655  0.550217  0.197705  1
  O  O25  1  0.974345  0.449783  0.802295  1
  O  O26  1  0.000579  0.781283  0.000239  1
  O  O27  1  0.999421  0.218717  0.999761  1
  O  O28  1  0.571629  0.595760  0.392064  1
  O  O29  1  0.428371  0.404240  0.607936  1
  O  O30  1  0.163756  0.055328  0.219698  1
  O  O31  1  0.836244  0.944672  0.780302  1
  O  O32  1  0.548797  0.103625  0.402227  1
  O  O33  1  0.451203  0.896375  0.597773  1
