# generated using pymatgen
data_Rb(S8Cl)3
_symmetry_space_group_name_H-M   'P 1'
_cell_length_a   14.03202671
_cell_length_b   14.03202675
_cell_length_c   14.03202590
_cell_angle_alpha   118.45092040
_cell_angle_beta   118.45092268
_cell_angle_gamma   118.45092118
_symmetry_Int_Tables_number   1
_chemical_formula_structural   Rb(S8Cl)3
_chemical_formula_sum   'Rb1 S24 Cl3'
_cell_volume   886.10360366
_cell_formula_units_Z   1
loop_
 _symmetry_equiv_pos_site_id
 _symmetry_equiv_pos_as_xyz
  1  'x, y, z'
loop_
 _atom_site_type_symbol
 _atom_site_label
 _atom_site_symmetry_multiplicity
 _atom_site_fract_x
 _atom_site_fract_y
 _atom_site_fract_z
 _atom_site_occupancy
  Rb  Rb0  1  0.570077  0.570077  0.570077  1
  S  S1  1  0.825390  0.548950  0.548950  1
  S  S2  1  0.548950  0.548950  0.825390  1
  S  S3  1  0.548950  0.825390  0.548950  1
  S  S4  1  0.260416  0.397537  0.646660  1
  S  S5  1  0.316920  0.934202  0.316920  1
  S  S6  1  0.316920  0.316920  0.934202  1
  S  S7  1  0.934202  0.316920  0.316920  1
  S  S8  1  0.098980  0.725935  0.237626  1
  S  S9  1  0.237626  0.098980  0.725935  1
  S  S10  1  0.725935  0.237626  0.098980  1
  S  S11  1  0.725935  0.098980  0.237626  1
  S  S12  1  0.237626  0.725935  0.098980  1
  S  S13  1  0.098980  0.237626  0.725935  1
  S  S14  1  0.336927  0.879823  0.529665  1
  S  S15  1  0.529665  0.336927  0.879823  1
  S  S16  1  0.879823  0.529665  0.336927  1
  S  S17  1  0.879823  0.336927  0.529665  1
  S  S18  1  0.529665  0.879823  0.336927  1
  S  S19  1  0.336927  0.529665  0.879823  1
  S  S20  1  0.260416  0.646660  0.397537  1
  S  S21  1  0.397537  0.260416  0.646660  1
  S  S22  1  0.646660  0.397537  0.260416  1
  S  S23  1  0.646660  0.260416  0.397537  1
  S  S24  1  0.397537  0.646660  0.260416  1
  Cl  Cl25  1  0.974357  0.131200  0.131200  1
  Cl  Cl26  1  0.131200  0.131200  0.974357  1
  Cl  Cl27  1  0.131200  0.974357  0.131200  1
