# generated using pymatgen
data_TaNb7Si2(B2Mo)2
_symmetry_space_group_name_H-M   'P 1'
_cell_length_a   7.28721484
_cell_length_b   7.28891606
_cell_length_c   7.28796144
_cell_angle_alpha   129.64498794
_cell_angle_beta   129.63867332
_cell_angle_gamma   73.98107561
_symmetry_Int_Tables_number   1
_chemical_formula_structural   TaNb7Si2(B2Mo)2
_chemical_formula_sum   'Ta1 Nb7 Si2 B4 Mo2'
_cell_volume   223.86601718
_cell_formula_units_Z   1
loop_
 _symmetry_equiv_pos_site_id
 _symmetry_equiv_pos_as_xyz
  1  'x, y, z'
loop_
 _atom_site_type_symbol
 _atom_site_label
 _atom_site_symmetry_multiplicity
 _atom_site_fract_x
 _atom_site_fract_y
 _atom_site_fract_z
 _atom_site_occupancy
  Ta  Ta0  1  0.469660  0.306020  0.500001  1
  Nb  Nb1  1  0.806818  0.969811  0.500000  1
  Nb  Nb2  1  0.306799  0.806532  0.837170  1
  Nb  Nb3  1  0.193242  0.030460  0.500000  1
  Nb  Nb4  1  0.530567  0.693409  0.500000  1
  Nb  Nb5  1  0.029681  0.529968  0.836515  1
  Nb  Nb6  1  0.693166  0.193453  0.163485  1
  Nb  Nb7  1  0.969630  0.469362  0.162831  1
  Si  Si8  1  0.749628  0.749599  0.999496  1
  Si  Si9  1  0.250132  0.250103  0.000504  1
  B  B10  1  0.382026  0.883061  0.264273  1
  B  B11  1  0.882000  0.618054  0.500000  1
  B  B12  1  0.617754  0.118788  0.735727  1
  B  B13  1  0.119413  0.381308  0.500000  1
  Mo  Mo14  1  0.999712  0.000008  0.999943  1
  Mo  Mo15  1  0.499769  0.500065  0.000056  1
