# generated using pymatgen
data_Hf6Ti6Si5B
_symmetry_space_group_name_H-M   'P 1'
_cell_length_a   7.84608738
_cell_length_b   7.84633079
_cell_length_c   7.84608885
_cell_angle_alpha   127.27465846
_cell_angle_beta   125.34712422
_cell_angle_gamma   79.38677268
_symmetry_Int_Tables_number   1
_chemical_formula_structural   Hf6Ti6Si5B
_chemical_formula_sum   'Hf6 Ti6 Si5 B1'
_cell_volume   303.06018347
_cell_formula_units_Z   1
loop_
 _symmetry_equiv_pos_site_id
 _symmetry_equiv_pos_as_xyz
  1  'x, y, z'
loop_
 _atom_site_type_symbol
 _atom_site_label
 _atom_site_symmetry_multiplicity
 _atom_site_fract_x
 _atom_site_fract_y
 _atom_site_fract_z
 _atom_site_occupancy
  Hf  Hf0  1  0.453729  0.658651  0.704922  1
  Hf  Hf1  1  0.549375  0.255801  0.206426  1
  Hf  Hf2  1  0.750024  0.848365  0.598341  1
  Hf  Hf3  1  0.250047  0.851360  0.101312  1
  Hf  Hf4  1  0.046186  0.251278  0.705092  1
  Hf  Hf5  1  0.950523  0.656794  0.206272  1
  Ti  Ti6  1  0.484232  0.492574  0.976767  1
  Ti  Ti7  1  0.015807  0.492574  0.508342  1
  Ti  Ti8  1  0.135030  0.253915  0.147988  1
  Ti  Ti9  1  0.894146  0.012976  0.148034  1
  Ti  Ti10  1  0.364942  0.012976  0.618830  1
  Ti  Ti11  1  0.605927  0.253915  0.618885  1
  Si  Si12  1  0.750038  0.251602  0.001566  1
  Si  Si13  1  0.332465  0.586882  0.252509  1
  Si  Si14  1  0.665569  0.920110  0.252606  1
  Si  Si15  1  0.167503  0.920110  0.754540  1
  Si  Si16  1  0.834374  0.586882  0.754417  1
  B  B17  1  0.250085  0.252834  0.502750  1
