# generated using pymatgen
data_TcSbF10
_symmetry_space_group_name_H-M   'P 1'
_cell_length_a   5.77219435
_cell_length_b   7.51263723
_cell_length_c   10.11211070
_cell_angle_alpha   88.56930991
_cell_angle_beta   106.11573723
_cell_angle_gamma   99.46342748
_symmetry_Int_Tables_number   1
_chemical_formula_structural   TcSbF10
_chemical_formula_sum   'Tc2 Sb2 F20'
_cell_volume   415.44156273
_cell_formula_units_Z   2
loop_
 _symmetry_equiv_pos_site_id
 _symmetry_equiv_pos_as_xyz
  1  'x, y, z'
loop_
 _atom_site_type_symbol
 _atom_site_label
 _atom_site_symmetry_multiplicity
 _atom_site_fract_x
 _atom_site_fract_y
 _atom_site_fract_z
 _atom_site_occupancy
  Tc  Tc0  1  0.341797  0.390408  0.222945  1
  Tc  Tc1  1  0.658203  0.609592  0.777055  1
  Sb  Sb2  1  0.964482  0.764700  0.314023  1
  Sb  Sb3  1  0.035518  0.235300  0.685977  1
  F  F4  1  0.038257  0.249656  0.165045  1
  F  F5  1  0.961743  0.750344  0.834955  1
  F  F6  1  0.479196  0.223145  0.154700  1
  F  F7  1  0.520804  0.776855  0.845300  1
  F  F8  1  0.112171  0.233221  0.880330  1
  F  F9  1  0.887829  0.766779  0.119670  1
  F  F10  1  0.965718  0.287915  0.496843  1
  F  F11  1  0.034282  0.712085  0.503157  1
  F  F12  1  0.760994  0.051806  0.662209  1
  F  F13  1  0.239006  0.948194  0.337791  1
  F  F14  1  0.265049  0.087045  0.678072  1
  F  F15  1  0.734951  0.912955  0.321928  1
  F  F16  1  0.300810  0.454606  0.712584  1
  F  F17  1  0.699190  0.545394  0.287416  1
  F  F18  1  0.821628  0.418959  0.695650  1
  F  F19  1  0.178372  0.581041  0.304350  1
  F  F20  1  0.686232  0.443489  0.915757  1
  F  F21  1  0.313768  0.556511  0.084243  1
  F  F22  1  0.573249  0.662340  0.593124  1
  F  F23  1  0.426751  0.337660  0.406876  1
