# generated using pymatgen
data_Sc8Re11TcB16
_symmetry_space_group_name_H-M   'P 1'
_cell_length_a   6.08965868
_cell_length_b   6.08965868
_cell_length_c   11.25692638
_cell_angle_alpha   89.97888743
_cell_angle_beta   90.02111257
_cell_angle_gamma   89.95002293
_symmetry_Int_Tables_number   1
_chemical_formula_structural   Sc8Re11TcB16
_chemical_formula_sum   'Sc8 Re11 Tc1 B16'
_cell_volume   417.45099932
_cell_formula_units_Z   1
loop_
 _symmetry_equiv_pos_site_id
 _symmetry_equiv_pos_as_xyz
  1  'x, y, z'
loop_
 _atom_site_type_symbol
 _atom_site_label
 _atom_site_symmetry_multiplicity
 _atom_site_fract_x
 _atom_site_fract_y
 _atom_site_fract_z
 _atom_site_occupancy
  Sc  Sc0  1  0.994604  0.653624  0.038706  1
  Sc  Sc1  1  0.004818  0.346993  0.538652  1
  Sc  Sc2  1  0.346993  0.004818  0.461348  1
  Sc  Sc3  1  0.153753  0.505635  0.788584  1
  Sc  Sc4  1  0.845483  0.495005  0.289248  1
  Sc  Sc5  1  0.505635  0.153753  0.211416  1
  Sc  Sc6  1  0.495005  0.845483  0.710752  1
  Sc  Sc7  1  0.653624  0.994604  0.961294  1
  Re  Re8  1  0.174378  0.825622  0.250156  1
  Re  Re9  1  0.325769  0.325769  0.000000  1
  Re  Re10  1  0.005385  0.850181  0.625176  1
  Re  Re11  1  0.994291  0.150118  0.125608  1
  Re  Re12  1  0.850181  0.005385  0.374824  1
  Re  Re13  1  0.350184  0.493750  0.375557  1
  Re  Re14  1  0.649699  0.505741  0.875310  1
  Re  Re15  1  0.493750  0.350184  0.624443  1
  Re  Re16  1  0.505741  0.649699  0.124690  1
  Re  Re17  1  0.150118  0.994291  0.874392  1
  Re  Re18  1  0.825622  0.174378  0.749844  1
  Tc  Tc19  1  0.673942  0.673942  0.500000  1
  B  B20  1  0.061557  0.709368  0.442187  1
  B  B21  1  0.641583  0.289235  0.440305  1
  B  B22  1  0.357439  0.709836  0.940182  1
  B  B23  1  0.209828  0.142457  0.689975  1
  B  B24  1  0.289235  0.641583  0.559695  1
  B  B25  1  0.709836  0.357439  0.059818  1
  B  B26  1  0.790188  0.857140  0.190559  1
  B  B27  1  0.142457  0.209828  0.310025  1
  B  B28  1  0.939437  0.291712  0.941810  1
  B  B29  1  0.709368  0.061557  0.557813  1
  B  B30  1  0.208406  0.439592  0.192077  1
  B  B31  1  0.792196  0.561052  0.691766  1
  B  B32  1  0.439592  0.208406  0.807923  1
  B  B33  1  0.561052  0.792196  0.308234  1
  B  B34  1  0.291712  0.939437  0.058190  1
  B  B35  1  0.857140  0.790188  0.809441  1
