# generated using pymatgen
data_Ba4CeMnO8
_symmetry_space_group_name_H-M   'P 1'
_cell_length_a   7.41935750
_cell_length_b   7.41935874
_cell_length_c   5.92799300
_cell_angle_alpha   90.00000000
_cell_angle_beta   90.00000000
_cell_angle_gamma   132.89368957
_symmetry_Int_Tables_number   1
_chemical_formula_structural   Ba4CeMnO8
_chemical_formula_sum   'Ba4 Ce1 Mn1 O8'
_cell_volume   239.06602293
_cell_formula_units_Z   1
loop_
 _symmetry_equiv_pos_site_id
 _symmetry_equiv_pos_as_xyz
  1  'x, y, z'
loop_
 _atom_site_type_symbol
 _atom_site_label
 _atom_site_symmetry_multiplicity
 _atom_site_fract_x
 _atom_site_fract_y
 _atom_site_fract_z
 _atom_site_occupancy
  Ba  Ba0  1  0.356595  0.643405  0.000000  1
  Ba  Ba1  1  0.851732  0.148268  0.500000  1
  Ba  Ba2  1  0.148268  0.851732  0.500000  1
  Ba  Ba3  1  0.643405  0.356595  0.000000  1
  Ce  Ce4  1  0.000000  0.000000  0.000000  1
  Mn  Mn5  1  0.500000  0.500000  0.500000  1
  O  O6  1  0.265807  0.265807  0.732055  1
  O  O7  1  0.734193  0.734193  0.267945  1
  O  O8  1  0.734193  0.734193  0.732055  1
  O  O9  1  0.265807  0.265807  0.267945  1
  O  O10  1  0.163334  0.836666  0.000000  1
  O  O11  1  0.649146  0.350854  0.500000  1
  O  O12  1  0.350854  0.649146  0.500000  1
  O  O13  1  0.836666  0.163334  0.000000  1
