# generated using pymatgen
data_PuTh3(BeB10)2
_symmetry_space_group_name_H-M   'P 1'
_cell_length_a   4.15194500
_cell_length_b   5.58610831
_cell_length_c   11.02604057
_cell_angle_alpha   90.10424546
_cell_angle_beta   90.00000000
_cell_angle_gamma   90.00000000
_symmetry_Int_Tables_number   1
_chemical_formula_structural   PuTh3(BeB10)2
_chemical_formula_sum   'Pu1 Th3 Be2 B20'
_cell_volume   255.72890028
_cell_formula_units_Z   1
loop_
 _symmetry_equiv_pos_site_id
 _symmetry_equiv_pos_as_xyz
  1  'x, y, z'
loop_
 _atom_site_type_symbol
 _atom_site_label
 _atom_site_symmetry_multiplicity
 _atom_site_fract_x
 _atom_site_fract_y
 _atom_site_fract_z
 _atom_site_occupancy
  Pu  Pu0  1  0.500000  0.299468  0.866257  1
  Th  Th1  1  0.500000  0.695680  0.132590  1
  Th  Th2  1  0.500000  0.801688  0.637280  1
  Th  Th3  1  0.500000  0.197947  0.365756  1
  Be  Be4  1  0.000000  0.499522  0.500611  1
  Be  Be5  1  0.000000  0.001904  0.998191  1
  B  B6  1  0.000000  0.129198  0.539245  1
  B  B7  1  0.000000  0.870924  0.461648  1
  B  B8  1  0.000000  0.629314  0.961010  1
  B  B9  1  0.000000  0.371676  0.037443  1
  B  B10  1  0.000000  0.159258  0.698042  1
  B  B11  1  0.000000  0.841483  0.302868  1
  B  B12  1  0.299895  0.199008  0.110323  1
  B  B13  1  0.300218  0.800962  0.888603  1
  B  B14  1  0.700315  0.698593  0.388466  1
  B  B15  1  0.699866  0.301564  0.612775  1
  B  B16  1  0.699782  0.800962  0.888603  1
  B  B17  1  0.700105  0.199008  0.110323  1
  B  B18  1  0.300134  0.301564  0.612775  1
  B  B19  1  0.299685  0.698593  0.388466  1
  B  B20  1  0.000000  0.030185  0.185333  1
  B  B21  1  0.000000  0.970757  0.813846  1
  B  B22  1  0.000000  0.530025  0.313710  1
  B  B23  1  0.000000  0.470451  0.686485  1
  B  B24  1  0.000000  0.341365  0.196180  1
  B  B25  1  0.000000  0.658903  0.803173  1
