# generated using pymatgen
data_Zr6Ti2Al14SiRh7
_symmetry_space_group_name_H-M   'P 1'
_cell_length_a   8.81808819
_cell_length_b   8.81808706
_cell_length_c   8.81808800
_cell_angle_alpha   120.26348144
_cell_angle_beta   119.71974790
_cell_angle_gamma   90.01516844
_symmetry_Int_Tables_number   1
_chemical_formula_structural   Zr6Ti2Al14SiRh7
_chemical_formula_sum   'Zr6 Ti2 Al14 Si1 Rh7'
_cell_volume   484.89874455
_cell_formula_units_Z   1
loop_
 _symmetry_equiv_pos_site_id
 _symmetry_equiv_pos_as_xyz
  1  'x, y, z'
loop_
 _atom_site_type_symbol
 _atom_site_label
 _atom_site_symmetry_multiplicity
 _atom_site_fract_x
 _atom_site_fract_y
 _atom_site_fract_z
 _atom_site_occupancy
  Zr  Zr0  1  0.798043  0.294721  0.085921  1
  Zr  Zr1  1  0.208800  0.294721  0.496678  1
  Zr  Zr2  1  0.203227  0.703227  0.500000  1
  Zr  Zr3  1  0.208800  0.712122  0.914079  1
  Zr  Zr4  1  0.798043  0.712122  0.503322  1
  Zr  Zr5  1  0.790256  0.290256  0.500000  1
  Ti  Ti6  1  0.380025  0.123312  0.743287  1
  Ti  Ti7  1  0.380025  0.636738  0.256713  1
  Al  Al8  1  0.163472  0.336247  0.172774  1
  Al  Al9  1  0.163472  0.990699  0.827226  1
  Al  Al10  1  0.159261  0.337955  0.821305  1
  Al  Al11  1  0.516648  0.337955  0.178695  1
  Al  Al12  1  0.836119  0.662835  0.826717  1
  Al  Al13  1  0.836119  0.009400  0.173283  1
  Al  Al14  1  0.835133  0.663233  0.171901  1
  Al  Al15  1  0.491332  0.663233  0.828099  1
  Al  Al16  1  0.380512  0.120605  0.259908  1
  Al  Al17  1  0.860698  0.120605  0.740092  1
  Al  Al18  1  0.619936  0.878301  0.258366  1
  Al  Al19  1  0.619936  0.361570  0.741634  1
  Al  Al20  1  0.617994  0.878036  0.739957  1
  Al  Al21  1  0.138078  0.878036  0.260043  1
  Si  Si22  1  0.996660  0.496660  0.500000  1
  Rh  Rh23  1  0.002212  0.000680  0.502137  1
  Rh  Rh24  1  0.498543  0.000680  0.998468  1
  Rh  Rh25  1  0.497611  0.497611  0.000000  1
  Rh  Rh26  1  0.498543  0.500075  0.497863  1
  Rh  Rh27  1  0.002212  0.500075  0.001532  1
  Rh  Rh28  1  0.000726  0.000726  0.000000  1
  Rh  Rh29  1  0.497562  0.997562  0.500000  1
