# generated using pymatgen
data_Co8GeMo12As3N4
_symmetry_space_group_name_H-M   'P 1'
_cell_length_a   7.86189520
_cell_length_b   7.86213792
_cell_length_c   7.87932148
_cell_angle_alpha   60.07918675
_cell_angle_beta   60.07333733
_cell_angle_gamma   59.99934690
_symmetry_Int_Tables_number   1
_chemical_formula_structural   Co8GeMo12As3N4
_chemical_formula_sum   'Co8 Ge1 Mo12 As3 N4'
_cell_volume   344.77774981
_cell_formula_units_Z   1
loop_
 _symmetry_equiv_pos_site_id
 _symmetry_equiv_pos_as_xyz
  1  'x, y, z'
loop_
 _atom_site_type_symbol
 _atom_site_label
 _atom_site_symmetry_multiplicity
 _atom_site_fract_x
 _atom_site_fract_y
 _atom_site_fract_z
 _atom_site_occupancy
  Co  Co0  1  0.252807  0.914622  0.917953  1
  Co  Co1  1  0.914714  0.252601  0.918021  1
  Co  Co2  1  0.914677  0.914640  0.917976  1
  Co  Co3  1  0.915840  0.915805  0.252568  1
  Co  Co4  1  0.997040  0.335385  0.332198  1
  Co  Co5  1  0.334331  0.334340  0.997030  1
  Co  Co6  1  0.335446  0.996967  0.332206  1
  Co  Co7  1  0.335477  0.335496  0.332288  1
  Ge  Ge8  1  0.124908  0.125108  0.624865  1
  Mo  Mo9  1  0.693593  0.307242  0.691937  1
  Mo  Mo10  1  0.557952  0.557767  0.942289  1
  Mo  Mo11  1  0.556586  0.942637  0.558095  1
  Mo  Mo12  1  0.942590  0.942525  0.558274  1
  Mo  Mo13  1  0.942560  0.556591  0.558306  1
  Mo  Mo14  1  0.941899  0.557916  0.942196  1
  Mo  Mo15  1  0.692494  0.307684  0.307498  1
  Mo  Mo16  1  0.307634  0.692520  0.307491  1
  Mo  Mo17  1  0.307104  0.307138  0.692126  1
  Mo  Mo18  1  0.307198  0.693615  0.691971  1
  Mo  Mo19  1  0.692350  0.692300  0.307591  1
  Mo  Mo20  1  0.557940  0.941972  0.942300  1
  As  As21  1  0.625067  0.125000  0.124935  1
  As  As22  1  0.124922  0.624936  0.125028  1
  As  As23  1  0.124967  0.125101  0.125046  1
  N  N24  1  0.624937  0.625022  0.624962  1
  N  N25  1  0.125125  0.624957  0.624904  1
  N  N26  1  0.624923  0.125109  0.624925  1
  N  N27  1  0.624923  0.625010  0.125021  1
