# generated using pymatgen
data_Cs12Na8Zr2TiSnSb12
_symmetry_space_group_name_H-M   'P 1'
_cell_length_a   11.76070137
_cell_length_b   11.76070093
_cell_length_c   17.68986301
_cell_angle_alpha   89.94189312
_cell_angle_beta   89.94189236
_cell_angle_gamma   142.83800790
_symmetry_Int_Tables_number   1
_chemical_formula_structural   Cs12Na8Zr2TiSnSb12
_chemical_formula_sum   'Cs12 Na8 Zr2 Ti1 Sn1 Sb12'
_cell_volume   1478.00666768
_cell_formula_units_Z   1
loop_
 _symmetry_equiv_pos_site_id
 _symmetry_equiv_pos_as_xyz
  1  'x, y, z'
loop_
 _atom_site_type_symbol
 _atom_site_label
 _atom_site_symmetry_multiplicity
 _atom_site_fract_x
 _atom_site_fract_y
 _atom_site_fract_z
 _atom_site_occupancy
  Cs  Cs0  1  0.944737  0.607429  0.830093  1
  Cs  Cs1  1  0.552873  0.892765  0.326787  1
  Cs  Cs2  1  0.392571  0.055263  0.169907  1
  Cs  Cs3  1  0.054436  0.393760  0.173327  1
  Cs  Cs4  1  0.899631  0.565571  0.328395  1
  Cs  Cs5  1  0.434429  0.100369  0.671605  1
  Cs  Cs6  1  0.606240  0.945564  0.826673  1
  Cs  Cs7  1  0.278219  0.274836  0.318284  1
  Cs  Cs8  1  0.781193  0.780680  0.178543  1
  Cs  Cs9  1  0.219320  0.218807  0.821457  1
  Cs  Cs10  1  0.725164  0.721781  0.681716  1
  Cs  Cs11  1  0.107235  0.447127  0.673213  1
  Na  Na12  1  0.919376  0.080624  0.000000  1
  Na  Na13  1  0.581878  0.418122  0.500000  1
  Na  Na14  1  0.080701  0.919299  0.000000  1
  Na  Na15  1  0.418495  0.581505  0.500000  1
  Na  Na16  1  0.753935  0.246065  0.000000  1
  Na  Na17  1  0.746305  0.253695  0.500000  1
  Na  Na18  1  0.246170  0.753830  0.000000  1
  Na  Na19  1  0.253979  0.746021  0.500000  1
  Zr  Zr20  1  0.917084  0.082916  0.500000  1
  Zr  Zr21  1  0.414923  0.585077  0.000000  1
  Ti  Ti22  1  0.585880  0.414120  0.000000  1
  Sn  Sn23  1  0.084390  0.915610  0.500000  1
  Sb  Sb24  1  0.864046  0.554866  0.090014  1
  Sb  Sb25  1  0.445134  0.135954  0.909986  1
  Sb  Sb26  1  0.627630  0.940612  0.594487  1
  Sb  Sb27  1  0.935274  0.618879  0.597220  1
  Sb  Sb28  1  0.123790  0.438932  0.905437  1
  Sb  Sb29  1  0.561068  0.876210  0.094563  1
  Sb  Sb30  1  0.381121  0.064726  0.402780  1
  Sb  Sb31  1  0.208708  0.211135  0.591492  1
  Sb  Sb32  1  0.701006  0.695195  0.915135  1
  Sb  Sb33  1  0.304805  0.298994  0.084865  1
  Sb  Sb34  1  0.059388  0.372370  0.405513  1
  Sb  Sb35  1  0.788865  0.791292  0.408508  1
