# generated using pymatgen
data_Yb6Hf2TcH27
_symmetry_space_group_name_H-M   'P 1'
_cell_length_a   8.64101400
_cell_length_b   8.64101518
_cell_length_c   5.00689300
_cell_angle_alpha   90.00000000
_cell_angle_beta   90.00000000
_cell_angle_gamma   119.99999549
_symmetry_Int_Tables_number   1
_chemical_formula_structural   Yb6Hf2TcH27
_chemical_formula_sum   'Yb6 Hf2 Tc1 H27'
_cell_volume   323.76391178
_cell_formula_units_Z   1
loop_
 _symmetry_equiv_pos_site_id
 _symmetry_equiv_pos_as_xyz
  1  'x, y, z'
loop_
 _atom_site_type_symbol
 _atom_site_label
 _atom_site_symmetry_multiplicity
 _atom_site_fract_x
 _atom_site_fract_y
 _atom_site_fract_z
 _atom_site_occupancy
  Yb  Yb0  1  0.258327  0.999038  0.500000  1
  Yb  Yb1  1  0.000962  0.259290  0.500000  1
  Yb  Yb2  1  0.740710  0.741673  0.500000  1
  Yb  Yb3  1  0.591602  0.940424  0.000000  1
  Yb  Yb4  1  0.059576  0.651178  0.000000  1
  Yb  Yb5  1  0.348822  0.408398  0.000000  1
  Hf  Hf6  1  0.000000  0.000000  0.000000  1
  Hf  Hf7  1  0.333333  0.666667  0.500000  1
  Tc  Tc8  1  0.666667  0.333333  0.500000  1
  H  H9  1  0.837433  0.000696  0.267316  1
  H  H10  1  0.999304  0.836738  0.267316  1
  H  H11  1  0.837433  0.000696  0.732684  1
  H  H12  1  0.999304  0.836738  0.732684  1
  H  H13  1  0.163262  0.162567  0.267316  1
  H  H14  1  0.163262  0.162567  0.732684  1
  H  H15  1  0.223056  0.990322  0.000000  1
  H  H16  1  0.009678  0.232733  0.000000  1
  H  H17  1  0.767267  0.776944  0.000000  1
  H  H18  1  0.171694  0.504980  0.228683  1
  H  H19  1  0.495020  0.666714  0.228683  1
  H  H20  1  0.171694  0.504980  0.771317  1
  H  H21  1  0.530356  0.198279  0.745646  1
  H  H22  1  0.333286  0.828306  0.228683  1
  H  H23  1  0.495020  0.666714  0.771317  1
  H  H24  1  0.667922  0.469644  0.745646  1
  H  H25  1  0.530356  0.198279  0.254354  1
  H  H26  1  0.333286  0.828306  0.771317  1
  H  H27  1  0.667922  0.469644  0.254354  1
  H  H28  1  0.801721  0.332078  0.745646  1
  H  H29  1  0.801721  0.332078  0.254354  1
  H  H30  1  0.314302  0.433099  0.500000  1
  H  H31  1  0.566901  0.881203  0.500000  1
  H  H32  1  0.477479  0.339975  0.500000  1
  H  H33  1  0.118797  0.685698  0.500000  1
  H  H34  1  0.862495  0.522521  0.500000  1
  H  H35  1  0.660025  0.137505  0.500000  1
