# generated using pymatgen
data_Zr5(TlBi)2
_symmetry_space_group_name_H-M   'P 1'
_cell_length_a   8.99807445
_cell_length_b   8.99807611
_cell_length_c   6.01895600
_cell_angle_alpha   90.00000000
_cell_angle_beta   90.00000000
_cell_angle_gamma   119.63514227
_symmetry_Int_Tables_number   1
_chemical_formula_structural   Zr5(TlBi)2
_chemical_formula_sum   'Zr10 Tl4 Bi4'
_cell_volume   423.58057678
_cell_formula_units_Z   2
loop_
 _symmetry_equiv_pos_site_id
 _symmetry_equiv_pos_as_xyz
  1  'x, y, z'
loop_
 _atom_site_type_symbol
 _atom_site_label
 _atom_site_symmetry_multiplicity
 _atom_site_fract_x
 _atom_site_fract_y
 _atom_site_fract_z
 _atom_site_occupancy
  Zr  Zr0  1  0.718908  0.718908  0.750000  1
  Zr  Zr1  1  0.282608  0.001930  0.750000  1
  Zr  Zr2  1  0.001930  0.282608  0.750000  1
  Zr  Zr3  1  0.285158  0.285158  0.250000  1
  Zr  Zr4  1  0.713877  0.000468  0.250000  1
  Zr  Zr5  1  0.000468  0.713877  0.250000  1
  Zr  Zr6  1  0.666763  0.331856  0.003114  1
  Zr  Zr7  1  0.331856  0.666763  0.003114  1
  Zr  Zr8  1  0.331856  0.666763  0.496886  1
  Zr  Zr9  1  0.666763  0.331856  0.496886  1
  Tl  Tl10  1  0.377456  0.000054  0.250000  1
  Tl  Tl11  1  0.000054  0.377456  0.250000  1
  Tl  Tl12  1  0.001527  0.001527  0.002655  1
  Tl  Tl13  1  0.001527  0.001527  0.497345  1
  Bi  Bi14  1  0.385605  0.385605  0.750000  1
  Bi  Bi15  1  0.615024  0.000444  0.750000  1
  Bi  Bi16  1  0.000444  0.615024  0.750000  1
  Bi  Bi17  1  0.618176  0.618176  0.250000  1
