# generated using pymatgen
data_Tm9Mg(Cu2Sb)2
_symmetry_space_group_name_H-M   'P 1'
_cell_length_a   8.44082624
_cell_length_b   8.44082645
_cell_length_c   8.44082682
_cell_angle_alpha   126.20089635
_cell_angle_beta   126.20090159
_cell_angle_gamma   79.55819823
_symmetry_Int_Tables_number   1
_chemical_formula_structural   Tm9Mg(Cu2Sb)2
_chemical_formula_sum   'Tm9 Mg1 Cu4 Sb2'
_cell_volume   378.41363601
_cell_formula_units_Z   1
loop_
 _symmetry_equiv_pos_site_id
 _symmetry_equiv_pos_as_xyz
  1  'x, y, z'
loop_
 _atom_site_type_symbol
 _atom_site_label
 _atom_site_symmetry_multiplicity
 _atom_site_fract_x
 _atom_site_fract_y
 _atom_site_fract_z
 _atom_site_occupancy
  Tm  Tm0  1  0.000000  0.000000  0.000000  1
  Tm  Tm1  1  0.791262  0.305026  0.817409  1
  Tm  Tm2  1  0.208738  0.694974  0.182591  1
  Tm  Tm3  1  0.487617  0.973853  0.182591  1
  Tm  Tm4  1  0.305026  0.487617  0.513763  1
  Tm  Tm5  1  0.026147  0.208738  0.513763  1
  Tm  Tm6  1  0.512383  0.026147  0.817409  1
  Tm  Tm7  1  0.694974  0.512383  0.486237  1
  Tm  Tm8  1  0.973853  0.791262  0.486237  1
  Mg  Mg9  1  0.500000  0.500000  0.000000  1
  Cu  Cu10  1  0.125005  0.631288  0.756292  1
  Cu  Cu11  1  0.874995  0.368712  0.243708  1
  Cu  Cu12  1  0.631288  0.874995  0.506284  1
  Cu  Cu13  1  0.368712  0.125005  0.493716  1
  Sb  Sb14  1  0.245462  0.245462  0.000000  1
  Sb  Sb15  1  0.754538  0.754538  0.000000  1
