# generated using pymatgen
data_NaNb4AsO13
_symmetry_space_group_name_H-M   'P 1'
_cell_length_a   7.48686803
_cell_length_b   7.48686803
_cell_length_c   10.19735700
_cell_angle_alpha   90.00000000
_cell_angle_beta   90.00000000
_cell_angle_gamma   90.92948923
_symmetry_Int_Tables_number   1
_chemical_formula_structural   NaNb4AsO13
_chemical_formula_sum   'Na2 Nb8 As2 O26'
_cell_volume   571.51920642
_cell_formula_units_Z   2
loop_
 _symmetry_equiv_pos_site_id
 _symmetry_equiv_pos_as_xyz
  1  'x, y, z'
loop_
 _atom_site_type_symbol
 _atom_site_label
 _atom_site_symmetry_multiplicity
 _atom_site_fract_x
 _atom_site_fract_y
 _atom_site_fract_z
 _atom_site_occupancy
  Na  Na0  1  0.458907  0.458907  0.351516  1
  Na  Na1  1  0.541093  0.541093  0.851516  1
  Nb  Nb2  1  0.557503  0.899962  0.252145  1
  Nb  Nb3  1  0.100038  0.442497  0.752145  1
  Nb  Nb4  1  0.442497  0.100038  0.752145  1
  Nb  Nb5  1  0.899962  0.557503  0.252145  1
  Nb  Nb6  1  0.176655  0.822931  0.502296  1
  Nb  Nb7  1  0.177069  0.823345  0.002296  1
  Nb  Nb8  1  0.822931  0.176655  0.502296  1
  Nb  Nb9  1  0.823345  0.177069  0.002296  1
  As  As10  1  0.163925  0.163925  0.255366  1
  As  As11  1  0.836075  0.836075  0.755366  1
  O  O12  1  0.662233  0.662233  0.251711  1
  O  O13  1  0.337767  0.337767  0.751711  1
  O  O14  1  0.390392  0.135786  0.264656  1
  O  O15  1  0.864214  0.609608  0.764656  1
  O  O16  1  0.609608  0.864214  0.764656  1
  O  O17  1  0.135786  0.390392  0.264656  1
  O  O18  1  0.783629  0.366827  0.390992  1
  O  O19  1  0.640484  0.193761  0.622465  1
  O  O20  1  0.806239  0.359516  0.122465  1
  O  O21  1  0.633173  0.216371  0.890992  1
  O  O22  1  0.193761  0.640484  0.622465  1
  O  O23  1  0.366827  0.783629  0.390992  1
  O  O24  1  0.216371  0.633173  0.890992  1
  O  O25  1  0.359516  0.806239  0.122465  1
  O  O26  1  0.066893  0.066893  0.394675  1
  O  O27  1  0.927787  0.927787  0.614214  1
  O  O28  1  0.072213  0.072213  0.114214  1
  O  O29  1  0.933107  0.933107  0.894675  1
  O  O30  1  0.693731  0.995598  0.391152  1
  O  O31  1  0.006835  0.307391  0.612752  1
  O  O32  1  0.692609  0.993165  0.112752  1
  O  O33  1  0.004402  0.306269  0.891152  1
  O  O34  1  0.307391  0.006835  0.612752  1
  O  O35  1  0.995598  0.693731  0.391152  1
  O  O36  1  0.306269  0.004402  0.891152  1
  O  O37  1  0.993165  0.692609  0.112752  1
