# generated using pymatgen
data_Ba6TaZnSbO12
_symmetry_space_group_name_H-M   'P 1'
_cell_length_a   9.36968674
_cell_length_b   9.36968526
_cell_length_c   7.30108844
_cell_angle_alpha   67.47440059
_cell_angle_beta   67.47440504
_cell_angle_gamma   36.88351566
_symmetry_Int_Tables_number   1
_chemical_formula_structural   Ba6TaZnSbO12
_chemical_formula_sum   'Ba6 Ta1 Zn1 Sb1 O12'
_cell_volume   351.93936330
_cell_formula_units_Z   1
loop_
 _symmetry_equiv_pos_site_id
 _symmetry_equiv_pos_as_xyz
  1  'x, y, z'
loop_
 _atom_site_type_symbol
 _atom_site_label
 _atom_site_symmetry_multiplicity
 _atom_site_fract_x
 _atom_site_fract_y
 _atom_site_fract_z
 _atom_site_occupancy
  Ba  Ba0  1  0.206753  0.206753  0.706865  1
  Ba  Ba1  1  0.888635  0.888635  0.708106  1
  Ba  Ba2  1  0.546975  0.546975  0.716779  1
  Ba  Ba3  1  0.793898  0.793898  0.290439  1
  Ba  Ba4  1  0.451221  0.451221  0.283740  1
  Ba  Ba5  1  0.110979  0.110979  0.294290  1
  Ta  Ta6  1  0.666204  0.666204  0.001510  1
  Zn  Zn7  1  0.999728  0.999728  0.000002  1
  Sb  Sb8  1  0.331391  0.331391  0.998713  1
  O  O9  1  0.277851  0.277851  0.303578  1
  O  O10  1  0.948878  0.948878  0.312575  1
  O  O11  1  0.620944  0.620944  0.303317  1
  O  O12  1  0.721920  0.721920  0.698740  1
  O  O13  1  0.379106  0.379106  0.694355  1
  O  O14  1  0.052802  0.052802  0.686874  1
  O  O15  1  0.002246  0.497746  0.000043  1
  O  O16  1  0.647070  0.174819  0.000791  1
  O  O17  1  0.357054  0.823778  0.999224  1
  O  O18  1  0.497746  0.002246  0.000043  1
  O  O19  1  0.174819  0.647070  0.000791  1
  O  O20  1  0.823778  0.357054  0.999224  1
