# generated using pymatgen
data_CaCe2Y(B4Ru)4
_symmetry_space_group_name_H-M   'P 1'
_cell_length_a   3.59722200
_cell_length_b   5.99145758
_cell_length_c   11.60012576
_cell_angle_alpha   89.95811360
_cell_angle_beta   90.00000000
_cell_angle_gamma   90.00000000
_symmetry_Int_Tables_number   1
_chemical_formula_structural   CaCe2Y(B4Ru)4
_chemical_formula_sum   'Ca1 Ce2 Y1 B16 Ru4'
_cell_volume   250.01283888
_cell_formula_units_Z   1
loop_
 _symmetry_equiv_pos_site_id
 _symmetry_equiv_pos_as_xyz
  1  'x, y, z'
loop_
 _atom_site_type_symbol
 _atom_site_label
 _atom_site_symmetry_multiplicity
 _atom_site_fract_x
 _atom_site_fract_y
 _atom_site_fract_z
 _atom_site_occupancy
  Ca  Ca0  1  0.000000  0.629101  0.350427  1
  Ce  Ce1  1  0.000000  0.372009  0.649140  1
  Ce  Ce2  1  0.000000  0.128506  0.151028  1
  Y  Y3  1  0.000000  0.871911  0.850440  1
  B  B4  1  0.500000  0.786685  0.184406  1
  B  B5  1  0.500000  0.212631  0.814425  1
  B  B6  1  0.500000  0.285212  0.314622  1
  B  B7  1  0.500000  0.712854  0.684901  1
  B  B8  1  0.500000  0.864143  0.030634  1
  B  B9  1  0.500000  0.137138  0.968321  1
  B  B10  1  0.500000  0.362060  0.469185  1
  B  B11  1  0.500000  0.637088  0.531484  1
  B  B12  1  0.500000  0.886176  0.453230  1
  B  B13  1  0.500000  0.110178  0.545741  1
  B  B14  1  0.500000  0.389556  0.045822  1
  B  B15  1  0.500000  0.613078  0.953131  1
  B  B16  1  0.500000  0.976697  0.309420  1
  B  B17  1  0.500000  0.024686  0.691287  1
  B  B18  1  0.500000  0.474593  0.190388  1
  B  B19  1  0.500000  0.525238  0.809194  1
  Ru  Ru20  1  0.000000  0.638947  0.091992  1
  Ru  Ru21  1  0.000000  0.359810  0.907258  1
  Ru  Ru22  1  0.000000  0.139471  0.409284  1
  Ru  Ru23  1  0.000000  0.862231  0.594239  1
