# generated using pymatgen
data_NaLi3(BrO3)4
_symmetry_space_group_name_H-M   'P 1'
_cell_length_a   6.98641027
_cell_length_b   6.98641044
_cell_length_c   6.96822900
_cell_angle_alpha   70.97083471
_cell_angle_beta   70.97083425
_cell_angle_gamma   88.15095107
_symmetry_Int_Tables_number   1
_chemical_formula_structural   NaLi3(BrO3)4
_chemical_formula_sum   'Na1 Li3 Br4 O12'
_cell_volume   302.91635123
_cell_formula_units_Z   1
loop_
 _symmetry_equiv_pos_site_id
 _symmetry_equiv_pos_as_xyz
  1  'x, y, z'
loop_
 _atom_site_type_symbol
 _atom_site_label
 _atom_site_symmetry_multiplicity
 _atom_site_fract_x
 _atom_site_fract_y
 _atom_site_fract_z
 _atom_site_occupancy
  Na  Na0  1  0.742354  0.257646  0.000000  1
  Li  Li1  1  0.917163  0.082837  0.500000  1
  Li  Li2  1  0.102269  0.897731  0.000000  1
  Li  Li3  1  0.252289  0.747711  0.500000  1
  Br  Br4  1  0.826474  0.571496  0.495483  1
  Br  Br5  1  0.428504  0.173526  0.504517  1
  Br  Br6  1  0.190567  0.427257  0.982019  1
  Br  Br7  1  0.572743  0.809433  0.017981  1
  O  O8  1  0.944300  0.355580  0.537476  1
  O  O9  1  0.644420  0.055700  0.462524  1
  O  O10  1  0.035727  0.604364  0.046075  1
  O  O11  1  0.395636  0.964273  0.953925  1
  O  O12  1  0.520370  0.765270  0.281812  1
  O  O13  1  0.234730  0.479630  0.718188  1
  O  O14  1  0.441171  0.314080  0.252740  1
  O  O15  1  0.685920  0.558829  0.747260  1
  O  O16  1  0.006653  0.769483  0.407783  1
  O  O17  1  0.230517  0.993347  0.592217  1
  O  O18  1  0.036770  0.208576  0.101096  1
  O  O19  1  0.791424  0.963230  0.898904  1
