# generated using pymatgen
data_Lu16Zr4Ir11Rh
_symmetry_space_group_name_H-M   'P 1'
_cell_length_a   10.63471100
_cell_length_b   10.63471100
_cell_length_c   6.10234000
_cell_angle_alpha   90.00000000
_cell_angle_beta   90.00000000
_cell_angle_gamma   90.00000000
_symmetry_Int_Tables_number   1
_chemical_formula_structural   Lu16Zr4Ir11Rh
_chemical_formula_sum   'Lu16 Zr4 Ir11 Rh1'
_cell_volume   690.15682329
_cell_formula_units_Z   1
loop_
 _symmetry_equiv_pos_site_id
 _symmetry_equiv_pos_as_xyz
  1  'x, y, z'
loop_
 _atom_site_type_symbol
 _atom_site_label
 _atom_site_symmetry_multiplicity
 _atom_site_fract_x
 _atom_site_fract_y
 _atom_site_fract_z
 _atom_site_occupancy
  Lu  Lu0  1  0.290455  0.086679  0.372898  1
  Lu  Lu1  1  0.289898  0.913005  0.870872  1
  Lu  Lu2  1  0.710102  0.086995  0.870872  1
  Lu  Lu3  1  0.709545  0.913321  0.372898  1
  Lu  Lu4  1  0.586995  0.789898  0.870872  1
  Lu  Lu5  1  0.586679  0.209545  0.372898  1
  Lu  Lu6  1  0.413321  0.790455  0.372898  1
  Lu  Lu7  1  0.413005  0.210102  0.870872  1
  Lu  Lu8  1  0.209504  0.413079  0.627902  1
  Lu  Lu9  1  0.209594  0.587399  0.128113  1
  Lu  Lu10  1  0.790406  0.412601  0.128113  1
  Lu  Lu11  1  0.790496  0.586921  0.627902  1
  Lu  Lu12  1  0.912601  0.709594  0.128113  1
  Lu  Lu13  1  0.913079  0.290496  0.627902  1
  Lu  Lu14  1  0.086921  0.709504  0.627902  1
  Lu  Lu15  1  0.087399  0.290406  0.128113  1
  Zr  Zr16  1  0.000000  0.000000  0.499779  1
  Zr  Zr17  1  0.000000  0.000000  0.000197  1
  Zr  Zr18  1  0.500000  0.500000  0.000197  1
  Zr  Zr19  1  0.500000  0.500000  0.499779  1
  Ir  Ir20  1  0.849996  0.148836  0.249888  1
  Ir  Ir21  1  0.850590  0.850899  0.749988  1
  Ir  Ir22  1  0.149410  0.149101  0.749988  1
  Ir  Ir23  1  0.150004  0.851164  0.249888  1
  Ir  Ir24  1  0.649101  0.350590  0.749988  1
  Ir  Ir25  1  0.648836  0.650004  0.249888  1
  Ir  Ir26  1  0.351164  0.349996  0.249888  1
  Ir  Ir27  1  0.350899  0.649410  0.749988  1
  Ir  Ir28  1  0.500000  0.000000  0.620361  1
  Ir  Ir29  1  0.000000  0.500000  0.881577  1
  Ir  Ir30  1  0.000000  0.500000  0.381199  1
  Rh  Rh31  1  0.500000  0.000000  0.118270  1
