# generated using pymatgen
data_Pu2SF18
_symmetry_space_group_name_H-M   'P 1'
_cell_length_a   9.08952493
_cell_length_b   9.08995145
_cell_length_c   5.39885379
_cell_angle_alpha   85.50260079
_cell_angle_beta   85.47664005
_cell_angle_gamma   60.78267184
_symmetry_Int_Tables_number   1
_chemical_formula_structural   Pu2SF18
_chemical_formula_sum   'Pu2 S1 F18'
_cell_volume   387.69837033
_cell_formula_units_Z   1
loop_
 _symmetry_equiv_pos_site_id
 _symmetry_equiv_pos_as_xyz
  1  'x, y, z'
loop_
 _atom_site_type_symbol
 _atom_site_label
 _atom_site_symmetry_multiplicity
 _atom_site_fract_x
 _atom_site_fract_y
 _atom_site_fract_z
 _atom_site_occupancy
  Pu  Pu0  1  0.668495  0.668123  0.409594  1
  Pu  Pu1  1  0.999986  0.000302  0.998964  1
  S  S2  1  0.331535  0.331504  0.589958  1
  F  F3  1  0.260863  0.506659  0.430923  1
  F  F4  1  0.921986  0.922388  0.314858  1
  F  F5  1  0.078198  0.077554  0.683303  1
  F  F6  1  0.775011  0.082033  0.861711  1
  F  F7  1  0.918083  0.226109  0.139609  1
  F  F8  1  0.224981  0.918380  0.138327  1
  F  F9  1  0.082273  0.774069  0.861054  1
  F  F10  1  0.450578  0.756095  0.609009  1
  F  F11  1  0.756502  0.449641  0.610359  1
  F  F12  1  0.260688  0.260782  0.395140  1
  F  F13  1  0.756401  0.755947  0.656093  1
  F  F14  1  0.402436  0.402458  0.784447  1
  F  F15  1  0.579250  0.579790  0.165465  1
  F  F16  1  0.402135  0.156507  0.748854  1
  F  F17  1  0.886625  0.581268  0.211714  1
  F  F18  1  0.580934  0.887286  0.210770  1
  F  F19  1  0.156393  0.402197  0.749002  1
  F  F20  1  0.506648  0.260907  0.430846  1
