# generated using pymatgen
data_Th14CoRe4Ir
_symmetry_space_group_name_H-M   'P 1'
_cell_length_a   9.98146541
_cell_length_b   9.98146821
_cell_length_c   6.32372116
_cell_angle_alpha   90.14792672
_cell_angle_beta   89.85207311
_cell_angle_gamma   119.02998115
_symmetry_Int_Tables_number   1
_chemical_formula_structural   Th14CoRe4Ir
_chemical_formula_sum   'Th14 Co1 Re4 Ir1'
_cell_volume   550.87455072
_cell_formula_units_Z   1
loop_
 _symmetry_equiv_pos_site_id
 _symmetry_equiv_pos_as_xyz
  1  'x, y, z'
loop_
 _atom_site_type_symbol
 _atom_site_label
 _atom_site_symmetry_multiplicity
 _atom_site_fract_x
 _atom_site_fract_y
 _atom_site_fract_z
 _atom_site_occupancy
  Th  Th0  1  0.331252  0.668748  0.024417  1
  Th  Th1  1  0.665997  0.334003  0.527727  1
  Th  Th2  1  0.126757  0.873243  0.248016  1
  Th  Th3  1  0.252570  0.123268  0.757246  1
  Th  Th4  1  0.876732  0.747430  0.757246  1
  Th  Th5  1  0.130240  0.254521  0.258879  1
  Th  Th6  1  0.745479  0.869760  0.258879  1
  Th  Th7  1  0.875204  0.124796  0.757848  1
  Th  Th8  1  0.538192  0.461808  0.045558  1
  Th  Th9  1  0.079399  0.548604  0.548830  1
  Th  Th10  1  0.451396  0.920601  0.548830  1
  Th  Th11  1  0.541947  0.076893  0.045057  1
  Th  Th12  1  0.923107  0.458053  0.045057  1
  Th  Th13  1  0.461248  0.538752  0.548892  1
  Co  Co14  1  0.186059  0.813941  0.791992  1
  Re  Re15  1  0.626260  0.818057  0.799883  1
  Re  Re16  1  0.181943  0.373740  0.799883  1
  Re  Re17  1  0.818961  0.627295  0.297843  1
  Re  Re18  1  0.372705  0.181039  0.297843  1
  Ir  Ir19  1  0.814550  0.185450  0.300077  1
