# generated using pymatgen
data_Er6Lu2MoOs3C8
_symmetry_space_group_name_H-M   'P 1'
_cell_length_a   5.04058100
_cell_length_b   6.48731827
_cell_length_c   9.71802931
_cell_angle_alpha   89.64437386
_cell_angle_beta   90.00000000
_cell_angle_gamma   90.00000000
_symmetry_Int_Tables_number   1
_chemical_formula_structural   Er6Lu2MoOs3C8
_chemical_formula_sum   'Er6 Lu2 Mo1 Os3 C8'
_cell_volume   317.77201050
_cell_formula_units_Z   1
loop_
 _symmetry_equiv_pos_site_id
 _symmetry_equiv_pos_as_xyz
  1  'x, y, z'
loop_
 _atom_site_type_symbol
 _atom_site_label
 _atom_site_symmetry_multiplicity
 _atom_site_fract_x
 _atom_site_fract_y
 _atom_site_fract_z
 _atom_site_occupancy
  Er  Er0  1  0.250000  0.677750  0.555163  1
  Er  Er1  1  0.250000  0.178366  0.943262  1
  Er  Er2  1  0.250000  0.532906  0.214468  1
  Er  Er3  1  0.750000  0.466573  0.780686  1
  Er  Er4  1  0.750000  0.969655  0.715682  1
  Er  Er5  1  0.250000  0.031028  0.285398  1
  Lu  Lu6  1  0.750000  0.325597  0.443253  1
  Lu  Lu7  1  0.750000  0.826774  0.057213  1
  Mo  Mo8  1  0.250000  0.717391  0.870259  1
  Os  Os9  1  0.750000  0.281713  0.133635  1
  Os  Os10  1  0.750000  0.780069  0.365525  1
  Os  Os11  1  0.250000  0.219617  0.630114  1
  C  C12  1  0.250000  0.448840  0.758723  1
  C  C13  1  0.750000  0.546112  0.241900  1
  C  C14  1  0.750000  0.047447  0.259629  1
  C  C15  1  0.250000  0.953818  0.739997  1
  C  C16  1  0.250000  0.827629  0.059386  1
  C  C17  1  0.750000  0.171879  0.948914  1
  C  C18  1  0.750000  0.670663  0.552303  1
  C  C19  1  0.250000  0.326171  0.444490  1
