# generated using pymatgen
data_Ni(SnPd)2
_symmetry_space_group_name_H-M   'P 1'
_cell_length_a   5.59168300
_cell_length_b   7.43472900
_cell_length_c   8.49531900
_cell_angle_alpha   90.00000000
_cell_angle_beta   90.00000000
_cell_angle_gamma   90.00000000
_symmetry_Int_Tables_number   1
_chemical_formula_structural   Ni(SnPd)2
_chemical_formula_sum   'Ni4 Sn8 Pd8'
_cell_volume   353.17290439
_cell_formula_units_Z   4
loop_
 _symmetry_equiv_pos_site_id
 _symmetry_equiv_pos_as_xyz
  1  'x, y, z'
loop_
 _atom_site_type_symbol
 _atom_site_label
 _atom_site_symmetry_multiplicity
 _atom_site_fract_x
 _atom_site_fract_y
 _atom_site_fract_z
 _atom_site_occupancy
  Ni  Ni0  1  0.250000  0.908028  0.371131  1
  Ni  Ni1  1  0.750000  0.091972  0.628869  1
  Ni  Ni2  1  0.250000  0.408028  0.128869  1
  Ni  Ni3  1  0.750000  0.591972  0.871131  1
  Sn  Sn4  1  0.250000  0.566115  0.395405  1
  Sn  Sn5  1  0.250000  0.091624  0.634609  1
  Sn  Sn6  1  0.750000  0.908376  0.365391  1
  Sn  Sn7  1  0.750000  0.408376  0.134609  1
  Sn  Sn8  1  0.250000  0.591624  0.865391  1
  Sn  Sn9  1  0.250000  0.066115  0.104595  1
  Sn  Sn10  1  0.750000  0.433885  0.604595  1
  Sn  Sn11  1  0.750000  0.933885  0.895405  1
  Pd  Pd12  1  0.499114  0.240346  0.375476  1
  Pd  Pd13  1  0.999114  0.759654  0.624524  1
  Pd  Pd14  1  0.500886  0.259654  0.875476  1
  Pd  Pd15  1  0.999114  0.259654  0.875476  1
  Pd  Pd16  1  0.500886  0.759654  0.624524  1
  Pd  Pd17  1  0.000886  0.240346  0.375476  1
  Pd  Pd18  1  0.499114  0.740346  0.124524  1
  Pd  Pd19  1  0.000886  0.740346  0.124524  1
