# generated using pymatgen
data_LaDy9Sb9Te
_symmetry_space_group_name_H-M   'P 1'
_cell_length_a   7.62171873
_cell_length_b   8.86676675
_cell_length_c   9.85478554
_cell_angle_alpha   103.05063982
_cell_angle_beta   97.32675756
_cell_angle_gamma   106.90543384
_symmetry_Int_Tables_number   1
_chemical_formula_structural   LaDy9Sb9Te
_chemical_formula_sum   'La1 Dy9 Sb9 Te1'
_cell_volume   607.26747547
_cell_formula_units_Z   1
loop_
 _symmetry_equiv_pos_site_id
 _symmetry_equiv_pos_as_xyz
  1  'x, y, z'
loop_
 _atom_site_type_symbol
 _atom_site_label
 _atom_site_symmetry_multiplicity
 _atom_site_fract_x
 _atom_site_fract_y
 _atom_site_fract_z
 _atom_site_occupancy
  La  La0  1  0.899733  0.051937  0.804350  1
  Dy  Dy1  1  0.901570  0.549989  0.800233  1
  Dy  Dy2  1  0.692144  0.153221  0.400900  1
  Dy  Dy3  1  0.505327  0.751655  0.003323  1
  Dy  Dy4  1  0.694099  0.642833  0.397054  1
  Dy  Dy5  1  0.299563  0.354565  0.599744  1
  Dy  Dy6  1  0.102134  0.947351  0.193099  1
  Dy  Dy7  1  0.499957  0.250760  0.000161  1
  Dy  Dy8  1  0.305511  0.846544  0.600609  1
  Dy  Dy9  1  0.099356  0.451114  0.200780  1
  Sb  Sb10  1  0.800766  0.600314  0.101188  1
  Sb  Sb11  1  0.592372  0.202296  0.698492  1
  Sb  Sb12  1  0.400711  0.800733  0.300523  1
  Sb  Sb13  1  0.799614  0.102014  0.108755  1
  Sb  Sb14  1  0.206846  0.406995  0.901427  1
  Sb  Sb15  1  0.596655  0.694031  0.697769  1
  Sb  Sb16  1  0.396809  0.298663  0.299635  1
  Sb  Sb17  1  0.206640  0.896859  0.899483  1
  Sb  Sb18  1  0.998837  0.500427  0.499768  1
  Te  Te19  1  0.001356  0.997700  0.492706  1
