# generated using pymatgen
data_La8Zn4Si11Hg
_symmetry_space_group_name_H-M   'P 1'
_cell_length_a   8.36686740
_cell_length_b   8.36686715
_cell_length_c   8.82334000
_cell_angle_alpha   89.99824694
_cell_angle_beta   90.00175122
_cell_angle_gamma   119.80269389
_symmetry_Int_Tables_number   1
_chemical_formula_structural   La8Zn4Si11Hg
_chemical_formula_sum   'La8 Zn4 Si11 Hg1'
_cell_volume   535.98105083
_cell_formula_units_Z   1
loop_
 _symmetry_equiv_pos_site_id
 _symmetry_equiv_pos_as_xyz
  1  'x, y, z'
loop_
 _atom_site_type_symbol
 _atom_site_label
 _atom_site_symmetry_multiplicity
 _atom_site_fract_x
 _atom_site_fract_y
 _atom_site_fract_z
 _atom_site_occupancy
  La  La0  1  0.997422  0.002578  0.245688  1
  La  La1  1  0.997408  0.002592  0.754338  1
  La  La2  1  0.500623  0.499377  0.249519  1
  La  La3  1  0.505020  0.002588  0.247204  1
  La  La4  1  0.997412  0.494980  0.247204  1
  La  La5  1  0.499695  0.500305  0.750371  1
  La  La6  1  0.504305  0.000843  0.752887  1
  La  La7  1  0.999157  0.495695  0.752887  1
  Zn  Zn8  1  0.340052  0.659948  0.496292  1
  Zn  Zn9  1  0.666203  0.333797  0.503334  1
  Zn  Zn10  1  0.666116  0.333884  0.996570  1
  Zn  Zn11  1  0.333342  0.666658  0.003616  1
  Si  Si12  1  0.166848  0.332612  0.500669  1
  Si  Si13  1  0.667388  0.833152  0.500669  1
  Si  Si14  1  0.834775  0.165225  0.499434  1
  Si  Si15  1  0.821004  0.662644  0.499318  1
  Si  Si16  1  0.337356  0.178996  0.499318  1
  Si  Si17  1  0.834393  0.165607  0.000658  1
  Si  Si18  1  0.833912  0.667953  0.000726  1
  Si  Si19  1  0.332047  0.166088  0.000726  1
  Si  Si20  1  0.165969  0.834031  0.999172  1
  Si  Si21  1  0.165774  0.332003  0.999302  1
  Si  Si22  1  0.667997  0.834226  0.999302  1
  Hg  Hg23  1  0.165785  0.834215  0.500797  1
