# generated using pymatgen
data_Tb4Lu8TcRu3
_symmetry_space_group_name_H-M   'P 1'
_cell_length_a   6.23243444
_cell_length_b   7.29829803
_cell_length_c   8.94948600
_cell_angle_alpha   90.00000000
_cell_angle_beta   90.00000000
_cell_angle_gamma   89.98351350
_symmetry_Int_Tables_number   1
_chemical_formula_structural   Tb4Lu8TcRu3
_chemical_formula_sum   'Tb4 Lu8 Tc1 Ru3'
_cell_volume   407.07777102
_cell_formula_units_Z   1
loop_
 _symmetry_equiv_pos_site_id
 _symmetry_equiv_pos_as_xyz
  1  'x, y, z'
loop_
 _atom_site_type_symbol
 _atom_site_label
 _atom_site_symmetry_multiplicity
 _atom_site_fract_x
 _atom_site_fract_y
 _atom_site_fract_z
 _atom_site_occupancy
  Tb  Tb0  1  0.871739  0.539817  0.250000  1
  Tb  Tb1  1  0.625077  0.041093  0.250000  1
  Tb  Tb2  1  0.129719  0.458408  0.750000  1
  Tb  Tb3  1  0.370097  0.958662  0.750000  1
  Lu  Lu4  1  0.335292  0.676000  0.064130  1
  Lu  Lu5  1  0.165605  0.175918  0.436210  1
  Lu  Lu6  1  0.665511  0.323797  0.563903  1
  Lu  Lu7  1  0.836606  0.824988  0.937161  1
  Lu  Lu8  1  0.665511  0.323797  0.936097  1
  Lu  Lu9  1  0.836606  0.824988  0.562839  1
  Lu  Lu10  1  0.335292  0.676000  0.435870  1
  Lu  Lu11  1  0.165605  0.175918  0.063790  1
  Tc  Tc12  1  0.039644  0.883737  0.250000  1
  Ru  Ru13  1  0.458560  0.383703  0.250000  1
  Ru  Ru14  1  0.957482  0.117469  0.750000  1
  Ru  Ru15  1  0.541652  0.615708  0.750000  1
