# generated using pymatgen
data_Sm8Cu(Si4Pt)3
_symmetry_space_group_name_H-M   'P 1'
_cell_length_a   8.19732600
_cell_length_b   8.19732638
_cell_length_c   8.36671600
_cell_angle_alpha   90.00000000
_cell_angle_beta   90.00000000
_cell_angle_gamma   119.99999846
_symmetry_Int_Tables_number   1
_chemical_formula_structural   Sm8Cu(Si4Pt)3
_chemical_formula_sum   'Sm8 Cu1 Si12 Pt3'
_cell_volume   486.88915375
_cell_formula_units_Z   1
loop_
 _symmetry_equiv_pos_site_id
 _symmetry_equiv_pos_as_xyz
  1  'x, y, z'
loop_
 _atom_site_type_symbol
 _atom_site_label
 _atom_site_symmetry_multiplicity
 _atom_site_fract_x
 _atom_site_fract_y
 _atom_site_fract_z
 _atom_site_occupancy
  Sm  Sm0  1  0.500517  0.001036  0.250027  1
  Sm  Sm1  1  0.499820  0.999638  0.749942  1
  Sm  Sm2  1  0.998964  0.499483  0.250027  1
  Sm  Sm3  1  0.000362  0.500180  0.749942  1
  Sm  Sm4  1  0.500517  0.499483  0.250027  1
  Sm  Sm5  1  0.499820  0.500180  0.749942  1
  Sm  Sm6  1  0.000000  0.000000  0.249263  1
  Sm  Sm7  1  0.000000  0.000000  0.750712  1
  Cu  Cu8  1  0.333333  0.666667  0.000873  1
  Si  Si9  1  0.168867  0.337734  0.000228  1
  Si  Si10  1  0.834252  0.668503  0.999741  1
  Si  Si11  1  0.662266  0.831133  0.000228  1
  Si  Si12  1  0.833979  0.667958  0.500652  1
  Si  Si13  1  0.331497  0.165748  0.999741  1
  Si  Si14  1  0.165588  0.331177  0.499326  1
  Si  Si15  1  0.168867  0.831133  0.000228  1
  Si  Si16  1  0.332042  0.166021  0.500652  1
  Si  Si17  1  0.834252  0.165748  0.999741  1
  Si  Si18  1  0.668823  0.834412  0.499326  1
  Si  Si19  1  0.833979  0.166021  0.500652  1
  Si  Si20  1  0.165588  0.834412  0.499326  1
  Pt  Pt21  1  0.666667  0.333333  0.999450  1
  Pt  Pt22  1  0.666667  0.333333  0.500578  1
  Pt  Pt23  1  0.333333  0.666667  0.499375  1
