# generated using pymatgen
data_Tb3Tm4Sn23Os6
_symmetry_space_group_name_H-M   'P 1'
_cell_length_a   9.84426747
_cell_length_b   9.89018176
_cell_length_c   10.08432677
_cell_angle_alpha   89.99999866
_cell_angle_beta   89.91459005
_cell_angle_gamma   120.15441475
_symmetry_Int_Tables_number   1
_chemical_formula_structural   Tb3Tm4Sn23Os6
_chemical_formula_sum   'Tb3 Tm4 Sn23 Os6'
_cell_volume   848.95899298
_cell_formula_units_Z   1
loop_
 _symmetry_equiv_pos_site_id
 _symmetry_equiv_pos_as_xyz
  1  'x, y, z'
loop_
 _atom_site_type_symbol
 _atom_site_label
 _atom_site_symmetry_multiplicity
 _atom_site_fract_x
 _atom_site_fract_y
 _atom_site_fract_z
 _atom_site_occupancy
  Tb  Tb0  1  0.000000  0.000000  0.000000  1
  Tb  Tb1  1  0.030558  0.515279  0.304936  1
  Tb  Tb2  1  0.969442  0.484721  0.695064  1
  Tm  Tm3  1  0.486448  0.512965  0.302750  1
  Tm  Tm4  1  0.513552  0.487035  0.697250  1
  Tm  Tm5  1  0.486448  0.973482  0.302750  1
  Tm  Tm6  1  0.513552  0.026518  0.697250  1
  Sn  Sn7  1  0.350032  0.000827  0.000253  1
  Sn  Sn8  1  0.649968  0.999173  0.999747  1
  Sn  Sn9  1  0.000000  0.348887  0.000000  1
  Sn  Sn10  1  0.000000  0.651113  0.000000  1
  Sn  Sn11  1  0.649968  0.650795  0.999747  1
  Sn  Sn12  1  0.350032  0.349205  0.000253  1
  Sn  Sn13  1  0.333024  0.666513  0.824489  1
  Sn  Sn14  1  0.666976  0.333487  0.175511  1
  Sn  Sn15  1  0.000000  0.000000  0.500000  1
  Sn  Sn16  1  0.778204  0.220286  0.464407  1
  Sn  Sn17  1  0.221796  0.779714  0.535593  1
  Sn  Sn18  1  0.778204  0.557918  0.464407  1
  Sn  Sn19  1  0.221796  0.442082  0.535593  1
  Sn  Sn20  1  0.443033  0.221516  0.465141  1
  Sn  Sn21  1  0.556967  0.778484  0.534859  1
  Sn  Sn22  1  0.335528  0.667764  0.130374  1
  Sn  Sn23  1  0.664472  0.332236  0.869626  1
  Sn  Sn24  1  0.117558  0.882716  0.278181  1
  Sn  Sn25  1  0.882442  0.117284  0.721819  1
  Sn  Sn26  1  0.117558  0.234843  0.278181  1
  Sn  Sn27  1  0.882442  0.765157  0.721819  1
  Sn  Sn28  1  0.762996  0.881498  0.276475  1
  Sn  Sn29  1  0.237004  0.118502  0.723525  1
  Os  Os30  1  0.827768  0.168806  0.202964  1
  Os  Os31  1  0.172232  0.831194  0.797036  1
  Os  Os32  1  0.827768  0.658962  0.202964  1
  Os  Os33  1  0.172232  0.341038  0.797036  1
  Os  Os34  1  0.341445  0.170722  0.203461  1
  Os  Os35  1  0.658555  0.829278  0.796539  1
