# generated using pymatgen
data_CeHoTh(SnIr)3
_symmetry_space_group_name_H-M   'P 1'
_cell_length_a   7.53210065
_cell_length_b   7.49246778
_cell_length_c   4.06357200
_cell_angle_alpha   90.00000000
_cell_angle_beta   90.00000000
_cell_angle_gamma   119.99455300
_symmetry_Int_Tables_number   1
_chemical_formula_structural   CeHoTh(SnIr)3
_chemical_formula_sum   'Ce1 Ho1 Th1 Sn3 Ir3'
_cell_volume   198.61105765
_cell_formula_units_Z   1
loop_
 _symmetry_equiv_pos_site_id
 _symmetry_equiv_pos_as_xyz
  1  'x, y, z'
loop_
 _atom_site_type_symbol
 _atom_site_label
 _atom_site_symmetry_multiplicity
 _atom_site_fract_x
 _atom_site_fract_y
 _atom_site_fract_z
 _atom_site_occupancy
  Ce  Ce0  1  0.412102  0.412198  0.500000  1
  Ho  Ho1  1  0.000069  0.593835  0.500000  1
  Th  Th2  1  0.587559  0.000176  0.500000  1
  Sn  Sn3  1  0.752296  0.742115  0.000000  1
  Sn  Sn4  1  0.244593  0.992504  0.000000  1
  Sn  Sn5  1  0.003118  0.263072  0.000000  1
  Ir  Ir6  1  0.657287  0.324417  0.000000  1
  Ir  Ir7  1  0.343772  0.668215  0.000000  1
  Ir  Ir8  1  0.999205  0.003468  0.500000  1
