# generated using pymatgen
data_SmHoCr2F14
_symmetry_space_group_name_H-M   'P 1'
_cell_length_a   5.54157300
_cell_length_b   8.83987198
_cell_length_c   11.77511958
_cell_angle_alpha   62.88438215
_cell_angle_beta   90.00000000
_cell_angle_gamma   90.00000000
_symmetry_Int_Tables_number   1
_chemical_formula_structural   SmHoCr2F14
_chemical_formula_sum   'Sm2 Ho2 Cr4 F28'
_cell_volume   513.42569334
_cell_formula_units_Z   2
loop_
 _symmetry_equiv_pos_site_id
 _symmetry_equiv_pos_as_xyz
  1  'x, y, z'
loop_
 _atom_site_type_symbol
 _atom_site_label
 _atom_site_symmetry_multiplicity
 _atom_site_fract_x
 _atom_site_fract_y
 _atom_site_fract_z
 _atom_site_occupancy
  Sm  Sm0  1  0.764740  0.807337  0.766149  1
  Sm  Sm1  1  0.264740  0.192663  0.733851  1
  Ho  Ho2  1  0.234103  0.189647  0.233889  1
  Ho  Ho3  1  0.734103  0.810353  0.266111  1
  Cr  Cr4  1  0.755101  0.272343  0.960536  1
  Cr  Cr5  1  0.255101  0.727657  0.539464  1
  Cr  Cr6  1  0.241846  0.723965  0.048051  1
  Cr  Cr7  1  0.741846  0.276035  0.451949  1
  F  F8  1  0.439413  0.706355  0.928918  1
  F  F9  1  0.939413  0.293645  0.571082  1
  F  F10  1  0.560563  0.293229  0.079189  1
  F  F11  1  0.060563  0.706771  0.420811  1
  F  F12  1  0.463136  0.287378  0.540443  1
  F  F13  1  0.963136  0.712622  0.959557  1
  F  F14  1  0.539104  0.717139  0.451871  1
  F  F15  1  0.039104  0.282861  0.048129  1
  F  F16  1  0.766552  0.505364  0.865110  1
  F  F17  1  0.266552  0.494636  0.634890  1
  F  F18  1  0.237304  0.490487  0.142162  1
  F  F19  1  0.737304  0.509513  0.357838  1
  F  F20  1  0.756396  0.040152  0.049161  1
  F  F21  1  0.256396  0.959848  0.450839  1
  F  F22  1  0.240124  0.956213  0.956426  1
  F  F23  1  0.740124  0.043787  0.543574  1
  F  F24  1  0.978108  0.729773  0.631751  1
  F  F25  1  0.478108  0.270227  0.868249  1
  F  F26  1  0.014852  0.267621  0.357915  1
  F  F27  1  0.514852  0.732379  0.142085  1
  F  F28  1  0.043919  0.744453  0.168777  1
  F  F29  1  0.543919  0.255547  0.331223  1
  F  F30  1  0.946294  0.255456  0.836592  1
  F  F31  1  0.446294  0.744544  0.663408  1
  F  F32  1  0.421791  0.978114  0.229195  1
  F  F33  1  0.921791  0.021886  0.270805  1
  F  F34  1  0.596656  0.030979  0.773994  1
  F  F35  1  0.096656  0.969021  0.726006  1
