# generated using pymatgen
data_LiEu6Co15(P6Rh)2
_symmetry_space_group_name_H-M   'P 1'
_cell_length_a   3.80607000
_cell_length_b   10.79127300
_cell_length_c   12.54696500
_cell_angle_alpha   90.00000000
_cell_angle_beta   90.00000000
_cell_angle_gamma   90.00000000
_symmetry_Int_Tables_number   1
_chemical_formula_structural   LiEu6Co15(P6Rh)2
_chemical_formula_sum   'Li1 Eu6 Co15 P12 Rh2'
_cell_volume   515.33321781
_cell_formula_units_Z   1
loop_
 _symmetry_equiv_pos_site_id
 _symmetry_equiv_pos_as_xyz
  1  'x, y, z'
loop_
 _atom_site_type_symbol
 _atom_site_label
 _atom_site_symmetry_multiplicity
 _atom_site_fract_x
 _atom_site_fract_y
 _atom_site_fract_z
 _atom_site_occupancy
  Li  Li0  1  0.500000  0.500000  0.149376  1
  Eu  Eu1  1  0.000000  0.500000  0.522348  1
  Eu  Eu2  1  0.500000  0.000000  0.472814  1
  Eu  Eu3  1  0.500000  0.820945  0.207430  1
  Eu  Eu4  1  0.500000  0.179055  0.207430  1
  Eu  Eu5  1  0.000000  0.683312  0.794759  1
  Eu  Eu6  1  0.000000  0.316688  0.794759  1
  Co  Co7  1  0.000000  0.000000  0.296622  1
  Co  Co8  1  0.000000  0.500000  0.990553  1
  Co  Co9  1  0.500000  0.000000  0.010632  1
  Co  Co10  1  0.500000  0.331382  0.998406  1
  Co  Co11  1  0.500000  0.668618  0.998406  1
  Co  Co12  1  0.000000  0.165863  0.005735  1
  Co  Co13  1  0.000000  0.834137  0.005735  1
  Co  Co14  1  0.500000  0.294294  0.431541  1
  Co  Co15  1  0.500000  0.705706  0.431541  1
  Co  Co16  1  0.000000  0.198658  0.568020  1
  Co  Co17  1  0.000000  0.801342  0.568020  1
  Co  Co18  1  0.500000  0.882706  0.707966  1
  Co  Co19  1  0.500000  0.117294  0.707966  1
  Co  Co20  1  0.000000  0.620394  0.294336  1
  Co  Co21  1  0.000000  0.379606  0.294336  1
  P  P22  1  0.500000  0.500000  0.894977  1
  P  P23  1  0.000000  0.000000  0.113455  1
  P  P24  1  0.500000  0.500000  0.339954  1
  P  P25  1  0.000000  0.000000  0.654608  1
  P  P26  1  0.500000  0.296223  0.612443  1
  P  P27  1  0.500000  0.703777  0.612443  1
  P  P28  1  0.000000  0.195319  0.384380  1
  P  P29  1  0.000000  0.804681  0.384380  1
  P  P30  1  0.500000  0.844829  0.897754  1
  P  P31  1  0.500000  0.155171  0.897754  1
  P  P32  1  0.000000  0.658495  0.102803  1
  P  P33  1  0.000000  0.341505  0.102803  1
  Rh  Rh34  1  0.000000  0.000000  0.841817  1
  Rh  Rh35  1  0.500000  0.500000  0.701697  1
