# generated using pymatgen
data_Nd5Dy3Au4
_symmetry_space_group_name_H-M   'P 1'
_cell_length_a   5.03888500
_cell_length_b   7.29485749
_cell_length_c   9.14276056
_cell_angle_alpha   90.07945941
_cell_angle_beta   90.00000000
_cell_angle_gamma   90.00000000
_symmetry_Int_Tables_number   1
_chemical_formula_structural   Nd5Dy3Au4
_chemical_formula_sum   'Nd5 Dy3 Au4'
_cell_volume   336.06879378
_cell_formula_units_Z   1
loop_
 _symmetry_equiv_pos_site_id
 _symmetry_equiv_pos_as_xyz
  1  'x, y, z'
loop_
 _atom_site_type_symbol
 _atom_site_label
 _atom_site_symmetry_multiplicity
 _atom_site_fract_x
 _atom_site_fract_y
 _atom_site_fract_z
 _atom_site_occupancy
  Nd  Nd0  1  0.750000  0.652992  0.414685  1
  Nd  Nd1  1  0.250000  0.490074  0.177303  1
  Nd  Nd2  1  0.250000  0.994715  0.323112  1
  Nd  Nd3  1  0.750000  0.508063  0.822695  1
  Nd  Nd4  1  0.750000  0.009926  0.679317  1
  Dy  Dy5  1  0.250000  0.849475  0.919545  1
  Dy  Dy6  1  0.250000  0.348388  0.584079  1
  Dy  Dy7  1  0.750000  0.151912  0.080935  1
  Au  Au8  1  0.250000  0.246426  0.902604  1
  Au  Au9  1  0.250000  0.748430  0.604508  1
  Au  Au10  1  0.750000  0.755184  0.089098  1
  Au  Au11  1  0.750000  0.244416  0.402118  1
