# generated using pymatgen
data_CaHg(AuO2)4
_symmetry_space_group_name_H-M   'P 1'
_cell_length_a   6.70866054
_cell_length_b   6.70866069
_cell_length_c   6.70866130
_cell_angle_alpha   125.51965799
_cell_angle_beta   125.51964933
_cell_angle_gamma   80.67906783
_symmetry_Int_Tables_number   1
_chemical_formula_structural   CaHg(AuO2)4
_chemical_formula_sum   'Ca1 Hg1 Au4 O8'
_cell_volume   192.86410284
_cell_formula_units_Z   1
loop_
 _symmetry_equiv_pos_site_id
 _symmetry_equiv_pos_as_xyz
  1  'x, y, z'
loop_
 _atom_site_type_symbol
 _atom_site_label
 _atom_site_symmetry_multiplicity
 _atom_site_fract_x
 _atom_site_fract_y
 _atom_site_fract_z
 _atom_site_occupancy
  Ca  Ca0  1  0.000000  0.000000  0.000000  1
  Hg  Hg1  1  0.750000  0.250000  0.500000  1
  Au  Au2  1  0.375152  0.626266  0.751394  1
  Au  Au3  1  0.373734  0.125128  0.748886  1
  Au  Au4  1  0.874872  0.623758  0.248606  1
  Au  Au5  1  0.376242  0.624848  0.251114  1
  O  O6  1  0.046377  0.407513  0.051699  1
  O  O7  1  0.743453  0.289466  0.127180  1
  O  O8  1  0.162286  0.616271  0.872820  1
  O  O9  1  0.355814  0.994678  0.948301  1
  O  O10  1  0.710534  0.837714  0.453986  1
  O  O11  1  0.005322  0.953623  0.361137  1
  O  O12  1  0.383729  0.256547  0.546014  1
  O  O13  1  0.592487  0.644186  0.638863  1
