# generated using pymatgen
data_LaPr5OsBr10
_symmetry_space_group_name_H-M   'P 1'
_cell_length_a   7.76911058
_cell_length_b   9.46714810
_cell_length_c   9.79948614
_cell_angle_alpha   108.44382441
_cell_angle_beta   97.26555311
_cell_angle_gamma   105.40474389
_symmetry_Int_Tables_number   1
_chemical_formula_structural   LaPr5OsBr10
_chemical_formula_sum   'La1 Pr5 Os1 Br10'
_cell_volume   641.47832953
_cell_formula_units_Z   1
loop_
 _symmetry_equiv_pos_site_id
 _symmetry_equiv_pos_as_xyz
  1  'x, y, z'
loop_
 _atom_site_type_symbol
 _atom_site_label
 _atom_site_symmetry_multiplicity
 _atom_site_fract_x
 _atom_site_fract_y
 _atom_site_fract_z
 _atom_site_occupancy
  La  La0  1  0.532995  0.215338  0.414393  1
  Pr  Pr1  1  0.466772  0.786351  0.586180  1
  Pr  Pr2  1  0.128394  0.356365  0.312969  1
  Pr  Pr3  1  0.871809  0.644363  0.687255  1
  Pr  Pr4  1  0.628879  0.550490  0.248449  1
  Pr  Pr5  1  0.371522  0.449615  0.751775  1
  Os  Os6  1  0.501514  0.493373  0.498175  1
  Br  Br7  1  0.148283  0.042665  0.227078  1
  Br  Br8  1  0.846372  0.956476  0.770812  1
  Br  Br9  1  0.249656  0.415707  0.049123  1
  Br  Br10  1  0.750750  0.584865  0.951177  1
  Br  Br11  1  0.704676  0.245481  0.153187  1
  Br  Br12  1  0.297360  0.756280  0.844164  1
  Br  Br13  1  0.047962  0.675898  0.419549  1
  Br  Br14  1  0.955329  0.326149  0.582189  1
  Br  Br15  1  0.413294  0.132335  0.674298  1
  Br  Br16  1  0.584433  0.868248  0.329226  1
