# generated using pymatgen
data_Er20Si12H
_symmetry_space_group_name_H-M   'P 1'
_cell_length_a   6.24294625
_cell_length_b   8.33560922
_cell_length_c   14.53540700
_cell_angle_alpha   90.00000687
_cell_angle_beta   90.00000000
_cell_angle_gamma   89.97799236
_symmetry_Int_Tables_number   1
_chemical_formula_structural   Er20Si12H
_chemical_formula_sum   'Er20 Si12 H1'
_cell_volume   756.40450444
_cell_formula_units_Z   1
loop_
 _symmetry_equiv_pos_site_id
 _symmetry_equiv_pos_as_xyz
  1  'x, y, z'
loop_
 _atom_site_type_symbol
 _atom_site_label
 _atom_site_symmetry_multiplicity
 _atom_site_fract_x
 _atom_site_fract_y
 _atom_site_fract_z
 _atom_site_occupancy
  Er  Er0  1  0.500002  0.999999  0.334842  1
  Er  Er1  1  0.500000  0.500001  0.830682  1
  Er  Er2  1  0.500000  0.500001  0.169318  1
  Er  Er3  1  0.500002  0.999999  0.665158  1
  Er  Er4  1  0.999999  0.500000  0.164098  1
  Er  Er5  1  0.000001  0.999999  0.668282  1
  Er  Er6  1  0.000001  0.999999  0.331718  1
  Er  Er7  1  0.999999  0.500000  0.835902  1
  Er  Er8  1  0.748216  0.246016  0.000000  1
  Er  Er9  1  0.751816  0.744796  0.500000  1
  Er  Er10  1  0.751287  0.377497  0.378826  1
  Er  Er11  1  0.751691  0.876246  0.877135  1
  Er  Er12  1  0.751691  0.876246  0.122865  1
  Er  Er13  1  0.751287  0.377497  0.621174  1
  Er  Er14  1  0.251774  0.753974  0.000000  1
  Er  Er15  1  0.248175  0.255208  0.500000  1
  Er  Er16  1  0.248315  0.123755  0.122866  1
  Er  Er17  1  0.248714  0.622505  0.621173  1
  Er  Er18  1  0.248714  0.622505  0.378827  1
  Er  Er19  1  0.248315  0.123755  0.877134  1
  Si  Si20  1  0.743361  0.607892  0.000000  1
  Si  Si21  1  0.752962  0.106824  0.500000  1
  Si  Si22  1  0.748518  0.194919  0.195512  1
  Si  Si23  1  0.752272  0.695989  0.696909  1
  Si  Si24  1  0.752272  0.695989  0.303091  1
  Si  Si25  1  0.748518  0.194919  0.804488  1
  Si  Si26  1  0.256639  0.392098  0.000000  1
  Si  Si27  1  0.247039  0.893182  0.500000  1
  Si  Si28  1  0.247730  0.304013  0.303093  1
  Si  Si29  1  0.251482  0.805080  0.804489  1
  Si  Si30  1  0.251482  0.805080  0.195511  1
  Si  Si31  1  0.247730  0.304013  0.696907  1
  H  H32  1  0.499997  0.000002  0.000000  1
