# generated using pymatgen
data_TmLu3Tc3Os5
_symmetry_space_group_name_H-M   'P 1'
_cell_length_a   5.27643028
_cell_length_b   5.27606049
_cell_length_c   8.86193200
_cell_angle_alpha   90.00000276
_cell_angle_beta   89.99982911
_cell_angle_gamma   119.99766626
_symmetry_Int_Tables_number   1
_chemical_formula_structural   TmLu3Tc3Os5
_chemical_formula_sum   'Tm1 Lu3 Tc3 Os5'
_cell_volume   213.65803399
_cell_formula_units_Z   1
loop_
 _symmetry_equiv_pos_site_id
 _symmetry_equiv_pos_as_xyz
  1  'x, y, z'
loop_
 _atom_site_type_symbol
 _atom_site_label
 _atom_site_symmetry_multiplicity
 _atom_site_fract_x
 _atom_site_fract_y
 _atom_site_fract_z
 _atom_site_occupancy
  Tm  Tm0  1  0.335497  0.667749  0.435367  1
  Lu  Lu1  1  0.668524  0.334262  0.563833  1
  Lu  Lu2  1  0.668532  0.334265  0.936329  1
  Lu  Lu3  1  0.335478  0.667740  0.064584  1
  Tc  Tc4  1  0.168396  0.340465  0.750274  1
  Tc  Tc5  1  0.168396  0.827932  0.750274  1
  Tc  Tc6  1  0.335880  0.167939  0.249608  1
  Os  Os7  1  0.822580  0.651165  0.249635  1
  Os  Os8  1  0.649617  0.824809  0.750323  1
  Os  Os9  1  0.012299  0.006149  0.000283  1
  Os  Os10  1  0.822580  0.171414  0.249635  1
  Os  Os11  1  0.012223  0.006112  0.499855  1
