# generated using pymatgen
data_Hf4TiSiGe2N
_symmetry_space_group_name_H-M   'P 1'
_cell_length_a   7.83294038
_cell_length_b   7.83294031
_cell_length_c   5.48214867
_cell_angle_alpha   89.97167772
_cell_angle_beta   89.97167659
_cell_angle_gamma   120.14353465
_symmetry_Int_Tables_number   1
_chemical_formula_structural   Hf4TiSiGe2N
_chemical_formula_sum   'Hf8 Ti2 Si2 Ge4 N2'
_cell_volume   290.87132235
_cell_formula_units_Z   2
loop_
 _symmetry_equiv_pos_site_id
 _symmetry_equiv_pos_as_xyz
  1  'x, y, z'
loop_
 _atom_site_type_symbol
 _atom_site_label
 _atom_site_symmetry_multiplicity
 _atom_site_fract_x
 _atom_site_fract_y
 _atom_site_fract_z
 _atom_site_occupancy
  Hf  Hf0  1  0.234457  0.002653  0.250257  1
  Hf  Hf1  1  0.765543  0.997347  0.749743  1
  Hf  Hf2  1  0.002653  0.234457  0.250257  1
  Hf  Hf3  1  0.997347  0.765543  0.749743  1
  Hf  Hf4  1  0.762470  0.762470  0.250217  1
  Hf  Hf5  1  0.237530  0.237530  0.749783  1
  Hf  Hf6  1  0.664116  0.335884  0.500000  1
  Hf  Hf7  1  0.335884  0.664116  0.500000  1
  Ti  Ti8  1  0.335691  0.664309  0.000000  1
  Ti  Ti9  1  0.664309  0.335691  0.000000  1
  Si  Si10  1  0.407438  0.407438  0.234603  1
  Si  Si11  1  0.592562  0.592562  0.765397  1
  Ge  Ge12  1  0.594422  0.001223  0.238134  1
  Ge  Ge13  1  0.405578  0.998777  0.761866  1
  Ge  Ge14  1  0.001223  0.594422  0.238134  1
  Ge  Ge15  1  0.998777  0.405578  0.761866  1
  N  N16  1  0.000000  0.000000  0.000000  1
  N  N17  1  0.000000  0.000000  0.500000  1
