# generated using pymatgen
data_TmLu4Ir2Ru
_symmetry_space_group_name_H-M   'P 1'
_cell_length_a   10.60310600
_cell_length_b   10.60681800
_cell_length_c   6.31361400
_cell_angle_alpha   90.00000000
_cell_angle_beta   90.00000000
_cell_angle_gamma   90.00000000
_symmetry_Int_Tables_number   1
_chemical_formula_structural   TmLu4Ir2Ru
_chemical_formula_sum   'Tm4 Lu16 Ir8 Ru4'
_cell_volume   710.06195958
_cell_formula_units_Z   4
loop_
 _symmetry_equiv_pos_site_id
 _symmetry_equiv_pos_as_xyz
  1  'x, y, z'
loop_
 _atom_site_type_symbol
 _atom_site_label
 _atom_site_symmetry_multiplicity
 _atom_site_fract_x
 _atom_site_fract_y
 _atom_site_fract_z
 _atom_site_occupancy
  Tm  Tm0  1  0.913603  0.706604  0.123783  1
  Tm  Tm1  1  0.913603  0.293396  0.623783  1
  Tm  Tm2  1  0.086397  0.706604  0.623783  1
  Tm  Tm3  1  0.086397  0.293396  0.123783  1
  Lu  Lu4  1  0.293767  0.086097  0.376747  1
  Lu  Lu5  1  0.293767  0.913903  0.876747  1
  Lu  Lu6  1  0.706233  0.086097  0.876747  1
  Lu  Lu7  1  0.706233  0.913903  0.376747  1
  Lu  Lu8  1  0.586219  0.793701  0.876557  1
  Lu  Lu9  1  0.586219  0.206299  0.376557  1
  Lu  Lu10  1  0.413781  0.793701  0.376557  1
  Lu  Lu11  1  0.413781  0.206299  0.876557  1
  Lu  Lu12  1  0.206745  0.413779  0.623413  1
  Lu  Lu13  1  0.206745  0.586221  0.123413  1
  Lu  Lu14  1  0.793255  0.413779  0.123413  1
  Lu  Lu15  1  0.793255  0.586221  0.623413  1
  Lu  Lu16  1  0.000000  0.000000  0.500086  1
  Lu  Lu17  1  0.000000  0.000000  0.000086  1
  Lu  Lu18  1  0.500000  0.500000  0.000017  1
  Lu  Lu19  1  0.500000  0.500000  0.500017  1
  Ir  Ir20  1  0.846963  0.152054  0.249168  1
  Ir  Ir21  1  0.846963  0.847946  0.749168  1
  Ir  Ir22  1  0.153037  0.152054  0.749168  1
  Ir  Ir23  1  0.153037  0.847946  0.249168  1
  Ir  Ir24  1  0.651947  0.347536  0.750265  1
  Ir  Ir25  1  0.651947  0.652464  0.250265  1
  Ir  Ir26  1  0.348053  0.347536  0.250265  1
  Ir  Ir27  1  0.348053  0.652464  0.750265  1
  Ru  Ru28  1  0.500000  0.000000  0.123216  1
  Ru  Ru29  1  0.500000  0.000000  0.623216  1
  Ru  Ru30  1  0.000000  0.500000  0.876814  1
  Ru  Ru31  1  0.000000  0.500000  0.376814  1
