# generated using pymatgen
data_Er3FeCo7P6Os
_symmetry_space_group_name_H-M   'P 1'
_cell_length_a   3.70729000
_cell_length_b   10.51737400
_cell_length_c   12.12343600
_cell_angle_alpha   90.00000000
_cell_angle_beta   90.00000000
_cell_angle_gamma   90.00000000
_symmetry_Int_Tables_number   1
_chemical_formula_structural   Er3FeCo7P6Os
_chemical_formula_sum   'Er6 Fe2 Co14 P12 Os2'
_cell_volume   472.70435306
_cell_formula_units_Z   2
loop_
 _symmetry_equiv_pos_site_id
 _symmetry_equiv_pos_as_xyz
  1  'x, y, z'
loop_
 _atom_site_type_symbol
 _atom_site_label
 _atom_site_symmetry_multiplicity
 _atom_site_fract_x
 _atom_site_fract_y
 _atom_site_fract_z
 _atom_site_occupancy
  Er  Er0  1  0.750000  0.250000  0.474380  1
  Er  Er1  1  0.250000  0.750000  0.525620  1
  Er  Er2  1  0.250000  0.931258  0.795205  1
  Er  Er3  1  0.250000  0.568742  0.795205  1
  Er  Er4  1  0.750000  0.068742  0.204795  1
  Er  Er5  1  0.750000  0.431258  0.204795  1
  Fe  Fe6  1  0.750000  0.250000  0.011320  1
  Fe  Fe7  1  0.250000  0.750000  0.988680  1
  Co  Co8  1  0.250000  0.250000  0.298847  1
  Co  Co9  1  0.750000  0.750000  0.701153  1
  Co  Co10  1  0.250000  0.418255  0.009533  1
  Co  Co11  1  0.250000  0.081745  0.009533  1
  Co  Co12  1  0.750000  0.581745  0.990467  1
  Co  Co13  1  0.750000  0.918255  0.990467  1
  Co  Co14  1  0.250000  0.453186  0.569142  1
  Co  Co15  1  0.250000  0.046814  0.569142  1
  Co  Co16  1  0.750000  0.546814  0.430858  1
  Co  Co17  1  0.750000  0.953186  0.430858  1
  Co  Co18  1  0.250000  0.871301  0.291334  1
  Co  Co19  1  0.250000  0.628699  0.291334  1
  Co  Co20  1  0.750000  0.128699  0.708666  1
  Co  Co21  1  0.750000  0.371301  0.708666  1
  P  P22  1  0.250000  0.250000  0.118940  1
  P  P23  1  0.750000  0.750000  0.881060  1
  P  P24  1  0.250000  0.250000  0.649184  1
  P  P25  1  0.750000  0.750000  0.350816  1
  P  P26  1  0.250000  0.437920  0.383005  1
  P  P27  1  0.250000  0.062080  0.383005  1
  P  P28  1  0.750000  0.562080  0.616995  1
  P  P29  1  0.750000  0.937920  0.616995  1
  P  P30  1  0.250000  0.903928  0.106316  1
  P  P31  1  0.250000  0.596072  0.106316  1
  P  P32  1  0.750000  0.096072  0.893684  1
  P  P33  1  0.750000  0.403928  0.893684  1
  Os  Os34  1  0.250000  0.250000  0.842298  1
  Os  Os35  1  0.750000  0.750000  0.157702  1
