# generated using pymatgen
data_Hf8Ta11Si16Tc
_symmetry_space_group_name_H-M   'P 1'
_cell_length_a   6.62822923
_cell_length_b   6.81509787
_cell_length_c   13.03379700
_cell_angle_alpha   90.00000000
_cell_angle_beta   90.00000000
_cell_angle_gamma   90.33397889
_symmetry_Int_Tables_number   1
_chemical_formula_structural   Hf8Ta11Si16Tc
_chemical_formula_sum   'Hf8 Ta11 Si16 Tc1'
_cell_volume   588.75307808
_cell_formula_units_Z   1
loop_
 _symmetry_equiv_pos_site_id
 _symmetry_equiv_pos_as_xyz
  1  'x, y, z'
loop_
 _atom_site_type_symbol
 _atom_site_label
 _atom_site_symmetry_multiplicity
 _atom_site_fract_x
 _atom_site_fract_y
 _atom_site_fract_z
 _atom_site_occupancy
  Hf  Hf0  1  0.490303  0.674062  0.591877  1
  Hf  Hf1  1  0.996730  0.829823  0.909332  1
  Hf  Hf2  1  0.505704  0.328584  0.092533  1
  Hf  Hf3  1  0.006058  0.173844  0.406257  1
  Hf  Hf4  1  0.505704  0.328584  0.407467  1
  Hf  Hf5  1  0.006058  0.173844  0.093743  1
  Hf  Hf6  1  0.490303  0.674062  0.908123  1
  Hf  Hf7  1  0.996730  0.829823  0.590668  1
  Ta  Ta8  1  0.665545  0.166890  0.625810  1
  Ta  Ta9  1  0.165533  0.327775  0.875183  1
  Ta  Ta10  1  0.335757  0.828575  0.123775  1
  Ta  Ta11  1  0.836351  0.670297  0.378187  1
  Ta  Ta12  1  0.335757  0.828575  0.376225  1
  Ta  Ta13  1  0.836351  0.670297  0.121813  1
  Ta  Ta14  1  0.665545  0.166890  0.874190  1
  Ta  Ta15  1  0.165533  0.327775  0.624817  1
  Ta  Ta16  1  0.338825  0.998275  0.750000  1
  Ta  Ta17  1  0.163327  0.503884  0.250000  1
  Ta  Ta18  1  0.662960  0.996946  0.250000  1
  Si  Si19  1  0.672721  0.965137  0.461087  1
  Si  Si20  1  0.171441  0.535304  0.037815  1
  Si  Si21  1  0.328970  0.036598  0.961091  1
  Si  Si22  1  0.827136  0.464719  0.543554  1
  Si  Si23  1  0.328970  0.036598  0.538909  1
  Si  Si24  1  0.827136  0.464719  0.956446  1
  Si  Si25  1  0.672721  0.965137  0.038913  1
  Si  Si26  1  0.171441  0.535304  0.462185  1
  Si  Si27  1  0.468894  0.392102  0.750000  1
  Si  Si28  1  0.962470  0.109697  0.750000  1
  Si  Si29  1  0.538908  0.611371  0.250000  1
  Si  Si30  1  0.037025  0.887953  0.250000  1
  Si  Si31  1  0.705678  0.849900  0.750000  1
  Si  Si32  1  0.192786  0.636750  0.750000  1
  Si  Si33  1  0.297807  0.141235  0.250000  1
  Si  Si34  1  0.796621  0.359979  0.250000  1
  Tc  Tc35  1  0.830204  0.508691  0.750000  1
