# generated using pymatgen
data_Dy9Y(CoBi2)2
_symmetry_space_group_name_H-M   'P 1'
_cell_length_a   7.99865589
_cell_length_b   8.88925500
_cell_length_c   12.41458003
_cell_angle_alpha   90.00000000
_cell_angle_beta   89.97677895
_cell_angle_gamma   90.00000000
_symmetry_Int_Tables_number   1
_chemical_formula_structural   Dy9Y(CoBi2)2
_chemical_formula_sum   'Dy18 Y2 Co4 Bi8'
_cell_volume   882.70253752
_cell_formula_units_Z   2
loop_
 _symmetry_equiv_pos_site_id
 _symmetry_equiv_pos_as_xyz
  1  'x, y, z'
loop_
 _atom_site_type_symbol
 _atom_site_label
 _atom_site_symmetry_multiplicity
 _atom_site_fract_x
 _atom_site_fract_y
 _atom_site_fract_z
 _atom_site_occupancy
  Dy  Dy0  1  0.846160  0.250000  0.800258  1
  Dy  Dy1  1  0.153840  0.750000  0.199742  1
  Dy  Dy2  1  0.884892  0.750000  0.810735  1
  Dy  Dy3  1  0.115108  0.250000  0.189265  1
  Dy  Dy4  1  0.385075  0.250000  0.689423  1
  Dy  Dy5  1  0.614925  0.750000  0.310577  1
  Dy  Dy6  1  0.675946  0.538026  0.562864  1
  Dy  Dy7  1  0.324054  0.461974  0.437136  1
  Dy  Dy8  1  0.175730  0.461753  0.936952  1
  Dy  Dy9  1  0.324054  0.038026  0.437136  1
  Dy  Dy10  1  0.824270  0.538247  0.063048  1
  Dy  Dy11  1  0.675946  0.961974  0.562864  1
  Dy  Dy12  1  0.824270  0.961753  0.063048  1
  Dy  Dy13  1  0.175730  0.038247  0.936952  1
  Dy  Dy14  1  0.052249  0.750000  0.497975  1
  Dy  Dy15  1  0.947751  0.250000  0.502025  1
  Dy  Dy16  1  0.552539  0.250000  0.001840  1
  Dy  Dy17  1  0.447461  0.750000  0.998160  1
  Y  Y18  1  0.345699  0.750000  0.700943  1
  Y  Y19  1  0.654301  0.250000  0.299057  1
  Co  Co20  1  0.066701  0.750000  0.991542  1
  Co  Co21  1  0.933299  0.250000  0.008458  1
  Co  Co22  1  0.566239  0.250000  0.509212  1
  Co  Co23  1  0.433761  0.750000  0.490788  1
  Bi  Bi24  1  0.572119  0.509663  0.826726  1
  Bi  Bi25  1  0.427881  0.490337  0.173274  1
  Bi  Bi26  1  0.071475  0.490020  0.673395  1
  Bi  Bi27  1  0.427881  0.009663  0.173274  1
  Bi  Bi28  1  0.928525  0.509980  0.326605  1
  Bi  Bi29  1  0.572119  0.990337  0.826726  1
  Bi  Bi30  1  0.928525  0.990020  0.326605  1
  Bi  Bi31  1  0.071475  0.009980  0.673395  1
