# generated using pymatgen
data_CeErTc3Ge4
_symmetry_space_group_name_H-M   'P 1'
_cell_length_a   8.29444200
_cell_length_b   5.75314038
_cell_length_c   7.01205347
_cell_angle_alpha   75.99055924
_cell_angle_beta   90.00000000
_cell_angle_gamma   90.00000000
_symmetry_Int_Tables_number   1
_chemical_formula_structural   CeErTc3Ge4
_chemical_formula_sum   'Ce2 Er2 Tc6 Ge8'
_cell_volume   324.65615074
_cell_formula_units_Z   2
loop_
 _symmetry_equiv_pos_site_id
 _symmetry_equiv_pos_as_xyz
  1  'x, y, z'
loop_
 _atom_site_type_symbol
 _atom_site_label
 _atom_site_symmetry_multiplicity
 _atom_site_fract_x
 _atom_site_fract_y
 _atom_site_fract_z
 _atom_site_occupancy
  Ce  Ce0  1  0.554507  0.079330  0.245834  1
  Ce  Ce1  1  0.054507  0.420670  0.754166  1
  Er  Er2  1  0.439768  0.925522  0.754369  1
  Er  Er3  1  0.939768  0.574478  0.245631  1
  Tc  Tc4  1  0.213645  0.116942  0.108863  1
  Tc  Tc5  1  0.713645  0.383058  0.891137  1
  Tc  Tc6  1  0.797032  0.891215  0.886644  1
  Tc  Tc7  1  0.297032  0.608785  0.113356  1
  Tc  Tc8  1  0.998477  0.996439  0.497325  1
  Tc  Tc9  1  0.498477  0.503561  0.502675  1
  Ge  Ge10  1  0.905326  0.113719  0.133118  1
  Ge  Ge11  1  0.405326  0.386281  0.866882  1
  Ge  Ge12  1  0.098992  0.872059  0.878243  1
  Ge  Ge13  1  0.598992  0.627941  0.121757  1
  Ge  Ge14  1  0.743747  0.220302  0.581076  1
  Ge  Ge15  1  0.243747  0.279698  0.418924  1
  Ge  Ge16  1  0.248507  0.774640  0.417899  1
  Ge  Ge17  1  0.748507  0.725360  0.582101  1
