# generated using pymatgen
data_HoEr11OsRu3
_symmetry_space_group_name_H-M   'P 1'
_cell_length_a   6.26637521
_cell_length_b   7.30626897
_cell_length_c   9.03501100
_cell_angle_alpha   90.00000000
_cell_angle_beta   90.00000000
_cell_angle_gamma   90.05844645
_symmetry_Int_Tables_number   1
_chemical_formula_structural   HoEr11OsRu3
_chemical_formula_sum   'Ho1 Er11 Os1 Ru3'
_cell_volume   413.65712715
_cell_formula_units_Z   1
loop_
 _symmetry_equiv_pos_site_id
 _symmetry_equiv_pos_as_xyz
  1  'x, y, z'
loop_
 _atom_site_type_symbol
 _atom_site_label
 _atom_site_symmetry_multiplicity
 _atom_site_fract_x
 _atom_site_fract_y
 _atom_site_fract_z
 _atom_site_occupancy
  Ho  Ho0  1  0.868076  0.540431  0.250000  1
  Er  Er1  1  0.333798  0.675643  0.062213  1
  Er  Er2  1  0.167429  0.175947  0.436220  1
  Er  Er3  1  0.668118  0.324096  0.563740  1
  Er  Er4  1  0.831408  0.823673  0.935640  1
  Er  Er5  1  0.668118  0.324096  0.936260  1
  Er  Er6  1  0.831408  0.823673  0.564360  1
  Er  Er7  1  0.333798  0.675643  0.437787  1
  Er  Er8  1  0.167429  0.175947  0.063780  1
  Er  Er9  1  0.632417  0.040079  0.250000  1
  Er  Er10  1  0.130517  0.460201  0.750000  1
  Er  Er11  1  0.367473  0.961334  0.750000  1
  Os  Os12  1  0.539111  0.616360  0.750000  1
  Ru  Ru13  1  0.038511  0.883834  0.250000  1
  Ru  Ru14  1  0.461184  0.383021  0.250000  1
  Ru  Ru15  1  0.961205  0.116020  0.750000  1
