# generated using pymatgen
data_Tm2CoSiI2
_symmetry_space_group_name_H-M   'P 1'
_cell_length_a   4.04369300
_cell_length_b   4.04369373
_cell_length_c   11.60395000
_cell_angle_alpha   90.00000000
_cell_angle_beta   90.00000000
_cell_angle_gamma   119.99998581
_symmetry_Int_Tables_number   1
_chemical_formula_structural   Tm2CoSiI2
_chemical_formula_sum   'Tm2 Co1 Si1 I2'
_cell_volume   164.32096396
_cell_formula_units_Z   1
loop_
 _symmetry_equiv_pos_site_id
 _symmetry_equiv_pos_as_xyz
  1  'x, y, z'
loop_
 _atom_site_type_symbol
 _atom_site_label
 _atom_site_symmetry_multiplicity
 _atom_site_fract_x
 _atom_site_fract_y
 _atom_site_fract_z
 _atom_site_occupancy
  Tm  Tm0  1  0.000000  0.000000  0.151540  1
  Tm  Tm1  1  0.000000  0.000000  0.848478  1
  Co  Co2  1  0.333333  0.666667  0.000878  1
  Si  Si3  1  0.666667  0.333333  0.997402  1
  I  I4  1  0.333333  0.666667  0.668685  1
  I  I5  1  0.666667  0.333333  0.333018  1
