# generated using pymatgen
data_NbBr4F
_symmetry_space_group_name_H-M   'P 1'
_cell_length_a   10.66677844
_cell_length_b   10.66677870
_cell_length_c   10.66677920
_cell_angle_alpha   100.85013596
_cell_angle_beta   100.85013281
_cell_angle_gamma   128.57354048
_symmetry_Int_Tables_number   1
_chemical_formula_structural   NbBr4F
_chemical_formula_sum   'Nb4 Br16 F4'
_cell_volume   854.89712662
_cell_formula_units_Z   4
loop_
 _symmetry_equiv_pos_site_id
 _symmetry_equiv_pos_as_xyz
  1  'x, y, z'
loop_
 _atom_site_type_symbol
 _atom_site_label
 _atom_site_symmetry_multiplicity
 _atom_site_fract_x
 _atom_site_fract_y
 _atom_site_fract_z
 _atom_site_occupancy
  Nb  Nb0  1  0.965825  0.796514  0.736895  1
  Nb  Nb1  1  0.771070  0.034175  0.830689  1
  Nb  Nb2  1  0.203486  0.940381  0.169311  1
  Nb  Nb3  1  0.059619  0.228930  0.263105  1
  Br  Br4  1  0.702533  0.536721  0.751637  1
  Br  Br5  1  0.785082  0.950896  0.248363  1
  Br  Br6  1  0.463279  0.214918  0.165813  1
  Br  Br7  1  0.049104  0.297467  0.834187  1
  Br  Br8  1  0.227084  0.324434  0.506333  1
  Br  Br9  1  0.279250  0.772916  0.097350  1
  Br  Br10  1  0.675566  0.181900  0.902650  1
  Br  Br11  1  0.818100  0.720750  0.493667  1
  Br  Br12  1  0.610707  0.912490  0.579768  1
  Br  Br13  1  0.969062  0.389293  0.301783  1
  Br  Br14  1  0.087510  0.667278  0.698217  1
  Br  Br15  1  0.332722  0.030938  0.420232  1
  Br  Br16  1  0.316561  0.456657  0.219987  1
  Br  Br17  1  0.903426  0.683439  0.140096  1
  Br  Br18  1  0.543343  0.763330  0.859904  1
  Br  Br19  1  0.236670  0.096574  0.780013  1
  F  F20  1  0.120084  0.077080  0.200382  1
  F  F21  1  0.876698  0.919702  0.799618  1
  F  F22  1  0.922920  0.123302  0.043004  1
  F  F23  1  0.080298  0.879916  0.956996  1
