# generated using pymatgen
data_Y8Re3RuC8
_symmetry_space_group_name_H-M   'P 1'
_cell_length_a   5.11733300
_cell_length_b   6.57167362
_cell_length_c   9.86996996
_cell_angle_alpha   89.89756028
_cell_angle_beta   90.00000000
_cell_angle_gamma   90.00000000
_symmetry_Int_Tables_number   1
_chemical_formula_structural   Y8Re3RuC8
_chemical_formula_sum   'Y8 Re3 Ru1 C8'
_cell_volume   331.92105432
_cell_formula_units_Z   1
loop_
 _symmetry_equiv_pos_site_id
 _symmetry_equiv_pos_as_xyz
  1  'x, y, z'
loop_
 _atom_site_type_symbol
 _atom_site_label
 _atom_site_symmetry_multiplicity
 _atom_site_fract_x
 _atom_site_fract_y
 _atom_site_fract_z
 _atom_site_occupancy
  Y  Y0  1  0.750000  0.531191  0.785463  1
  Y  Y1  1  0.250000  0.968752  0.282800  1
  Y  Y2  1  0.750000  0.680248  0.443766  1
  Y  Y3  1  0.250000  0.824075  0.945274  1
  Y  Y4  1  0.750000  0.180473  0.056604  1
  Y  Y5  1  0.250000  0.318979  0.556821  1
  Y  Y6  1  0.250000  0.467958  0.216435  1
  Y  Y7  1  0.750000  0.033238  0.716072  1
  Re  Re8  1  0.250000  0.778592  0.635352  1
  Re  Re9  1  0.750000  0.221978  0.366086  1
  Re  Re10  1  0.750000  0.722351  0.134215  1
  Ru  Ru11  1  0.250000  0.277810  0.864830  1
  C  C12  1  0.250000  0.677648  0.451178  1
  C  C13  1  0.250000  0.545516  0.756827  1
  C  C14  1  0.750000  0.455615  0.240985  1
  C  C15  1  0.750000  0.820629  0.949348  1
  C  C16  1  0.250000  0.043458  0.740220  1
  C  C17  1  0.250000  0.175529  0.047934  1
  C  C18  1  0.750000  0.321047  0.550337  1
  C  C19  1  0.750000  0.954913  0.259454  1
