# generated using pymatgen
data_Sc2Ti3(ReTc)12
_symmetry_space_group_name_H-M   'P 1'
_cell_length_a   8.37452127
_cell_length_b   8.37528365
_cell_length_c   8.37528326
_cell_angle_alpha   109.47306502
_cell_angle_beta   109.46938012
_cell_angle_gamma   109.46937766
_symmetry_Int_Tables_number   1
_chemical_formula_structural   Sc2Ti3(ReTc)12
_chemical_formula_sum   'Sc2 Ti3 Re12 Tc12'
_cell_volume   452.21710359
_cell_formula_units_Z   1
loop_
 _symmetry_equiv_pos_site_id
 _symmetry_equiv_pos_as_xyz
  1  'x, y, z'
loop_
 _atom_site_type_symbol
 _atom_site_label
 _atom_site_symmetry_multiplicity
 _atom_site_fract_x
 _atom_site_fract_y
 _atom_site_fract_z
 _atom_site_occupancy
  Sc  Sc0  1  0.000514  0.000000  0.000000  1
  Sc  Sc1  1  0.629331  0.000000  0.000000  1
  Ti  Ti2  1  0.000347  0.629040  0.000000  1
  Ti  Ti3  1  0.000347  0.000000  0.629040  1
  Ti  Ti4  1  0.371307  0.370960  0.370960  1
  Re  Re5  1  0.376816  0.193587  0.000000  1
  Re  Re6  1  0.183229  0.806413  0.806413  1
  Re  Re7  1  0.376816  0.000000  0.193587  1
  Re  Re8  1  0.194368  0.376248  0.000000  1
  Re  Re9  1  0.001803  0.378690  0.193794  1
  Re  Re10  1  0.808008  0.184896  0.806206  1
  Re  Re11  1  0.808008  0.806206  0.184896  1
  Re  Re12  1  0.001803  0.193794  0.378690  1
  Re  Re13  1  0.194368  0.000000  0.376248  1
  Re  Re14  1  0.623113  0.621310  0.815104  1
  Re  Re15  1  0.818119  0.623752  0.623752  1
  Re  Re16  1  0.623113  0.815104  0.621310  1
  Tc  Tc17  1  0.397742  0.675771  0.000000  1
  Tc  Tc18  1  0.721972  0.324229  0.324229  1
  Tc  Tc19  1  0.397742  0.000000  0.675771  1
  Tc  Tc20  1  0.681625  0.400985  0.000000  1
  Tc  Tc21  1  0.998795  0.401580  0.681185  1
  Tc  Tc22  1  0.317610  0.720394  0.318815  1
  Tc  Tc23  1  0.317610  0.318815  0.720394  1
  Tc  Tc24  1  0.998795  0.681185  0.401580  1
  Tc  Tc25  1  0.681625  0.000000  0.400985  1
  Tc  Tc26  1  0.597216  0.598420  0.279606  1
  Tc  Tc27  1  0.280640  0.599015  0.599015  1
  Tc  Tc28  1  0.597216  0.279606  0.598420  1
