# generated using pymatgen
data_Tb16MgCd3FePt3
_symmetry_space_group_name_H-M   'P 1'
_cell_length_a   9.70584991
_cell_length_b   9.70585044
_cell_length_c   9.70585039
_cell_angle_alpha   59.80891322
_cell_angle_beta   59.80890891
_cell_angle_gamma   59.80891448
_symmetry_Int_Tables_number   1
_chemical_formula_structural   Tb16MgCd3FePt3
_chemical_formula_sum   'Tb16 Mg1 Cd3 Fe1 Pt3'
_cell_volume   643.72127114
_cell_formula_units_Z   1
loop_
 _symmetry_equiv_pos_site_id
 _symmetry_equiv_pos_as_xyz
  1  'x, y, z'
loop_
 _atom_site_type_symbol
 _atom_site_label
 _atom_site_symmetry_multiplicity
 _atom_site_fract_x
 _atom_site_fract_y
 _atom_site_fract_z
 _atom_site_occupancy
  Tb  Tb0  1  0.352587  0.352587  0.352587  1
  Tb  Tb1  1  0.345317  0.345317  0.953288  1
  Tb  Tb2  1  0.345317  0.953288  0.345317  1
  Tb  Tb3  1  0.953288  0.345317  0.345317  1
  Tb  Tb4  1  0.819945  0.188986  0.188986  1
  Tb  Tb5  1  0.188105  0.810962  0.810962  1
  Tb  Tb6  1  0.188986  0.819945  0.188986  1
  Tb  Tb7  1  0.810962  0.188105  0.810962  1
  Tb  Tb8  1  0.188986  0.188986  0.819945  1
  Tb  Tb9  1  0.810962  0.810962  0.188105  1
  Tb  Tb10  1  0.936743  0.564426  0.564426  1
  Tb  Tb11  1  0.560610  0.936997  0.936997  1
  Tb  Tb12  1  0.564426  0.936743  0.564426  1
  Tb  Tb13  1  0.936997  0.560610  0.936997  1
  Tb  Tb14  1  0.564426  0.564426  0.936743  1
  Tb  Tb15  1  0.936997  0.936997  0.560610  1
  Mg  Mg16  1  0.574882  0.574882  0.574882  1
  Cd  Cd17  1  0.581828  0.581828  0.253266  1
  Cd  Cd18  1  0.581828  0.253266  0.581828  1
  Cd  Cd19  1  0.253266  0.581828  0.581828  1
  Fe  Fe20  1  0.142966  0.142966  0.142966  1
  Pt  Pt21  1  0.144085  0.144085  0.572409  1
  Pt  Pt22  1  0.144085  0.572409  0.144085  1
  Pt  Pt23  1  0.572409  0.144085  0.144085  1
