# generated using pymatgen
data_Ac8Si12Ag3Ru
_symmetry_space_group_name_H-M   'P 1'
_cell_length_a   11.82468912
_cell_length_b   10.17213496
_cell_length_c   8.51780614
_cell_angle_alpha   78.06173065
_cell_angle_beta   57.10816199
_cell_angle_gamma   45.02920081
_symmetry_Int_Tables_number   1
_chemical_formula_structural   Ac8Si12Ag3Ru
_chemical_formula_sum   'Ac8 Si12 Ag3 Ru1'
_cell_volume   581.01156032
_cell_formula_units_Z   1
loop_
 _symmetry_equiv_pos_site_id
 _symmetry_equiv_pos_as_xyz
  1  'x, y, z'
loop_
 _atom_site_type_symbol
 _atom_site_label
 _atom_site_symmetry_multiplicity
 _atom_site_fract_x
 _atom_site_fract_y
 _atom_site_fract_z
 _atom_site_occupancy
  Ac  Ac0  1  0.379078  0.376752  0.620185  1
  Ac  Ac1  1  0.620392  0.622721  0.380458  1
  Ac  Ac2  1  0.873212  0.879144  0.631104  1
  Ac  Ac3  1  0.630660  0.618159  0.872915  1
  Ac  Ac4  1  0.875139  0.881711  0.117467  1
  Ac  Ac5  1  0.116875  0.126817  0.874952  1
  Ac  Ac6  1  0.389151  0.368413  0.116518  1
  Ac  Ac7  1  0.113960  0.126432  0.390999  1
  Si  Si8  1  0.668811  0.332489  0.667571  1
  Si  Si9  1  0.341563  0.658771  0.340964  1
  Si  Si10  1  0.586687  0.912168  0.587593  1
  Si  Si11  1  0.913308  0.586477  0.912844  1
  Si  Si12  1  0.337857  0.658015  0.820425  1
  Si  Si13  1  0.163199  0.839289  0.667813  1
  Si  Si14  1  0.819116  0.183757  0.339063  1
  Si  Si15  1  0.668193  0.329745  0.162321  1
  Si  Si16  1  0.914303  0.590495  0.423061  1
  Si  Si17  1  0.077446  0.426912  0.585271  1
  Si  Si18  1  0.422741  0.073197  0.914632  1
  Si  Si19  1  0.586224  0.909830  0.075779  1
  Ag  Ag20  1  0.167506  0.832359  0.167338  1
  Ag  Ag21  1  0.417389  0.083497  0.415601  1
  Ag  Ag22  1  0.083826  0.415958  0.084012  1
  Ru  Ru23  1  0.833365  0.166893  0.831114  1
