# generated using pymatgen
data_Ba9Sr3Pr4(Fe4O15)2
_symmetry_space_group_name_H-M   'P 1'
_cell_length_a   7.10299547
_cell_length_b   11.90042343
_cell_length_c   11.87984027
_cell_angle_alpha   120.06378117
_cell_angle_beta   90.11289886
_cell_angle_gamma   89.79285997
_symmetry_Int_Tables_number   1
_chemical_formula_structural   Ba9Sr3Pr4(Fe4O15)2
_chemical_formula_sum   'Ba9 Sr3 Pr4 Fe8 O30'
_cell_volume   869.08620978
_cell_formula_units_Z   1
loop_
 _symmetry_equiv_pos_site_id
 _symmetry_equiv_pos_as_xyz
  1  'x, y, z'
loop_
 _atom_site_type_symbol
 _atom_site_label
 _atom_site_symmetry_multiplicity
 _atom_site_fract_x
 _atom_site_fract_y
 _atom_site_fract_z
 _atom_site_occupancy
  Ba  Ba0  1  0.683054  0.349469  0.177896  1
  Ba  Ba1  1  0.677882  0.828385  0.176692  1
  Ba  Ba2  1  0.680339  0.824794  0.650176  1
  Ba  Ba3  1  0.167381  0.658721  0.826403  1
  Ba  Ba4  1  0.171146  0.168274  0.825966  1
  Ba  Ba5  1  0.169106  0.171868  0.343033  1
  Ba  Ba6  1  0.992433  0.667019  0.336419  1
  Ba  Ba7  1  0.488462  0.330120  0.663686  1
  Ba  Ba8  1  0.503478  0.999882  0.000393  1
  Sr  Sr9  1  0.000938  0.999936  0.999916  1
  Sr  Sr10  1  0.343055  0.956191  0.477444  1
  Sr  Sr11  1  0.842920  0.478373  0.523086  1
  Pr  Pr12  1  0.341989  0.521940  0.478001  1
  Pr  Pr13  1  0.344251  0.522151  0.043849  1
  Pr  Pr14  1  0.842237  0.044690  0.522472  1
  Pr  Pr15  1  0.844220  0.478001  0.955460  1
  Fe  Fe16  1  0.535460  0.668793  0.333535  1
  Fe  Fe17  1  0.036120  0.335390  0.666461  1
  Fe  Fe18  1  0.173056  0.354202  0.175283  1
  Fe  Fe19  1  0.167502  0.821711  0.178368  1
  Fe  Fe20  1  0.172262  0.823666  0.643529  1
  Fe  Fe21  1  0.670082  0.644703  0.822308  1
  Fe  Fe22  1  0.675175  0.178176  0.825591  1
  Fe  Fe23  1  0.674382  0.179481  0.354977  1
  O  O24  1  0.353446  0.494994  0.244260  1
  O  O25  1  0.350126  0.745633  0.241964  1
  O  O26  1  0.350702  0.746914  0.500574  1
  O  O27  1  0.847873  0.502412  0.757131  1
  O  O28  1  0.850551  0.251004  0.754975  1
  O  O29  1  0.847978  0.246961  0.500483  1
  O  O30  1  0.538293  0.606534  0.938824  1
  O  O31  1  0.547403  0.063445  0.671941  1
  O  O32  1  0.524502  0.325744  0.388104  1
  O  O33  1  0.539632  0.332737  0.939462  1
  O  O34  1  0.524135  0.611537  0.675170  1
  O  O35  1  0.546828  0.062774  0.391174  1
  O  O36  1  0.038979  0.398226  0.063595  1
  O  O37  1  0.023663  0.933002  0.327403  1
  O  O38  1  0.045435  0.669439  0.602928  1
  O  O39  1  0.036642  0.666080  0.064088  1
  O  O40  1  0.046542  0.397942  0.330489  1
  O  O41  1  0.024440  0.934203  0.605951  1
  O  O42  1  0.782474  0.808698  0.903967  1
  O  O43  1  0.782663  0.097064  0.909773  1
  O  O44  1  0.785061  0.098796  0.189957  1
  O  O45  1  0.250997  0.182051  0.087874  1
  O  O46  1  0.252019  0.906971  0.092842  1
  O  O47  1  0.252907  0.910935  0.815825  1
  O  O48  1  0.685363  0.829615  0.413591  1
  O  O49  1  0.671388  0.583729  0.414025  1
  O  O50  1  0.678008  0.582643  0.164784  1
  O  O51  1  0.170359  0.169543  0.585990  1
  O  O52  1  0.185370  0.416337  0.586213  1
  O  O53  1  0.177293  0.418103  0.835697  1
