# generated using pymatgen
data_Tm4CdPbAu4
_symmetry_space_group_name_H-M   'P 1'
_cell_length_a   8.01955900
_cell_length_b   8.01955900
_cell_length_c   7.23041200
_cell_angle_alpha   90.00000000
_cell_angle_beta   90.00000000
_cell_angle_gamma   90.00000000
_symmetry_Int_Tables_number   1
_chemical_formula_structural   Tm4CdPbAu4
_chemical_formula_sum   'Tm8 Cd2 Pb2 Au8'
_cell_volume   465.01184808
_cell_formula_units_Z   2
loop_
 _symmetry_equiv_pos_site_id
 _symmetry_equiv_pos_as_xyz
  1  'x, y, z'
loop_
 _atom_site_type_symbol
 _atom_site_label
 _atom_site_symmetry_multiplicity
 _atom_site_fract_x
 _atom_site_fract_y
 _atom_site_fract_z
 _atom_site_occupancy
  Tm  Tm0  1  0.843092  0.156908  0.500000  1
  Tm  Tm1  1  0.156908  0.843092  0.500000  1
  Tm  Tm2  1  0.343092  0.343092  0.000000  1
  Tm  Tm3  1  0.656908  0.656908  0.000000  1
  Tm  Tm4  1  0.680913  0.680913  0.500000  1
  Tm  Tm5  1  0.319087  0.319087  0.500000  1
  Tm  Tm6  1  0.180913  0.819087  0.000000  1
  Tm  Tm7  1  0.819087  0.180913  0.000000  1
  Cd  Cd8  1  0.500000  0.000000  0.750000  1
  Cd  Cd9  1  0.000000  0.500000  0.250000  1
  Pb  Pb10  1  0.500000  0.000000  0.250000  1
  Pb  Pb11  1  0.000000  0.500000  0.750000  1
  Au  Au12  1  0.633931  0.376903  0.273457  1
  Au  Au13  1  0.366069  0.623097  0.273457  1
  Au  Au14  1  0.133931  0.123097  0.773457  1
  Au  Au15  1  0.866069  0.876903  0.773457  1
  Au  Au16  1  0.376903  0.633931  0.726543  1
  Au  Au17  1  0.623097  0.366069  0.726543  1
  Au  Au18  1  0.876903  0.866069  0.226543  1
  Au  Au19  1  0.123097  0.133931  0.226543  1
