# generated using pymatgen
data_Li4Al7ZnPt4
_symmetry_space_group_name_H-M   'P 1'
_cell_length_a   6.06291200
_cell_length_b   4.31089500
_cell_length_c   8.67975000
_cell_angle_alpha   90.00010597
_cell_angle_beta   90.00028323
_cell_angle_gamma   90.00002274
_symmetry_Int_Tables_number   1
_chemical_formula_structural   Li4Al7ZnPt4
_chemical_formula_sum   'Li4 Al7 Zn1 Pt4'
_cell_volume   226.85895444
_cell_formula_units_Z   1
loop_
 _symmetry_equiv_pos_site_id
 _symmetry_equiv_pos_as_xyz
  1  'x, y, z'
loop_
 _atom_site_type_symbol
 _atom_site_label
 _atom_site_symmetry_multiplicity
 _atom_site_fract_x
 _atom_site_fract_y
 _atom_site_fract_z
 _atom_site_occupancy
  Li  Li0  1  0.257803  0.250004  0.124940  1
  Li  Li1  1  0.745955  0.749999  0.370172  1
  Li  Li2  1  0.250412  0.250002  0.624942  1
  Li  Li3  1  0.746042  0.750000  0.879933  1
  Al  Al4  1  0.006202  0.750001  0.125045  1
  Al  Al5  1  0.502550  0.250000  0.373413  1
  Al  Al6  1  0.997998  0.250000  0.375433  1
  Al  Al7  1  0.997552  0.750001  0.625015  1
  Al  Al8  1  0.498817  0.750000  0.625050  1
  Al  Al9  1  0.998008  0.250000  0.874513  1
  Al  Al10  1  0.502546  0.250000  0.876526  1
  Zn  Zn11  1  0.495357  0.750001  0.125018  1
  Pt  Pt12  1  0.763588  0.250000  0.124973  1
  Pt  Pt13  1  0.245145  0.750000  0.380674  1
  Pt  Pt14  1  0.746919  0.250002  0.624972  1
  Pt  Pt15  1  0.245110  0.750000  0.869384  1
