# generated using pymatgen
data_Be14Nb6SiNi8
_symmetry_space_group_name_H-M   'P 1'
_cell_length_a   7.61132854
_cell_length_b   7.61516327
_cell_length_c   7.60815700
_cell_angle_alpha   59.97207757
_cell_angle_beta   59.98923089
_cell_angle_gamma   60.08048475
_symmetry_Int_Tables_number   1
_chemical_formula_structural   Be14Nb6SiNi8
_chemical_formula_sum   'Be14 Nb6 Si1 Ni8'
_cell_volume   311.91797025
_cell_formula_units_Z   1
loop_
 _symmetry_equiv_pos_site_id
 _symmetry_equiv_pos_as_xyz
  1  'x, y, z'
loop_
 _atom_site_type_symbol
 _atom_site_label
 _atom_site_symmetry_multiplicity
 _atom_site_fract_x
 _atom_site_fract_y
 _atom_site_fract_z
 _atom_site_occupancy
  Be  Be0  1  0.325466  0.325559  0.325593  1
  Be  Be1  1  0.674534  0.674441  0.674407  1
  Be  Be2  1  0.325596  0.325499  0.023545  1
  Be  Be3  1  0.325350  0.023409  0.325663  1
  Be  Be4  1  0.674404  0.674501  0.976455  1
  Be  Be5  1  0.674650  0.976591  0.674337  1
  Be  Be6  1  0.023397  0.325371  0.325748  1
  Be  Be7  1  0.976603  0.674629  0.674252  1
  Be  Be8  1  0.500000  0.000000  0.000000  1
  Be  Be9  1  0.000000  0.500000  0.500000  1
  Be  Be10  1  0.000000  0.500000  0.000000  1
  Be  Be11  1  0.500000  0.000000  0.500000  1
  Be  Be12  1  0.000000  0.000000  0.500000  1
  Be  Be13  1  0.500000  0.500000  0.000000  1
  Nb  Nb14  1  0.702315  0.297826  0.297578  1
  Nb  Nb15  1  0.297685  0.702174  0.702422  1
  Nb  Nb16  1  0.297797  0.702344  0.297541  1
  Nb  Nb17  1  0.702203  0.297656  0.702459  1
  Nb  Nb18  1  0.297752  0.297789  0.702323  1
  Nb  Nb19  1  0.702248  0.702211  0.297677  1
  Si  Si20  1  0.000000  0.000000  0.000000  1
  Ni  Ni21  1  0.124101  0.124113  0.123841  1
  Ni  Ni22  1  0.875899  0.875887  0.876159  1
  Ni  Ni23  1  0.124313  0.123761  0.627730  1
  Ni  Ni24  1  0.123948  0.627986  0.123981  1
  Ni  Ni25  1  0.875687  0.876239  0.372270  1
  Ni  Ni26  1  0.876052  0.372014  0.876019  1
  Ni  Ni27  1  0.628019  0.123801  0.124094  1
  Ni  Ni28  1  0.371981  0.876199  0.875906  1
