# generated using pymatgen
data_Hf16Ni4Mo3Au
_symmetry_space_group_name_H-M   'P 1'
_cell_length_a   8.68740973
_cell_length_b   8.68741000
_cell_length_c   8.68741067
_cell_angle_alpha   59.98334276
_cell_angle_beta   59.98333024
_cell_angle_gamma   59.98333825
_symmetry_Int_Tables_number   1
_chemical_formula_structural   Hf16Ni4Mo3Au
_chemical_formula_sum   'Hf16 Ni4 Mo3 Au1'
_cell_volume   463.43823060
_cell_formula_units_Z   1
loop_
 _symmetry_equiv_pos_site_id
 _symmetry_equiv_pos_as_xyz
  1  'x, y, z'
loop_
 _atom_site_type_symbol
 _atom_site_label
 _atom_site_symmetry_multiplicity
 _atom_site_fract_x
 _atom_site_fract_y
 _atom_site_fract_z
 _atom_site_occupancy
  Hf  Hf0  1  0.692255  0.101823  0.101823  1
  Hf  Hf1  1  0.101823  0.692255  0.101823  1
  Hf  Hf2  1  0.101823  0.101823  0.692255  1
  Hf  Hf3  1  0.103421  0.103421  0.103421  1
  Hf  Hf4  1  0.315915  0.315915  0.692574  1
  Hf  Hf5  1  0.684730  0.684730  0.315574  1
  Hf  Hf6  1  0.315915  0.692574  0.315915  1
  Hf  Hf7  1  0.684730  0.315574  0.684730  1
  Hf  Hf8  1  0.692574  0.315915  0.315915  1
  Hf  Hf9  1  0.315574  0.684730  0.684730  1
  Hf  Hf10  1  0.952499  0.952499  0.546127  1
  Hf  Hf11  1  0.552897  0.552897  0.944287  1
  Hf  Hf12  1  0.952499  0.546127  0.952499  1
  Hf  Hf13  1  0.552897  0.944287  0.552897  1
  Hf  Hf14  1  0.546127  0.952499  0.952499  1
  Hf  Hf15  1  0.944287  0.552897  0.552897  1
  Ni  Ni16  1  0.323111  0.890837  0.890837  1
  Ni  Ni17  1  0.890837  0.323111  0.890837  1
  Ni  Ni18  1  0.890837  0.890837  0.323111  1
  Ni  Ni19  1  0.891597  0.891597  0.891597  1
  Mo  Mo20  1  0.996180  0.332610  0.332610  1
  Mo  Mo21  1  0.332610  0.996180  0.332610  1
  Mo  Mo22  1  0.332610  0.332610  0.996180  1
  Au  Au23  1  0.332248  0.332248  0.332248  1
