# generated using pymatgen
data_Ho4Pa2Co7Ni11P12
_symmetry_space_group_name_H-M   'P 1'
_cell_length_a   3.76561800
_cell_length_b   10.48356900
_cell_length_c   12.21956700
_cell_angle_alpha   90.00000000
_cell_angle_beta   90.00000000
_cell_angle_gamma   90.00000000
_symmetry_Int_Tables_number   1
_chemical_formula_structural   Ho4Pa2Co7Ni11P12
_chemical_formula_sum   'Ho4 Pa2 Co7 Ni11 P12'
_cell_volume   482.39326553
_cell_formula_units_Z   1
loop_
 _symmetry_equiv_pos_site_id
 _symmetry_equiv_pos_as_xyz
  1  'x, y, z'
loop_
 _atom_site_type_symbol
 _atom_site_label
 _atom_site_symmetry_multiplicity
 _atom_site_fract_x
 _atom_site_fract_y
 _atom_site_fract_z
 _atom_site_occupancy
  Ho  Ho0  1  0.500000  0.814486  0.206137  1
  Ho  Ho1  1  0.500000  0.185514  0.206137  1
  Ho  Ho2  1  0.000000  0.686315  0.794724  1
  Ho  Ho3  1  0.000000  0.313685  0.794724  1
  Pa  Pa4  1  0.000000  0.500000  0.523257  1
  Pa  Pa5  1  0.500000  0.000000  0.472194  1
  Co  Co6  1  0.000000  0.500000  0.983083  1
  Co  Co7  1  0.500000  0.000000  0.018713  1
  Co  Co8  1  0.500000  0.334550  0.993090  1
  Co  Co9  1  0.500000  0.665450  0.993090  1
  Co  Co10  1  0.000000  0.164334  0.006942  1
  Co  Co11  1  0.000000  0.835666  0.006942  1
  Co  Co12  1  0.000000  0.000000  0.304485  1
  Ni  Ni13  1  0.500000  0.301760  0.430878  1
  Ni  Ni14  1  0.500000  0.698240  0.430878  1
  Ni  Ni15  1  0.000000  0.199518  0.569157  1
  Ni  Ni16  1  0.000000  0.800482  0.569157  1
  Ni  Ni17  1  0.500000  0.879923  0.715217  1
  Ni  Ni18  1  0.500000  0.120077  0.715217  1
  Ni  Ni19  1  0.000000  0.619744  0.284279  1
  Ni  Ni20  1  0.000000  0.380256  0.284279  1
  Ni  Ni21  1  0.500000  0.500000  0.155132  1
  Ni  Ni22  1  0.000000  0.000000  0.843619  1
  Ni  Ni23  1  0.500000  0.500000  0.699170  1
  P  P24  1  0.500000  0.309957  0.616982  1
  P  P25  1  0.500000  0.690043  0.616982  1
  P  P26  1  0.000000  0.191047  0.382452  1
  P  P27  1  0.000000  0.808953  0.382452  1
  P  P28  1  0.500000  0.500000  0.878827  1
  P  P29  1  0.000000  0.000000  0.124212  1
  P  P30  1  0.500000  0.847077  0.898833  1
  P  P31  1  0.500000  0.152923  0.898833  1
  P  P32  1  0.000000  0.654385  0.101105  1
  P  P33  1  0.000000  0.345615  0.101105  1
  P  P34  1  0.500000  0.500000  0.340555  1
  P  P35  1  0.000000  0.000000  0.657164  1
