# generated using pymatgen
data_Ho2Mn4Ni2P7Ir6
_symmetry_space_group_name_H-M   'P 1'
_cell_length_a   9.43568521
_cell_length_b   9.42805868
_cell_length_c   3.83193500
_cell_angle_alpha   90.00000000
_cell_angle_beta   90.00000000
_cell_angle_gamma   120.59450552
_symmetry_Int_Tables_number   1
_chemical_formula_structural   Ho2Mn4Ni2P7Ir6
_chemical_formula_sum   'Ho2 Mn4 Ni2 P7 Ir6'
_cell_volume   293.43471396
_cell_formula_units_Z   1
loop_
 _symmetry_equiv_pos_site_id
 _symmetry_equiv_pos_as_xyz
  1  'x, y, z'
loop_
 _atom_site_type_symbol
 _atom_site_label
 _atom_site_symmetry_multiplicity
 _atom_site_fract_x
 _atom_site_fract_y
 _atom_site_fract_z
 _atom_site_occupancy
  Ho  Ho0  1  0.668268  0.335495  0.000000  1
  Ho  Ho1  1  0.333115  0.665856  0.500000  1
  Mn  Mn2  1  0.885887  0.727397  0.000000  1
  Mn  Mn3  1  0.088504  0.211814  0.500000  1
  Mn  Mn4  1  0.783877  0.875268  0.500000  1
  Mn  Mn5  1  0.125399  0.908587  0.500000  1
  Ni  Ni6  1  0.267100  0.160541  0.000000  1
  Ni  Ni7  1  0.840584  0.107894  0.000000  1
  P  P8  1  0.297317  0.410300  0.000000  1
  P  P9  1  0.587686  0.888403  0.000000  1
  P  P10  1  0.110385  0.704093  0.000000  1
  P  P11  1  0.399824  0.116666  0.500000  1
  P  P12  1  0.885985  0.284033  0.500000  1
  P  P13  1  0.722970  0.601744  0.500000  1
  P  P14  1  0.997649  0.995954  0.000000  1
  Ir  Ir15  1  0.064667  0.427884  0.000000  1
  Ir  Ir16  1  0.568941  0.639009  0.000000  1
  Ir  Ir17  1  0.364181  0.937690  0.000000  1
  Ir  Ir18  1  0.441781  0.384008  0.500000  1
  Ir  Ir19  1  0.617823  0.055545  0.500000  1
  Ir  Ir20  1  0.948055  0.561817  0.500000  1
