# generated using pymatgen
data_Y8Ta11Ge16Mo
_symmetry_space_group_name_H-M   'P 1'
_cell_length_a   6.98815803
_cell_length_b   7.15305315
_cell_length_c   13.53937700
_cell_angle_alpha   90.00000000
_cell_angle_beta   90.00000000
_cell_angle_gamma   89.98282568
_symmetry_Int_Tables_number   1
_chemical_formula_structural   Y8Ta11Ge16Mo
_chemical_formula_sum   'Y8 Ta11 Ge16 Mo1'
_cell_volume   676.78828290
_cell_formula_units_Z   1
loop_
 _symmetry_equiv_pos_site_id
 _symmetry_equiv_pos_as_xyz
  1  'x, y, z'
loop_
 _atom_site_type_symbol
 _atom_site_label
 _atom_site_symmetry_multiplicity
 _atom_site_fract_x
 _atom_site_fract_y
 _atom_site_fract_z
 _atom_site_occupancy
  Y  Y0  1  0.495477  0.326575  0.094222  1
  Y  Y1  1  0.994813  0.173598  0.405708  1
  Y  Y2  1  0.504448  0.673717  0.594312  1
  Y  Y3  1  0.004497  0.826775  0.905548  1
  Y  Y4  1  0.504448  0.673717  0.905688  1
  Y  Y5  1  0.004497  0.826775  0.594452  1
  Y  Y6  1  0.495477  0.326575  0.405778  1
  Y  Y7  1  0.994813  0.173598  0.094292  1
  Ta  Ta8  1  0.664039  0.013632  0.750000  1
  Ta  Ta9  1  0.163594  0.485806  0.750000  1
  Ta  Ta10  1  0.334752  0.985192  0.250000  1
  Ta  Ta11  1  0.840006  0.330559  0.626051  1
  Ta  Ta12  1  0.340028  0.169560  0.873698  1
  Ta  Ta13  1  0.159569  0.668336  0.126910  1
  Ta  Ta14  1  0.660191  0.830744  0.373512  1
  Ta  Ta15  1  0.159569  0.668336  0.373090  1
  Ta  Ta16  1  0.660191  0.830744  0.126488  1
  Ta  Ta17  1  0.840006  0.330559  0.873949  1
  Ta  Ta18  1  0.340028  0.169560  0.626302  1
  Ge  Ge19  1  0.805064  0.639814  0.750000  1
  Ge  Ge20  1  0.305445  0.859908  0.750000  1
  Ge  Ge21  1  0.193061  0.361293  0.250000  1
  Ge  Ge22  1  0.693966  0.140995  0.250000  1
  Ge  Ge23  1  0.540005  0.378223  0.750000  1
  Ge  Ge24  1  0.039385  0.121288  0.750000  1
  Ge  Ge25  1  0.463523  0.621179  0.250000  1
  Ge  Ge26  1  0.959122  0.876811  0.250000  1
  Ge  Ge27  1  0.675821  0.039056  0.542171  1
  Ge  Ge28  1  0.175921  0.460897  0.958049  1
  Ge  Ge29  1  0.324677  0.960497  0.042240  1
  Ge  Ge30  1  0.825021  0.540463  0.457690  1
  Ge  Ge31  1  0.324677  0.960497  0.457760  1
  Ge  Ge32  1  0.825021  0.540463  0.042310  1
  Ge  Ge33  1  0.675821  0.039056  0.957829  1
  Ge  Ge34  1  0.175921  0.460897  0.541951  1
  Mo  Mo35  1  0.837104  0.514301  0.250000  1
