# generated using pymatgen
data_Li2LaEuSi3
_symmetry_space_group_name_H-M   'P 1'
_cell_length_a   9.66717400
_cell_length_b   9.66717370
_cell_length_c   6.91319200
_cell_angle_alpha   90.00000000
_cell_angle_beta   90.00000000
_cell_angle_gamma   153.03352044
_symmetry_Int_Tables_number   1
_chemical_formula_structural   Li2LaEuSi3
_chemical_formula_sum   'Li4 La2 Eu2 Si6'
_cell_volume   292.97153005
_cell_formula_units_Z   2
loop_
 _symmetry_equiv_pos_site_id
 _symmetry_equiv_pos_as_xyz
  1  'x, y, z'
loop_
 _atom_site_type_symbol
 _atom_site_label
 _atom_site_symmetry_multiplicity
 _atom_site_fract_x
 _atom_site_fract_y
 _atom_site_fract_z
 _atom_site_occupancy
  Li  Li0  1  0.812691  0.187309  0.439079  1
  Li  Li1  1  0.187309  0.812691  0.560921  1
  Li  Li2  1  0.812691  0.187309  0.060921  1
  Li  Li3  1  0.187309  0.812691  0.939079  1
  La  La4  1  0.340370  0.659630  0.750000  1
  La  La5  1  0.659630  0.340370  0.250000  1
  Eu  Eu6  1  0.552401  0.447599  0.750000  1
  Eu  Eu7  1  0.447599  0.552401  0.250000  1
  Si  Si8  1  0.943067  0.056933  0.923627  1
  Si  Si9  1  0.056933  0.943067  0.076373  1
  Si  Si10  1  0.943067  0.056933  0.576373  1
  Si  Si11  1  0.056933  0.943067  0.423627  1
  Si  Si12  1  0.719764  0.280236  0.750000  1
  Si  Si13  1  0.280236  0.719764  0.250000  1
