# generated using pymatgen
data_TbCe2Ga3Ir2Pd
_symmetry_space_group_name_H-M   'P 1'
_cell_length_a   7.35189700
_cell_length_b   7.23691783
_cell_length_c   3.87727100
_cell_angle_alpha   90.00000000
_cell_angle_beta   90.00000000
_cell_angle_gamma   119.48399294
_symmetry_Int_Tables_number   1
_chemical_formula_structural   TbCe2Ga3Ir2Pd
_chemical_formula_sum   'Tb1 Ce2 Ga3 Ir2 Pd1'
_cell_volume   179.57447766
_cell_formula_units_Z   1
loop_
 _symmetry_equiv_pos_site_id
 _symmetry_equiv_pos_as_xyz
  1  'x, y, z'
loop_
 _atom_site_type_symbol
 _atom_site_label
 _atom_site_symmetry_multiplicity
 _atom_site_fract_x
 _atom_site_fract_y
 _atom_site_fract_z
 _atom_site_occupancy
  Tb  Tb0  1  0.000000  0.412458  0.000000  1
  Ce  Ce1  1  0.581056  0.581061  0.000000  1
  Ce  Ce2  1  0.418944  0.000005  0.000000  1
  Ga  Ga3  1  0.000000  0.740660  0.500000  1
  Ga  Ga4  1  0.243246  0.251152  0.500000  1
  Ga  Ga5  1  0.756754  0.007906  0.500000  1
  Ir  Ir6  1  0.649542  0.330806  0.500000  1
  Ir  Ir7  1  0.350458  0.681265  0.500000  1
  Pd  Pd8  1  0.000000  0.994688  0.000000  1
