# generated using pymatgen
data_Sc8TiBe3Si13Mo11
_symmetry_space_group_name_H-M   'P 1'
_cell_length_a   6.52944195
_cell_length_b   6.67699716
_cell_length_c   12.69545500
_cell_angle_alpha   90.00000000
_cell_angle_beta   90.00000000
_cell_angle_gamma   90.19516772
_symmetry_Int_Tables_number   1
_chemical_formula_structural   Sc8TiBe3Si13Mo11
_chemical_formula_sum   'Sc8 Ti1 Be3 Si13 Mo11'
_cell_volume   553.48137026
_cell_formula_units_Z   1
loop_
 _symmetry_equiv_pos_site_id
 _symmetry_equiv_pos_as_xyz
  1  'x, y, z'
loop_
 _atom_site_type_symbol
 _atom_site_label
 _atom_site_symmetry_multiplicity
 _atom_site_fract_x
 _atom_site_fract_y
 _atom_site_fract_z
 _atom_site_occupancy
  Sc  Sc0  1  0.497695  0.331208  0.092990  1
  Sc  Sc1  1  0.000067  0.172766  0.405471  1
  Sc  Sc2  1  0.499829  0.670657  0.595759  1
  Sc  Sc3  1  0.000518  0.829525  0.904195  1
  Sc  Sc4  1  0.499829  0.670657  0.904241  1
  Sc  Sc5  1  0.000518  0.829525  0.595805  1
  Sc  Sc6  1  0.497695  0.331208  0.407010  1
  Sc  Sc7  1  0.000067  0.172766  0.094529  1
  Ti  Ti8  1  0.339884  0.988134  0.250000  1
  Be  Be9  1  0.540838  0.376226  0.750000  1
  Be  Be10  1  0.040826  0.122999  0.750000  1
  Be  Be11  1  0.460316  0.622622  0.250000  1
  Si  Si12  1  0.666751  0.038670  0.542346  1
  Si  Si13  1  0.166675  0.460093  0.956644  1
  Si  Si14  1  0.332944  0.962353  0.039960  1
  Si  Si15  1  0.832840  0.538073  0.459581  1
  Si  Si16  1  0.332944  0.962353  0.460040  1
  Si  Si17  1  0.832840  0.538073  0.040419  1
  Si  Si18  1  0.666751  0.038670  0.957654  1
  Si  Si19  1  0.166675  0.460093  0.543356  1
  Si  Si20  1  0.962967  0.879503  0.250000  1
  Si  Si21  1  0.789843  0.631734  0.750000  1
  Si  Si22  1  0.289410  0.868067  0.750000  1
  Si  Si23  1  0.210956  0.370803  0.250000  1
  Si  Si24  1  0.702249  0.140102  0.250000  1
  Mo  Mo25  1  0.836417  0.330176  0.628222  1
  Mo  Mo26  1  0.337364  0.169537  0.871734  1
  Mo  Mo27  1  0.166529  0.667175  0.124349  1
  Mo  Mo28  1  0.661987  0.827607  0.374594  1
  Mo  Mo29  1  0.166529  0.667175  0.375651  1
  Mo  Mo30  1  0.661987  0.827607  0.125406  1
  Mo  Mo31  1  0.836417  0.330176  0.871778  1
  Mo  Mo32  1  0.337364  0.169537  0.628266  1
  Mo  Mo33  1  0.664583  0.009013  0.750000  1
  Mo  Mo34  1  0.163951  0.490210  0.750000  1
  Mo  Mo35  1  0.834940  0.504906  0.250000  1
