# generated using pymatgen
data_Lu5Mg(Si2Rh5)2
_symmetry_space_group_name_H-M   'P 1'
_cell_length_a   9.86772800
_cell_length_b   9.86772800
_cell_length_c   3.43644900
_cell_angle_alpha   90.00000000
_cell_angle_beta   90.00000000
_cell_angle_gamma   90.00000000
_symmetry_Int_Tables_number   1
_chemical_formula_structural   Lu5Mg(Si2Rh5)2
_chemical_formula_sum   'Lu5 Mg1 Si4 Rh10'
_cell_volume   334.61410406
_cell_formula_units_Z   1
loop_
 _symmetry_equiv_pos_site_id
 _symmetry_equiv_pos_as_xyz
  1  'x, y, z'
loop_
 _atom_site_type_symbol
 _atom_site_label
 _atom_site_symmetry_multiplicity
 _atom_site_fract_x
 _atom_site_fract_y
 _atom_site_fract_z
 _atom_site_occupancy
  Lu  Lu0  1  0.670360  0.176928  0.000000  1
  Lu  Lu1  1  0.329640  0.823072  0.000000  1
  Lu  Lu2  1  0.176928  0.329640  0.000000  1
  Lu  Lu3  1  0.823072  0.670360  0.000000  1
  Lu  Lu4  1  0.000000  0.000000  0.000000  1
  Mg  Mg5  1  0.500000  0.500000  0.000000  1
  Si  Si6  1  0.125907  0.624566  0.000000  1
  Si  Si7  1  0.874093  0.375434  0.000000  1
  Si  Si8  1  0.624566  0.874093  0.000000  1
  Si  Si9  1  0.375434  0.125907  0.000000  1
  Rh  Rh10  1  0.500000  0.000000  0.500000  1
  Rh  Rh11  1  0.000000  0.500000  0.500000  1
  Rh  Rh12  1  0.219166  0.070292  0.500000  1
  Rh  Rh13  1  0.780834  0.929708  0.500000  1
  Rh  Rh14  1  0.070292  0.780834  0.500000  1
  Rh  Rh15  1  0.715903  0.431403  0.500000  1
  Rh  Rh16  1  0.929708  0.219166  0.500000  1
  Rh  Rh17  1  0.284097  0.568597  0.500000  1
  Rh  Rh18  1  0.568597  0.715903  0.500000  1
  Rh  Rh19  1  0.431403  0.284097  0.500000  1
