# generated using pymatgen
data_Hf4Ta2Co3Si6Ni
_symmetry_space_group_name_H-M   'P 1'
_cell_length_a   5.23544876
_cell_length_b   5.23544723
_cell_length_c   12.61537313
_cell_angle_alpha   90.01545835
_cell_angle_beta   89.98454153
_cell_angle_gamma   137.09336131
_symmetry_Int_Tables_number   1
_chemical_formula_structural   Hf4Ta2Co3Si6Ni
_chemical_formula_sum   'Hf4 Ta2 Co3 Si6 Ni1'
_cell_volume   235.41329849
_cell_formula_units_Z   1
loop_
 _symmetry_equiv_pos_site_id
 _symmetry_equiv_pos_as_xyz
  1  'x, y, z'
loop_
 _atom_site_type_symbol
 _atom_site_label
 _atom_site_symmetry_multiplicity
 _atom_site_fract_x
 _atom_site_fract_y
 _atom_site_fract_z
 _atom_site_occupancy
  Hf  Hf0  1  0.574113  0.425887  0.618908  1
  Hf  Hf1  1  0.426776  0.573224  0.379184  1
  Hf  Hf2  1  0.425018  0.574982  0.118831  1
  Hf  Hf3  1  0.574124  0.425876  0.882217  1
  Ta  Ta4  1  0.133399  0.866601  0.250282  1
  Ta  Ta5  1  0.866349  0.133651  0.750315  1
  Co  Co6  1  0.280498  0.719502  0.919375  1
  Co  Co7  1  0.719303  0.280697  0.080018  1
  Co  Co8  1  0.718865  0.281135  0.415957  1
  Si  Si9  1  0.827479  0.172521  0.249034  1
  Si  Si10  1  0.170001  0.829999  0.752289  1
  Si  Si11  1  0.890327  0.109673  0.542175  1
  Si  Si12  1  0.111438  0.888562  0.456000  1
  Si  Si13  1  0.110115  0.889885  0.044791  1
  Si  Si14  1  0.889328  0.110672  0.955304  1
  Ni  Ni15  1  0.282867  0.717133  0.585320  1
