# generated using pymatgen
data_YbEr(Al5Fe)4
_symmetry_space_group_name_H-M   'P 1'
_cell_length_a   6.76920967
_cell_length_b   6.76921032
_cell_length_c   8.96011100
_cell_angle_alpha   90.00000000
_cell_angle_beta   90.00000000
_cell_angle_gamma   97.14624792
_symmetry_Int_Tables_number   1
_chemical_formula_structural   YbEr(Al5Fe)4
_chemical_formula_sum   'Yb1 Er1 Al20 Fe4'
_cell_volume   407.38264674
_cell_formula_units_Z   1
loop_
 _symmetry_equiv_pos_site_id
 _symmetry_equiv_pos_as_xyz
  1  'x, y, z'
loop_
 _atom_site_type_symbol
 _atom_site_label
 _atom_site_symmetry_multiplicity
 _atom_site_fract_x
 _atom_site_fract_y
 _atom_site_fract_z
 _atom_site_occupancy
  Yb  Yb0  1  0.876391  0.123609  0.750000  1
  Er  Er1  1  0.125253  0.874747  0.250000  1
  Al  Al2  1  0.625849  0.374151  0.546205  1
  Al  Al3  1  0.374223  0.625777  0.449895  1
  Al  Al4  1  0.374223  0.625777  0.050105  1
  Al  Al5  1  0.625849  0.374151  0.953795  1
  Al  Al6  1  0.226986  0.227800  0.499559  1
  Al  Al7  1  0.772200  0.773014  0.499559  1
  Al  Al8  1  0.772200  0.773014  0.000441  1
  Al  Al9  1  0.226986  0.227800  0.000441  1
  Al  Al10  1  0.843524  0.156476  0.096568  1
  Al  Al11  1  0.158741  0.841259  0.903547  1
  Al  Al12  1  0.158741  0.841259  0.596453  1
  Al  Al13  1  0.843524  0.156476  0.403432  1
  Al  Al14  1  0.866395  0.585406  0.750000  1
  Al  Al15  1  0.134225  0.416941  0.250000  1
  Al  Al16  1  0.414594  0.133605  0.750000  1
  Al  Al17  1  0.583059  0.865775  0.250000  1
  Al  Al18  1  0.219785  0.476636  0.750000  1
  Al  Al19  1  0.779609  0.521780  0.250000  1
  Al  Al20  1  0.523364  0.780215  0.750000  1
  Al  Al21  1  0.478220  0.220391  0.250000  1
  Fe  Fe22  1  0.999606  0.501577  0.499445  1
  Fe  Fe23  1  0.999606  0.501577  0.000555  1
  Fe  Fe24  1  0.498423  0.000394  0.000555  1
  Fe  Fe25  1  0.498423  0.000394  0.499445  1
