# generated using pymatgen
data_Tb4Er(NiTe)2
_symmetry_space_group_name_H-M   'P 1'
_cell_length_a   7.76636918
_cell_length_b   7.76636836
_cell_length_c   14.92794900
_cell_angle_alpha   90.00000000
_cell_angle_beta   90.00000000
_cell_angle_gamma   149.93553975
_symmetry_Int_Tables_number   1
_chemical_formula_structural   Tb4Er(NiTe)2
_chemical_formula_sum   'Tb8 Er2 Ni4 Te4'
_cell_volume   451.07768803
_cell_formula_units_Z   2
loop_
 _symmetry_equiv_pos_site_id
 _symmetry_equiv_pos_as_xyz
  1  'x, y, z'
loop_
 _atom_site_type_symbol
 _atom_site_label
 _atom_site_symmetry_multiplicity
 _atom_site_fract_x
 _atom_site_fract_y
 _atom_site_fract_z
 _atom_site_occupancy
  Tb  Tb0  1  0.039396  0.960604  0.874739  1
  Tb  Tb1  1  0.960604  0.039396  0.125261  1
  Tb  Tb2  1  0.740961  0.259039  0.628344  1
  Tb  Tb3  1  0.960604  0.039396  0.374739  1
  Tb  Tb4  1  0.259039  0.740961  0.371656  1
  Tb  Tb5  1  0.259039  0.740961  0.128344  1
  Tb  Tb6  1  0.740961  0.259039  0.871656  1
  Tb  Tb7  1  0.039396  0.960604  0.625261  1
  Er  Er8  1  0.393620  0.606380  0.750000  1
  Er  Er9  1  0.606380  0.393620  0.250000  1
  Ni  Ni10  1  0.413248  0.586752  0.250000  1
  Ni  Ni11  1  0.186473  0.813527  0.750000  1
  Ni  Ni12  1  0.586752  0.413248  0.750000  1
  Ni  Ni13  1  0.813527  0.186473  0.250000  1
  Te  Te14  1  0.384745  0.615255  0.540531  1
  Te  Te15  1  0.615255  0.384745  0.459469  1
  Te  Te16  1  0.384745  0.615255  0.959469  1
  Te  Te17  1  0.615255  0.384745  0.040531  1
