# generated using pymatgen
data_Pr3GaS6
_symmetry_space_group_name_H-M   'P 1'
_cell_length_a   8.85046989
_cell_length_b   8.85047062
_cell_length_c   6.71486600
_cell_angle_alpha   90.00000000
_cell_angle_beta   90.00000000
_cell_angle_gamma   102.18581995
_symmetry_Int_Tables_number   1
_chemical_formula_structural   Pr3GaS6
_chemical_formula_sum   'Pr6 Ga2 S12'
_cell_volume   514.12966801
_cell_formula_units_Z   2
loop_
 _symmetry_equiv_pos_site_id
 _symmetry_equiv_pos_as_xyz
  1  'x, y, z'
loop_
 _atom_site_type_symbol
 _atom_site_label
 _atom_site_symmetry_multiplicity
 _atom_site_fract_x
 _atom_site_fract_y
 _atom_site_fract_z
 _atom_site_occupancy
  Pr  Pr0  1  0.284710  0.084479  0.225981  1
  Pr  Pr1  1  0.915521  0.715290  0.225981  1
  Pr  Pr2  1  0.715290  0.915521  0.725981  1
  Pr  Pr3  1  0.084479  0.284710  0.725981  1
  Pr  Pr4  1  0.399946  0.600054  0.140024  1
  Pr  Pr5  1  0.600054  0.399946  0.640024  1
  Ga  Ga6  1  0.199453  0.800547  0.764708  1
  Ga  Ga7  1  0.800547  0.199453  0.264708  1
  S  S8  1  0.574160  0.101489  0.433492  1
  S  S9  1  0.898511  0.425840  0.433492  1
  S  S10  1  0.425840  0.898511  0.933492  1
  S  S11  1  0.101489  0.574160  0.933492  1
  S  S12  1  0.635391  0.688397  0.432914  1
  S  S13  1  0.311603  0.364609  0.432914  1
  S  S14  1  0.364609  0.311603  0.932914  1
  S  S15  1  0.688397  0.635391  0.932914  1
  S  S16  1  0.217190  0.782810  0.424209  1
  S  S17  1  0.782810  0.217190  0.924209  1
  S  S18  1  0.957739  0.042261  0.401287  1
  S  S19  1  0.042261  0.957739  0.901287  1
