# generated using pymatgen
data_CsDy6Tm4(C2I9)2
_symmetry_space_group_name_H-M   'P 1'
_cell_length_a   11.41529402
_cell_length_b   11.43771837
_cell_length_c   11.46706124
_cell_angle_alpha   113.27497969
_cell_angle_beta   86.84436767
_cell_angle_gamma   119.87870016
_symmetry_Int_Tables_number   1
_chemical_formula_structural   CsDy6Tm4(C2I9)2
_chemical_formula_sum   'Cs1 Dy6 Tm4 C4 I18'
_cell_volume   1173.49411444
_cell_formula_units_Z   1
loop_
 _symmetry_equiv_pos_site_id
 _symmetry_equiv_pos_as_xyz
  1  'x, y, z'
loop_
 _atom_site_type_symbol
 _atom_site_label
 _atom_site_symmetry_multiplicity
 _atom_site_fract_x
 _atom_site_fract_y
 _atom_site_fract_z
 _atom_site_occupancy
  Cs  Cs0  1  0.499947  0.999887  0.499949  1
  Dy  Dy1  1  0.907303  0.610582  0.709201  1
  Dy  Dy2  1  0.104350  0.945291  0.000795  1
  Dy  Dy3  1  0.035639  0.962644  0.676167  1
  Dy  Dy4  1  0.320837  0.274600  0.287721  1
  Dy  Dy5  1  0.722961  0.647649  0.984996  1
  Dy  Dy6  1  0.895687  0.055519  0.999652  1
  Tm  Tm7  1  0.681922  0.726585  0.714347  1
  Tm  Tm8  1  0.274563  0.350132  0.016278  1
  Tm  Tm9  1  0.093575  0.386325  0.288730  1
  Tm  Tm10  1  0.965272  0.038430  0.321454  1
  C  C11  1  0.151455  0.220416  0.120550  1
  C  C12  1  0.847173  0.779973  0.879265  1
  C  C13  1  0.923433  0.856503  0.802680  1
  C  C14  1  0.075021  0.143694  0.197074  1
  I  I15  1  0.449778  0.530685  0.831356  1
  I  I16  1  0.384436  0.040035  0.157843  1
  I  I17  1  0.777027  0.855010  0.501346  1
  I  I18  1  0.840625  0.311739  0.155424  1
  I  I19  1  0.547487  0.469023  0.166196  1
  I  I20  1  0.218961  0.143739  0.497293  1
  I  I21  1  0.318252  0.099648  0.831674  1
  I  I22  1  0.684585  0.905274  0.172944  1
  I  I23  1  0.975118  0.758933  0.172273  1
  I  I24  1  0.935579  0.296502  0.497931  1
  I  I25  1  0.028309  0.246516  0.832153  1
  I  I26  1  0.066875  0.701517  0.498238  1
  I  I27  1  0.259055  0.616643  0.181370  1
  I  I28  1  0.739730  0.377758  0.817703  1
  I  I29  1  0.642126  0.438900  0.502906  1
  I  I30  1  0.162707  0.689915  0.846820  1
  I  I31  1  0.616588  0.956488  0.840406  1
  I  I32  1  0.353625  0.563444  0.497263  1
