# generated using pymatgen
data_YbPr5Al23VOs8
_symmetry_space_group_name_H-M   'P 1'
_cell_length_a   8.91282500
_cell_length_b   8.94182412
_cell_length_c   9.68920047
_cell_angle_alpha   90.03083256
_cell_angle_beta   90.00000000
_cell_angle_gamma   119.89277369
_symmetry_Int_Tables_number   1
_chemical_formula_structural   YbPr5Al23VOs8
_chemical_formula_sum   'Yb1 Pr5 Al23 V1 Os8'
_cell_volume   669.46553936
_cell_formula_units_Z   1
loop_
 _symmetry_equiv_pos_site_id
 _symmetry_equiv_pos_as_xyz
  1  'x, y, z'
loop_
 _atom_site_type_symbol
 _atom_site_label
 _atom_site_symmetry_multiplicity
 _atom_site_fract_x
 _atom_site_fract_y
 _atom_site_fract_z
 _atom_site_occupancy
  Yb  Yb0  1  0.199197  0.398395  0.245452  1
  Pr  Pr1  1  0.807458  0.614916  0.751700  1
  Pr  Pr2  1  0.619585  0.810250  0.247690  1
  Pr  Pr3  1  0.381331  0.189939  0.751338  1
  Pr  Pr4  1  0.190664  0.810250  0.247690  1
  Pr  Pr5  1  0.808609  0.189939  0.751338  1
  Al  Al6  1  0.665883  0.331766  0.987173  1
  Al  Al7  1  0.665330  0.330658  0.514899  1
  Al  Al8  1  0.332704  0.665410  0.489428  1
  Al  Al9  1  0.162075  0.324148  0.568436  1
  Al  Al10  1  0.835825  0.671651  0.424638  1
  Al  Al11  1  0.673925  0.836746  0.572517  1
  Al  Al12  1  0.835418  0.670836  0.078458  1
  Al  Al13  1  0.326103  0.164526  0.425515  1
  Al  Al14  1  0.160077  0.320153  0.931981  1
  Al  Al15  1  0.162822  0.836746  0.572517  1
  Al  Al16  1  0.327256  0.165214  0.077134  1
  Al  Al17  1  0.838421  0.164526  0.425515  1
  Al  Al18  1  0.677403  0.838531  0.927935  1
  Al  Al19  1  0.837957  0.165214  0.077134  1
  Al  Al20  1  0.161130  0.838531  0.927935  1
  Al  Al21  1  0.563319  0.126638  0.251857  1
  Al  Al22  1  0.439596  0.879191  0.749137  1
  Al  Al23  1  0.876611  0.436862  0.252420  1
  Al  Al24  1  0.120475  0.558583  0.749595  1
  Al  Al25  1  0.560252  0.436862  0.252420  1
  Al  Al26  1  0.438108  0.558583  0.749595  1
  Al  Al27  1  0.007615  0.015230  0.250773  1
  Al  Al28  1  0.998938  0.997876  0.750891  1
  V  V29  1  0.332628  0.665256  0.976396  1
  Os  Os30  1  0.492930  0.985861  0.005536  1
  Os  Os31  1  0.012909  0.504835  0.005462  1
  Os  Os32  1  0.497731  0.995462  0.499814  1
  Os  Os33  1  0.491926  0.504835  0.005462  1
  Os  Os34  1  0.002317  0.499980  0.501280  1
  Os  Os35  1  0.497664  0.499980  0.501280  1
  Os  Os36  1  0.998793  0.997586  0.002517  1
  Os  Os37  1  0.999017  0.998033  0.499137  1
