# generated using pymatgen
data_Yb4Cu4Si3Sn
_symmetry_space_group_name_H-M   'P 1'
_cell_length_a   4.32050900
_cell_length_b   7.09329534
_cell_length_c   7.38161519
_cell_angle_alpha   89.81697271
_cell_angle_beta   90.00000000
_cell_angle_gamma   90.00000000
_symmetry_Int_Tables_number   1
_chemical_formula_structural   Yb4Cu4Si3Sn
_chemical_formula_sum   'Yb4 Cu4 Si3 Sn1'
_cell_volume   226.22059581
_cell_formula_units_Z   1
loop_
 _symmetry_equiv_pos_site_id
 _symmetry_equiv_pos_as_xyz
  1  'x, y, z'
loop_
 _atom_site_type_symbol
 _atom_site_label
 _atom_site_symmetry_multiplicity
 _atom_site_fract_x
 _atom_site_fract_y
 _atom_site_fract_z
 _atom_site_occupancy
  Yb  Yb0  1  0.250000  0.514440  0.208369  1
  Yb  Yb1  1  0.750000  0.500677  0.793026  1
  Yb  Yb2  1  0.750000  0.983396  0.690351  1
  Yb  Yb3  1  0.250000  0.001495  0.306760  1
  Cu  Cu4  1  0.250000  0.796325  0.914249  1
  Cu  Cu5  1  0.750000  0.184608  0.109407  1
  Cu  Cu6  1  0.750000  0.686008  0.415183  1
  Cu  Cu7  1  0.250000  0.327469  0.566692  1
  Si  Si8  1  0.250000  0.689583  0.587732  1
  Si  Si9  1  0.750000  0.310742  0.413255  1
  Si  Si10  1  0.750000  0.815141  0.083519  1
  Sn  Sn11  1  0.250000  0.190115  0.911456  1
