# generated using pymatgen
data_Tb6Pr4Ir2Br15
_symmetry_space_group_name_H-M   'P 1'
_cell_length_a   9.51731409
_cell_length_b   10.28763578
_cell_length_c   11.05113900
_cell_angle_alpha   92.38168600
_cell_angle_beta   113.79445781
_cell_angle_gamma   110.79492641
_symmetry_Int_Tables_number   1
_chemical_formula_structural   Tb6Pr4Ir2Br15
_chemical_formula_sum   'Tb6 Pr4 Ir2 Br15'
_cell_volume   903.70003807
_cell_formula_units_Z   1
loop_
 _symmetry_equiv_pos_site_id
 _symmetry_equiv_pos_as_xyz
  1  'x, y, z'
loop_
 _atom_site_type_symbol
 _atom_site_label
 _atom_site_symmetry_multiplicity
 _atom_site_fract_x
 _atom_site_fract_y
 _atom_site_fract_z
 _atom_site_occupancy
  Tb  Tb0  1  0.528529  0.706260  0.103921  1
  Tb  Tb1  1  0.471471  0.293740  0.896079  1
  Tb  Tb2  1  0.592282  0.042042  0.337578  1
  Tb  Tb3  1  0.407718  0.957958  0.662422  1
  Tb  Tb4  1  0.732713  0.078888  0.048120  1
  Tb  Tb5  1  0.267287  0.921112  0.951880  1
  Pr  Pr6  1  0.811649  0.414800  0.278788  1
  Pr  Pr7  1  0.188351  0.585200  0.721212  1
  Pr  Pr8  1  0.674697  0.746065  0.814268  1
  Pr  Pr9  1  0.325303  0.253935  0.185732  1
  Ir  Ir10  1  0.466208  0.828636  0.881360  1
  Ir  Ir11  1  0.533792  0.171364  0.118640  1
  Br  Br12  1  0.000000  0.000000  0.000000  1
  Br  Br13  1  0.633037  0.892950  0.579236  1
  Br  Br14  1  0.366963  0.107050  0.420764  1
  Br  Br15  1  0.880690  0.293406  0.528469  1
  Br  Br16  1  0.119310  0.706594  0.471531  1
  Br  Br17  1  0.304653  0.765202  0.189443  1
  Br  Br18  1  0.695347  0.234798  0.810557  1
  Br  Br19  1  0.056856  0.337923  0.219934  1
  Br  Br20  1  0.173404  0.059507  0.700295  1
  Br  Br21  1  0.826596  0.940493  0.299705  1
  Br  Br22  1  0.253131  0.416064  0.950778  1
  Br  Br23  1  0.746869  0.583936  0.049222  1
  Br  Br24  1  0.404315  0.454743  0.665474  1
  Br  Br25  1  0.595685  0.545257  0.334526  1
  Br  Br26  1  0.943144  0.662077  0.780066  1
