# generated using pymatgen
data_La3ThAl4(Ga7Ir3)2
_symmetry_space_group_name_H-M   'P 1'
_cell_length_a   7.70253568
_cell_length_b   7.69381787
_cell_length_c   9.61057600
_cell_angle_alpha   90.00000000
_cell_angle_beta   90.00000000
_cell_angle_gamma   119.49847654
_symmetry_Int_Tables_number   1
_chemical_formula_structural   La3ThAl4(Ga7Ir3)2
_chemical_formula_sum   'La3 Th1 Al4 Ga14 Ir6'
_cell_volume   495.71076075
_cell_formula_units_Z   1
loop_
 _symmetry_equiv_pos_site_id
 _symmetry_equiv_pos_as_xyz
  1  'x, y, z'
loop_
 _atom_site_type_symbol
 _atom_site_label
 _atom_site_symmetry_multiplicity
 _atom_site_fract_x
 _atom_site_fract_y
 _atom_site_fract_z
 _atom_site_occupancy
  La  La0  1  0.998363  0.328416  0.750000  1
  La  La1  1  0.671917  0.000039  0.250000  1
  La  La2  1  0.329442  0.999606  0.750000  1
  Th  Th3  1  0.001213  0.672159  0.250000  1
  Al  Al4  1  0.332485  0.332634  0.545962  1
  Al  Al5  1  0.665649  0.666638  0.453289  1
  Al  Al6  1  0.665649  0.666638  0.046711  1
  Al  Al7  1  0.332485  0.332634  0.954038  1
  Ga  Ga8  1  0.131806  0.131820  0.250000  1
  Ga  Ga9  1  0.870739  0.871230  0.750000  1
  Ga  Ga10  1  0.003923  0.334777  0.078969  1
  Ga  Ga11  1  0.995661  0.663835  0.919899  1
  Ga  Ga12  1  0.995661  0.663835  0.580101  1
  Ga  Ga13  1  0.338387  0.005889  0.420967  1
  Ga  Ga14  1  0.003923  0.334777  0.421031  1
  Ga  Ga15  1  0.663753  0.995306  0.578546  1
  Ga  Ga16  1  0.663753  0.995306  0.921454  1
  Ga  Ga17  1  0.338387  0.005889  0.079033  1
  Ga  Ga18  1  0.349783  0.549776  0.250000  1
  Ga  Ga19  1  0.650083  0.450773  0.750000  1
  Ga  Ga20  1  0.549882  0.350931  0.250000  1
  Ga  Ga21  1  0.449495  0.650342  0.750000  1
  Ir  Ir22  1  0.669800  0.333490  0.001585  1
  Ir  Ir23  1  0.329429  0.667808  0.001725  1
  Ir  Ir24  1  0.329429  0.667808  0.498275  1
  Ir  Ir25  1  0.669800  0.333490  0.498415  1
  Ir  Ir26  1  0.999553  0.997078  0.002515  1
  Ir  Ir27  1  0.999553  0.997078  0.497485  1
