# generated using pymatgen
data_TbLu2Zn3Ge2Pd
_symmetry_space_group_name_H-M   'P 1'
_cell_length_a   6.80242800
_cell_length_b   6.82931663
_cell_length_c   4.27617500
_cell_angle_alpha   90.00000000
_cell_angle_beta   90.00000000
_cell_angle_gamma   119.86983285
_symmetry_Int_Tables_number   1
_chemical_formula_structural   TbLu2Zn3Ge2Pd
_chemical_formula_sum   'Tb1 Lu2 Zn3 Ge2 Pd1'
_cell_volume   172.26436745
_cell_formula_units_Z   1
loop_
 _symmetry_equiv_pos_site_id
 _symmetry_equiv_pos_as_xyz
  1  'x, y, z'
loop_
 _atom_site_type_symbol
 _atom_site_label
 _atom_site_symmetry_multiplicity
 _atom_site_fract_x
 _atom_site_fract_y
 _atom_site_fract_z
 _atom_site_occupancy
  Tb  Tb0  1  0.415992  0.000000  0.000000  1
  Lu  Lu1  1  0.000456  0.414885  0.000000  1
  Lu  Lu2  1  0.585572  0.585115  0.000000  1
  Zn  Zn3  1  0.998924  0.760565  0.500000  1
  Zn  Zn4  1  0.238360  0.239435  0.500000  1
  Zn  Zn5  1  0.763545  0.000000  0.500000  1
  Ge  Ge6  1  0.332415  0.663004  0.500000  1
  Ge  Ge7  1  0.669412  0.336996  0.500000  1
  Pd  Pd8  1  0.995325  0.000000  0.000000  1
