# generated using pymatgen
data_Pr8Sm9Er3Sn16
_symmetry_space_group_name_H-M   'P 1'
_cell_length_a   8.22581076
_cell_length_b   8.36271587
_cell_length_c   15.86951600
_cell_angle_alpha   90.00000000
_cell_angle_beta   90.00000000
_cell_angle_gamma   90.00092179
_symmetry_Int_Tables_number   1
_chemical_formula_structural   Pr8Sm9Er3Sn16
_chemical_formula_sum   'Pr8 Sm9 Er3 Sn16'
_cell_volume   1091.66588110
_cell_formula_units_Z   1
loop_
 _symmetry_equiv_pos_site_id
 _symmetry_equiv_pos_as_xyz
  1  'x, y, z'
loop_
 _atom_site_type_symbol
 _atom_site_label
 _atom_site_symmetry_multiplicity
 _atom_site_fract_x
 _atom_site_fract_y
 _atom_site_fract_z
 _atom_site_occupancy
  Pr  Pr0  1  0.518241  0.318880  0.901730  1
  Pr  Pr1  1  0.018109  0.181067  0.599105  1
  Pr  Pr2  1  0.481811  0.680778  0.402121  1
  Pr  Pr3  1  0.981896  0.818665  0.097799  1
  Pr  Pr4  1  0.481811  0.680778  0.097879  1
  Pr  Pr5  1  0.981896  0.818665  0.402201  1
  Pr  Pr6  1  0.518241  0.318880  0.598270  1
  Pr  Pr7  1  0.018109  0.181067  0.900895  1
  Sm  Sm8  1  0.365950  0.837100  0.877522  1
  Sm  Sm9  1  0.866237  0.662424  0.621052  1
  Sm  Sm10  1  0.634346  0.163293  0.378934  1
  Sm  Sm11  1  0.133173  0.337293  0.120464  1
  Sm  Sm12  1  0.634346  0.163293  0.121066  1
  Sm  Sm13  1  0.133173  0.337293  0.379536  1
  Sm  Sm14  1  0.365950  0.837100  0.622478  1
  Sm  Sm15  1  0.866237  0.662424  0.878948  1
  Sm  Sm16  1  0.303232  0.002969  0.250000  1
  Er  Er17  1  0.198291  0.503119  0.750000  1
  Er  Er18  1  0.697997  0.996546  0.750000  1
  Er  Er19  1  0.802240  0.495885  0.250000  1
  Sn  Sn20  1  0.294942  0.037625  0.041584  1
  Sn  Sn21  1  0.794565  0.464253  0.455813  1
  Sn  Sn22  1  0.704877  0.963982  0.544396  1
  Sn  Sn23  1  0.205710  0.536282  0.955350  1
  Sn  Sn24  1  0.704877  0.963982  0.955604  1
  Sn  Sn25  1  0.205710  0.536282  0.544650  1
  Sn  Sn26  1  0.294942  0.037625  0.458416  1
  Sn  Sn27  1  0.794565  0.464253  0.044187  1
  Sn  Sn28  1  0.563902  0.619484  0.750000  1
  Sn  Sn29  1  0.062484  0.879976  0.750000  1
  Sn  Sn30  1  0.437331  0.382028  0.250000  1
  Sn  Sn31  1  0.934230  0.120408  0.250000  1
  Sn  Sn32  1  0.324625  0.145186  0.750000  1
  Sn  Sn33  1  0.823481  0.355957  0.750000  1
  Sn  Sn34  1  0.677548  0.854142  0.250000  1
  Sn  Sn35  1  0.174926  0.641017  0.250000  1
