# generated using pymatgen
data_NaMg3ScNi9As7
_symmetry_space_group_name_H-M   'P 1'
_cell_length_a   9.64955300
_cell_length_b   9.64955272
_cell_length_c   3.84645200
_cell_angle_alpha   90.00000000
_cell_angle_beta   90.00000000
_cell_angle_gamma   119.99999753
_symmetry_Int_Tables_number   1
_chemical_formula_structural   NaMg3ScNi9As7
_chemical_formula_sum   'Na1 Mg3 Sc1 Ni9 As7'
_cell_volume   310.17396293
_cell_formula_units_Z   1
loop_
 _symmetry_equiv_pos_site_id
 _symmetry_equiv_pos_as_xyz
  1  'x, y, z'
loop_
 _atom_site_type_symbol
 _atom_site_label
 _atom_site_symmetry_multiplicity
 _atom_site_fract_x
 _atom_site_fract_y
 _atom_site_fract_z
 _atom_site_occupancy
  Na  Na0  1  0.666667  0.333333  0.500000  1
  Mg  Mg1  1  0.229731  0.119285  0.500000  1
  Mg  Mg2  1  0.880715  0.110444  0.500000  1
  Mg  Mg3  1  0.889556  0.770269  0.500000  1
  Sc  Sc4  1  0.333333  0.666667  0.000000  1
  Ni  Ni5  1  0.125219  0.290741  0.000000  1
  Ni  Ni6  1  0.709259  0.834478  0.000000  1
  Ni  Ni7  1  0.165522  0.874781  0.000000  1
  Ni  Ni8  1  0.420593  0.364690  0.000000  1
  Ni  Ni9  1  0.635310  0.055904  0.000000  1
  Ni  Ni10  1  0.944096  0.579407  0.000000  1
  Ni  Ni11  1  0.052810  0.441190  0.500000  1
  Ni  Ni12  1  0.558810  0.611620  0.500000  1
  Ni  Ni13  1  0.388380  0.947190  0.500000  1
  As  As14  1  0.289661  0.423866  0.500000  1
  As  As15  1  0.576134  0.865795  0.500000  1
  As  As16  1  0.134205  0.710339  0.500000  1
  As  As17  1  0.426639  0.113223  0.000000  1
  As  As18  1  0.886777  0.313417  0.000000  1
  As  As19  1  0.686583  0.573361  0.000000  1
  As  As20  1  0.000000  0.000000  0.000000  1
