# generated using pymatgen
data_Dy2Co9Mo3As7
_symmetry_space_group_name_H-M   'P 1'
_cell_length_a   3.84561300
_cell_length_b   9.39604504
_cell_length_c   9.39604500
_cell_angle_alpha   119.99999634
_cell_angle_beta   90.00000000
_cell_angle_gamma   90.00000000
_symmetry_Int_Tables_number   1
_chemical_formula_structural   Dy2Co9Mo3As7
_chemical_formula_sum   'Dy2 Co9 Mo3 As7'
_cell_volume   294.02645172
_cell_formula_units_Z   1
loop_
 _symmetry_equiv_pos_site_id
 _symmetry_equiv_pos_as_xyz
  1  'x, y, z'
loop_
 _atom_site_type_symbol
 _atom_site_label
 _atom_site_symmetry_multiplicity
 _atom_site_fract_x
 _atom_site_fract_y
 _atom_site_fract_z
 _atom_site_occupancy
  Dy  Dy0  1  0.000000  0.666667  0.333333  1
  Dy  Dy1  1  0.500000  0.333333  0.666667  1
  Co  Co2  1  0.000000  0.569950  0.940199  1
  Co  Co3  1  0.000000  0.370249  0.430050  1
  Co  Co4  1  0.000000  0.059801  0.629751  1
  Co  Co5  1  0.000000  0.876321  0.158349  1
  Co  Co6  1  0.000000  0.282028  0.123679  1
  Co  Co7  1  0.000000  0.841651  0.717972  1
  Co  Co8  1  0.500000  0.949590  0.383036  1
  Co  Co9  1  0.500000  0.433445  0.050410  1
  Co  Co10  1  0.500000  0.616964  0.566555  1
  Mo  Mo11  1  0.500000  0.781037  0.902342  1
  Mo  Mo12  1  0.500000  0.121305  0.218963  1
  Mo  Mo13  1  0.500000  0.097658  0.878695  1
  As  As14  1  0.000000  0.000000  0.000000  1
  As  As15  1  0.500000  0.707670  0.119884  1
  As  As16  1  0.500000  0.412216  0.292330  1
  As  As17  1  0.500000  0.880116  0.587784  1
  As  As18  1  0.000000  0.585485  0.699216  1
  As  As19  1  0.000000  0.113731  0.414515  1
  As  As20  1  0.000000  0.300784  0.886269  1
