# generated using pymatgen
data_Dy5CrSi10(PIr9)2
_symmetry_space_group_name_H-M   'P 1'
_cell_length_a   12.84714248
_cell_length_b   12.81761909
_cell_length_c   3.96437000
_cell_angle_alpha   90.00000000
_cell_angle_beta   90.00000000
_cell_angle_gamma   119.92400569
_symmetry_Int_Tables_number   1
_chemical_formula_structural   Dy5CrSi10(PIr9)2
_chemical_formula_sum   'Dy5 Cr1 Si10 P2 Ir18'
_cell_volume   565.78414740
_cell_formula_units_Z   1
loop_
 _symmetry_equiv_pos_site_id
 _symmetry_equiv_pos_as_xyz
  1  'x, y, z'
loop_
 _atom_site_type_symbol
 _atom_site_label
 _atom_site_symmetry_multiplicity
 _atom_site_fract_x
 _atom_site_fract_y
 _atom_site_fract_z
 _atom_site_occupancy
  Dy  Dy0  1  0.332949  0.666031  0.500000  1
  Dy  Dy1  1  0.667051  0.333081  0.500000  1
  Dy  Dy2  1  0.000000  0.812493  0.000000  1
  Dy  Dy3  1  0.185706  0.185730  0.000000  1
  Dy  Dy4  1  0.814294  0.000024  0.000000  1
  Cr  Cr5  1  0.000000  0.442961  0.500000  1
  Si  Si6  1  0.000000  0.633199  0.500000  1
  Si  Si7  1  0.367749  0.367996  0.500000  1
  Si  Si8  1  0.632251  0.000247  0.500000  1
  Si  Si9  1  0.518522  0.686346  0.000000  1
  Si  Si10  1  0.312542  0.831696  0.000000  1
  Si  Si11  1  0.168970  0.481440  0.000000  1
  Si  Si12  1  0.481478  0.167824  0.000000  1
  Si  Si13  1  0.687458  0.519154  0.000000  1
  Si  Si14  1  0.831030  0.312470  0.000000  1
  Si  Si15  1  0.000000  0.179848  0.500000  1
  P  P16  1  0.819648  0.820448  0.500000  1
  P  P17  1  0.180352  0.000800  0.500000  1
  Ir  Ir18  1  0.512123  0.872059  0.000000  1
  Ir  Ir19  1  0.126454  0.639546  0.000000  1
  Ir  Ir20  1  0.361691  0.486966  0.000000  1
  Ir  Ir21  1  0.487877  0.359935  0.000000  1
  Ir  Ir22  1  0.873546  0.513091  0.000000  1
  Ir  Ir23  1  0.638309  0.125273  0.000000  1
  Ir  Ir24  1  0.553876  0.552894  0.500000  1
  Ir  Ir25  1  0.446124  0.999019  0.500000  1
  Ir  Ir26  1  0.000000  0.281450  0.000000  1
  Ir  Ir27  1  0.720029  0.721406  0.000000  1
  Ir  Ir28  1  0.279971  0.001377  0.000000  1
  Ir  Ir29  1  0.626539  0.807017  0.500000  1
  Ir  Ir30  1  0.193406  0.821743  0.500000  1
  Ir  Ir31  1  0.182080  0.376528  0.500000  1
  Ir  Ir32  1  0.373461  0.180478  0.500000  1
  Ir  Ir33  1  0.806594  0.628338  0.500000  1
  Ir  Ir34  1  0.817920  0.194448  0.500000  1
  Ir  Ir35  1  0.000000  0.996645  0.500000  1
