# generated using pymatgen
data_Tc12SnBr25
_symmetry_space_group_name_H-M   'P 1'
_cell_length_a   9.82704016
_cell_length_b   10.90772733
_cell_length_c   11.68327248
_cell_angle_alpha   85.61766780
_cell_angle_beta   74.94263408
_cell_angle_gamma   87.46325609
_symmetry_Int_Tables_number   1
_chemical_formula_structural   Tc12SnBr25
_chemical_formula_sum   'Tc12 Sn1 Br25'
_cell_volume   1205.41713170
_cell_formula_units_Z   1
loop_
 _symmetry_equiv_pos_site_id
 _symmetry_equiv_pos_as_xyz
  1  'x, y, z'
loop_
 _atom_site_type_symbol
 _atom_site_label
 _atom_site_symmetry_multiplicity
 _atom_site_fract_x
 _atom_site_fract_y
 _atom_site_fract_z
 _atom_site_occupancy
  Tc  Tc0  1  0.827842  0.252559  0.125110  1
  Tc  Tc1  1  0.172158  0.747441  0.874890  1
  Tc  Tc2  1  0.754342  0.120796  0.280066  1
  Tc  Tc3  1  0.245658  0.879204  0.719934  1
  Tc  Tc4  1  0.066705  0.272656  0.190168  1
  Tc  Tc5  1  0.933295  0.727344  0.809832  1
  Tc  Tc6  1  0.846917  0.426363  0.267212  1
  Tc  Tc7  1  0.153083  0.573637  0.732788  1
  Tc  Tc8  1  0.770032  0.296371  0.424653  1
  Tc  Tc9  1  0.229968  0.703629  0.575347  1
  Tc  Tc10  1  0.990053  0.145022  0.348251  1
  Tc  Tc11  1  0.009947  0.854978  0.651749  1
  Sn  Sn12  1  0.500000  0.000000  0.000000  1
  Br  Br13  1  0.941435  0.956965  0.258812  1
  Br  Br14  1  0.058565  0.043035  0.741188  1
  Br  Br15  1  0.971379  0.277394  0.516719  1
  Br  Br16  1  0.028621  0.722606  0.483281  1
  Br  Br17  1  0.647360  0.422490  0.169802  1
  Br  Br18  1  0.352640  0.577510  0.830198  1
  Br  Br19  1  0.092014  0.466426  0.281709  1
  Br  Br20  1  0.907986  0.533574  0.718291  1
  Br  Br21  1  0.000000  0.500000  0.000000  1
  Br  Br22  1  0.595747  0.961653  0.226235  1
  Br  Br23  1  0.404253  0.038347  0.773765  1
  Br  Br24  1  0.197178  0.032372  0.405671  1
  Br  Br25  1  0.802822  0.967628  0.594329  1
  Br  Br26  1  0.541408  0.220048  0.405557  1
  Br  Br27  1  0.458592  0.779952  0.594443  1
  Br  Br28  1  0.055996  0.155734  0.019143  1
  Br  Br29  1  0.944004  0.844266  0.980857  1
  Br  Br30  1  0.774664  0.642382  0.318021  1
  Br  Br31  1  0.225336  0.357618  0.681979  1
  Br  Br32  1  0.723389  0.197294  0.950930  1
  Br  Br33  1  0.276611  0.802706  0.049070  1
  Br  Br34  1  0.336727  0.244450  0.115800  1
  Br  Br35  1  0.663273  0.755550  0.884200  1
  Br  Br36  1  0.636505  0.408086  0.599170  1
  Br  Br37  1  0.363495  0.591914  0.400830  1
