# generated using pymatgen
data_Dy9ErIn8(RuPt)2
_symmetry_space_group_name_H-M   'P 1'
_cell_length_a   3.62336200
_cell_length_b   8.08707406
_cell_length_c   18.33329451
_cell_angle_alpha   89.96365109
_cell_angle_beta   90.00000000
_cell_angle_gamma   90.00000000
_symmetry_Int_Tables_number   1
_chemical_formula_structural   Dy9ErIn8(RuPt)2
_chemical_formula_sum   'Dy9 Er1 In8 Ru2 Pt2'
_cell_volume   537.20936311
_cell_formula_units_Z   1
loop_
 _symmetry_equiv_pos_site_id
 _symmetry_equiv_pos_as_xyz
  1  'x, y, z'
loop_
 _atom_site_type_symbol
 _atom_site_label
 _atom_site_symmetry_multiplicity
 _atom_site_fract_x
 _atom_site_fract_y
 _atom_site_fract_z
 _atom_site_occupancy
  Dy  Dy0  1  0.000000  0.884235  0.587627  1
  Dy  Dy1  1  0.000000  0.381411  0.913280  1
  Dy  Dy2  1  0.000000  0.618424  0.086769  1
  Dy  Dy3  1  0.000000  0.235318  0.222661  1
  Dy  Dy4  1  0.000000  0.764782  0.777465  1
  Dy  Dy5  1  0.000000  0.247648  0.720653  1
  Dy  Dy6  1  0.000000  0.752450  0.279474  1
  Dy  Dy7  1  0.000000  0.999980  0.000007  1
  Dy  Dy8  1  0.000000  0.499982  0.499934  1
  Er  Er9  1  0.000000  0.115370  0.411906  1
  In  In10  1  0.500000  0.424308  0.351535  1
  In  In11  1  0.500000  0.574660  0.648597  1
  In  In12  1  0.500000  0.066819  0.849700  1
  In  In13  1  0.500000  0.933265  0.150399  1
  In  In14  1  0.500000  0.292030  0.066094  1
  In  In15  1  0.500000  0.707824  0.933909  1
  In  In16  1  0.500000  0.206551  0.568517  1
  In  In17  1  0.500000  0.794247  0.431012  1
  Ru  Ru18  1  0.500000  0.020525  0.304533  1
  Ru  Ru19  1  0.500000  0.980279  0.695874  1
  Pt  Pt20  1  0.500000  0.478198  0.803069  1
  Pt  Pt21  1  0.500000  0.521694  0.196982  1
