# generated using pymatgen
data_Ho2Er2Si4RuRh3
_symmetry_space_group_name_H-M   'P 1'
_cell_length_a   4.27475300
_cell_length_b   6.89847738
_cell_length_c   7.28517959
_cell_angle_alpha   89.98679764
_cell_angle_beta   90.00000000
_cell_angle_gamma   90.00000000
_symmetry_Int_Tables_number   1
_chemical_formula_structural   Ho2Er2Si4RuRh3
_chemical_formula_sum   'Ho2 Er2 Si4 Ru1 Rh3'
_cell_volume   214.83474518
_cell_formula_units_Z   1
loop_
 _symmetry_equiv_pos_site_id
 _symmetry_equiv_pos_as_xyz
  1  'x, y, z'
loop_
 _atom_site_type_symbol
 _atom_site_label
 _atom_site_symmetry_multiplicity
 _atom_site_fract_x
 _atom_site_fract_y
 _atom_site_fract_z
 _atom_site_occupancy
  Ho  Ho0  1  0.750000  0.507172  0.311438  1
  Ho  Ho1  1  0.750000  0.002243  0.186916  1
  Er  Er2  1  0.250000  0.494767  0.690359  1
  Er  Er3  1  0.250000  0.996687  0.812181  1
  Si  Si4  1  0.250000  0.297107  0.107200  1
  Si  Si5  1  0.750000  0.703699  0.887674  1
  Si  Si6  1  0.250000  0.797857  0.400985  1
  Si  Si7  1  0.750000  0.200493  0.604091  1
  Ru  Ru8  1  0.750000  0.846112  0.567203  1
  Rh  Rh9  1  0.250000  0.155757  0.432032  1
  Rh  Rh10  1  0.750000  0.342756  0.930707  1
  Rh  Rh11  1  0.250000  0.655351  0.069215  1
