# generated using pymatgen
data_Lu4Os7W
_symmetry_space_group_name_H-M   'P 1'
_cell_length_a   5.39925900
_cell_length_b   5.23179231
_cell_length_c   8.87054500
_cell_angle_alpha   90.00000000
_cell_angle_beta   90.00000000
_cell_angle_gamma   121.06462882
_symmetry_Int_Tables_number   1
_chemical_formula_structural   Lu4Os7W
_chemical_formula_sum   'Lu4 Os7 W1'
_cell_volume   214.63761304
_cell_formula_units_Z   1
loop_
 _symmetry_equiv_pos_site_id
 _symmetry_equiv_pos_as_xyz
  1  'x, y, z'
loop_
 _atom_site_type_symbol
 _atom_site_label
 _atom_site_symmetry_multiplicity
 _atom_site_fract_x
 _atom_site_fract_y
 _atom_site_fract_z
 _atom_site_occupancy
  Lu  Lu0  1  0.333647  0.667295  0.433544  1
  Lu  Lu1  1  0.671456  0.342912  0.562660  1
  Lu  Lu2  1  0.671456  0.342912  0.937340  1
  Lu  Lu3  1  0.333647  0.667295  0.066456  1
  Os  Os4  1  0.174631  0.823725  0.750000  1
  Os  Os5  1  0.339716  0.165912  0.250000  1
  Os  Os6  1  0.821999  0.643998  0.250000  1
  Os  Os7  1  0.649093  0.823725  0.750000  1
  Os  Os8  1  0.007271  0.014543  0.002265  1
  Os  Os9  1  0.826197  0.165912  0.250000  1
  Os  Os10  1  0.007271  0.014543  0.497735  1
  W  W11  1  0.163615  0.327231  0.750000  1
