# generated using pymatgen
data_Ca2Cu17Si8Ni
_symmetry_space_group_name_H-M   'P 1'
_cell_length_a   8.16817909
_cell_length_b   8.16817860
_cell_length_c   8.12453550
_cell_angle_alpha   120.66642911
_cell_angle_beta   120.66642672
_cell_angle_gamma   89.16187435
_symmetry_Int_Tables_number   1
_chemical_formula_structural   Ca2Cu17Si8Ni
_chemical_formula_sum   'Ca2 Cu17 Si8 Ni1'
_cell_volume   378.32548771
_cell_formula_units_Z   1
loop_
 _symmetry_equiv_pos_site_id
 _symmetry_equiv_pos_as_xyz
  1  'x, y, z'
loop_
 _atom_site_type_symbol
 _atom_site_label
 _atom_site_symmetry_multiplicity
 _atom_site_fract_x
 _atom_site_fract_y
 _atom_site_fract_z
 _atom_site_occupancy
  Ca  Ca0  1  0.250000  0.250000  0.000000  1
  Ca  Ca1  1  0.750000  0.750000  0.000000  1
  Cu  Cu2  1  0.933531  0.202707  0.136238  1
  Cu  Cu3  1  0.201794  0.068040  0.269834  1
  Cu  Cu4  1  0.798206  0.931960  0.730166  1
  Cu  Cu5  1  0.431960  0.298206  0.730166  1
  Cu  Cu6  1  0.066469  0.797293  0.863762  1
  Cu  Cu7  1  0.808047  0.058663  0.500000  1
  Cu  Cu8  1  0.558663  0.308047  0.500000  1
  Cu  Cu9  1  0.191953  0.941337  0.500000  1
  Cu  Cu10  1  0.441337  0.691953  0.500000  1
  Cu  Cu11  1  0.943241  0.443241  0.754166  1
  Cu  Cu12  1  0.689075  0.189075  0.245834  1
  Cu  Cu13  1  0.056759  0.556759  0.245834  1
  Cu  Cu14  1  0.702707  0.433531  0.136238  1
  Cu  Cu15  1  0.568040  0.701794  0.269834  1
  Cu  Cu16  1  0.000000  0.500000  0.500000  1
  Cu  Cu17  1  0.310925  0.810925  0.754166  1
  Cu  Cu18  1  0.297293  0.566469  0.863762  1
  Si  Si19  1  0.785751  0.285751  0.842142  1
  Si  Si20  1  0.556391  0.056391  0.842142  1
  Si  Si21  1  0.056196  0.207095  0.500000  1
  Si  Si22  1  0.292905  0.443804  0.500000  1
  Si  Si23  1  0.943804  0.792905  0.500000  1
  Si  Si24  1  0.443609  0.943609  0.157858  1
  Si  Si25  1  0.214249  0.714249  0.157858  1
  Si  Si26  1  0.707095  0.556196  0.500000  1
  Ni  Ni27  1  0.500000  0.000000  0.500000  1
