# generated using pymatgen
data_Lu16In6IrPt
_symmetry_space_group_name_H-M   'P 1'
_cell_length_a   10.24944900
_cell_length_b   10.24944857
_cell_length_c   6.87956600
_cell_angle_alpha   90.00000000
_cell_angle_beta   90.00000000
_cell_angle_gamma   119.99999816
_symmetry_Int_Tables_number   1
_chemical_formula_structural   Lu16In6IrPt
_chemical_formula_sum   'Lu16 In6 Ir1 Pt1'
_cell_volume   625.88234421
_cell_formula_units_Z   1
loop_
 _symmetry_equiv_pos_site_id
 _symmetry_equiv_pos_as_xyz
  1  'x, y, z'
loop_
 _atom_site_type_symbol
 _atom_site_label
 _atom_site_symmetry_multiplicity
 _atom_site_fract_x
 _atom_site_fract_y
 _atom_site_fract_z
 _atom_site_occupancy
  Lu  Lu0  1  0.530938  0.061875  0.525962  1
  Lu  Lu1  1  0.938125  0.469062  0.525962  1
  Lu  Lu2  1  0.530938  0.469062  0.525962  1
  Lu  Lu3  1  0.466864  0.933729  0.023173  1
  Lu  Lu4  1  0.066271  0.533136  0.023173  1
  Lu  Lu5  1  0.466864  0.533136  0.023173  1
  Lu  Lu6  1  0.177082  0.354164  0.729785  1
  Lu  Lu7  1  0.645836  0.822918  0.729785  1
  Lu  Lu8  1  0.177082  0.822918  0.729785  1
  Lu  Lu9  1  0.824519  0.649039  0.229518  1
  Lu  Lu10  1  0.350961  0.175481  0.229518  1
  Lu  Lu11  1  0.824519  0.175481  0.229518  1
  Lu  Lu12  1  0.666667  0.333333  0.900597  1
  Lu  Lu13  1  0.333333  0.666667  0.403723  1
  Lu  Lu14  1  0.000000  0.000000  0.505574  1
  Lu  Lu15  1  0.000000  0.000000  0.006997  1
  In  In16  1  0.836982  0.673963  0.769493  1
  In  In17  1  0.326037  0.163018  0.769493  1
  In  In18  1  0.836982  0.163018  0.769493  1
  In  In19  1  0.162853  0.325705  0.269362  1
  In  In20  1  0.674295  0.837147  0.269362  1
  In  In21  1  0.162853  0.837147  0.269362  1
  Ir  Ir22  1  0.333333  0.666667  0.799058  1
  Pt  Pt23  1  0.666667  0.333333  0.297854  1
