# generated using pymatgen
data_Ho3Tm7(InSb)3
_symmetry_space_group_name_H-M   'P 1'
_cell_length_a   6.45508900
_cell_length_b   8.87134000
_cell_length_c   8.87134100
_cell_angle_alpha   59.99829745
_cell_angle_beta   90.00009767
_cell_angle_gamma   89.99990570
_symmetry_Int_Tables_number   1
_chemical_formula_structural   Ho3Tm7(InSb)3
_chemical_formula_sum   'Ho3 Tm7 In3 Sb3'
_cell_volume   439.95059832
_cell_formula_units_Z   1
loop_
 _symmetry_equiv_pos_site_id
 _symmetry_equiv_pos_as_xyz
  1  'x, y, z'
loop_
 _atom_site_type_symbol
 _atom_site_label
 _atom_site_symmetry_multiplicity
 _atom_site_fract_x
 _atom_site_fract_y
 _atom_site_fract_z
 _atom_site_occupancy
  Ho  Ho0  1  0.250042  0.761378  0.238622  1
  Ho  Ho1  1  0.249997  0.238690  0.999963  1
  Ho  Ho2  1  0.249997  0.000037  0.761310  1
  Tm  Tm3  1  0.502650  0.333299  0.333301  1
  Tm  Tm4  1  0.502650  0.666699  0.666701  1
  Tm  Tm5  1  0.997327  0.666630  0.666669  1
  Tm  Tm6  1  0.997327  0.333331  0.333370  1
  Tm  Tm7  1  0.749982  0.237823  0.762177  1
  Tm  Tm8  1  0.750026  0.762194  0.000040  1
  Tm  Tm9  1  0.750026  0.999960  0.237806  1
  In  In10  1  0.749892  0.606477  0.393523  1
  In  In11  1  0.750041  0.393512  0.000003  1
  In  In12  1  0.750041  0.999997  0.606488  1
  Sb  Sb13  1  0.250048  0.395890  0.604110  1
  Sb  Sb14  1  0.249976  0.604127  0.000044  1
  Sb  Sb15  1  0.249976  0.999956  0.395873  1
