# generated using pymatgen
data_Er4Zn2CrOs5
_symmetry_space_group_name_H-M   'P 1'
_cell_length_a   5.23532567
_cell_length_b   5.21452357
_cell_length_c   8.78952800
_cell_angle_alpha   90.00000000
_cell_angle_beta   90.00000000
_cell_angle_gamma   117.95540912
_symmetry_Int_Tables_number   1
_chemical_formula_structural   Er4Zn2CrOs5
_chemical_formula_sum   'Er4 Zn2 Cr1 Os5'
_cell_volume   211.95241244
_cell_formula_units_Z   1
loop_
 _symmetry_equiv_pos_site_id
 _symmetry_equiv_pos_as_xyz
  1  'x, y, z'
loop_
 _atom_site_type_symbol
 _atom_site_label
 _atom_site_symmetry_multiplicity
 _atom_site_fract_x
 _atom_site_fract_y
 _atom_site_fract_z
 _atom_site_occupancy
  Er  Er0  1  0.325279  0.665352  0.433004  1
  Er  Er1  1  0.657869  0.327170  0.556035  1
  Er  Er2  1  0.657869  0.327170  0.943965  1
  Er  Er3  1  0.325279  0.665352  0.066996  1
  Zn  Zn4  1  0.191880  0.840485  0.750000  1
  Zn  Zn5  1  0.188514  0.350138  0.750000  1
  Cr  Cr6  1  0.835376  0.162780  0.250000  1
  Os  Os7  1  0.974201  0.995298  0.500055  1
  Os  Os8  1  0.974201  0.995298  0.999945  1
  Os  Os9  1  0.827682  0.654717  0.250000  1
  Os  Os10  1  0.350929  0.172403  0.250000  1
  Os  Os11  1  0.690925  0.843835  0.750000  1
