# generated using pymatgen
data_TiBe3CrSi
_symmetry_space_group_name_H-M   'P 1'
_cell_length_a   4.42601448
_cell_length_b   4.42601528
_cell_length_c   4.50416726
_cell_angle_alpha   60.57232321
_cell_angle_beta   60.57233420
_cell_angle_gamma   59.99999787
_symmetry_Int_Tables_number   1
_chemical_formula_structural   TiBe3CrSi
_chemical_formula_sum   'Ti1 Be3 Cr1 Si1'
_cell_volume   62.92577016
_cell_formula_units_Z   1
loop_
 _symmetry_equiv_pos_site_id
 _symmetry_equiv_pos_as_xyz
  1  'x, y, z'
loop_
 _atom_site_type_symbol
 _atom_site_label
 _atom_site_symmetry_multiplicity
 _atom_site_fract_x
 _atom_site_fract_y
 _atom_site_fract_z
 _atom_site_occupancy
  Ti  Ti0  1  0.000115  0.000115  0.999657  1
  Be  Be1  1  0.624913  0.125974  0.624202  1
  Be  Be2  1  0.125974  0.624913  0.624202  1
  Be  Be3  1  0.624913  0.624913  0.624202  1
  Cr  Cr4  1  0.250627  0.250627  0.248121  1
  Si  Si5  1  0.623462  0.623462  0.129616  1
