# generated using pymatgen
data_Tb5Pr2Y(WO6)4
_symmetry_space_group_name_H-M   'P 1'
_cell_length_a   5.47370101
_cell_length_b   7.81456686
_cell_length_c   11.60542103
_cell_angle_alpha   75.64392142
_cell_angle_beta   90.00201676
_cell_angle_gamma   90.00662566
_symmetry_Int_Tables_number   1
_chemical_formula_structural   Tb5Pr2Y(WO6)4
_chemical_formula_sum   'Tb5 Pr2 Y1 W4 O24'
_cell_volume   480.91590176
_cell_formula_units_Z   1
loop_
 _symmetry_equiv_pos_site_id
 _symmetry_equiv_pos_as_xyz
  1  'x, y, z'
loop_
 _atom_site_type_symbol
 _atom_site_label
 _atom_site_symmetry_multiplicity
 _atom_site_fract_x
 _atom_site_fract_y
 _atom_site_fract_z
 _atom_site_occupancy
  Tb  Tb0  1  0.186866  0.797120  0.076753  1
  Tb  Tb1  1  0.258290  0.999978  0.749951  1
  Tb  Tb2  1  0.741692  0.999988  0.250046  1
  Tb  Tb3  1  0.186851  0.202827  0.423266  1
  Tb  Tb4  1  0.813118  0.202889  0.923243  1
  Pr  Pr5  1  0.314752  0.500062  0.749953  1
  Pr  Pr6  1  0.685258  0.499992  0.250005  1
  Y  Y7  1  0.813044  0.796942  0.576925  1
  W  W8  1  0.746584  0.727938  0.884251  1
  W  W9  1  0.253485  0.727953  0.384327  1
  W  W10  1  0.746499  0.272114  0.615705  1
  W  W11  1  0.253461  0.272065  0.115726  1
  O  O12  1  0.852917  0.357867  0.455081  1
  O  O13  1  0.468660  0.845977  0.930266  1
  O  O14  1  0.852910  0.642134  0.044918  1
  O  O15  1  0.013590  0.280875  0.729557  1
  O  O16  1  0.986418  0.280915  0.229582  1
  O  O17  1  0.147098  0.357875  0.955075  1
  O  O18  1  0.651477  0.494964  0.887188  1
  O  O19  1  0.531344  0.153985  0.069686  1
  O  O20  1  0.146772  0.642273  0.544923  1
  O  O21  1  0.013545  0.719126  0.770339  1
  O  O22  1  0.455085  0.205873  0.272063  1
  O  O23  1  0.043286  0.940503  0.395817  1
  O  O24  1  0.468604  0.154066  0.569688  1
  O  O25  1  0.986447  0.719090  0.270406  1
  O  O26  1  0.956458  0.059204  0.604190  1
  O  O27  1  0.544901  0.205891  0.772059  1
  O  O28  1  0.545132  0.794217  0.727729  1
  O  O29  1  0.043346  0.059466  0.104216  1
  O  O30  1  0.651623  0.505209  0.612778  1
  O  O31  1  0.348518  0.505057  0.112820  1
  O  O32  1  0.455081  0.794142  0.227959  1
  O  O33  1  0.348482  0.494977  0.387212  1
  O  O34  1  0.531735  0.845934  0.430499  1
  O  O35  1  0.956675  0.940512  0.895796  1
