# generated using pymatgen
data_Y3Zr(Al3Rh)6
_symmetry_space_group_name_H-M   'P 1'
_cell_length_a   7.55407533
_cell_length_b   7.54092005
_cell_length_c   9.43790100
_cell_angle_alpha   90.00000000
_cell_angle_beta   90.00000000
_cell_angle_gamma   119.48786350
_symmetry_Int_Tables_number   1
_chemical_formula_structural   Y3Zr(Al3Rh)6
_chemical_formula_sum   'Y3 Zr1 Al18 Rh6'
_cell_volume   467.98278232
_cell_formula_units_Z   1
loop_
 _symmetry_equiv_pos_site_id
 _symmetry_equiv_pos_as_xyz
  1  'x, y, z'
loop_
 _atom_site_type_symbol
 _atom_site_label
 _atom_site_symmetry_multiplicity
 _atom_site_fract_x
 _atom_site_fract_y
 _atom_site_fract_z
 _atom_site_occupancy
  Y  Y0  1  0.005999  0.327109  0.750000  1
  Y  Y1  1  0.671877  0.995240  0.250000  1
  Y  Y2  1  0.328300  0.006572  0.750000  1
  Zr  Zr3  1  0.996203  0.672563  0.250000  1
  Al  Al4  1  0.124461  0.122157  0.250000  1
  Al  Al5  1  0.871344  0.869558  0.750000  1
  Al  Al6  1  0.000168  0.338669  0.080097  1
  Al  Al7  1  0.999412  0.664827  0.929296  1
  Al  Al8  1  0.999412  0.664827  0.570704  1
  Al  Al9  1  0.332544  0.997795  0.419898  1
  Al  Al10  1  0.000168  0.338669  0.419903  1
  Al  Al11  1  0.664294  0.998001  0.575001  1
  Al  Al12  1  0.664294  0.998001  0.924999  1
  Al  Al13  1  0.332544  0.997795  0.080102  1
  Al  Al14  1  0.333709  0.333676  0.546742  1
  Al  Al15  1  0.669510  0.667346  0.444100  1
  Al  Al16  1  0.669510  0.667346  0.055900  1
  Al  Al17  1  0.333709  0.333676  0.953258  1
  Al  Al18  1  0.336154  0.551449  0.250000  1
  Al  Al19  1  0.660952  0.450820  0.750000  1
  Al  Al20  1  0.556858  0.344924  0.250000  1
  Al  Al21  1  0.449355  0.658928  0.750000  1
  Rh  Rh22  1  0.673036  0.328479  0.001526  1
  Rh  Rh23  1  0.327217  0.672421  0.002216  1
  Rh  Rh24  1  0.327217  0.672421  0.497784  1
  Rh  Rh25  1  0.673036  0.328479  0.498474  1
  Rh  Rh26  1  0.999359  0.999126  0.001433  1
  Rh  Rh27  1  0.999359  0.999126  0.498567  1
