# generated using pymatgen
data_Y5Tm(Ir7Rh2)2
_symmetry_space_group_name_H-M   'P 1'
_cell_length_a   5.30804000
_cell_length_b   5.30804131
_cell_length_c   17.46374300
_cell_angle_alpha   90.00000000
_cell_angle_beta   90.00000000
_cell_angle_gamma   119.99999182
_symmetry_Int_Tables_number   1
_chemical_formula_structural   Y5Tm(Ir7Rh2)2
_chemical_formula_sum   'Y5 Tm1 Ir14 Rh4'
_cell_volume   426.12447615
_cell_formula_units_Z   1
loop_
 _symmetry_equiv_pos_site_id
 _symmetry_equiv_pos_as_xyz
  1  'x, y, z'
loop_
 _atom_site_type_symbol
 _atom_site_label
 _atom_site_symmetry_multiplicity
 _atom_site_fract_x
 _atom_site_fract_y
 _atom_site_fract_z
 _atom_site_occupancy
  Y  Y0  1  0.666667  0.333333  0.040492  1
  Y  Y1  1  0.666667  0.333333  0.458970  1
  Y  Y2  1  0.333333  0.666667  0.540767  1
  Y  Y3  1  0.333333  0.666667  0.750312  1
  Y  Y4  1  0.666667  0.333333  0.250075  1
  Tm  Tm5  1  0.333333  0.666667  0.958638  1
  Ir  Ir6  1  0.167517  0.832483  0.374257  1
  Ir  Ir7  1  0.167517  0.335033  0.374257  1
  Ir  Ir8  1  0.664967  0.832483  0.374257  1
  Ir  Ir9  1  0.832461  0.167539  0.625604  1
  Ir  Ir10  1  0.832461  0.664922  0.625604  1
  Ir  Ir11  1  0.335078  0.167539  0.625604  1
  Ir  Ir12  1  0.832384  0.167616  0.874760  1
  Ir  Ir13  1  0.832384  0.664767  0.874760  1
  Ir  Ir14  1  0.335233  0.167616  0.874760  1
  Ir  Ir15  1  0.167648  0.832352  0.125641  1
  Ir  Ir16  1  0.167648  0.335295  0.125641  1
  Ir  Ir17  1  0.664705  0.832352  0.125641  1
  Ir  Ir18  1  0.000000  0.000000  0.499899  1
  Ir  Ir19  1  0.000000  0.000000  0.000001  1
  Rh  Rh20  1  0.333333  0.666667  0.250048  1
  Rh  Rh21  1  0.666667  0.333333  0.750015  1
  Rh  Rh22  1  0.000000  0.000000  0.249961  1
  Rh  Rh23  1  0.000000  0.000000  0.750036  1
