# generated using pymatgen
data_Tb2Tc6Ni6P7
_symmetry_space_group_name_H-M   'P 1'
_cell_length_a   9.37287600
_cell_length_b   9.37287661
_cell_length_c   3.72959600
_cell_angle_alpha   90.00000000
_cell_angle_beta   90.00000000
_cell_angle_gamma   119.99999691
_symmetry_Int_Tables_number   1
_chemical_formula_structural   Tb2Tc6Ni6P7
_chemical_formula_sum   'Tb2 Tc6 Ni6 P7'
_cell_volume   283.75152656
_cell_formula_units_Z   1
loop_
 _symmetry_equiv_pos_site_id
 _symmetry_equiv_pos_as_xyz
  1  'x, y, z'
loop_
 _atom_site_type_symbol
 _atom_site_label
 _atom_site_symmetry_multiplicity
 _atom_site_fract_x
 _atom_site_fract_y
 _atom_site_fract_z
 _atom_site_occupancy
  Tb  Tb0  1  0.000000  0.000000  0.000000  1
  Tb  Tb1  1  0.333333  0.666667  0.500000  1
  Tc  Tc2  1  0.058912  0.768312  0.500000  1
  Tc  Tc3  1  0.231688  0.290600  0.500000  1
  Tc  Tc4  1  0.709400  0.941088  0.500000  1
  Tc  Tc5  1  0.876016  0.419554  0.500000  1
  Tc  Tc6  1  0.580446  0.456462  0.500000  1
  Tc  Tc7  1  0.543538  0.123984  0.500000  1
  Ni  Ni8  1  0.092659  0.396794  0.000000  1
  Ni  Ni9  1  0.603206  0.695866  0.000000  1
  Ni  Ni10  1  0.304134  0.907341  0.000000  1
  Ni  Ni11  1  0.826117  0.609680  0.000000  1
  Ni  Ni12  1  0.390320  0.216437  0.000000  1
  Ni  Ni13  1  0.783563  0.173883  0.000000  1
  P  P14  1  0.787376  0.737225  0.500000  1
  P  P15  1  0.262775  0.050152  0.500000  1
  P  P16  1  0.949848  0.212624  0.500000  1
  P  P17  1  0.666667  0.333333  0.000000  1
  P  P18  1  0.078301  0.628196  0.000000  1
  P  P19  1  0.371804  0.450104  0.000000  1
  P  P20  1  0.549896  0.921699  0.000000  1
