# generated using pymatgen
data_Tb3Dy5(ReC2)4
_symmetry_space_group_name_H-M   'P 1'
_cell_length_a   5.13158900
_cell_length_b   6.59373602
_cell_length_c   9.90201230
_cell_angle_alpha   89.94492373
_cell_angle_beta   90.00000000
_cell_angle_gamma   90.00000000
_symmetry_Int_Tables_number   1
_chemical_formula_structural   Tb3Dy5(ReC2)4
_chemical_formula_sum   'Tb3 Dy5 Re4 C8'
_cell_volume   335.04773204
_cell_formula_units_Z   1
loop_
 _symmetry_equiv_pos_site_id
 _symmetry_equiv_pos_as_xyz
  1  'x, y, z'
loop_
 _atom_site_type_symbol
 _atom_site_label
 _atom_site_symmetry_multiplicity
 _atom_site_fract_x
 _atom_site_fract_y
 _atom_site_fract_z
 _atom_site_occupancy
  Tb  Tb0  1  0.750000  0.467170  0.783557  1
  Tb  Tb1  1  0.750000  0.967265  0.716263  1
  Tb  Tb2  1  0.250000  0.033105  0.283836  1
  Dy  Dy3  1  0.250000  0.680593  0.556052  1
  Dy  Dy4  1  0.750000  0.320340  0.443756  1
  Dy  Dy5  1  0.750000  0.819371  0.056438  1
  Dy  Dy6  1  0.250000  0.179641  0.943812  1
  Dy  Dy7  1  0.250000  0.532775  0.216873  1
  Re  Re8  1  0.250000  0.721787  0.864733  1
  Re  Re9  1  0.750000  0.278061  0.135171  1
  Re  Re10  1  0.750000  0.777934  0.364921  1
  Re  Re11  1  0.250000  0.222467  0.634807  1
  C  C12  1  0.250000  0.455519  0.758837  1
  C  C13  1  0.750000  0.544597  0.240955  1
  C  C14  1  0.750000  0.044566  0.259039  1
  C  C15  1  0.250000  0.955640  0.740836  1
  C  C16  1  0.250000  0.820877  0.047885  1
  C  C17  1  0.750000  0.177170  0.952469  1
  C  C18  1  0.750000  0.677368  0.547806  1
  C  C19  1  0.250000  0.323756  0.451955  1
