# generated using pymatgen
data_Mg4Co2As6Ir3Ru2
_symmetry_space_group_name_H-M   'P 1'
_cell_length_a   6.97305011
_cell_length_b   6.96841829
_cell_length_c   6.98388015
_cell_angle_alpha   109.75163876
_cell_angle_beta   109.01794974
_cell_angle_gamma   109.69032748
_symmetry_Int_Tables_number   1
_chemical_formula_structural   Mg4Co2As6Ir3Ru2
_chemical_formula_sum   'Mg4 Co2 As6 Ir3 Ru2'
_cell_volume   261.07622213
_cell_formula_units_Z   1
loop_
 _symmetry_equiv_pos_site_id
 _symmetry_equiv_pos_as_xyz
  1  'x, y, z'
loop_
 _atom_site_type_symbol
 _atom_site_label
 _atom_site_symmetry_multiplicity
 _atom_site_fract_x
 _atom_site_fract_y
 _atom_site_fract_z
 _atom_site_occupancy
  Mg  Mg0  1  0.997235  0.994439  0.497225  1
  Mg  Mg1  1  0.497523  0.995048  0.997480  1
  Mg  Mg2  1  0.005825  0.505070  0.006617  1
  Mg  Mg3  1  0.499261  0.505112  0.498500  1
  Co  Co4  1  0.747786  0.252712  0.502482  1
  Co  Co5  1  0.505174  0.252912  0.750338  1
  As  As6  1  0.682562  0.677796  0.987171  1
  As  As7  1  0.308102  0.303861  0.988566  1
  As  As8  1  0.995089  0.677895  0.690358  1
  As  As9  1  0.996023  0.304055  0.315553  1
  As  As10  1  0.694062  0.018577  0.693913  1
  As  As11  1  0.324734  0.019011  0.324946  1
  Ir  Ir12  1  0.507003  0.758094  0.252991  1
  Ir  Ir13  1  0.743779  0.487652  0.243839  1
  Ir  Ir14  1  0.251097  0.757943  0.504969  1
  Ru  Ru15  1  0.999882  0.999802  0.999950  1
  Ru  Ru16  1  0.244866  0.490023  0.745099  1
