# generated using pymatgen
data_Hf4SiP3Rh4
_symmetry_space_group_name_H-M   'P 1'
_cell_length_a   3.81279200
_cell_length_b   6.48240453
_cell_length_c   7.46789939
_cell_angle_alpha   89.63719394
_cell_angle_beta   90.00000000
_cell_angle_gamma   90.00000000
_symmetry_Int_Tables_number   1
_chemical_formula_structural   Hf4SiP3Rh4
_chemical_formula_sum   'Hf4 Si1 P3 Rh4'
_cell_volume   184.57334981
_cell_formula_units_Z   1
loop_
 _symmetry_equiv_pos_site_id
 _symmetry_equiv_pos_as_xyz
  1  'x, y, z'
loop_
 _atom_site_type_symbol
 _atom_site_label
 _atom_site_symmetry_multiplicity
 _atom_site_fract_x
 _atom_site_fract_y
 _atom_site_fract_z
 _atom_site_occupancy
  Hf  Hf0  1  0.250000  0.526019  0.176567  1
  Hf  Hf1  1  0.750000  0.473138  0.820174  1
  Hf  Hf2  1  0.250000  0.031672  0.319868  1
  Hf  Hf3  1  0.750000  0.973296  0.682933  1
  Si  Si4  1  0.750000  0.734753  0.379744  1
  P  P5  1  0.250000  0.758776  0.876131  1
  P  P6  1  0.750000  0.239867  0.122860  1
  P  P7  1  0.250000  0.262921  0.622569  1
  Rh  Rh8  1  0.750000  0.853143  0.064022  1
  Rh  Rh9  1  0.250000  0.148235  0.935352  1
  Rh  Rh10  1  0.750000  0.352390  0.436721  1
  Rh  Rh11  1  0.250000  0.645791  0.563061  1
