# generated using pymatgen
data_CsNaZrF6
_symmetry_space_group_name_H-M   'P 1'
_cell_length_a   6.65422200
_cell_length_b   8.62121000
_cell_length_c   12.14815800
_cell_angle_alpha   90.00000000
_cell_angle_beta   90.00000000
_cell_angle_gamma   90.00000000
_symmetry_Int_Tables_number   1
_chemical_formula_structural   CsNaZrF6
_chemical_formula_sum   'Cs4 Na4 Zr4 F24'
_cell_volume   696.90878894
_cell_formula_units_Z   4
loop_
 _symmetry_equiv_pos_site_id
 _symmetry_equiv_pos_as_xyz
  1  'x, y, z'
loop_
 _atom_site_type_symbol
 _atom_site_label
 _atom_site_symmetry_multiplicity
 _atom_site_fract_x
 _atom_site_fract_y
 _atom_site_fract_z
 _atom_site_occupancy
  Cs  Cs0  1  0.032943  0.752737  0.463437  1
  Cs  Cs1  1  0.532943  0.252737  0.036563  1
  Cs  Cs2  1  0.467057  0.752737  0.963437  1
  Cs  Cs3  1  0.967057  0.252737  0.536563  1
  Na  Na4  1  0.452844  0.501892  0.648561  1
  Na  Na5  1  0.547156  0.001892  0.351439  1
  Na  Na6  1  0.952844  0.001892  0.851439  1
  Na  Na7  1  0.047156  0.501892  0.148561  1
  Zr  Zr8  1  0.457582  0.001168  0.642677  1
  Zr  Zr9  1  0.042418  0.001168  0.142677  1
  Zr  Zr10  1  0.542418  0.501168  0.357323  1
  Zr  Zr11  1  0.957582  0.501168  0.857323  1
  F  F12  1  0.611219  0.270497  0.359158  1
  F  F13  1  0.187977  0.042535  0.716949  1
  F  F14  1  0.799278  0.970076  0.040246  1
  F  F15  1  0.482742  0.733365  0.353983  1
  F  F16  1  0.388781  0.770497  0.640842  1
  F  F17  1  0.517258  0.233365  0.646017  1
  F  F18  1  0.125506  0.470850  0.718188  1
  F  F19  1  0.299278  0.470076  0.459754  1
  F  F20  1  0.691918  0.526981  0.505713  1
  F  F21  1  0.687977  0.542535  0.783051  1
  F  F22  1  0.374494  0.470850  0.218188  1
  F  F23  1  0.874494  0.970850  0.281812  1
  F  F24  1  0.200722  0.470076  0.959754  1
  F  F25  1  0.700722  0.970076  0.540246  1
  F  F26  1  0.191918  0.026981  0.994287  1
  F  F27  1  0.982742  0.233365  0.146017  1
  F  F28  1  0.808082  0.526981  0.005713  1
  F  F29  1  0.812023  0.542535  0.283051  1
  F  F30  1  0.017258  0.733365  0.853983  1
  F  F31  1  0.312023  0.042535  0.216949  1
  F  F32  1  0.308082  0.026981  0.494287  1
  F  F33  1  0.888781  0.270497  0.859158  1
  F  F34  1  0.625506  0.970850  0.781812  1
  F  F35  1  0.111219  0.770497  0.140842  1
