# generated using pymatgen
data_Pr4Sm(IrO6)2
_symmetry_space_group_name_H-M   'P 1'
_cell_length_a   7.10192560
_cell_length_b   7.10192503
_cell_length_c   7.52191800
_cell_angle_alpha   74.39876371
_cell_angle_beta   74.39877337
_cell_angle_gamma   51.63663254
_symmetry_Int_Tables_number   1
_chemical_formula_structural   Pr4Sm(IrO6)2
_chemical_formula_sum   'Pr4 Sm1 Ir2 O12'
_cell_volume   283.88620569
_cell_formula_units_Z   1
loop_
 _symmetry_equiv_pos_site_id
 _symmetry_equiv_pos_as_xyz
  1  'x, y, z'
loop_
 _atom_site_type_symbol
 _atom_site_label
 _atom_site_symmetry_multiplicity
 _atom_site_fract_x
 _atom_site_fract_y
 _atom_site_fract_z
 _atom_site_occupancy
  Pr  Pr0  1  0.697114  0.697114  0.639383  1
  Pr  Pr1  1  0.695281  0.695281  0.164590  1
  Pr  Pr2  1  0.305056  0.305056  0.834109  1
  Pr  Pr3  1  0.000861  0.000861  0.498649  1
  Sm  Sm4  1  0.303246  0.303246  0.357661  1
  Ir  Ir5  1  0.752406  0.246512  0.001845  1
  Ir  Ir6  1  0.246512  0.752406  0.001845  1
  O  O7  1  0.099255  0.596514  0.569554  1
  O  O8  1  0.999929  0.999929  0.167913  1
  O  O9  1  0.398865  0.909440  0.423772  1
  O  O10  1  0.499396  0.499396  0.176682  1
  O  O11  1  0.104416  0.569394  0.086154  1
  O  O12  1  0.909440  0.398865  0.423772  1
  O  O13  1  0.998142  0.998142  0.834936  1
  O  O14  1  0.596514  0.099254  0.569554  1
  O  O15  1  0.498958  0.498958  0.828140  1
  O  O16  1  0.569394  0.104416  0.086154  1
  O  O17  1  0.427436  0.897779  0.917644  1
  O  O18  1  0.897779  0.427436  0.917644  1
