# generated using pymatgen
data_NaMgNi12P7
_symmetry_space_group_name_H-M   'P 1'
_cell_length_a   9.03484900
_cell_length_b   9.03484946
_cell_length_c   3.59718200
_cell_angle_alpha   90.00000000
_cell_angle_beta   90.00000000
_cell_angle_gamma   120.00000196
_symmetry_Int_Tables_number   1
_chemical_formula_structural   NaMgNi12P7
_chemical_formula_sum   'Na1 Mg1 Ni12 P7'
_cell_volume   254.29326273
_cell_formula_units_Z   1
loop_
 _symmetry_equiv_pos_site_id
 _symmetry_equiv_pos_as_xyz
  1  'x, y, z'
loop_
 _atom_site_type_symbol
 _atom_site_label
 _atom_site_symmetry_multiplicity
 _atom_site_fract_x
 _atom_site_fract_y
 _atom_site_fract_z
 _atom_site_occupancy
  Na  Na0  1  0.333333  0.666667  0.000000  1
  Mg  Mg1  1  0.666667  0.333333  0.500000  1
  Ni  Ni2  1  0.723361  0.879560  0.000000  1
  Ni  Ni3  1  0.934780  0.371796  0.000000  1
  Ni  Ni4  1  0.212594  0.090834  0.500000  1
  Ni  Ni5  1  0.909166  0.121760  0.500000  1
  Ni  Ni6  1  0.156198  0.276639  0.000000  1
  Ni  Ni7  1  0.383430  0.431429  0.500000  1
  Ni  Ni8  1  0.120440  0.843802  0.000000  1
  Ni  Ni9  1  0.437016  0.065220  0.000000  1
  Ni  Ni10  1  0.047999  0.616570  0.500000  1
  Ni  Ni11  1  0.568571  0.952001  0.500000  1
  Ni  Ni12  1  0.628204  0.562984  0.000000  1
  Ni  Ni13  1  0.878240  0.787406  0.500000  1
  P  P14  1  0.412989  0.294375  0.000000  1
  P  P15  1  0.293773  0.886748  0.500000  1
  P  P16  1  0.705625  0.118615  0.000000  1
  P  P17  1  0.592975  0.706227  0.500000  1
  P  P18  1  0.881385  0.587011  0.000000  1
  P  P19  1  0.113252  0.407025  0.500000  1
  P  P20  1  0.000000  0.000000  0.000000  1
