# generated using pymatgen
data_Sm2YBCl3
_symmetry_space_group_name_H-M   'P 1'
_cell_length_a   9.62676655
_cell_length_b   9.62676687
_cell_length_c   9.62676683
_cell_angle_alpha   109.64039646
_cell_angle_beta   109.64039609
_cell_angle_gamma   109.13339420
_symmetry_Int_Tables_number   1
_chemical_formula_structural   Sm2YBCl3
_chemical_formula_sum   'Sm8 Y4 B4 Cl12'
_cell_volume   686.76500077
_cell_formula_units_Z   4
loop_
 _symmetry_equiv_pos_site_id
 _symmetry_equiv_pos_as_xyz
  1  'x, y, z'
loop_
 _atom_site_type_symbol
 _atom_site_label
 _atom_site_symmetry_multiplicity
 _atom_site_fract_x
 _atom_site_fract_y
 _atom_site_fract_z
 _atom_site_occupancy
  Sm  Sm0  1  0.472624  0.485789  0.235562  1
  Sm  Sm1  1  0.750227  0.237061  0.264438  1
  Sm  Sm2  1  0.749773  0.014211  0.486834  1
  Sm  Sm3  1  0.237061  0.472624  0.486834  1
  Sm  Sm4  1  0.262939  0.749773  0.235562  1
  Sm  Sm5  1  0.027376  0.262939  0.013166  1
  Sm  Sm6  1  0.014211  0.027376  0.264438  1
  Sm  Sm7  1  0.485789  0.750227  0.013166  1
  Y  Y8  1  0.484240  0.234240  0.468481  1
  Y  Y9  1  0.015760  0.484240  0.750000  1
  Y  Y10  1  0.265760  0.015760  0.031519  1
  Y  Y11  1  0.234240  0.265760  0.750000  1
  B  B12  1  0.251405  0.248595  0.250000  1
  B  B13  1  0.498595  0.001405  0.250000  1
  B  B14  1  0.001405  0.251405  0.502810  1
  B  B15  1  0.248595  0.498595  0.997190  1
  Cl  Cl16  1  0.244159  0.755856  0.747596  1
  Cl  Cl17  1  0.508260  0.496563  0.752404  1
  Cl  Cl18  1  0.991740  0.744144  0.988303  1
  Cl  Cl19  1  0.744144  0.255841  0.752404  1
  Cl  Cl20  1  0.003437  0.991740  0.747596  1
  Cl  Cl21  1  0.255841  0.003437  0.511697  1
  Cl  Cl22  1  0.755856  0.508260  0.511697  1
  Cl  Cl23  1  0.496563  0.244159  0.988303  1
  Cl  Cl24  1  0.755964  0.744036  0.250000  1
  Cl  Cl25  1  0.744036  0.994036  0.988072  1
  Cl  Cl26  1  0.994036  0.505964  0.250000  1
  Cl  Cl27  1  0.505964  0.755964  0.511928  1
