# generated using pymatgen
data_YMnTeO6
_symmetry_space_group_name_H-M   'P 1'
_cell_length_a   5.17129313
_cell_length_b   5.33448381
_cell_length_c   9.82624893
_cell_angle_alpha   88.64951024
_cell_angle_beta   90.69651024
_cell_angle_gamma   121.04949504
_symmetry_Int_Tables_number   1
_chemical_formula_structural   YMnTeO6
_chemical_formula_sum   'Y2 Mn2 Te2 O12'
_cell_volume   232.16600077
_cell_formula_units_Z   2
loop_
 _symmetry_equiv_pos_site_id
 _symmetry_equiv_pos_as_xyz
  1  'x, y, z'
loop_
 _atom_site_type_symbol
 _atom_site_label
 _atom_site_symmetry_multiplicity
 _atom_site_fract_x
 _atom_site_fract_y
 _atom_site_fract_z
 _atom_site_occupancy
  Y  Y0  1  0.000000  0.000000  0.000000  1
  Y  Y1  1  0.000000  0.000000  0.500000  1
  Mn  Mn2  1  0.336688  0.668344  0.250000  1
  Mn  Mn3  1  0.663312  0.331656  0.750000  1
  Te  Te4  1  0.337489  0.668744  0.750000  1
  Te  Te5  1  0.662511  0.331256  0.250000  1
  O  O6  1  0.371259  0.343292  0.132457  1
  O  O7  1  0.648429  0.012659  0.144696  1
  O  O8  1  0.999218  0.636497  0.140289  1
  O  O9  1  0.628741  0.656708  0.867543  1
  O  O10  1  0.351571  0.987341  0.855304  1
  O  O11  1  0.000782  0.363503  0.859711  1
  O  O12  1  0.648429  0.635771  0.355304  1
  O  O13  1  0.371259  0.027967  0.367543  1
  O  O14  1  0.999218  0.362722  0.359711  1
  O  O15  1  0.351571  0.364229  0.644696  1
  O  O16  1  0.628741  0.972033  0.632457  1
  O  O17  1  0.000782  0.637278  0.640289  1
