# generated using pymatgen
data_DyI16
_symmetry_space_group_name_H-M   'P 1'
_cell_length_a   9.01817449
_cell_length_b   10.34446856
_cell_length_c   13.81412356
_cell_angle_alpha   100.48130902
_cell_angle_beta   94.66214097
_cell_angle_gamma   122.72867809
_symmetry_Int_Tables_number   1
_chemical_formula_structural   DyI16
_chemical_formula_sum   'Dy1 I16'
_cell_volume   1040.57421407
_cell_formula_units_Z   1
loop_
 _symmetry_equiv_pos_site_id
 _symmetry_equiv_pos_as_xyz
  1  'x, y, z'
loop_
 _atom_site_type_symbol
 _atom_site_label
 _atom_site_symmetry_multiplicity
 _atom_site_fract_x
 _atom_site_fract_y
 _atom_site_fract_z
 _atom_site_occupancy
  Dy  Dy0  1  0.000000  0.000000  0.000000  1
  I  I1  1  0.774193  0.931311  0.162865  1
  I  I2  1  0.225807  0.068689  0.837135  1
  I  I3  1  0.325597  0.204719  0.171263  1
  I  I4  1  0.674403  0.795281  0.828737  1
  I  I5  1  0.975880  0.278626  0.981073  1
  I  I6  1  0.024120  0.721374  0.018927  1
  I  I7  1  0.360247  0.487584  0.304301  1
  I  I8  1  0.639753  0.512416  0.695699  1
  I  I9  1  0.929247  0.585075  0.259506  1
  I  I10  1  0.070753  0.414925  0.740494  1
  I  I11  1  0.404970  0.830629  0.087747  1
  I  I12  1  0.595030  0.169371  0.912253  1
  I  I13  1  0.593910  0.243802  0.557389  1
  I  I14  1  0.406090  0.756198  0.442611  1
  I  I15  1  0.789441  0.425892  0.404581  1
  I  I16  1  0.210559  0.574108  0.595419  1
