# generated using pymatgen
data_Dy6ReO12
_symmetry_space_group_name_H-M   'P 1'
_cell_length_a   6.48260819
_cell_length_b   6.48260823
_cell_length_c   6.48260750
_cell_angle_alpha   98.72212179
_cell_angle_beta   98.72211630
_cell_angle_gamma   98.72211890
_symmetry_Int_Tables_number   1
_chemical_formula_structural   Dy6ReO12
_chemical_formula_sum   'Dy6 Re1 O12'
_cell_volume   261.87531433
_cell_formula_units_Z   1
loop_
 _symmetry_equiv_pos_site_id
 _symmetry_equiv_pos_as_xyz
  1  'x, y, z'
loop_
 _atom_site_type_symbol
 _atom_site_label
 _atom_site_symmetry_multiplicity
 _atom_site_fract_x
 _atom_site_fract_y
 _atom_site_fract_z
 _atom_site_occupancy
  Dy  Dy0  1  0.855796  0.389089  0.685489  1
  Dy  Dy1  1  0.610911  0.314511  0.144204  1
  Dy  Dy2  1  0.314511  0.144204  0.610911  1
  Dy  Dy3  1  0.685489  0.855796  0.389089  1
  Dy  Dy4  1  0.389089  0.685489  0.855796  1
  Dy  Dy5  1  0.144204  0.610911  0.314511  1
  Re  Re6  1  0.000000  0.000000  0.000000  1
  O  O7  1  0.927129  0.035305  0.704166  1
  O  O8  1  0.964695  0.295834  0.072871  1
  O  O9  1  0.591112  0.177117  0.433723  1
  O  O10  1  0.822883  0.566277  0.408888  1
  O  O11  1  0.295834  0.072871  0.964695  1
  O  O12  1  0.566277  0.408888  0.822883  1
  O  O13  1  0.433723  0.591112  0.177117  1
  O  O14  1  0.704166  0.927129  0.035305  1
  O  O15  1  0.177117  0.433723  0.591112  1
  O  O16  1  0.408888  0.822883  0.566277  1
  O  O17  1  0.035305  0.704166  0.927129  1
  O  O18  1  0.072871  0.964695  0.295834  1
