# generated using pymatgen
data_Tb8YSc(SiB4)4
_symmetry_space_group_name_H-M   'P 1'
_cell_length_a   7.22633800
_cell_length_b   7.22633800
_cell_length_c   8.07048700
_cell_angle_alpha   90.00000000
_cell_angle_beta   90.00000000
_cell_angle_gamma   90.00000000
_symmetry_Int_Tables_number   1
_chemical_formula_structural   Tb8YSc(SiB4)4
_chemical_formula_sum   'Tb8 Y1 Sc1 Si4 B16'
_cell_volume   421.44051551
_cell_formula_units_Z   1
loop_
 _symmetry_equiv_pos_site_id
 _symmetry_equiv_pos_as_xyz
  1  'x, y, z'
loop_
 _atom_site_type_symbol
 _atom_site_label
 _atom_site_symmetry_multiplicity
 _atom_site_fract_x
 _atom_site_fract_y
 _atom_site_fract_z
 _atom_site_occupancy
  Tb  Tb0  1  0.681096  0.179480  0.226465  1
  Tb  Tb1  1  0.318904  0.820520  0.773535  1
  Tb  Tb2  1  0.318904  0.820520  0.226465  1
  Tb  Tb3  1  0.820520  0.681096  0.226465  1
  Tb  Tb4  1  0.820520  0.681096  0.773535  1
  Tb  Tb5  1  0.681096  0.179480  0.773535  1
  Tb  Tb6  1  0.179480  0.318904  0.773535  1
  Tb  Tb7  1  0.179480  0.318904  0.226465  1
  Y  Y8  1  0.500000  0.500000  0.500000  1
  Sc  Sc9  1  0.000000  0.000000  0.500000  1
  Si  Si10  1  0.109690  0.622463  0.500000  1
  Si  Si11  1  0.890310  0.377537  0.500000  1
  Si  Si12  1  0.377537  0.109690  0.500000  1
  Si  Si13  1  0.622463  0.890310  0.500000  1
  B  B14  1  0.172567  0.039028  0.000000  1
  B  B15  1  0.827433  0.960972  0.000000  1
  B  B16  1  0.960972  0.172567  0.000000  1
  B  B17  1  0.327741  0.539206  0.000000  1
  B  B18  1  0.039028  0.827433  0.000000  1
  B  B19  1  0.672259  0.460794  0.000000  1
  B  B20  1  0.539206  0.672259  0.000000  1
  B  B21  1  0.460794  0.327741  0.000000  1
  B  B22  1  0.089722  0.589573  0.000000  1
  B  B23  1  0.910278  0.410427  0.000000  1
  B  B24  1  0.410427  0.089722  0.000000  1
  B  B25  1  0.589573  0.910278  0.000000  1
  B  B26  1  0.000000  0.000000  0.163022  1
  B  B27  1  0.000000  0.000000  0.836978  1
  B  B28  1  0.500000  0.500000  0.837828  1
  B  B29  1  0.500000  0.500000  0.162172  1
