# generated using pymatgen
data_Be8Ir3Rh4Au
_symmetry_space_group_name_H-M   'P 1'
_cell_length_a   5.63410900
_cell_length_b   3.96586200
_cell_length_c   7.96226500
_cell_angle_alpha   90.00000000
_cell_angle_beta   89.99859013
_cell_angle_gamma   90.00000000
_symmetry_Int_Tables_number   1
_chemical_formula_structural   Be8Ir3Rh4Au
_chemical_formula_sum   'Be8 Ir3 Rh4 Au1'
_cell_volume   177.90963570
_cell_formula_units_Z   1
loop_
 _symmetry_equiv_pos_site_id
 _symmetry_equiv_pos_as_xyz
  1  'x, y, z'
loop_
 _atom_site_type_symbol
 _atom_site_label
 _atom_site_symmetry_multiplicity
 _atom_site_fract_x
 _atom_site_fract_y
 _atom_site_fract_z
 _atom_site_occupancy
  Be  Be0  1  0.008673  0.750000  0.134639  1
  Be  Be1  1  0.491357  0.750000  0.134669  1
  Be  Be2  1  0.996215  0.249999  0.375021  1
  Be  Be3  1  0.503766  0.249999  0.375029  1
  Be  Be4  1  0.491414  0.750000  0.615303  1
  Be  Be5  1  0.008588  0.750000  0.615276  1
  Be  Be6  1  0.477155  0.249999  0.875033  1
  Be  Be7  1  0.022854  0.249999  0.875079  1
  Ir  Ir8  1  0.249979  0.249999  0.126722  1
  Ir  Ir9  1  0.750006  0.750000  0.374964  1
  Ir  Ir10  1  0.249977  0.249999  0.623356  1
  Rh  Rh11  1  0.750012  0.249999  0.122131  1
  Rh  Rh12  1  0.249986  0.750000  0.374824  1
  Rh  Rh13  1  0.749983  0.249999  0.627890  1
  Rh  Rh14  1  0.249949  0.750000  0.875068  1
  Au  Au15  1  0.750086  0.750000  0.875000  1
