# generated using pymatgen
data_TbNpB6W
_symmetry_space_group_name_H-M   'P 1'
_cell_length_a   3.60891900
_cell_length_b   9.38202700
_cell_length_c   11.45745200
_cell_angle_alpha   90.00000000
_cell_angle_beta   90.00000000
_cell_angle_gamma   90.00000000
_symmetry_Int_Tables_number   1
_chemical_formula_structural   TbNpB6W
_chemical_formula_sum   'Tb4 Np4 B24 W4'
_cell_volume   387.93758655
_cell_formula_units_Z   4
loop_
 _symmetry_equiv_pos_site_id
 _symmetry_equiv_pos_as_xyz
  1  'x, y, z'
loop_
 _atom_site_type_symbol
 _atom_site_label
 _atom_site_symmetry_multiplicity
 _atom_site_fract_x
 _atom_site_fract_y
 _atom_site_fract_z
 _atom_site_occupancy
  Tb  Tb0  1  0.000000  0.337642  0.407824  1
  Tb  Tb1  1  0.000000  0.662358  0.592176  1
  Tb  Tb2  1  0.000000  0.837642  0.092176  1
  Tb  Tb3  1  0.000000  0.162358  0.907824  1
  Np  Np4  1  0.000000  0.959269  0.400916  1
  Np  Np5  1  0.000000  0.040731  0.599084  1
  Np  Np6  1  0.000000  0.459269  0.099084  1
  Np  Np7  1  0.000000  0.540731  0.900916  1
  B  B8  1  0.500000  0.552300  0.432030  1
  B  B9  1  0.500000  0.447700  0.567970  1
  B  B10  1  0.500000  0.052300  0.067970  1
  B  B11  1  0.500000  0.947700  0.932030  1
  B  B12  1  0.500000  0.747060  0.423880  1
  B  B13  1  0.500000  0.252940  0.576120  1
  B  B14  1  0.500000  0.247060  0.076120  1
  B  B15  1  0.500000  0.752940  0.923880  1
  B  B16  1  0.500000  0.806805  0.275397  1
  B  B17  1  0.500000  0.193195  0.724603  1
  B  B18  1  0.500000  0.306805  0.224603  1
  B  B19  1  0.500000  0.693195  0.775397  1
  B  B20  1  0.500000  0.644197  0.186366  1
  B  B21  1  0.500000  0.355803  0.813634  1
  B  B22  1  0.500000  0.144197  0.313634  1
  B  B23  1  0.500000  0.855803  0.686366  1
  B  B24  1  0.500000  0.988178  0.222113  1
  B  B25  1  0.500000  0.011822  0.777887  1
  B  B26  1  0.500000  0.488178  0.277887  1
  B  B27  1  0.500000  0.511822  0.722113  1
  B  B28  1  0.500000  0.637775  0.038187  1
  B  B29  1  0.500000  0.362225  0.961813  1
  B  B30  1  0.500000  0.137775  0.461813  1
  B  B31  1  0.500000  0.862225  0.538187  1
  W  W32  1  0.000000  0.647721  0.317720  1
  W  W33  1  0.000000  0.352279  0.682280  1
  W  W34  1  0.000000  0.147721  0.182280  1
  W  W35  1  0.000000  0.852279  0.817720  1
