# generated using pymatgen
data_Li2Ta3Nb3(Co4P3)4
_symmetry_space_group_name_H-M   'P 1'
_cell_length_a   11.94376600
_cell_length_b   11.94376670
_cell_length_c   3.57100800
_cell_angle_alpha   90.00000000
_cell_angle_beta   90.00000000
_cell_angle_gamma   120.00000361
_symmetry_Int_Tables_number   1
_chemical_formula_structural   Li2Ta3Nb3(Co4P3)4
_chemical_formula_sum   'Li2 Ta3 Nb3 Co16 P12'
_cell_volume   441.16803378
_cell_formula_units_Z   1
loop_
 _symmetry_equiv_pos_site_id
 _symmetry_equiv_pos_as_xyz
  1  'x, y, z'
loop_
 _atom_site_type_symbol
 _atom_site_label
 _atom_site_symmetry_multiplicity
 _atom_site_fract_x
 _atom_site_fract_y
 _atom_site_fract_z
 _atom_site_occupancy
  Li  Li0  1  0.333333  0.666667  0.000000  1
  Li  Li1  1  0.666667  0.333333  0.000000  1
  Ta  Ta2  1  0.444290  0.000000  0.000000  1
  Ta  Ta3  1  0.000000  0.444290  0.000000  1
  Ta  Ta4  1  0.555710  0.555710  0.000000  1
  Nb  Nb5  1  0.820588  0.000000  0.500000  1
  Nb  Nb6  1  0.000000  0.820588  0.500000  1
  Nb  Nb7  1  0.179412  0.179412  0.500000  1
  Co  Co8  1  0.276883  0.000000  0.500000  1
  Co  Co9  1  0.000000  0.276883  0.500000  1
  Co  Co10  1  0.723117  0.723117  0.500000  1
  Co  Co11  1  0.633862  0.807281  0.000000  1
  Co  Co12  1  0.192719  0.826582  0.000000  1
  Co  Co13  1  0.173418  0.366138  0.000000  1
  Co  Co14  1  0.366138  0.173418  0.000000  1
  Co  Co15  1  0.807281  0.633862  0.000000  1
  Co  Co16  1  0.826582  0.192719  0.000000  1
  Co  Co17  1  0.522497  0.873957  0.500000  1
  Co  Co18  1  0.126043  0.648540  0.500000  1
  Co  Co19  1  0.351460  0.477503  0.500000  1
  Co  Co20  1  0.477503  0.351460  0.500000  1
  Co  Co21  1  0.873957  0.522497  0.500000  1
  Co  Co22  1  0.648540  0.126043  0.500000  1
  Co  Co23  1  0.000000  0.000000  0.000000  1
  P  P24  1  0.172748  0.000000  0.000000  1
  P  P25  1  0.000000  0.172748  0.000000  1
  P  P26  1  0.827252  0.827252  0.000000  1
  P  P27  1  0.511759  0.685814  0.500000  1
  P  P28  1  0.314186  0.825945  0.500000  1
  P  P29  1  0.174055  0.488241  0.500000  1
  P  P30  1  0.488241  0.174055  0.500000  1
  P  P31  1  0.685814  0.511759  0.500000  1
  P  P32  1  0.825945  0.314186  0.500000  1
  P  P33  1  0.649083  0.000000  0.000000  1
  P  P34  1  0.000000  0.649083  0.000000  1
  P  P35  1  0.350917  0.350917  0.000000  1
