# generated using pymatgen
data_KEr10(C2I9)2
_symmetry_space_group_name_H-M   'P 1'
_cell_length_a   11.28332380
_cell_length_b   11.32034022
_cell_length_c   11.40575072
_cell_angle_alpha   113.43402852
_cell_angle_beta   87.07219015
_cell_angle_gamma   119.53328800
_symmetry_Int_Tables_number   1
_chemical_formula_structural   KEr10(C2I9)2
_chemical_formula_sum   'K1 Er10 C4 I18'
_cell_volume   1143.69134276
_cell_formula_units_Z   1
loop_
 _symmetry_equiv_pos_site_id
 _symmetry_equiv_pos_as_xyz
  1  'x, y, z'
loop_
 _atom_site_type_symbol
 _atom_site_label
 _atom_site_symmetry_multiplicity
 _atom_site_fract_x
 _atom_site_fract_y
 _atom_site_fract_z
 _atom_site_occupancy
  K  K0  1  0.500000  0.000000  0.500000  1
  Er  Er1  1  0.679018  0.725259  0.712612  1
  Er  Er2  1  0.276261  0.352027  0.015737  1
  Er  Er3  1  0.092917  0.389588  0.290271  1
  Er  Er4  1  0.965501  0.037899  0.322628  1
  Er  Er5  1  0.907083  0.610412  0.709729  1
  Er  Er6  1  0.104550  0.944610  0.000741  1
  Er  Er7  1  0.034499  0.962101  0.677372  1
  Er  Er8  1  0.320982  0.274741  0.287388  1
  Er  Er9  1  0.723739  0.647973  0.984263  1
  Er  Er10  1  0.895450  0.055390  0.999259  1
  C  C11  1  0.151948  0.219985  0.119834  1
  C  C12  1  0.848052  0.780015  0.880166  1
  C  C13  1  0.924493  0.856941  0.803421  1
  C  C14  1  0.075507  0.143059  0.196579  1
  I  I15  1  0.448251  0.529864  0.831639  1
  I  I16  1  0.386196  0.040345  0.158897  1
  I  I17  1  0.775523  0.856441  0.500762  1
  I  I18  1  0.836262  0.311368  0.153464  1
  I  I19  1  0.551749  0.470136  0.168361  1
  I  I20  1  0.224477  0.143559  0.499238  1
  I  I21  1  0.318638  0.095477  0.828897  1
  I  I22  1  0.681362  0.904523  0.171103  1
  I  I23  1  0.975925  0.754942  0.169512  1
  I  I24  1  0.933234  0.298632  0.501209  1
  I  I25  1  0.024075  0.245058  0.830488  1
  I  I26  1  0.066766  0.701368  0.498791  1
  I  I27  1  0.262654  0.625363  0.185258  1
  I  I28  1  0.737346  0.374637  0.814742  1
  I  I29  1  0.642473  0.433717  0.500080  1
  I  I30  1  0.163738  0.688632  0.846536  1
  I  I31  1  0.613804  0.959655  0.841103  1
  I  I32  1  0.357527  0.566283  0.499920  1
