# generated using pymatgen
data_MgZr3Pd11Pt
_symmetry_space_group_name_H-M   'P 1'
_cell_length_a   5.70153215
_cell_length_b   5.70153195
_cell_length_c   9.28328200
_cell_angle_alpha   90.00000000
_cell_angle_beta   90.00000000
_cell_angle_gamma   120.02590441
_symmetry_Int_Tables_number   1
_chemical_formula_structural   MgZr3Pd11Pt
_chemical_formula_sum   'Mg1 Zr3 Pd11 Pt1'
_cell_volume   261.27742742
_cell_formula_units_Z   1
loop_
 _symmetry_equiv_pos_site_id
 _symmetry_equiv_pos_as_xyz
  1  'x, y, z'
loop_
 _atom_site_type_symbol
 _atom_site_label
 _atom_site_symmetry_multiplicity
 _atom_site_fract_x
 _atom_site_fract_y
 _atom_site_fract_z
 _atom_site_occupancy
  Mg  Mg0  1  0.333304  0.666696  0.250000  1
  Zr  Zr1  1  0.000457  0.999543  0.498574  1
  Zr  Zr2  1  0.000457  0.999543  0.001426  1
  Zr  Zr3  1  0.666233  0.333767  0.750000  1
  Pd  Pd4  1  0.500370  0.499630  0.499597  1
  Pd  Pd5  1  0.500487  0.000551  0.499849  1
  Pd  Pd6  1  0.999449  0.499513  0.499849  1
  Pd  Pd7  1  0.500370  0.499630  0.000403  1
  Pd  Pd8  1  0.500487  0.000551  0.000151  1
  Pd  Pd9  1  0.999449  0.499513  0.000151  1
  Pd  Pd10  1  0.830530  0.661097  0.250000  1
  Pd  Pd11  1  0.338903  0.169470  0.250000  1
  Pd  Pd12  1  0.830098  0.169902  0.250000  1
  Pd  Pd13  1  0.169378  0.339037  0.750000  1
  Pd  Pd14  1  0.660963  0.830622  0.750000  1
  Pt  Pt15  1  0.169068  0.830932  0.750000  1
