# generated using pymatgen
data_Tb6ScCo17P12
_symmetry_space_group_name_H-M   'P 1'
_cell_length_a   3.71709900
_cell_length_b   10.59401000
_cell_length_c   12.29788200
_cell_angle_alpha   90.00000000
_cell_angle_beta   90.00000000
_cell_angle_gamma   90.00000000
_symmetry_Int_Tables_number   1
_chemical_formula_structural   Tb6ScCo17P12
_chemical_formula_sum   'Tb6 Sc1 Co17 P12'
_cell_volume   484.27809823
_cell_formula_units_Z   1
loop_
 _symmetry_equiv_pos_site_id
 _symmetry_equiv_pos_as_xyz
  1  'x, y, z'
loop_
 _atom_site_type_symbol
 _atom_site_label
 _atom_site_symmetry_multiplicity
 _atom_site_fract_x
 _atom_site_fract_y
 _atom_site_fract_z
 _atom_site_occupancy
  Tb  Tb0  1  0.000000  0.500000  0.527769  1
  Tb  Tb1  1  0.500000  0.000000  0.477928  1
  Tb  Tb2  1  0.500000  0.821354  0.207491  1
  Tb  Tb3  1  0.500000  0.178646  0.207491  1
  Tb  Tb4  1  0.000000  0.682634  0.795564  1
  Tb  Tb5  1  0.000000  0.317366  0.795564  1
  Sc  Sc6  1  0.500000  0.500000  0.152453  1
  Co  Co7  1  0.000000  0.000000  0.837163  1
  Co  Co8  1  0.500000  0.500000  0.703801  1
  Co  Co9  1  0.000000  0.000000  0.295618  1
  Co  Co10  1  0.000000  0.500000  0.984619  1
  Co  Co11  1  0.500000  0.000000  0.012972  1
  Co  Co12  1  0.500000  0.326621  0.990009  1
  Co  Co13  1  0.500000  0.673379  0.990009  1
  Co  Co14  1  0.000000  0.162031  0.001309  1
  Co  Co15  1  0.000000  0.837969  0.001309  1
  Co  Co16  1  0.500000  0.294779  0.434172  1
  Co  Co17  1  0.500000  0.705221  0.434172  1
  Co  Co18  1  0.000000  0.201897  0.570630  1
  Co  Co19  1  0.000000  0.798103  0.570630  1
  Co  Co20  1  0.500000  0.880705  0.707943  1
  Co  Co21  1  0.500000  0.119295  0.707943  1
  Co  Co22  1  0.000000  0.622225  0.296723  1
  Co  Co23  1  0.000000  0.377775  0.296723  1
  P  P24  1  0.500000  0.500000  0.883613  1
  P  P25  1  0.000000  0.000000  0.115534  1
  P  P26  1  0.500000  0.500000  0.357464  1
  P  P27  1  0.000000  0.000000  0.655298  1
  P  P28  1  0.500000  0.308503  0.617573  1
  P  P29  1  0.500000  0.691497  0.617573  1
  P  P30  1  0.000000  0.189429  0.386544  1
  P  P31  1  0.000000  0.810571  0.386544  1
  P  P32  1  0.500000  0.852005  0.889100  1
  P  P33  1  0.500000  0.147995  0.889100  1
  P  P34  1  0.000000  0.663205  0.100827  1
  P  P35  1  0.000000  0.336795  0.100827  1
