# generated using pymatgen
data_La6Dy5Ho5(CdIr)4
_symmetry_space_group_name_H-M   'P 1'
_cell_length_a   9.81406482
_cell_length_b   9.80887913
_cell_length_c   9.80889856
_cell_angle_alpha   59.97186297
_cell_angle_beta   59.98298556
_cell_angle_gamma   59.98318438
_symmetry_Int_Tables_number   1
_chemical_formula_structural   La6Dy5Ho5(CdIr)4
_chemical_formula_sum   'La6 Dy5 Ho5 Cd4 Ir4'
_cell_volume   667.37522157
_cell_formula_units_Z   1
loop_
 _symmetry_equiv_pos_site_id
 _symmetry_equiv_pos_as_xyz
  1  'x, y, z'
loop_
 _atom_site_type_symbol
 _atom_site_label
 _atom_site_symmetry_multiplicity
 _atom_site_fract_x
 _atom_site_fract_y
 _atom_site_fract_z
 _atom_site_occupancy
  La  La0  1  0.192980  0.807031  0.807020  1
  La  La1  1  0.806810  0.193157  0.193202  1
  La  La2  1  0.806788  0.193016  0.806881  1
  La  La3  1  0.193283  0.806899  0.193079  1
  La  La4  1  0.806777  0.806900  0.193070  1
  La  La5  1  0.193279  0.193073  0.806900  1
  Dy  Dy6  1  0.596297  0.596623  0.596623  1
  Dy  Dy7  1  0.596520  0.596639  0.210316  1
  Dy  Dy8  1  0.596522  0.210316  0.596639  1
  Dy  Dy9  1  0.210450  0.596629  0.596622  1
  Dy  Dy10  1  0.063632  0.436370  0.436358  1
  Ho  Ho11  1  0.436319  0.063675  0.063674  1
  Ho  Ho12  1  0.436634  0.063384  0.436190  1
  Ho  Ho13  1  0.063787  0.436191  0.063381  1
  Ho  Ho14  1  0.436647  0.436190  0.063374  1
  Ho  Ho15  1  0.063781  0.063384  0.436191  1
  Cd  Cd16  1  0.828668  0.828749  0.828738  1
  Cd  Cd17  1  0.828690  0.828830  0.513788  1
  Cd  Cd18  1  0.828687  0.513796  0.828823  1
  Cd  Cd19  1  0.513843  0.828745  0.828741  1
  Ir  Ir20  1  0.391026  0.391042  0.391040  1
  Ir  Ir21  1  0.390842  0.391104  0.827208  1
  Ir  Ir22  1  0.390840  0.827215  0.391103  1
  Ir  Ir23  1  0.826897  0.391042  0.391037  1
