# generated using pymatgen
data_Tb2(TmSb)3
_symmetry_space_group_name_H-M   'P 1'
_cell_length_a   8.93544536
_cell_length_b   8.93981261
_cell_length_c   6.25016900
_cell_angle_alpha   90.00000000
_cell_angle_beta   90.00000000
_cell_angle_gamma   120.01616288
_symmetry_Int_Tables_number   1
_chemical_formula_structural   Tb2(TmSb)3
_chemical_formula_sum   'Tb4 Tm6 Sb6'
_cell_volume   432.31096924
_cell_formula_units_Z   2
loop_
 _symmetry_equiv_pos_site_id
 _symmetry_equiv_pos_as_xyz
  1  'x, y, z'
loop_
 _atom_site_type_symbol
 _atom_site_label
 _atom_site_symmetry_multiplicity
 _atom_site_fract_x
 _atom_site_fract_y
 _atom_site_fract_z
 _atom_site_occupancy
  Tb  Tb0  1  0.753735  0.752905  0.250000  1
  Tb  Tb1  1  0.753735  0.000829  0.750000  1
  Tb  Tb2  1  0.246265  0.247095  0.750000  1
  Tb  Tb3  1  0.246265  0.999171  0.250000  1
  Tm  Tm4  1  0.000000  0.751955  0.750000  1
  Tm  Tm5  1  0.000000  0.248045  0.250000  1
  Tm  Tm6  1  0.333606  0.666804  0.500000  1
  Tm  Tm7  1  0.666394  0.333196  0.000000  1
  Tm  Tm8  1  0.666394  0.333196  0.500000  1
  Tm  Tm9  1  0.333606  0.666804  0.000000  1
  Sb  Sb10  1  0.388544  0.998775  0.750000  1
  Sb  Sb11  1  0.388544  0.389770  0.250000  1
  Sb  Sb12  1  0.000000  0.607657  0.250000  1
  Sb  Sb13  1  0.000000  0.392343  0.750000  1
  Sb  Sb14  1  0.611456  0.610230  0.750000  1
  Sb  Sb15  1  0.611456  0.001225  0.250000  1
