# generated using pymatgen
data_Tm2LuIn3GePt2
_symmetry_space_group_name_H-M   'P 1'
_cell_length_a   7.43495892
_cell_length_b   7.42858230
_cell_length_c   4.09309900
_cell_angle_alpha   90.00000000
_cell_angle_beta   90.00000000
_cell_angle_gamma   119.97143255
_symmetry_Int_Tables_number   1
_chemical_formula_structural   Tm2LuIn3GePt2
_chemical_formula_sum   'Tm2 Lu1 In3 Ge1 Pt2'
_cell_volume   195.83591392
_cell_formula_units_Z   1
loop_
 _symmetry_equiv_pos_site_id
 _symmetry_equiv_pos_as_xyz
  1  'x, y, z'
loop_
 _atom_site_type_symbol
 _atom_site_label
 _atom_site_symmetry_multiplicity
 _atom_site_fract_x
 _atom_site_fract_y
 _atom_site_fract_z
 _atom_site_occupancy
  Tm  Tm0  1  0.011105  0.598283  0.500000  1
  Tm  Tm1  1  0.587187  0.988833  0.500000  1
  Lu  Lu2  1  0.401099  0.412846  0.500000  1
  In  In3  1  0.005770  0.257713  0.000000  1
  In  In4  1  0.252154  0.994547  0.000000  1
  In  In5  1  0.742172  0.747701  0.000000  1
  Ge  Ge6  1  0.666444  0.333467  0.000000  1
  Pt  Pt7  1  0.000537  0.000505  0.500000  1
  Pt  Pt8  1  0.333532  0.666106  0.000000  1
