# generated using pymatgen
data_Tm5Ga2BiTe
_symmetry_space_group_name_H-M   'P 1'
_cell_length_a   8.50450700
_cell_length_b   8.50450815
_cell_length_c   7.85228200
_cell_angle_alpha   90.00000000
_cell_angle_beta   90.00000000
_cell_angle_gamma   125.10496682
_symmetry_Int_Tables_number   1
_chemical_formula_structural   Tm5Ga2BiTe
_chemical_formula_sum   'Tm10 Ga4 Bi2 Te2'
_cell_volume   464.62284054
_cell_formula_units_Z   2
loop_
 _symmetry_equiv_pos_site_id
 _symmetry_equiv_pos_as_xyz
  1  'x, y, z'
loop_
 _atom_site_type_symbol
 _atom_site_label
 _atom_site_symmetry_multiplicity
 _atom_site_fract_x
 _atom_site_fract_y
 _atom_site_fract_z
 _atom_site_occupancy
  Tm  Tm0  1  0.001373  0.998627  0.000000  1
  Tm  Tm1  1  0.501373  0.498627  0.500000  1
  Tm  Tm2  1  0.785653  0.540349  0.164366  1
  Tm  Tm3  1  0.459651  0.214347  0.835634  1
  Tm  Tm4  1  0.959651  0.714347  0.664366  1
  Tm  Tm5  1  0.285653  0.040349  0.335634  1
  Tm  Tm6  1  0.209491  0.457692  0.834552  1
  Tm  Tm7  1  0.542308  0.790509  0.165448  1
  Tm  Tm8  1  0.042308  0.290509  0.334552  1
  Tm  Tm9  1  0.709491  0.957692  0.665448  1
  Ga  Ga10  1  0.864202  0.866651  0.366628  1
  Ga  Ga11  1  0.133349  0.135798  0.633372  1
  Ga  Ga12  1  0.633349  0.635798  0.866628  1
  Ga  Ga13  1  0.364202  0.366651  0.133372  1
  Bi  Bi14  1  0.208933  0.791067  0.000000  1
  Bi  Bi15  1  0.708933  0.291067  0.500000  1
  Te  Te16  1  0.795041  0.204959  0.000000  1
  Te  Te17  1  0.295041  0.704959  0.500000  1
