# generated using pymatgen
data_Lu10InSn5
_symmetry_space_group_name_H-M   'P 1'
_cell_length_a   8.77857603
_cell_length_b   8.77857669
_cell_length_c   6.42449800
_cell_angle_alpha   90.00000000
_cell_angle_beta   90.00000000
_cell_angle_gamma   120.05561494
_symmetry_Int_Tables_number   1
_chemical_formula_structural   Lu10InSn5
_chemical_formula_sum   'Lu10 In1 Sn5'
_cell_volume   428.52321552
_cell_formula_units_Z   1
loop_
 _symmetry_equiv_pos_site_id
 _symmetry_equiv_pos_as_xyz
  1  'x, y, z'
loop_
 _atom_site_type_symbol
 _atom_site_label
 _atom_site_symmetry_multiplicity
 _atom_site_fract_x
 _atom_site_fract_y
 _atom_site_fract_z
 _atom_site_occupancy
  Lu  Lu0  1  0.665692  0.333344  0.998973  1
  Lu  Lu1  1  0.333344  0.665692  0.998973  1
  Lu  Lu2  1  0.333344  0.665692  0.501027  1
  Lu  Lu3  1  0.665692  0.333344  0.501027  1
  Lu  Lu4  1  0.762802  0.762802  0.750000  1
  Lu  Lu5  1  0.238433  0.002991  0.750000  1
  Lu  Lu6  1  0.002991  0.238433  0.750000  1
  Lu  Lu7  1  0.235955  0.235955  0.250000  1
  Lu  Lu8  1  0.761929  0.998864  0.250000  1
  Lu  Lu9  1  0.998864  0.761929  0.250000  1
  In  In10  1  0.397381  0.397381  0.750000  1
  Sn  Sn11  1  0.605925  0.000931  0.750000  1
  Sn  Sn12  1  0.000931  0.605925  0.750000  1
  Sn  Sn13  1  0.602776  0.602776  0.250000  1
  Sn  Sn14  1  0.394870  0.999073  0.250000  1
  Sn  Sn15  1  0.999073  0.394870  0.250000  1
