# generated using pymatgen
data_Th4Zn3Cu20Sn
_symmetry_space_group_name_H-M   'P 1'
_cell_length_a   5.08258400
_cell_length_b   8.20498467
_cell_length_c   10.37527977
_cell_angle_alpha   89.79242617
_cell_angle_beta   90.00000000
_cell_angle_gamma   90.00000000
_symmetry_Int_Tables_number   1
_chemical_formula_structural   Th4Zn3Cu20Sn
_chemical_formula_sum   'Th4 Zn3 Cu20 Sn1'
_cell_volume   432.67251173
_cell_formula_units_Z   1
loop_
 _symmetry_equiv_pos_site_id
 _symmetry_equiv_pos_as_xyz
  1  'x, y, z'
loop_
 _atom_site_type_symbol
 _atom_site_label
 _atom_site_symmetry_multiplicity
 _atom_site_fract_x
 _atom_site_fract_y
 _atom_site_fract_z
 _atom_site_occupancy
  Th  Th0  1  0.750000  0.242716  0.929399  1
  Th  Th1  1  0.250000  0.753039  0.059154  1
  Th  Th2  1  0.750000  0.741005  0.559908  1
  Th  Th3  1  0.250000  0.264422  0.449712  1
  Zn  Zn4  1  0.750000  0.357551  0.637014  1
  Zn  Zn5  1  0.250000  0.643508  0.360779  1
  Zn  Zn6  1  0.750000  0.854703  0.859859  1
  Cu  Cu7  1  0.003433  0.437121  0.191768  1
  Cu  Cu8  1  0.505676  0.566725  0.806621  1
  Cu  Cu9  1  0.499267  0.928665  0.312720  1
  Cu  Cu10  1  0.994325  0.065448  0.691397  1
  Cu  Cu11  1  0.994324  0.566725  0.806621  1
  Cu  Cu12  1  0.496567  0.437121  0.191768  1
  Cu  Cu13  1  0.505675  0.065448  0.691397  1
  Cu  Cu14  1  0.000733  0.928665  0.312720  1
  Cu  Cu15  1  0.750000  0.436929  0.400719  1
  Cu  Cu16  1  0.250000  0.567668  0.599417  1
  Cu  Cu17  1  0.750000  0.931937  0.097770  1
  Cu  Cu18  1  0.250000  0.061370  0.897469  1
  Cu  Cu19  1  0.750000  0.180789  0.252167  1
  Cu  Cu20  1  0.250000  0.820573  0.751544  1
  Cu  Cu21  1  0.750000  0.680602  0.251206  1
  Cu  Cu22  1  0.250000  0.320370  0.747535  1
  Cu  Cu23  1  0.750000  0.092170  0.486532  1
  Cu  Cu24  1  0.250000  0.909155  0.516090  1
  Cu  Cu25  1  0.750000  0.588806  0.012989  1
  Cu  Cu26  1  0.250000  0.413221  0.982220  1
  Sn  Sn27  1  0.250000  0.143545  0.143504  1
