# generated using pymatgen
data_Tb9Sm8Tm3Sn16
_symmetry_space_group_name_H-M   'P 1'
_cell_length_a   8.07957600
_cell_length_b   8.25693532
_cell_length_c   15.59998300
_cell_angle_alpha   90.00000000
_cell_angle_beta   90.00000000
_cell_angle_gamma   89.93493889
_symmetry_Int_Tables_number   1
_chemical_formula_structural   Tb9Sm8Tm3Sn16
_chemical_formula_sum   'Tb9 Sm8 Tm3 Sn16'
_cell_volume   1040.71376389
_cell_formula_units_Z   1
loop_
 _symmetry_equiv_pos_site_id
 _symmetry_equiv_pos_as_xyz
  1  'x, y, z'
loop_
 _atom_site_type_symbol
 _atom_site_label
 _atom_site_symmetry_multiplicity
 _atom_site_fract_x
 _atom_site_fract_y
 _atom_site_fract_z
 _atom_site_occupancy
  Tb  Tb0  1  0.362445  0.836351  0.877709  1
  Tb  Tb1  1  0.862028  0.663698  0.622470  1
  Tb  Tb2  1  0.637788  0.163888  0.377429  1
  Tb  Tb3  1  0.137771  0.336425  0.123056  1
  Tb  Tb4  1  0.637788  0.163888  0.122571  1
  Tb  Tb5  1  0.137771  0.336425  0.376944  1
  Tb  Tb6  1  0.362445  0.836351  0.622291  1
  Tb  Tb7  1  0.862028  0.663698  0.877530  1
  Tb  Tb8  1  0.194795  0.501805  0.750000  1
  Sm  Sm9  1  0.515325  0.320212  0.903396  1
  Sm  Sm10  1  0.014976  0.179128  0.596526  1
  Sm  Sm11  1  0.484482  0.679505  0.402833  1
  Sm  Sm12  1  0.984597  0.820810  0.096901  1
  Sm  Sm13  1  0.484482  0.679505  0.097167  1
  Sm  Sm14  1  0.984597  0.820810  0.403099  1
  Sm  Sm15  1  0.515325  0.320212  0.596604  1
  Sm  Sm16  1  0.014976  0.179128  0.903474  1
  Tm  Tm17  1  0.695143  0.997057  0.750000  1
  Tm  Tm18  1  0.805118  0.497881  0.250000  1
  Tm  Tm19  1  0.305253  0.002508  0.250000  1
  Sn  Sn20  1  0.298876  0.038512  0.042418  1
  Sn  Sn21  1  0.799045  0.462146  0.457459  1
  Sn  Sn22  1  0.701030  0.961429  0.542145  1
  Sn  Sn23  1  0.201129  0.538655  0.958591  1
  Sn  Sn24  1  0.701030  0.961429  0.957855  1
  Sn  Sn25  1  0.201129  0.538655  0.541409  1
  Sn  Sn26  1  0.298876  0.038512  0.457582  1
  Sn  Sn27  1  0.799045  0.462146  0.042541  1
  Sn  Sn28  1  0.561288  0.619933  0.750000  1
  Sn  Sn29  1  0.059818  0.880917  0.750000  1
  Sn  Sn30  1  0.440563  0.380897  0.250000  1
  Sn  Sn31  1  0.940096  0.119307  0.250000  1
  Sn  Sn32  1  0.324482  0.144257  0.750000  1
  Sn  Sn33  1  0.823456  0.352917  0.750000  1
  Sn  Sn34  1  0.675639  0.853907  0.250000  1
  Sn  Sn35  1  0.175368  0.647094  0.250000  1
