# generated using pymatgen
data_Ho3Mn2P6Rh7
_symmetry_space_group_name_H-M   'P 1'
_cell_length_a   3.89413900
_cell_length_b   11.10687600
_cell_length_c   12.71912600
_cell_angle_alpha   90.00000000
_cell_angle_beta   90.00000000
_cell_angle_gamma   90.00000000
_symmetry_Int_Tables_number   1
_chemical_formula_structural   Ho3Mn2P6Rh7
_chemical_formula_sum   'Ho6 Mn4 P12 Rh14'
_cell_volume   550.12406367
_cell_formula_units_Z   2
loop_
 _symmetry_equiv_pos_site_id
 _symmetry_equiv_pos_as_xyz
  1  'x, y, z'
loop_
 _atom_site_type_symbol
 _atom_site_label
 _atom_site_symmetry_multiplicity
 _atom_site_fract_x
 _atom_site_fract_y
 _atom_site_fract_z
 _atom_site_occupancy
  Ho  Ho0  1  0.000000  0.500000  0.518266  1
  Ho  Ho1  1  0.500000  0.000000  0.481734  1
  Ho  Ho2  1  0.500000  0.820129  0.200737  1
  Ho  Ho3  1  0.500000  0.179871  0.200737  1
  Ho  Ho4  1  0.000000  0.679871  0.799263  1
  Ho  Ho5  1  0.000000  0.320129  0.799263  1
  Mn  Mn6  1  0.000000  0.500000  0.988049  1
  Mn  Mn7  1  0.500000  0.000000  0.011951  1
  Mn  Mn8  1  0.500000  0.500000  0.159598  1
  Mn  Mn9  1  0.000000  0.000000  0.840402  1
  P  P10  1  0.500000  0.313122  0.619429  1
  P  P11  1  0.500000  0.686878  0.619429  1
  P  P12  1  0.000000  0.186878  0.380571  1
  P  P13  1  0.000000  0.813122  0.380571  1
  P  P14  1  0.500000  0.500000  0.883162  1
  P  P15  1  0.000000  0.000000  0.116838  1
  P  P16  1  0.500000  0.849674  0.894537  1
  P  P17  1  0.500000  0.150326  0.894537  1
  P  P18  1  0.000000  0.650326  0.105463  1
  P  P19  1  0.000000  0.349674  0.105463  1
  P  P20  1  0.500000  0.500000  0.345753  1
  P  P21  1  0.000000  0.000000  0.654247  1
  Rh  Rh22  1  0.500000  0.294719  0.431212  1
  Rh  Rh23  1  0.500000  0.705281  0.431212  1
  Rh  Rh24  1  0.000000  0.205281  0.568788  1
  Rh  Rh25  1  0.000000  0.794719  0.568788  1
  Rh  Rh26  1  0.500000  0.874037  0.712307  1
  Rh  Rh27  1  0.500000  0.125963  0.712307  1
  Rh  Rh28  1  0.000000  0.625963  0.287693  1
  Rh  Rh29  1  0.000000  0.374037  0.287693  1
  Rh  Rh30  1  0.500000  0.335003  0.995342  1
  Rh  Rh31  1  0.500000  0.664997  0.995342  1
  Rh  Rh32  1  0.000000  0.164997  0.004658  1
  Rh  Rh33  1  0.000000  0.835003  0.004658  1
  Rh  Rh34  1  0.500000  0.500000  0.699860  1
  Rh  Rh35  1  0.000000  0.000000  0.300140  1
