# generated using pymatgen
data_LaNd3Al18(OsPd2)2
_symmetry_space_group_name_H-M   'P 1'
_cell_length_a   7.69325255
_cell_length_b   7.69017864
_cell_length_c   9.64730000
_cell_angle_alpha   90.00000000
_cell_angle_beta   90.00000000
_cell_angle_gamma   119.48525452
_symmetry_Int_Tables_number   1
_chemical_formula_structural   LaNd3Al18(OsPd2)2
_chemical_formula_sum   'La1 Nd3 Al18 Os2 Pd4'
_cell_volume   496.83501411
_cell_formula_units_Z   1
loop_
 _symmetry_equiv_pos_site_id
 _symmetry_equiv_pos_as_xyz
  1  'x, y, z'
loop_
 _atom_site_type_symbol
 _atom_site_label
 _atom_site_symmetry_multiplicity
 _atom_site_fract_x
 _atom_site_fract_y
 _atom_site_fract_z
 _atom_site_occupancy
  La  La0  1  0.329744  0.005275  0.750000  1
  Nd  Nd1  1  0.994650  0.669745  0.250000  1
  Nd  Nd2  1  0.004851  0.330432  0.750000  1
  Nd  Nd3  1  0.669392  0.994520  0.250000  1
  Al  Al4  1  0.127226  0.127596  0.250000  1
  Al  Al5  1  0.869803  0.871602  0.750000  1
  Al  Al6  1  0.001926  0.329381  0.075250  1
  Al  Al7  1  0.995919  0.668411  0.926610  1
  Al  Al8  1  0.995919  0.668411  0.573390  1
  Al  Al9  1  0.329758  0.002420  0.423237  1
  Al  Al10  1  0.001926  0.329381  0.424750  1
  Al  Al11  1  0.672133  0.998319  0.573413  1
  Al  Al12  1  0.672133  0.998319  0.926587  1
  Al  Al13  1  0.329758  0.002420  0.076763  1
  Al  Al14  1  0.329299  0.330986  0.547837  1
  Al  Al15  1  0.670498  0.670429  0.449762  1
  Al  Al16  1  0.670498  0.670429  0.050238  1
  Al  Al17  1  0.329299  0.330986  0.952163  1
  Al  Al18  1  0.343360  0.545161  0.250000  1
  Al  Al19  1  0.659259  0.457042  0.750000  1
  Al  Al20  1  0.546815  0.343651  0.250000  1
  Al  Al21  1  0.453924  0.655163  0.750000  1
  Os  Os22  1  0.000423  0.999678  0.000158  1
  Os  Os23  1  0.000423  0.999678  0.499842  1
  Pd  Pd24  1  0.671683  0.329424  0.000513  1
  Pd  Pd25  1  0.328850  0.670859  0.000666  1
  Pd  Pd26  1  0.328850  0.670859  0.499334  1
  Pd  Pd27  1  0.671683  0.329424  0.499487  1
