# generated using pymatgen
data_La12Nd2Rh5Au
_symmetry_space_group_name_H-M   'P 1'
_cell_length_a   10.27797000
_cell_length_b   10.23919870
_cell_length_c   6.59976481
_cell_angle_alpha   90.24395986
_cell_angle_beta   90.00000000
_cell_angle_gamma   120.12534397
_symmetry_Int_Tables_number   1
_chemical_formula_structural   La12Nd2Rh5Au
_chemical_formula_sum   'La12 Nd2 Rh5 Au1'
_cell_volume   600.72709877
_cell_formula_units_Z   1
loop_
 _symmetry_equiv_pos_site_id
 _symmetry_equiv_pos_as_xyz
  1  'x, y, z'
loop_
 _atom_site_type_symbol
 _atom_site_label
 _atom_site_symmetry_multiplicity
 _atom_site_fract_x
 _atom_site_fract_y
 _atom_site_fract_z
 _atom_site_occupancy
  La  La0  1  0.876963  0.753925  0.784215  1
  La  La1  1  0.259341  0.117861  0.784029  1
  La  La2  1  0.858519  0.117861  0.784029  1
  La  La3  1  0.125768  0.251535  0.301279  1
  La  La4  1  0.750484  0.875572  0.283059  1
  La  La5  1  0.125089  0.875572  0.283059  1
  La  La6  1  0.457278  0.914557  0.589470  1
  La  La7  1  0.068010  0.544398  0.593318  1
  La  La8  1  0.476387  0.544398  0.593318  1
  La  La9  1  0.538972  0.077942  0.101585  1
  La  La10  1  0.920486  0.462333  0.094344  1
  La  La11  1  0.541848  0.462333  0.094344  1
  Nd  Nd12  1  0.665200  0.330398  0.562420  1
  Nd  Nd13  1  0.336840  0.673681  0.071774  1
  Rh  Rh14  1  0.624677  0.808941  0.829502  1
  Rh  Rh15  1  0.184264  0.808941  0.829502  1
  Rh  Rh16  1  0.812763  0.625528  0.334194  1
  Rh  Rh17  1  0.373534  0.189590  0.331335  1
  Rh  Rh18  1  0.816055  0.189590  0.331335  1
  Au  Au19  1  0.187521  0.375042  0.838942  1
