# generated using pymatgen
data_Tb2Nd3Y3(CdPt)2
_symmetry_space_group_name_H-M   'P 1'
_cell_length_a   9.82339421
_cell_length_b   9.82339443
_cell_length_c   9.82339400
_cell_angle_alpha   60.00000146
_cell_angle_beta   60.00000071
_cell_angle_gamma   59.99999928
_symmetry_Int_Tables_number   1
_chemical_formula_structural   Tb2Nd3Y3(CdPt)2
_chemical_formula_sum   'Tb4 Nd6 Y6 Cd4 Pt4'
_cell_volume   670.30078072
_cell_formula_units_Z   2
loop_
 _symmetry_equiv_pos_site_id
 _symmetry_equiv_pos_as_xyz
  1  'x, y, z'
loop_
 _atom_site_type_symbol
 _atom_site_label
 _atom_site_symmetry_multiplicity
 _atom_site_fract_x
 _atom_site_fract_y
 _atom_site_fract_z
 _atom_site_occupancy
  Tb  Tb0  1  0.350889  0.350889  0.350889  1
  Tb  Tb1  1  0.350889  0.350889  0.947331  1
  Tb  Tb2  1  0.350889  0.947331  0.350889  1
  Tb  Tb3  1  0.947331  0.350889  0.350889  1
  Nd  Nd4  1  0.938264  0.561736  0.561736  1
  Nd  Nd5  1  0.561736  0.938264  0.938264  1
  Nd  Nd6  1  0.561736  0.938264  0.561736  1
  Nd  Nd7  1  0.938264  0.561736  0.938264  1
  Nd  Nd8  1  0.561736  0.561736  0.938264  1
  Nd  Nd9  1  0.938264  0.938264  0.561736  1
  Y  Y10  1  0.811358  0.188642  0.188642  1
  Y  Y11  1  0.188642  0.811358  0.811358  1
  Y  Y12  1  0.188642  0.811358  0.188642  1
  Y  Y13  1  0.811358  0.188642  0.811358  1
  Y  Y14  1  0.188642  0.188642  0.811358  1
  Y  Y15  1  0.811358  0.811358  0.188642  1
  Cd  Cd16  1  0.579929  0.579929  0.579929  1
  Cd  Cd17  1  0.579929  0.579929  0.260212  1
  Cd  Cd18  1  0.579929  0.260212  0.579929  1
  Cd  Cd19  1  0.260212  0.579929  0.579929  1
  Pt  Pt20  1  0.143111  0.143111  0.143111  1
  Pt  Pt21  1  0.143111  0.143111  0.570669  1
  Pt  Pt22  1  0.143111  0.570669  0.143111  1
  Pt  Pt23  1  0.570669  0.143111  0.143111  1
