# generated using pymatgen
data_Dy3Ho3CoBr10
_symmetry_space_group_name_H-M   'P 1'
_cell_length_a   7.32597645
_cell_length_b   9.15760856
_cell_length_c   9.10211444
_cell_angle_alpha   107.51010901
_cell_angle_beta   96.48330184
_cell_angle_gamma   105.03141022
_symmetry_Int_Tables_number   1
_chemical_formula_structural   Dy3Ho3CoBr10
_chemical_formula_sum   'Dy3 Ho3 Co1 Br10'
_cell_volume   550.20642612
_cell_formula_units_Z   1
loop_
 _symmetry_equiv_pos_site_id
 _symmetry_equiv_pos_as_xyz
  1  'x, y, z'
loop_
 _atom_site_type_symbol
 _atom_site_label
 _atom_site_symmetry_multiplicity
 _atom_site_fract_x
 _atom_site_fract_y
 _atom_site_fract_z
 _atom_site_occupancy
  Dy  Dy0  1  0.119394  0.045056  0.763520  1
  Dy  Dy1  1  0.880636  0.954806  0.236379  1
  Dy  Dy2  1  0.968484  0.293983  0.091872  1
  Ho  Ho3  1  0.031207  0.707059  0.908228  1
  Ho  Ho4  1  0.352302  0.130225  0.174966  1
  Ho  Ho5  1  0.647762  0.869319  0.824978  1
  Co  Co6  1  0.999943  0.000067  0.999953  1
  Br  Br7  1  0.543907  0.178484  0.912471  1
  Br  Br8  1  0.455366  0.821079  0.086972  1
  Br  Br9  1  0.348670  0.449825  0.272063  1
  Br  Br10  1  0.652901  0.550033  0.728613  1
  Br  Br11  1  0.248975  0.083488  0.457471  1
  Br  Br12  1  0.751202  0.916669  0.542703  1
  Br  Br13  1  0.777695  0.252681  0.345974  1
  Br  Br14  1  0.221673  0.746277  0.655069  1
  Br  Br15  1  0.085966  0.371647  0.824639  1
  Br  Br16  1  0.913920  0.629300  0.174128  1
