# generated using pymatgen
data_Tb2DyY5(CdPt)2
_symmetry_space_group_name_H-M   'P 1'
_cell_length_a   9.71541321
_cell_length_b   9.72171633
_cell_length_c   9.72171704
_cell_angle_alpha   59.95711357
_cell_angle_beta   60.02144963
_cell_angle_gamma   60.02145048
_symmetry_Int_Tables_number   1
_chemical_formula_structural   Tb2DyY5(CdPt)2
_chemical_formula_sum   'Tb4 Dy2 Y10 Cd4 Pt4'
_cell_volume   649.27978264
_cell_formula_units_Z   2
loop_
 _symmetry_equiv_pos_site_id
 _symmetry_equiv_pos_as_xyz
  1  'x, y, z'
loop_
 _atom_site_type_symbol
 _atom_site_label
 _atom_site_symmetry_multiplicity
 _atom_site_fract_x
 _atom_site_fract_y
 _atom_site_fract_z
 _atom_site_occupancy
  Tb  Tb0  1  0.352471  0.352423  0.352423  1
  Tb  Tb1  1  0.352423  0.352471  0.942682  1
  Tb  Tb2  1  0.352423  0.942682  0.352471  1
  Tb  Tb3  1  0.942682  0.352423  0.352423  1
  Dy  Dy4  1  0.810946  0.189054  0.189054  1
  Dy  Dy5  1  0.189054  0.810946  0.810946  1
  Y  Y6  1  0.189485  0.810515  0.189485  1
  Y  Y7  1  0.810515  0.189485  0.810515  1
  Y  Y8  1  0.189485  0.189485  0.810515  1
  Y  Y9  1  0.810515  0.810515  0.189485  1
  Y  Y10  1  0.935269  0.564731  0.564731  1
  Y  Y11  1  0.564731  0.935269  0.935269  1
  Y  Y12  1  0.564599  0.935401  0.564599  1
  Y  Y13  1  0.935401  0.564599  0.935401  1
  Y  Y14  1  0.564599  0.564599  0.935401  1
  Y  Y15  1  0.935401  0.935401  0.564599  1
  Cd  Cd16  1  0.582304  0.581945  0.581945  1
  Cd  Cd17  1  0.581945  0.582304  0.253806  1
  Cd  Cd18  1  0.581945  0.253806  0.582304  1
  Cd  Cd19  1  0.253806  0.581945  0.581945  1
  Pt  Pt20  1  0.142411  0.144034  0.144034  1
  Pt  Pt21  1  0.144034  0.142411  0.569520  1
  Pt  Pt22  1  0.144034  0.569520  0.142411  1
  Pt  Pt23  1  0.569520  0.144034  0.144034  1
