# generated using pymatgen
data_Ho12Pt7Pb
_symmetry_space_group_name_H-M   'P 1'
_cell_length_a   10.91300144
_cell_length_b   10.91300149
_cell_length_c   10.91300200
_cell_angle_alpha   96.63195943
_cell_angle_beta   116.24780999
_cell_angle_gamma   116.24780412
_symmetry_Int_Tables_number   1
_chemical_formula_structural   Ho12Pt7Pb
_chemical_formula_sum   'Ho24 Pt14 Pb2'
_cell_volume   964.12848014
_cell_formula_units_Z   2
loop_
 _symmetry_equiv_pos_site_id
 _symmetry_equiv_pos_as_xyz
  1  'x, y, z'
loop_
 _atom_site_type_symbol
 _atom_site_label
 _atom_site_symmetry_multiplicity
 _atom_site_fract_x
 _atom_site_fract_y
 _atom_site_fract_z
 _atom_site_occupancy
  Ho  Ho0  1  0.133723  0.853447  0.571969  1
  Ho  Ho1  1  0.133723  0.561754  0.280274  1
  Ho  Ho2  1  0.866277  0.146553  0.428031  1
  Ho  Ho3  1  0.718522  0.938246  0.071969  1
  Ho  Ho4  1  0.718522  0.280274  0.146553  1
  Ho  Ho5  1  0.281478  0.428031  0.561754  1
  Ho  Ho6  1  0.718522  0.646553  0.780275  1
  Ho  Ho7  1  0.133723  0.780275  0.061754  1
  Ho  Ho8  1  0.866277  0.928031  0.646553  1
  Ho  Ho9  1  0.866277  0.438246  0.719725  1
  Ho  Ho10  1  0.853283  0.676642  0.176642  1
  Ho  Ho11  1  0.281478  0.061754  0.928031  1
  Ho  Ho12  1  0.281478  0.719725  0.853447  1
  Ho  Ho13  1  0.718522  0.571969  0.438246  1
  Ho  Ho14  1  0.500000  0.632915  0.132915  1
  Ho  Ho15  1  0.500000  0.132915  0.632915  1
  Ho  Ho16  1  0.500000  0.867085  0.367085  1
  Ho  Ho17  1  0.500000  0.367085  0.867085  1
  Ho  Ho18  1  0.500000  0.176642  0.323358  1
  Ho  Ho19  1  0.866277  0.219725  0.938246  1
  Ho  Ho20  1  0.500000  0.823358  0.676642  1
  Ho  Ho21  1  0.146717  0.323358  0.823358  1
  Ho  Ho22  1  0.281478  0.353447  0.219725  1
  Ho  Ho23  1  0.133723  0.071969  0.353447  1
  Pt  Pt24  1  0.500000  0.020419  0.864070  1
  Pt  Pt25  1  0.500000  0.979581  0.135930  1
  Pt  Pt26  1  0.500000  0.635930  0.479581  1
  Pt  Pt27  1  0.156350  0.520419  0.020419  1
  Pt  Pt28  1  0.156350  0.135930  0.635930  1
  Pt  Pt29  1  0.843650  0.479581  0.979581  1
  Pt  Pt30  1  0.756512  0.128256  0.628256  1
  Pt  Pt31  1  0.500000  0.628256  0.871744  1
  Pt  Pt32  1  0.500000  0.371744  0.128256  1
  Pt  Pt33  1  0.243488  0.871744  0.371744  1
  Pt  Pt34  1  0.000000  0.250000  0.250000  1
  Pt  Pt35  1  0.000000  0.750000  0.750000  1
  Pt  Pt36  1  0.500000  0.364070  0.520419  1
  Pt  Pt37  1  0.843650  0.864070  0.364070  1
  Pb  Pb38  1  0.000000  0.500000  0.500000  1
  Pb  Pb39  1  0.000000  0.000000  0.000000  1
