# generated using pymatgen
data_EuFeCo4P3
_symmetry_space_group_name_H-M   'P 1'
_cell_length_a   3.67736200
_cell_length_b   10.37224500
_cell_length_c   11.89172200
_cell_angle_alpha   90.00000000
_cell_angle_beta   90.00000000
_cell_angle_gamma   90.00000000
_symmetry_Int_Tables_number   1
_chemical_formula_structural   EuFeCo4P3
_chemical_formula_sum   'Eu4 Fe4 Co16 P12'
_cell_volume   453.58000184
_cell_formula_units_Z   4
loop_
 _symmetry_equiv_pos_site_id
 _symmetry_equiv_pos_as_xyz
  1  'x, y, z'
loop_
 _atom_site_type_symbol
 _atom_site_label
 _atom_site_symmetry_multiplicity
 _atom_site_fract_x
 _atom_site_fract_y
 _atom_site_fract_z
 _atom_site_occupancy
  Eu  Eu0  1  0.250000  0.582414  0.702817  1
  Eu  Eu1  1  0.250000  0.917586  0.202817  1
  Eu  Eu2  1  0.750000  0.417586  0.297183  1
  Eu  Eu3  1  0.750000  0.082414  0.797183  1
  Fe  Fe4  1  0.250000  0.708733  0.986688  1
  Fe  Fe5  1  0.250000  0.791267  0.486688  1
  Fe  Fe6  1  0.750000  0.291267  0.013312  1
  Fe  Fe7  1  0.750000  0.208733  0.513312  1
  Co  Co8  1  0.250000  0.405468  0.489674  1
  Co  Co9  1  0.250000  0.094532  0.989674  1
  Co  Co10  1  0.750000  0.594532  0.510326  1
  Co  Co11  1  0.750000  0.905468  0.010326  1
  Co  Co12  1  0.250000  0.220215  0.174986  1
  Co  Co13  1  0.250000  0.279785  0.674986  1
  Co  Co14  1  0.750000  0.779785  0.825014  1
  Co  Co15  1  0.750000  0.720215  0.325014  1
  Co  Co16  1  0.250000  0.880922  0.696989  1
  Co  Co17  1  0.250000  0.619078  0.196989  1
  Co  Co18  1  0.750000  0.119078  0.303011  1
  Co  Co19  1  0.750000  0.380922  0.803011  1
  Co  Co20  1  0.250000  0.466444  0.934271  1
  Co  Co21  1  0.250000  0.033556  0.434271  1
  Co  Co22  1  0.750000  0.533556  0.065729  1
  Co  Co23  1  0.750000  0.966444  0.565729  1
  P  P24  1  0.250000  0.419291  0.112132  1
  P  P25  1  0.250000  0.080709  0.612132  1
  P  P26  1  0.750000  0.580709  0.887868  1
  P  P27  1  0.750000  0.919291  0.387868  1
  P  P28  1  0.250000  0.272433  0.868025  1
  P  P29  1  0.250000  0.227567  0.368025  1
  P  P30  1  0.750000  0.727567  0.131975  1
  P  P31  1  0.750000  0.772433  0.631975  1
  P  P32  1  0.250000  0.604666  0.392991  1
  P  P33  1  0.250000  0.895334  0.892991  1
  P  P34  1  0.750000  0.395334  0.607009  1
  P  P35  1  0.750000  0.104666  0.107009  1
