# generated using pymatgen
data_Tm12AlFe4Pb
_symmetry_space_group_name_H-M   'P 1'
_cell_length_a   8.28014900
_cell_length_b   8.28014850
_cell_length_c   8.28014869
_cell_angle_alpha   111.13055158
_cell_angle_beta   110.47725088
_cell_angle_gamma   106.83821727
_symmetry_Int_Tables_number   1
_chemical_formula_structural   Tm12AlFe4Pb
_chemical_formula_sum   'Tm12 Al1 Fe4 Pb1'
_cell_volume   436.30810400
_cell_formula_units_Z   1
loop_
 _symmetry_equiv_pos_site_id
 _symmetry_equiv_pos_as_xyz
  1  'x, y, z'
loop_
 _atom_site_type_symbol
 _atom_site_label
 _atom_site_symmetry_multiplicity
 _atom_site_fract_x
 _atom_site_fract_y
 _atom_site_fract_z
 _atom_site_occupancy
  Tm  Tm0  1  0.560730  0.271817  0.288913  1
  Tm  Tm1  1  0.185219  0.216616  0.401833  1
  Tm  Tm2  1  0.185219  0.783384  0.968604  1
  Tm  Tm3  1  0.688848  0.489688  0.800839  1
  Tm  Tm4  1  0.688848  0.888008  0.199161  1
  Tm  Tm5  1  0.982905  0.271817  0.711087  1
  Tm  Tm6  1  0.017095  0.728183  0.288913  1
  Tm  Tm7  1  0.311152  0.111992  0.800839  1
  Tm  Tm8  1  0.311152  0.510312  0.199161  1
  Tm  Tm9  1  0.814781  0.216616  0.031396  1
  Tm  Tm10  1  0.814781  0.783384  0.598167  1
  Tm  Tm11  1  0.439270  0.728183  0.711087  1
  Al  Al12  1  0.000000  0.500000  0.500000  1
  Fe  Fe13  1  0.891141  0.891141  0.000000  1
  Fe  Fe14  1  0.383257  0.500000  0.883257  1
  Fe  Fe15  1  0.616743  0.500000  0.116743  1
  Fe  Fe16  1  0.108859  0.108859  0.000000  1
  Pb  Pb17  1  0.500000  0.000000  0.500000  1
