# generated using pymatgen
data_Ca4DyY5(AgPb3)2
_symmetry_space_group_name_H-M   'P 1'
_cell_length_a   9.35587200
_cell_length_b   9.35304550
_cell_length_c   6.85194700
_cell_angle_alpha   90.00000000
_cell_angle_beta   90.00000000
_cell_angle_gamma   119.99001930
_symmetry_Int_Tables_number   1
_chemical_formula_structural   Ca4DyY5(AgPb3)2
_chemical_formula_sum   'Ca4 Dy1 Y5 Ag2 Pb6'
_cell_volume   519.30871913
_cell_formula_units_Z   1
loop_
 _symmetry_equiv_pos_site_id
 _symmetry_equiv_pos_as_xyz
  1  'x, y, z'
loop_
 _atom_site_type_symbol
 _atom_site_label
 _atom_site_symmetry_multiplicity
 _atom_site_fract_x
 _atom_site_fract_y
 _atom_site_fract_z
 _atom_site_occupancy
  Ca  Ca0  1  0.666811  0.333528  0.500054  1
  Ca  Ca1  1  0.333189  0.666718  0.500054  1
  Ca  Ca2  1  0.333189  0.666718  0.999946  1
  Ca  Ca3  1  0.666811  0.333528  0.999946  1
  Dy  Dy4  1  0.000000  0.729869  0.750000  1
  Y  Y5  1  0.729529  0.729600  0.250000  1
  Y  Y6  1  0.270471  0.000071  0.250000  1
  Y  Y7  1  0.000000  0.270108  0.250000  1
  Y  Y8  1  0.270464  0.270694  0.750000  1
  Y  Y9  1  0.729536  0.000229  0.750000  1
  Ag  Ag10  1  0.000000  0.998945  0.501064  1
  Ag  Ag11  1  0.000000  0.998945  0.998936  1
  Pb  Pb12  1  0.380045  0.380143  0.250000  1
  Pb  Pb13  1  0.619955  0.000097  0.250000  1
  Pb  Pb14  1  0.000000  0.620098  0.250000  1
  Pb  Pb15  1  0.620485  0.620267  0.750000  1
  Pb  Pb16  1  0.379515  0.999782  0.750000  1
  Pb  Pb17  1  0.000000  0.380659  0.750000  1
