# generated using pymatgen
data_Tb8TaTi11Si15Ge
_symmetry_space_group_name_H-M   'P 1'
_cell_length_a   7.07762067
_cell_length_b   7.07092405
_cell_length_c   13.01599312
_cell_angle_alpha   89.97756910
_cell_angle_beta   89.95023659
_cell_angle_gamma   90.06694330
_symmetry_Int_Tables_number   1
_chemical_formula_structural   Tb8TaTi11Si15Ge
_chemical_formula_sum   'Tb8 Ta1 Ti11 Si15 Ge1'
_cell_volume   651.38877696
_cell_formula_units_Z   1
loop_
 _symmetry_equiv_pos_site_id
 _symmetry_equiv_pos_as_xyz
  1  'x, y, z'
loop_
 _atom_site_type_symbol
 _atom_site_label
 _atom_site_symmetry_multiplicity
 _atom_site_fract_x
 _atom_site_fract_y
 _atom_site_fract_z
 _atom_site_occupancy
  Tb  Tb0  1  0.340495  0.002246  0.465921  1
  Tb  Tb1  1  0.498344  0.838914  0.717070  1
  Tb  Tb2  1  0.502213  0.159680  0.216455  1
  Tb  Tb3  1  0.839600  0.497263  0.283081  1
  Tb  Tb4  1  0.159579  0.503257  0.783962  1
  Tb  Tb5  1  0.660082  0.997198  0.966951  1
  Tb  Tb6  1  0.001355  0.341140  0.532344  1
  Tb  Tb7  1  0.997577  0.659659  0.033398  1
  Ta  Ta8  1  0.326595  0.326885  0.000131  1
  Ti  Ti9  1  0.173511  0.826793  0.250058  1
  Ti  Ti10  1  0.824109  0.173807  0.750529  1
  Ti  Ti11  1  0.672863  0.672876  0.499929  1
  Ti  Ti12  1  0.154418  0.009345  0.878013  1
  Ti  Ti13  1  0.490816  0.652021  0.125595  1
  Ti  Ti14  1  0.510541  0.348994  0.626414  1
  Ti  Ti15  1  0.652593  0.491280  0.874547  1
  Ti  Ti16  1  0.347588  0.508841  0.373512  1
  Ti  Ti17  1  0.847037  0.991539  0.376294  1
  Ti  Ti18  1  0.009598  0.154212  0.123190  1
  Ti  Ti19  1  0.989471  0.844306  0.622945  1
  Si  Si20  1  0.370530  0.701959  0.935072  1
  Si  Si21  1  0.629155  0.297903  0.435106  1
  Si  Si22  1  0.701776  0.370689  0.065129  1
  Si  Si23  1  0.297980  0.629248  0.564838  1
  Si  Si24  1  0.797712  0.870860  0.185248  1
  Si  Si25  1  0.129152  0.201910  0.314959  1
  Si  Si26  1  0.870895  0.798144  0.814857  1
  Si  Si27  1  0.291048  0.953241  0.065305  1
  Si  Si28  1  0.547006  0.790753  0.314821  1
  Si  Si29  1  0.456729  0.208875  0.815617  1
  Si  Si30  1  0.791324  0.546752  0.685099  1
  Si  Si31  1  0.208541  0.453908  0.185951  1
  Si  Si32  1  0.709349  0.046559  0.564893  1
  Si  Si33  1  0.953423  0.290943  0.934951  1
  Si  Si34  1  0.046666  0.709598  0.434964  1
  Ge  Ge35  1  0.200328  0.128398  0.682850  1
