# generated using pymatgen
data_Cs15K(HfSe4)4
_symmetry_space_group_name_H-M   'P 1'
_cell_length_a   9.22809056
_cell_length_b   10.92667070
_cell_length_c   16.24316259
_cell_angle_alpha   89.46372448
_cell_angle_beta   89.65844965
_cell_angle_gamma   90.32130356
_symmetry_Int_Tables_number   1
_chemical_formula_structural   Cs15K(HfSe4)4
_chemical_formula_sum   'Cs15 K1 Hf4 Se16'
_cell_volume   1637.70844297
_cell_formula_units_Z   1
loop_
 _symmetry_equiv_pos_site_id
 _symmetry_equiv_pos_as_xyz
  1  'x, y, z'
loop_
 _atom_site_type_symbol
 _atom_site_label
 _atom_site_symmetry_multiplicity
 _atom_site_fract_x
 _atom_site_fract_y
 _atom_site_fract_z
 _atom_site_occupancy
  Cs  Cs0  1  0.000274  0.999793  0.999927  1
  Cs  Cs1  1  0.499636  0.000027  0.499910  1
  Cs  Cs2  1  0.999092  0.500117  0.000886  1
  Cs  Cs3  1  0.500332  0.500398  0.499522  1
  Cs  Cs4  1  0.987573  0.749954  0.427407  1
  Cs  Cs5  1  0.487151  0.250620  0.071946  1
  Cs  Cs6  1  0.013395  0.250817  0.571488  1
  Cs  Cs7  1  0.512005  0.749781  0.928644  1
  Cs  Cs8  1  0.843210  0.056386  0.278073  1
  Cs  Cs9  1  0.342617  0.942350  0.221811  1
  Cs  Cs10  1  0.156641  0.556609  0.721692  1
  Cs  Cs11  1  0.656917  0.442963  0.778514  1
  Cs  Cs12  1  0.157099  0.943660  0.721770  1
  Cs  Cs13  1  0.657019  0.056389  0.778040  1
  Cs  Cs14  1  0.844008  0.443704  0.278211  1
  K  K15  1  0.350072  0.552051  0.226193  1
  Hf  Hf16  1  0.754833  0.749902  0.667699  1
  Hf  Hf17  1  0.246792  0.252456  0.330901  1
  Hf  Hf18  1  0.743463  0.748024  0.168517  1
  Hf  Hf19  1  0.254635  0.250021  0.832225  1
  Se  Se20  1  0.980512  0.249686  0.824820  1
  Se  Se21  1  0.520541  0.251232  0.323560  1
  Se  Se22  1  0.480733  0.749996  0.675492  1
  Se  Se23  1  0.018959  0.745211  0.175901  1
  Se  Se24  1  0.649978  0.560460  0.096347  1
  Se  Se25  1  0.164506  0.443891  0.402312  1
  Se  Se26  1  0.340150  0.060785  0.906656  1
  Se  Se27  1  0.840777  0.939809  0.592901  1
  Se  Se28  1  0.339367  0.438792  0.906048  1
  Se  Se29  1  0.840194  0.561480  0.593626  1
  Se  Se30  1  0.661372  0.938232  0.093848  1
  Se  Se31  1  0.159240  0.062890  0.406350  1
  Se  Se32  1  0.633789  0.747301  0.312661  1
  Se  Se33  1  0.141449  0.254161  0.186628  1
  Se  Se34  1  0.361221  0.250579  0.687197  1
  Se  Se35  1  0.860448  0.749475  0.812277  1
