# generated using pymatgen
data_Li8Dy7HoSn5Bi3
_symmetry_space_group_name_H-M   'P 1'
_cell_length_a   9.48409309
_cell_length_b   9.48267574
_cell_length_c   7.22832405
_cell_angle_alpha   90.00466595
_cell_angle_beta   89.99730728
_cell_angle_gamma   120.00103932
_symmetry_Int_Tables_number   1
_chemical_formula_structural   Li8Dy7HoSn5Bi3
_chemical_formula_sum   'Li8 Dy7 Ho1 Sn5 Bi3'
_cell_volume   562.97667840
_cell_formula_units_Z   1
loop_
 _symmetry_equiv_pos_site_id
 _symmetry_equiv_pos_as_xyz
  1  'x, y, z'
loop_
 _atom_site_type_symbol
 _atom_site_label
 _atom_site_symmetry_multiplicity
 _atom_site_fract_x
 _atom_site_fract_y
 _atom_site_fract_z
 _atom_site_occupancy
  Li  Li0  1  0.167076  0.334032  0.279278  1
  Li  Li1  1  0.167117  0.832929  0.279659  1
  Li  Li2  1  0.665893  0.832914  0.279402  1
  Li  Li3  1  0.831671  0.663301  0.787119  1
  Li  Li4  1  0.831644  0.168355  0.787765  1
  Li  Li5  1  0.336767  0.168449  0.787324  1
  Li  Li6  1  0.333324  0.666591  0.672910  1
  Li  Li7  1  0.666451  0.333400  0.179922  1
  Dy  Dy8  1  0.514316  0.028305  0.489024  1
  Dy  Dy9  1  0.513971  0.485960  0.488788  1
  Dy  Dy10  1  0.971780  0.485724  0.488932  1
  Dy  Dy11  1  0.491331  0.982648  0.999756  1
  Dy  Dy12  1  0.491197  0.508807  0.999685  1
  Dy  Dy13  1  0.017380  0.508688  0.999759  1
  Dy  Dy14  1  0.999950  0.999977  0.492970  1
  Ho  Ho15  1  0.000038  0.999956  0.008684  1
  Sn  Sn16  1  0.833490  0.666869  0.233116  1
  Sn  Sn17  1  0.833497  0.166515  0.233073  1
  Sn  Sn18  1  0.333145  0.166501  0.233100  1
  Sn  Sn19  1  0.333284  0.666651  0.258757  1
  Sn  Sn20  1  0.666728  0.333432  0.760263  1
  Bi  Bi21  1  0.166507  0.333242  0.734220  1
  Bi  Bi22  1  0.166791  0.833321  0.734257  1
  Bi  Bi23  1  0.666654  0.833433  0.734207  1
