# generated using pymatgen
data_NdAgRu2O7
_symmetry_space_group_name_H-M   'P 1'
_cell_length_a   7.28098132
_cell_length_b   7.21392150
_cell_length_c   7.28098132
_cell_angle_alpha   60.30420585
_cell_angle_beta   61.52466521
_cell_angle_gamma   60.30420401
_symmetry_Int_Tables_number   1
_chemical_formula_structural   NdAgRu2O7
_chemical_formula_sum   'Nd2 Ag2 Ru4 O14'
_cell_volume   274.67572956
_cell_formula_units_Z   2
loop_
 _symmetry_equiv_pos_site_id
 _symmetry_equiv_pos_as_xyz
  1  'x, y, z'
loop_
 _atom_site_type_symbol
 _atom_site_label
 _atom_site_symmetry_multiplicity
 _atom_site_fract_x
 _atom_site_fract_y
 _atom_site_fract_z
 _atom_site_occupancy
  Nd  Nd0  1  0.625000  0.125000  0.125000  1
  Nd  Nd1  1  0.125000  0.125000  0.625000  1
  Ag  Ag2  1  0.125000  0.625000  0.125000  1
  Ag  Ag3  1  0.125000  0.125000  0.125000  1
  Ru  Ru4  1  0.125000  0.625000  0.625000  1
  Ru  Ru5  1  0.625000  0.125000  0.625000  1
  Ru  Ru6  1  0.625000  0.625000  0.125000  1
  Ru  Ru7  1  0.625000  0.625000  0.625000  1
  O  O8  1  0.690250  0.699293  0.307443  1
  O  O9  1  0.307443  0.303013  0.690250  1
  O  O10  1  0.707297  0.292703  0.707297  1
  O  O11  1  0.313030  0.686970  0.313030  1
  O  O12  1  0.307443  0.699293  0.690250  1
  O  O13  1  0.690250  0.303013  0.307443  1
  O  O14  1  0.559750  0.550707  0.942557  1
  O  O15  1  0.942557  0.946987  0.559750  1
  O  O16  1  0.542703  0.957297  0.542703  1
  O  O17  1  0.936970  0.563030  0.936970  1
  O  O18  1  0.942557  0.550707  0.559750  1
  O  O19  1  0.559750  0.946987  0.942557  1
  O  O20  1  0.236773  0.263227  0.236773  1
  O  O21  1  0.013227  0.986773  0.013227  1
