# generated using pymatgen
data_KSb2PdPt
_symmetry_space_group_name_H-M   'P 1'
_cell_length_a   4.81430800
_cell_length_b   4.81430800
_cell_length_c   10.55642500
_cell_angle_alpha   90.00000000
_cell_angle_beta   90.00000000
_cell_angle_gamma   90.00000000
_symmetry_Int_Tables_number   1
_chemical_formula_structural   KSb2PdPt
_chemical_formula_sum   'K2 Sb4 Pd2 Pt2'
_cell_volume   244.67218986
_cell_formula_units_Z   2
loop_
 _symmetry_equiv_pos_site_id
 _symmetry_equiv_pos_as_xyz
  1  'x, y, z'
loop_
 _atom_site_type_symbol
 _atom_site_label
 _atom_site_symmetry_multiplicity
 _atom_site_fract_x
 _atom_site_fract_y
 _atom_site_fract_z
 _atom_site_occupancy
  K  K0  1  0.000000  0.500000  0.244799  1
  K  K1  1  0.500000  0.000000  0.755201  1
  Sb  Sb2  1  0.000000  0.000000  0.500000  1
  Sb  Sb3  1  0.500000  0.500000  0.500000  1
  Sb  Sb4  1  0.000000  0.500000  0.878729  1
  Sb  Sb5  1  0.500000  0.000000  0.121271  1
  Pd  Pd6  1  0.000000  0.000000  0.000000  1
  Pd  Pd7  1  0.500000  0.500000  0.000000  1
  Pt  Pt8  1  0.000000  0.500000  0.619350  1
  Pt  Pt9  1  0.500000  0.000000  0.380650  1
