# generated using pymatgen
data_In12Co2IrRh
_symmetry_space_group_name_H-M   'P 1'
_cell_length_a   6.98919480
_cell_length_b   7.00053760
_cell_length_c   7.25790300
_cell_angle_alpha   90.00000000
_cell_angle_beta   90.00000000
_cell_angle_gamma   90.05217607
_symmetry_Int_Tables_number   1
_chemical_formula_structural   In12Co2IrRh
_chemical_formula_sum   'In12 Co2 Ir1 Rh1'
_cell_volume   355.11540857
_cell_formula_units_Z   1
loop_
 _symmetry_equiv_pos_site_id
 _symmetry_equiv_pos_as_xyz
  1  'x, y, z'
loop_
 _atom_site_type_symbol
 _atom_site_label
 _atom_site_symmetry_multiplicity
 _atom_site_fract_x
 _atom_site_fract_y
 _atom_site_fract_z
 _atom_site_occupancy
  In  In0  1  0.992798  0.505815  0.000000  1
  In  In1  1  0.996298  0.495970  0.500000  1
  In  In2  1  0.506626  0.002621  0.500000  1
  In  In3  1  0.504928  0.993389  0.000000  1
  In  In4  1  0.146091  0.153309  0.259627  1
  In  In5  1  0.352760  0.655438  0.758167  1
  In  In6  1  0.658798  0.347203  0.754370  1
  In  In7  1  0.658798  0.347203  0.245630  1
  In  In8  1  0.352760  0.655438  0.241833  1
  In  In9  1  0.841310  0.846300  0.255708  1
  In  In10  1  0.146091  0.153309  0.740373  1
  In  In11  1  0.841310  0.846300  0.744292  1
  Co  Co12  1  0.846138  0.154809  0.500000  1
  Co  Co13  1  0.653672  0.652559  0.000000  1
  Ir  Ir14  1  0.347615  0.345047  0.000000  1
  Rh  Rh15  1  0.154010  0.845291  0.500000  1
