# generated using pymatgen
data_Na2GaH11Se
_symmetry_space_group_name_H-M   'P 1'
_cell_length_a   5.40138987
_cell_length_b   7.36930452
_cell_length_c   8.32081087
_cell_angle_alpha   71.20803032
_cell_angle_beta   78.97925116
_cell_angle_gamma   47.80816731
_symmetry_Int_Tables_number   1
_chemical_formula_structural   Na2GaH11Se
_chemical_formula_sum   'Na2 Ga1 H11 Se1'
_cell_volume   232.15986872
_cell_formula_units_Z   1
loop_
 _symmetry_equiv_pos_site_id
 _symmetry_equiv_pos_as_xyz
  1  'x, y, z'
loop_
 _atom_site_type_symbol
 _atom_site_label
 _atom_site_symmetry_multiplicity
 _atom_site_fract_x
 _atom_site_fract_y
 _atom_site_fract_z
 _atom_site_occupancy
  Na  Na0  1  0.301150  0.752694  0.304657  1
  Na  Na1  1  0.343184  0.147116  0.563077  1
  Ga  Ga2  1  0.967421  0.564654  0.713591  1
  H  H3  1  0.560612  0.179114  0.979735  1
  H  H4  1  0.883110  0.280823  0.232623  1
  H  H5  1  0.724002  0.792094  0.800494  1
  H  H6  1  0.963659  0.338369  0.792670  1
  H  H7  1  0.342850  0.454617  0.700797  1
  H  H8  1  0.859095  0.153052  0.628148  1
  H  H9  1  0.594279  0.096049  0.069061  1
  H  H10  1  0.374580  0.691604  0.988665  1
  H  H11  1  0.985298  0.033165  0.598582  1
  H  H12  1  0.770467  0.252782  0.236804  1
  H  H13  1  0.218014  0.714024  0.021105  1
  Se  Se14  1  0.793858  0.728412  0.406872  1
