# generated using pymatgen
data_Ho12Th8Si15Pd
_symmetry_space_group_name_H-M   'P 1'
_cell_length_a   7.52783326
_cell_length_b   7.76620397
_cell_length_c   14.76669800
_cell_angle_alpha   89.87539260
_cell_angle_beta   89.74209391
_cell_angle_gamma   90.25225960
_symmetry_Int_Tables_number   1
_chemical_formula_structural   Ho12Th8Si15Pd
_chemical_formula_sum   'Ho12 Th8 Si15 Pd1'
_cell_volume   863.28167477
_cell_formula_units_Z   1
loop_
 _symmetry_equiv_pos_site_id
 _symmetry_equiv_pos_as_xyz
  1  'x, y, z'
loop_
 _atom_site_type_symbol
 _atom_site_label
 _atom_site_symmetry_multiplicity
 _atom_site_fract_x
 _atom_site_fract_y
 _atom_site_fract_z
 _atom_site_occupancy
  Ho  Ho0  1  0.649447  0.993548  0.250627  1
  Ho  Ho1  1  0.151135  0.511340  0.249857  1
  Ho  Ho2  1  0.847005  0.491342  0.748605  1
  Ho  Ho3  1  0.349601  0.009262  0.750868  1
  Ho  Ho4  1  0.673628  0.817307  0.879888  1
  Ho  Ho5  1  0.177705  0.678704  0.622163  1
  Ho  Ho6  1  0.823441  0.327632  0.122887  1
  Ho  Ho7  1  0.320889  0.178665  0.377085  1
  Ho  Ho8  1  0.323574  0.177101  0.122989  1
  Ho  Ho9  1  0.822027  0.322554  0.376513  1
  Ho  Ho10  1  0.177521  0.676508  0.877309  1
  Ho  Ho11  1  0.678648  0.823696  0.622114  1
  Th  Th12  1  0.983678  0.819811  0.098015  1
  Th  Th13  1  0.479247  0.679754  0.402592  1
  Th  Th14  1  0.521122  0.321069  0.901067  1
  Th  Th15  1  0.019931  0.177917  0.598604  1
  Th  Th16  1  0.021614  0.177266  0.900995  1
  Th  Th17  1  0.520129  0.319634  0.598636  1
  Th  Th18  1  0.475973  0.682700  0.100027  1
  Th  Th19  1  0.978697  0.818781  0.401487  1
  Si  Si20  1  0.770751  0.629148  0.250670  1
  Si  Si21  1  0.272093  0.873875  0.251455  1
  Si  Si22  1  0.729122  0.125771  0.750183  1
  Si  Si23  1  0.226197  0.375276  0.748213  1
  Si  Si24  1  0.025570  0.105336  0.250052  1
  Si  Si25  1  0.526325  0.394365  0.249519  1
  Si  Si26  1  0.471497  0.608085  0.748348  1
  Si  Si27  1  0.971440  0.889986  0.749031  1
  Si  Si28  1  0.348538  0.971190  0.540505  1
  Si  Si29  1  0.656441  0.030673  0.041530  1
  Si  Si30  1  0.150369  0.470271  0.459978  1
  Si  Si31  1  0.160430  0.467427  0.039724  1
  Si  Si32  1  0.649869  0.029663  0.458854  1
  Si  Si33  1  0.346564  0.969381  0.960219  1
  Si  Si34  1  0.848161  0.528971  0.539294  1
  Pd  Pd35  1  0.851619  0.525992  0.960095  1
