# generated using pymatgen
data_Cs12Na8Th(SnSb4)3
_symmetry_space_group_name_H-M   'P 1'
_cell_length_a   11.94008494
_cell_length_b   11.94008372
_cell_length_c   17.76126034
_cell_angle_alpha   89.98609894
_cell_angle_beta   89.98609776
_cell_angle_gamma   142.98867320
_symmetry_Int_Tables_number   1
_chemical_formula_structural   Cs12Na8Th(SnSb4)3
_chemical_formula_sum   'Cs12 Na8 Th1 Sn3 Sb12'
_cell_volume   1524.28219632
_cell_formula_units_Z   1
loop_
 _symmetry_equiv_pos_site_id
 _symmetry_equiv_pos_as_xyz
  1  'x, y, z'
loop_
 _atom_site_type_symbol
 _atom_site_label
 _atom_site_symmetry_multiplicity
 _atom_site_fract_x
 _atom_site_fract_y
 _atom_site_fract_z
 _atom_site_occupancy
  Cs  Cs0  1  0.948235  0.605528  0.825712  1
  Cs  Cs1  1  0.565025  0.897435  0.331123  1
  Cs  Cs2  1  0.394472  0.051765  0.174288  1
  Cs  Cs3  1  0.064165  0.400005  0.170678  1
  Cs  Cs4  1  0.898263  0.564948  0.329578  1
  Cs  Cs5  1  0.435052  0.101737  0.670422  1
  Cs  Cs6  1  0.599995  0.935835  0.829322  1
  Cs  Cs7  1  0.268353  0.268830  0.326867  1
  Cs  Cs8  1  0.773072  0.778152  0.179897  1
  Cs  Cs9  1  0.221848  0.226928  0.820103  1
  Cs  Cs10  1  0.731170  0.731647  0.673133  1
  Cs  Cs11  1  0.102565  0.434975  0.668877  1
  Na  Na12  1  0.916558  0.083442  0.000000  1
  Na  Na13  1  0.581991  0.418009  0.500000  1
  Na  Na14  1  0.082114  0.917886  0.000000  1
  Na  Na15  1  0.418221  0.581779  0.500000  1
  Na  Na16  1  0.755257  0.244743  0.000000  1
  Na  Na17  1  0.745781  0.254219  0.500000  1
  Na  Na18  1  0.247591  0.752409  0.000000  1
  Na  Na19  1  0.253915  0.746085  0.500000  1
  Th  Th20  1  0.583659  0.416341  0.000000  1
  Sn  Sn21  1  0.910868  0.089132  0.500000  1
  Sn  Sn22  1  0.413701  0.586299  0.000000  1
  Sn  Sn23  1  0.089121  0.910879  0.500000  1
  Sb  Sb24  1  0.892080  0.568524  0.100287  1
  Sb  Sb25  1  0.431476  0.107920  0.899713  1
  Sb  Sb26  1  0.615880  0.935670  0.597205  1
  Sb  Sb27  1  0.935669  0.615987  0.597476  1
  Sb  Sb28  1  0.119104  0.435214  0.902989  1
  Sb  Sb29  1  0.564786  0.880896  0.097011  1
  Sb  Sb30  1  0.384013  0.064331  0.402524  1
  Sb  Sb31  1  0.204221  0.203995  0.586992  1
  Sb  Sb32  1  0.715324  0.723882  0.905280  1
  Sb  Sb33  1  0.276118  0.284676  0.094720  1
  Sb  Sb34  1  0.064330  0.384120  0.402795  1
  Sb  Sb35  1  0.796005  0.795779  0.413008  1
