# generated using pymatgen
data_V3Ni2Pt7
_symmetry_space_group_name_H-M   'P 1'
_cell_length_a   5.48405700
_cell_length_b   13.32656400
_cell_length_c   4.71755600
_cell_angle_alpha   90.00000000
_cell_angle_beta   90.00000000
_cell_angle_gamma   90.00000000
_symmetry_Int_Tables_number   1
_chemical_formula_structural   V3Ni2Pt7
_chemical_formula_sum   'V6 Ni4 Pt14'
_cell_volume   344.77614830
_cell_formula_units_Z   2
loop_
 _symmetry_equiv_pos_site_id
 _symmetry_equiv_pos_as_xyz
  1  'x, y, z'
loop_
 _atom_site_type_symbol
 _atom_site_label
 _atom_site_symmetry_multiplicity
 _atom_site_fract_x
 _atom_site_fract_y
 _atom_site_fract_z
 _atom_site_occupancy
  V  V0  1  0.000000  0.335700  0.175355  1
  V  V1  1  0.000000  0.664300  0.175355  1
  V  V2  1  0.500001  0.500000  0.504295  1
  V  V3  1  0.000000  0.000000  0.495705  1
  V  V4  1  0.500001  0.164300  0.824645  1
  V  V5  1  0.500001  0.835700  0.824645  1
  Ni  Ni6  1  0.500001  0.337854  0.181363  1
  Ni  Ni7  1  0.500001  0.662146  0.181363  1
  Ni  Ni8  1  0.000000  0.162146  0.818637  1
  Ni  Ni9  1  0.000000  0.837854  0.818637  1
  Pt  Pt10  1  0.242281  0.000000  0.988553  1
  Pt  Pt11  1  0.757721  0.000000  0.988553  1
  Pt  Pt12  1  0.246748  0.171220  0.318218  1
  Pt  Pt13  1  0.753254  0.171220  0.318218  1
  Pt  Pt14  1  0.246748  0.828779  0.318218  1
  Pt  Pt15  1  0.753254  0.828779  0.318218  1
  Pt  Pt16  1  0.000000  0.500000  0.496772  1
  Pt  Pt17  1  0.500001  0.000000  0.503228  1
  Pt  Pt18  1  0.253253  0.328780  0.681782  1
  Pt  Pt19  1  0.746747  0.328780  0.681782  1
  Pt  Pt20  1  0.253253  0.671220  0.681782  1
  Pt  Pt21  1  0.746747  0.671220  0.681782  1
  Pt  Pt22  1  0.257720  0.500000  0.011448  1
  Pt  Pt23  1  0.742280  0.500000  0.011448  1
