# generated using pymatgen
data_Sc2Mn4P7(Ir3Rh)2
_symmetry_space_group_name_H-M   'P 1'
_cell_length_a   9.39843705
_cell_length_b   9.37748542
_cell_length_c   3.80157100
_cell_angle_alpha   90.00000000
_cell_angle_beta   90.00000000
_cell_angle_gamma   120.08549856
_symmetry_Int_Tables_number   1
_chemical_formula_structural   Sc2Mn4P7(Ir3Rh)2
_chemical_formula_sum   'Sc2 Mn4 P7 Ir6 Rh2'
_cell_volume   289.90851091
_cell_formula_units_Z   1
loop_
 _symmetry_equiv_pos_site_id
 _symmetry_equiv_pos_as_xyz
  1  'x, y, z'
loop_
 _atom_site_type_symbol
 _atom_site_label
 _atom_site_symmetry_multiplicity
 _atom_site_fract_x
 _atom_site_fract_y
 _atom_site_fract_z
 _atom_site_occupancy
  Sc  Sc0  1  0.000252  0.000519  0.000000  1
  Sc  Sc1  1  0.665840  0.332200  0.500000  1
  Mn  Mn2  1  0.606320  0.779433  0.000000  1
  Mn  Mn3  1  0.176477  0.395281  0.000000  1
  Mn  Mn4  1  0.221323  0.824532  0.000000  1
  Mn  Mn5  1  0.457352  0.892967  0.500000  1
  P  P6  1  0.633475  0.555247  0.000000  1
  P  P7  1  0.922884  0.365840  0.000000  1
  P  P8  1  0.443784  0.075575  0.000000  1
  P  P9  1  0.731387  0.943335  0.500000  1
  P  P10  1  0.209611  0.267884  0.500000  1
  P  P11  1  0.057926  0.791369  0.500000  1
  P  P12  1  0.334570  0.667563  0.000000  1
  Ir  Ir13  1  0.403596  0.302229  0.000000  1
  Ir  Ir14  1  0.898540  0.595814  0.000000  1
  Ir  Ir15  1  0.695086  0.100024  0.000000  1
  Ir  Ir16  1  0.785372  0.729672  0.500000  1
  Ir  Ir17  1  0.944852  0.216538  0.500000  1
  Ir  Ir18  1  0.273494  0.056443  0.500000  1
  Rh  Rh19  1  0.433500  0.537976  0.500000  1
  Rh  Rh20  1  0.104360  0.569559  0.500000  1
