# generated using pymatgen
data_Er5Bi2Ru
_symmetry_space_group_name_H-M   'P 1'
_cell_length_a   7.90833600
_cell_length_b   8.97727600
_cell_length_c   12.43243400
_cell_angle_alpha   90.00000000
_cell_angle_beta   90.00000000
_cell_angle_gamma   90.00000000
_symmetry_Int_Tables_number   1
_chemical_formula_structural   Er5Bi2Ru
_chemical_formula_sum   'Er20 Bi8 Ru4'
_cell_volume   882.64456771
_cell_formula_units_Z   4
loop_
 _symmetry_equiv_pos_site_id
 _symmetry_equiv_pos_as_xyz
  1  'x, y, z'
loop_
 _atom_site_type_symbol
 _atom_site_label
 _atom_site_symmetry_multiplicity
 _atom_site_fract_x
 _atom_site_fract_y
 _atom_site_fract_z
 _atom_site_occupancy
  Er  Er0  1  0.661173  0.750000  0.707856  1
  Er  Er1  1  0.338827  0.250000  0.292144  1
  Er  Er2  1  0.161173  0.250000  0.792144  1
  Er  Er3  1  0.838827  0.750000  0.207856  1
  Er  Er4  1  0.128437  0.750000  0.812762  1
  Er  Er5  1  0.871563  0.250000  0.187238  1
  Er  Er6  1  0.628437  0.250000  0.687238  1
  Er  Er7  1  0.371563  0.750000  0.312762  1
  Er  Er8  1  0.554852  0.750000  0.995063  1
  Er  Er9  1  0.445148  0.250000  0.004937  1
  Er  Er10  1  0.054852  0.250000  0.504937  1
  Er  Er11  1  0.945148  0.750000  0.495063  1
  Er  Er12  1  0.827165  0.458613  0.933368  1
  Er  Er13  1  0.172835  0.541387  0.066632  1
  Er  Er14  1  0.327165  0.541387  0.566632  1
  Er  Er15  1  0.172835  0.958613  0.066632  1
  Er  Er16  1  0.672835  0.458613  0.433368  1
  Er  Er17  1  0.827165  0.041387  0.933368  1
  Er  Er18  1  0.672835  0.041387  0.433368  1
  Er  Er19  1  0.327165  0.958613  0.566632  1
  Bi  Bi20  1  0.936727  0.004833  0.672821  1
  Bi  Bi21  1  0.063273  0.995167  0.327179  1
  Bi  Bi22  1  0.436727  0.995167  0.827179  1
  Bi  Bi23  1  0.063273  0.504833  0.327179  1
  Bi  Bi24  1  0.563273  0.004833  0.172821  1
  Bi  Bi25  1  0.936727  0.495167  0.672821  1
  Bi  Bi26  1  0.563273  0.495167  0.172821  1
  Bi  Bi27  1  0.436727  0.504833  0.827179  1
  Ru  Ru28  1  0.927679  0.750000  0.991568  1
  Ru  Ru29  1  0.072321  0.250000  0.008432  1
  Ru  Ru30  1  0.427679  0.250000  0.508432  1
  Ru  Ru31  1  0.572321  0.750000  0.491568  1
