# generated using pymatgen
data_Th10Sn3Bi4Pb
_symmetry_space_group_name_H-M   'P 1'
_cell_length_a   9.79710596
_cell_length_b   9.80402203
_cell_length_c   6.60570400
_cell_angle_alpha   89.99992037
_cell_angle_beta   90.00002906
_cell_angle_gamma   120.02753350
_symmetry_Int_Tables_number   1
_chemical_formula_structural   Th10Sn3Bi4Pb
_chemical_formula_sum   'Th10 Sn3 Bi4 Pb1'
_cell_volume   549.32740332
_cell_formula_units_Z   1
loop_
 _symmetry_equiv_pos_site_id
 _symmetry_equiv_pos_as_xyz
  1  'x, y, z'
loop_
 _atom_site_type_symbol
 _atom_site_label
 _atom_site_symmetry_multiplicity
 _atom_site_fract_x
 _atom_site_fract_y
 _atom_site_fract_z
 _atom_site_occupancy
  Th  Th0  1  0.000074  0.718021  0.750000  1
  Th  Th1  1  0.280860  0.280820  0.749999  1
  Th  Th2  1  0.331016  0.665929  0.497993  1
  Th  Th3  1  0.668958  0.335504  0.497955  1
  Th  Th4  1  0.722339  0.717925  0.250000  1
  Th  Th5  1  0.718943  0.000104  0.750000  1
  Th  Th6  1  0.001453  0.283845  0.250000  1
  Th  Th7  1  0.278997  0.997089  0.249998  1
  Th  Th8  1  0.331014  0.665936  0.002005  1
  Th  Th9  1  0.668952  0.335498  0.002043  1
  Sn  Sn10  1  0.999018  0.000060  0.999013  1
  Sn  Sn11  1  0.000514  0.620787  0.250000  1
  Sn  Sn12  1  0.999031  0.000077  0.500994  1
  Bi  Bi13  1  0.619264  0.619387  0.750002  1
  Bi  Bi14  1  0.000257  0.380652  0.750001  1
  Bi  Bi15  1  0.380267  0.000407  0.749999  1
  Bi  Bi16  1  0.620275  0.999929  0.249999  1
  Pb  Pb17  1  0.378767  0.378030  0.249998  1
