# generated using pymatgen
data_SmZr3(Al3Rh)6
_symmetry_space_group_name_H-M   'P 1'
_cell_length_a   7.49225779
_cell_length_b   7.48201099
_cell_length_c   9.32887800
_cell_angle_alpha   90.00000000
_cell_angle_beta   90.00000000
_cell_angle_gamma   119.72722333
_symmetry_Int_Tables_number   1
_chemical_formula_structural   SmZr3(Al3Rh)6
_chemical_formula_sum   'Sm1 Zr3 Al18 Rh6'
_cell_volume   454.12800525
_cell_formula_units_Z   1
loop_
 _symmetry_equiv_pos_site_id
 _symmetry_equiv_pos_as_xyz
  1  'x, y, z'
loop_
 _atom_site_type_symbol
 _atom_site_label
 _atom_site_symmetry_multiplicity
 _atom_site_fract_x
 _atom_site_fract_y
 _atom_site_fract_z
 _atom_site_occupancy
  Sm  Sm0  1  0.329369  0.006772  0.750000  1
  Zr  Zr1  1  0.993651  0.671582  0.250000  1
  Zr  Zr2  1  0.006113  0.329446  0.750000  1
  Zr  Zr3  1  0.671607  0.994052  0.250000  1
  Al  Al4  1  0.120750  0.122619  0.250000  1
  Al  Al5  1  0.870745  0.875782  0.750000  1
  Al  Al6  1  0.996323  0.334630  0.077293  1
  Al  Al7  1  0.999395  0.661440  0.927992  1
  Al  Al8  1  0.999395  0.661440  0.572008  1
  Al  Al9  1  0.335098  0.997278  0.417727  1
  Al  Al10  1  0.996323  0.334630  0.422707  1
  Al  Al11  1  0.669146  0.002722  0.572128  1
  Al  Al12  1  0.669146  0.002722  0.927872  1
  Al  Al13  1  0.335098  0.997278  0.082273  1
  Al  Al14  1  0.331029  0.334343  0.551335  1
  Al  Al15  1  0.668952  0.668904  0.440377  1
  Al  Al16  1  0.668952  0.668904  0.059623  1
  Al  Al17  1  0.331029  0.334343  0.948665  1
  Al  Al18  1  0.338082  0.554194  0.250000  1
  Al  Al19  1  0.668116  0.453040  0.750000  1
  Al  Al20  1  0.556153  0.340008  0.250000  1
  Al  Al21  1  0.445425  0.654697  0.750000  1
  Rh  Rh22  1  0.673658  0.328089  0.001816  1
  Rh  Rh23  1  0.327935  0.672991  0.002444  1
  Rh  Rh24  1  0.327935  0.672991  0.497556  1
  Rh  Rh25  1  0.673658  0.328089  0.498184  1
  Rh  Rh26  1  0.998458  0.998507  0.002145  1
  Rh  Rh27  1  0.998458  0.998507  0.497855  1
