# generated using pymatgen
data_CsLu3(CuTe3)2
_symmetry_space_group_name_H-M   'P 1'
_cell_length_a   9.45065010
_cell_length_b   9.45064986
_cell_length_c   10.57682134
_cell_angle_alpha   66.67553097
_cell_angle_beta   66.67554600
_cell_angle_gamma   26.47924719
_symmetry_Int_Tables_number   1
_chemical_formula_structural   CsLu3(CuTe3)2
_chemical_formula_sum   'Cs1 Lu3 Cu2 Te6'
_cell_volume   384.78482611
_cell_formula_units_Z   1
loop_
 _symmetry_equiv_pos_site_id
 _symmetry_equiv_pos_as_xyz
  1  'x, y, z'
loop_
 _atom_site_type_symbol
 _atom_site_label
 _atom_site_symmetry_multiplicity
 _atom_site_fract_x
 _atom_site_fract_y
 _atom_site_fract_z
 _atom_site_occupancy
  Cs  Cs0  1  0.000000  0.000000  0.000000  1
  Lu  Lu1  1  0.287654  0.287654  0.636459  1
  Lu  Lu2  1  0.712346  0.712346  0.363541  1
  Lu  Lu3  1  0.000000  0.000000  0.500000  1
  Cu  Cu4  1  0.274517  0.274517  0.916794  1
  Cu  Cu5  1  0.725483  0.725483  0.083206  1
  Te  Te6  1  0.574043  0.574043  0.282680  1
  Te  Te7  1  0.139589  0.139589  0.579783  1
  Te  Te8  1  0.701756  0.701756  0.854920  1
  Te  Te9  1  0.860411  0.860411  0.420217  1
  Te  Te10  1  0.425957  0.425957  0.717320  1
  Te  Te11  1  0.298244  0.298244  0.145080  1
