# generated using pymatgen
data_Ta12Al8Co3PtN4
_symmetry_space_group_name_H-M   'P 1'
_cell_length_a   8.19931828
_cell_length_b   8.20898311
_cell_length_c   8.19931900
_cell_angle_alpha   60.03893983
_cell_angle_beta   60.00000111
_cell_angle_gamma   60.03894179
_symmetry_Int_Tables_number   1
_chemical_formula_structural   Ta12Al8Co3PtN4
_chemical_formula_sum   'Ta12 Al8 Co3 Pt1 N4'
_cell_volume   390.46783706
_cell_formula_units_Z   1
loop_
 _symmetry_equiv_pos_site_id
 _symmetry_equiv_pos_as_xyz
  1  'x, y, z'
loop_
 _atom_site_type_symbol
 _atom_site_label
 _atom_site_symmetry_multiplicity
 _atom_site_fract_x
 _atom_site_fract_y
 _atom_site_fract_z
 _atom_site_occupancy
  Ta  Ta0  1  0.560646  0.939970  0.560646  1
  Ta  Ta1  1  0.314038  0.688437  0.683487  1
  Ta  Ta2  1  0.689354  0.310030  0.311262  1
  Ta  Ta3  1  0.314038  0.688437  0.314038  1
  Ta  Ta4  1  0.683487  0.688437  0.314038  1
  Ta  Ta5  1  0.311262  0.310030  0.689354  1
  Ta  Ta6  1  0.566513  0.561563  0.935962  1
  Ta  Ta7  1  0.935962  0.561563  0.566513  1
  Ta  Ta8  1  0.560646  0.939970  0.938738  1
  Ta  Ta9  1  0.938738  0.939970  0.560646  1
  Ta  Ta10  1  0.689354  0.310030  0.689354  1
  Ta  Ta11  1  0.935962  0.561563  0.935962  1
  Al  Al12  1  0.912916  0.925894  0.912916  1
  Al  Al13  1  0.001725  0.324106  0.337084  1
  Al  Al14  1  0.331910  0.004267  0.331910  1
  Al  Al15  1  0.337084  0.324106  0.001725  1
  Al  Al16  1  0.918090  0.245733  0.918090  1
  Al  Al17  1  0.912916  0.925894  0.248275  1
  Al  Al18  1  0.248275  0.925894  0.912916  1
  Al  Al19  1  0.337084  0.324106  0.337084  1
  Co  Co20  1  0.125000  0.125000  0.125000  1
  Co  Co21  1  0.625000  0.125000  0.125000  1
  Co  Co22  1  0.125000  0.125000  0.625000  1
  Pt  Pt23  1  0.125000  0.625000  0.125000  1
  N  N24  1  0.625000  0.625000  0.625000  1
  N  N25  1  0.125000  0.625000  0.625000  1
  N  N26  1  0.625000  0.125000  0.625000  1
  N  N27  1  0.625000  0.625000  0.125000  1
