# generated using pymatgen
data_PrLu3(Bi2O7)2
_symmetry_space_group_name_H-M   'P 1'
_cell_length_a   6.62500864
_cell_length_b   6.70547928
_cell_length_c   7.78743200
_cell_angle_alpha   106.65653338
_cell_angle_beta   89.50761411
_cell_angle_gamma   98.55282549
_symmetry_Int_Tables_number   1
_chemical_formula_structural   PrLu3(Bi2O7)2
_chemical_formula_sum   'Pr1 Lu3 Bi4 O14'
_cell_volume   327.53451931
_cell_formula_units_Z   1
loop_
 _symmetry_equiv_pos_site_id
 _symmetry_equiv_pos_as_xyz
  1  'x, y, z'
loop_
 _atom_site_type_symbol
 _atom_site_label
 _atom_site_symmetry_multiplicity
 _atom_site_fract_x
 _atom_site_fract_y
 _atom_site_fract_z
 _atom_site_occupancy
  Pr  Pr0  1  0.737784  0.460469  0.112180  1
  Lu  Lu1  1  0.460450  0.002961  0.250642  1
  Lu  Lu2  1  0.535581  0.991300  0.747548  1
  Lu  Lu3  1  0.261467  0.537281  0.885856  1
  Bi  Bi4  1  0.002780  0.006806  0.503643  1
  Bi  Bi5  1  0.006480  0.999351  0.997303  1
  Bi  Bi6  1  0.717862  0.460658  0.615350  1
  Bi  Bi7  1  0.268631  0.537917  0.388452  1
  O  O8  1  0.435620  0.658057  0.161949  1
  O  O9  1  0.537480  0.337334  0.826505  1
  O  O10  1  0.311004  0.926946  0.950030  1
  O  O11  1  0.699641  0.066180  0.054722  1
  O  O12  1  0.306437  0.925042  0.514416  1
  O  O13  1  0.697083  0.075731  0.484913  1
  O  O14  1  0.532931  0.352729  0.346219  1
  O  O15  1  0.453786  0.645083  0.665808  1
  O  O16  1  0.948782  0.666769  0.951186  1
  O  O17  1  0.079662  0.328329  0.030374  1
  O  O18  1  0.093788  0.333054  0.633240  1
  O  O19  1  0.914921  0.679624  0.377619  1
  O  O20  1  0.867440  0.930931  0.733521  1
  O  O21  1  0.130389  0.077448  0.268524  1
