# generated using pymatgen
data_Pr8Sm2Si5Pd
_symmetry_space_group_name_H-M   'P 1'
_cell_length_a   7.71068124
_cell_length_b   7.71068170
_cell_length_c   9.10206288
_cell_angle_alpha   115.06003571
_cell_angle_beta   115.06004771
_cell_angle_gamma   90.00000142
_symmetry_Int_Tables_number   1
_chemical_formula_structural   Pr8Sm2Si5Pd
_chemical_formula_sum   'Pr8 Sm2 Si5 Pd1'
_cell_volume   433.32681919
_cell_formula_units_Z   1
loop_
 _symmetry_equiv_pos_site_id
 _symmetry_equiv_pos_as_xyz
  1  'x, y, z'
loop_
 _atom_site_type_symbol
 _atom_site_label
 _atom_site_symmetry_multiplicity
 _atom_site_fract_x
 _atom_site_fract_y
 _atom_site_fract_z
 _atom_site_occupancy
  Pr  Pr0  1  0.957166  0.812596  0.286117  1
  Pr  Pr1  1  0.328951  0.473521  0.286117  1
  Pr  Pr2  1  0.812596  0.328951  0.286117  1
  Pr  Pr3  1  0.473521  0.957166  0.286117  1
  Pr  Pr4  1  0.026479  0.171049  0.713883  1
  Pr  Pr5  1  0.687404  0.542834  0.713883  1
  Pr  Pr6  1  0.171049  0.687404  0.713883  1
  Pr  Pr7  1  0.542834  0.026479  0.713883  1
  Sm  Sm8  1  0.476630  0.476630  0.953261  1
  Sm  Sm9  1  0.023370  0.023370  0.046739  1
  Si  Si10  1  0.250000  0.250000  0.500000  1
  Si  Si11  1  0.615998  0.884002  0.000000  1
  Si  Si12  1  0.384002  0.115998  0.000000  1
  Si  Si13  1  0.884002  0.384002  0.000000  1
  Si  Si14  1  0.115998  0.615998  0.000000  1
  Pd  Pd15  1  0.750000  0.750000  0.500000  1
