# generated using pymatgen
data_Sr2Pb4Br3ClO4
_symmetry_space_group_name_H-M   'P 1'
_cell_length_a   6.09302700
_cell_length_b   10.59858220
_cell_length_c   12.29174215
_cell_angle_alpha   90.35082680
_cell_angle_beta   90.00000000
_cell_angle_gamma   90.00000000
_symmetry_Int_Tables_number   1
_chemical_formula_structural   Sr2Pb4Br3ClO4
_chemical_formula_sum   'Sr4 Pb8 Br6 Cl2 O8'
_cell_volume   793.75445367
_cell_formula_units_Z   2
loop_
 _symmetry_equiv_pos_site_id
 _symmetry_equiv_pos_as_xyz
  1  'x, y, z'
loop_
 _atom_site_type_symbol
 _atom_site_label
 _atom_site_symmetry_multiplicity
 _atom_site_fract_x
 _atom_site_fract_y
 _atom_site_fract_z
 _atom_site_occupancy
  Sr  Sr0  1  0.250000  0.062090  0.082690  1
  Sr  Sr1  1  0.750000  0.937910  0.917310  1
  Sr  Sr2  1  0.750000  0.560569  0.418908  1
  Sr  Sr3  1  0.250000  0.439431  0.581092  1
  Pb  Pb4  1  0.250000  0.351351  0.293940  1
  Pb  Pb5  1  0.750000  0.648649  0.706060  1
  Pb  Pb6  1  0.750000  0.855622  0.205218  1
  Pb  Pb7  1  0.250000  0.144378  0.794782  1
  Pb  Pb8  1  0.250000  0.780838  0.560817  1
  Pb  Pb9  1  0.750000  0.219162  0.439183  1
  Pb  Pb10  1  0.750000  0.279928  0.939757  1
  Pb  Pb11  1  0.250000  0.720072  0.060243  1
  Br  Br12  1  0.750000  0.573468  0.156370  1
  Br  Br13  1  0.250000  0.426532  0.843630  1
  Br  Br14  1  0.250000  0.817895  0.821238  1
  Br  Br15  1  0.750000  0.182105  0.178762  1
  Br  Br16  1  0.750000  0.316005  0.677924  1
  Br  Br17  1  0.250000  0.683995  0.322076  1
  Cl  Cl18  1  0.250000  0.086249  0.332944  1
  Cl  Cl19  1  0.750000  0.913751  0.667056  1
  O  O20  1  0.000320  0.374975  0.424725  1
  O  O21  1  0.500320  0.625025  0.575275  1
  O  O22  1  0.999959  0.877028  0.075181  1
  O  O23  1  0.499959  0.122972  0.924819  1
  O  O24  1  0.999680  0.625025  0.575275  1
  O  O25  1  0.499680  0.374975  0.424725  1
  O  O26  1  0.000041  0.122972  0.924819  1
  O  O27  1  0.500041  0.877028  0.075181  1
