# generated using pymatgen
data_Ca4Pd3RhPb2
_symmetry_space_group_name_H-M   'P 1'
_cell_length_a   5.89416992
_cell_length_b   5.88954221
_cell_length_c   8.32268423
_cell_angle_alpha   76.96471960
_cell_angle_beta   77.67107153
_cell_angle_gamma   58.73036993
_symmetry_Int_Tables_number   1
_chemical_formula_structural   Ca4Pd3RhPb2
_chemical_formula_sum   'Ca4 Pd3 Rh1 Pb2'
_cell_volume   238.96150205
_cell_formula_units_Z   1
loop_
 _symmetry_equiv_pos_site_id
 _symmetry_equiv_pos_as_xyz
  1  'x, y, z'
loop_
 _atom_site_type_symbol
 _atom_site_label
 _atom_site_symmetry_multiplicity
 _atom_site_fract_x
 _atom_site_fract_y
 _atom_site_fract_z
 _atom_site_occupancy
  Ca  Ca0  1  0.802722  0.500048  0.346385  1
  Ca  Ca1  1  0.505487  0.194321  0.144791  1
  Ca  Ca2  1  0.196571  0.505002  0.655177  1
  Ca  Ca3  1  0.494670  0.799742  0.853542  1
  Pd  Pd4  1  0.272145  0.995935  0.499712  1
  Pd  Pd5  1  0.998098  0.280683  0.001520  1
  Pd  Pd6  1  0.723842  0.006191  0.497319  1
  Rh  Rh7  1  0.005856  0.729484  0.999631  1
  Pb  Pb8  1  0.162781  0.830362  0.249127  1
  Pb  Pb9  1  0.837825  0.158231  0.752797  1
