# generated using pymatgen
data_Pr8Sc12Ga4Si11Ag
_symmetry_space_group_name_H-M   'P 1'
_cell_length_a   7.34648390
_cell_length_b   7.51970609
_cell_length_c   14.52004140
_cell_angle_alpha   90.01279362
_cell_angle_beta   89.78523612
_cell_angle_gamma   90.37627904
_symmetry_Int_Tables_number   1
_chemical_formula_structural   Pr8Sc12Ga4Si11Ag
_chemical_formula_sum   'Pr8 Sc12 Ga4 Si11 Ag1'
_cell_volume   802.11350237
_cell_formula_units_Z   1
loop_
 _symmetry_equiv_pos_site_id
 _symmetry_equiv_pos_as_xyz
  1  'x, y, z'
loop_
 _atom_site_type_symbol
 _atom_site_label
 _atom_site_symmetry_multiplicity
 _atom_site_fract_x
 _atom_site_fract_y
 _atom_site_fract_z
 _atom_site_occupancy
  Pr  Pr0  1  0.011736  0.171833  0.398910  1
  Pr  Pr1  1  0.513334  0.326851  0.399223  1
  Pr  Pr2  1  0.489066  0.673742  0.899228  1
  Pr  Pr3  1  0.492080  0.674021  0.601146  1
  Pr  Pr4  1  0.990412  0.826486  0.597851  1
  Pr  Pr5  1  0.987800  0.832076  0.900069  1
  Pr  Pr6  1  0.511689  0.327465  0.100053  1
  Pr  Pr7  1  0.009664  0.172570  0.100451  1
  Sc  Sc8  1  0.338860  0.170384  0.627188  1
  Sc  Sc9  1  0.669848  0.824375  0.373634  1
  Sc  Sc10  1  0.665393  0.001454  0.752105  1
  Sc  Sc11  1  0.165278  0.674594  0.371238  1
  Sc  Sc12  1  0.826497  0.323918  0.873745  1
  Sc  Sc13  1  0.823724  0.328258  0.625637  1
  Sc  Sc14  1  0.836355  0.503673  0.252677  1
  Sc  Sc15  1  0.338408  0.995121  0.252236  1
  Sc  Sc16  1  0.333085  0.174090  0.872666  1
  Sc  Sc17  1  0.169864  0.673264  0.127982  1
  Sc  Sc18  1  0.669286  0.827156  0.126798  1
  Sc  Sc19  1  0.162209  0.493627  0.752812  1
  Ga  Ga20  1  0.845260  0.542848  0.039886  1
  Ga  Ga21  1  0.345046  0.957726  0.038969  1
  Ga  Ga22  1  0.153908  0.457701  0.959706  1
  Ga  Ga23  1  0.655669  0.041339  0.538792  1
  Si  Si24  1  0.287703  0.881984  0.749776  1
  Si  Si25  1  0.464521  0.624177  0.250388  1
  Si  Si26  1  0.034248  0.126581  0.747849  1
  Si  Si27  1  0.535842  0.377810  0.750652  1
  Si  Si28  1  0.966012  0.877073  0.250075  1
  Si  Si29  1  0.710378  0.119131  0.250231  1
  Si  Si30  1  0.345792  0.958388  0.460718  1
  Si  Si31  1  0.841349  0.542501  0.456617  1
  Si  Si32  1  0.790927  0.618632  0.749838  1
  Si  Si33  1  0.211262  0.381610  0.250451  1
  Si  Si34  1  0.651280  0.040144  0.960531  1
  Ag  Ag35  1  0.156217  0.457396  0.539875  1
