# generated using pymatgen
data_NaNd5YIrBr12
_symmetry_space_group_name_H-M   'P 1'
_cell_length_a   9.50930429
_cell_length_b   9.57591971
_cell_length_c   9.48523625
_cell_angle_alpha   107.31043305
_cell_angle_beta   107.04636935
_cell_angle_gamma   106.62286674
_symmetry_Int_Tables_number   1
_chemical_formula_structural   NaNd5YIrBr12
_chemical_formula_sum   'Na1 Nd5 Y1 Ir1 Br12'
_cell_volume   719.43414702
_cell_formula_units_Z   1
loop_
 _symmetry_equiv_pos_site_id
 _symmetry_equiv_pos_as_xyz
  1  'x, y, z'
loop_
 _atom_site_type_symbol
 _atom_site_label
 _atom_site_symmetry_multiplicity
 _atom_site_fract_x
 _atom_site_fract_y
 _atom_site_fract_z
 _atom_site_occupancy
  Na  Na0  1  0.500267  0.499445  0.500863  1
  Nd  Nd1  1  0.114889  0.329052  0.029849  1
  Nd  Nd2  1  0.315027  0.027880  0.109204  1
  Nd  Nd3  1  0.028701  0.108028  0.316315  1
  Nd  Nd4  1  0.969660  0.887019  0.681625  1
  Nd  Nd5  1  0.684544  0.973320  0.890194  1
  Y  Y6  1  0.887288  0.678527  0.969827  1
  Ir  Ir7  1  0.999236  0.999578  0.998587  1
  Br  Br8  1  0.209605  0.683771  0.071845  1
  Br  Br9  1  0.451952  0.368516  0.152641  1
  Br  Br10  1  0.683223  0.073982  0.219314  1
  Br  Br11  1  0.924282  0.776102  0.308406  1
  Br  Br12  1  0.153044  0.451415  0.371288  1
  Br  Br13  1  0.370058  0.152840  0.453688  1
  Br  Br14  1  0.629294  0.845515  0.545623  1
  Br  Br15  1  0.847758  0.547086  0.638020  1
  Br  Br16  1  0.072763  0.215982  0.681361  1
  Br  Br17  1  0.316531  0.924582  0.779836  1
  Br  Br18  1  0.557608  0.632160  0.853138  1
  Br  Br19  1  0.784273  0.325203  0.928378  1
