# generated using pymatgen
data_YbLu(Co3Si2)2
_symmetry_space_group_name_H-M   'P 1'
_cell_length_a   6.23411221
_cell_length_b   6.23411100
_cell_length_c   6.23411200
_cell_angle_alpha   130.33760726
_cell_angle_beta   113.87807667
_cell_angle_gamma   87.01457685
_symmetry_Int_Tables_number   1
_chemical_formula_structural   YbLu(Co3Si2)2
_chemical_formula_sum   'Yb1 Lu1 Co6 Si4'
_cell_volume   161.02997912
_cell_formula_units_Z   1
loop_
 _symmetry_equiv_pos_site_id
 _symmetry_equiv_pos_as_xyz
  1  'x, y, z'
loop_
 _atom_site_type_symbol
 _atom_site_label
 _atom_site_symmetry_multiplicity
 _atom_site_fract_x
 _atom_site_fract_y
 _atom_site_fract_z
 _atom_site_occupancy
  Yb  Yb0  1  0.250000  0.535192  0.285192  1
  Lu  Lu1  1  0.750000  0.461069  0.711069  1
  Co  Co2  1  0.998529  0.000506  0.499035  1
  Co  Co3  1  0.501471  0.000506  0.001977  1
  Co  Co4  1  0.720012  0.001480  0.720196  1
  Co  Co5  1  0.218715  0.500185  0.720196  1
  Co  Co6  1  0.281285  0.001480  0.281470  1
  Co  Co7  1  0.779988  0.500185  0.281470  1
  Si  Si8  1  0.080558  0.879840  0.799282  1
  Si  Si9  1  0.920676  0.121091  0.200415  1
  Si  Si10  1  0.579324  0.779741  0.200415  1
  Si  Si11  1  0.419442  0.218724  0.799282  1
