# generated using pymatgen
data_Yb3Eu(NiH6)2
_symmetry_space_group_name_H-M   'P 1'
_cell_length_a   6.73410200
_cell_length_b   6.73410195
_cell_length_c   5.03423600
_cell_angle_alpha   90.00037437
_cell_angle_beta   90.00038287
_cell_angle_gamma   136.16046909
_symmetry_Int_Tables_number   1
_chemical_formula_structural   Yb3Eu(NiH6)2
_chemical_formula_sum   'Yb3 Eu1 Ni2 H12'
_cell_volume   158.12521669
_cell_formula_units_Z   1
loop_
 _symmetry_equiv_pos_site_id
 _symmetry_equiv_pos_as_xyz
  1  'x, y, z'
loop_
 _atom_site_type_symbol
 _atom_site_label
 _atom_site_symmetry_multiplicity
 _atom_site_fract_x
 _atom_site_fract_y
 _atom_site_fract_z
 _atom_site_occupancy
  Yb  Yb0  1  0.644832  0.355168  0.000000  1
  Yb  Yb1  1  0.857012  0.142988  0.500000  1
  Yb  Yb2  1  0.358006  0.641994  0.000000  1
  Eu  Eu3  1  0.146681  0.853319  0.500000  1
  Ni  Ni4  1  0.498032  0.501968  0.500000  1
  Ni  Ni5  1  0.998196  0.001804  0.000000  1
  H  H6  1  0.999013  0.496187  0.752883  1
  H  H7  1  0.503813  0.000987  0.247117  1
  H  H8  1  0.999034  0.496207  0.247112  1
  H  H9  1  0.503793  0.000966  0.752888  1
  H  H10  1  0.373322  0.626678  0.500000  1
  H  H11  1  0.873913  0.126087  0.000000  1
  H  H12  1  0.623657  0.376343  0.500000  1
  H  H13  1  0.123693  0.876307  0.000000  1
  H  H14  1  0.249137  0.250636  0.749282  1
  H  H15  1  0.749364  0.750863  0.250718  1
  H  H16  1  0.248708  0.250204  0.250514  1
  H  H17  1  0.749796  0.751292  0.749486  1
