# generated using pymatgen
data_Mg2GaPd5
_symmetry_space_group_name_H-M   'P 1'
_cell_length_a   4.16657700
_cell_length_b   5.50165900
_cell_length_c   10.78360300
_cell_angle_alpha   90.00000000
_cell_angle_beta   90.00000000
_cell_angle_gamma   90.00000000
_symmetry_Int_Tables_number   1
_chemical_formula_structural   Mg2GaPd5
_chemical_formula_sum   'Mg4 Ga2 Pd10'
_cell_volume   247.19345735
_cell_formula_units_Z   2
loop_
 _symmetry_equiv_pos_site_id
 _symmetry_equiv_pos_as_xyz
  1  'x, y, z'
loop_
 _atom_site_type_symbol
 _atom_site_label
 _atom_site_symmetry_multiplicity
 _atom_site_fract_x
 _atom_site_fract_y
 _atom_site_fract_z
 _atom_site_occupancy
  Mg  Mg0  1  0.000000  0.831798  0.641808  1
  Mg  Mg1  1  0.000000  0.331798  0.858192  1
  Mg  Mg2  1  0.000000  0.168202  0.358192  1
  Mg  Mg3  1  0.000000  0.668202  0.141808  1
  Ga  Ga4  1  0.500000  0.500000  0.500000  1
  Ga  Ga5  1  0.500000  0.000000  0.000000  1
  Pd  Pd6  1  0.000000  0.817689  0.894657  1
  Pd  Pd7  1  0.000000  0.682311  0.394657  1
  Pd  Pd8  1  0.000000  0.317689  0.605343  1
  Pd  Pd9  1  0.500000  0.919070  0.238870  1
  Pd  Pd10  1  0.500000  0.419070  0.261130  1
  Pd  Pd11  1  0.500000  0.580930  0.738870  1
  Pd  Pd12  1  0.500000  0.080930  0.761130  1
  Pd  Pd13  1  0.500000  0.500000  0.000000  1
  Pd  Pd14  1  0.500000  0.000000  0.500000  1
  Pd  Pd15  1  0.000000  0.182311  0.105343  1
