# generated using pymatgen
data_Pr2PaTc2
_symmetry_space_group_name_H-M   'P 1'
_cell_length_a   6.19758274
_cell_length_b   6.19758211
_cell_length_c   6.19758374
_cell_angle_alpha   139.34347611
_cell_angle_beta   124.66910081
_cell_angle_gamma   70.88501921
_symmetry_Int_Tables_number   1
_chemical_formula_structural   Pr2PaTc2
_chemical_formula_sum   'Pr2 Pa1 Tc2'
_cell_volume   125.12882823
_cell_formula_units_Z   1
loop_
 _symmetry_equiv_pos_site_id
 _symmetry_equiv_pos_as_xyz
  1  'x, y, z'
loop_
 _atom_site_type_symbol
 _atom_site_label
 _atom_site_symmetry_multiplicity
 _atom_site_fract_x
 _atom_site_fract_y
 _atom_site_fract_z
 _atom_site_occupancy
  Pr  Pr0  1  0.696691  0.196691  0.500000  1
  Pr  Pr1  1  0.303309  0.803309  0.500000  1
  Pa  Pa2  1  0.000000  0.000000  0.000000  1
  Tc  Tc3  1  0.248159  0.500000  0.748159  1
  Tc  Tc4  1  0.751841  0.500000  0.251841  1
