# generated using pymatgen
data_Ho5Sc3Ti11Si16Ir
_symmetry_space_group_name_H-M   'P 1'
_cell_length_a   6.94933433
_cell_length_b   6.96315851
_cell_length_c   12.74011048
_cell_angle_alpha   90.09418806
_cell_angle_beta   89.95013872
_cell_angle_gamma   89.77173183
_symmetry_Int_Tables_number   1
_chemical_formula_structural   Ho5Sc3Ti11Si16Ir
_chemical_formula_sum   'Ho5 Sc3 Ti11 Si16 Ir1'
_cell_volume   616.47927602
_cell_formula_units_Z   1
loop_
 _symmetry_equiv_pos_site_id
 _symmetry_equiv_pos_as_xyz
  1  'x, y, z'
loop_
 _atom_site_type_symbol
 _atom_site_label
 _atom_site_symmetry_multiplicity
 _atom_site_fract_x
 _atom_site_fract_y
 _atom_site_fract_z
 _atom_site_occupancy
  Ho  Ho0  1  0.840624  0.494862  0.282856  1
  Ho  Ho1  1  0.159599  0.501808  0.783949  1
  Ho  Ho2  1  0.657871  0.997111  0.969051  1
  Ho  Ho3  1  0.006324  0.340214  0.531771  1
  Ho  Ho4  1  0.997306  0.656417  0.032268  1
  Sc  Sc5  1  0.343908  0.000140  0.466999  1
  Sc  Sc6  1  0.499423  0.844302  0.716988  1
  Sc  Sc7  1  0.498716  0.154643  0.216011  1
  Ti  Ti8  1  0.177161  0.829020  0.248308  1
  Ti  Ti9  1  0.826139  0.173829  0.750911  1
  Ti  Ti10  1  0.671923  0.676483  0.499705  1
  Ti  Ti11  1  0.149403  0.998705  0.873041  1
  Ti  Ti12  1  0.493146  0.657735  0.125457  1
  Ti  Ti13  1  0.503377  0.351435  0.626944  1
  Ti  Ti14  1  0.654169  0.492285  0.874941  1
  Ti  Ti15  1  0.353074  0.509274  0.372281  1
  Ti  Ti16  1  0.850163  0.997580  0.374831  1
  Ti  Ti17  1  0.001299  0.149422  0.127006  1
  Ti  Ti18  1  0.993210  0.851683  0.623990  1
  Si  Si19  1  0.208511  0.129190  0.682208  1
  Si  Si20  1  0.372438  0.707075  0.931057  1
  Si  Si21  1  0.626658  0.289920  0.432599  1
  Si  Si22  1  0.695800  0.367568  0.069847  1
  Si  Si23  1  0.299282  0.641213  0.567871  1
  Si  Si24  1  0.792348  0.869940  0.184350  1
  Si  Si25  1  0.143347  0.199417  0.317319  1
  Si  Si26  1  0.861688  0.796007  0.814670  1
  Si  Si27  1  0.288457  0.957089  0.064663  1
  Si  Si28  1  0.544559  0.800787  0.316529  1
  Si  Si29  1  0.451110  0.203424  0.816100  1
  Si  Si30  1  0.789692  0.549619  0.683747  1
  Si  Si31  1  0.213399  0.444908  0.183018  1
  Si  Si32  1  0.700007  0.045826  0.566060  1
  Si  Si33  1  0.952134  0.284997  0.936070  1
  Si  Si34  1  0.051887  0.711860  0.434590  1
  Ir  Ir35  1  0.331849  0.324209  0.001996  1
