# generated using pymatgen
data_Gd2Mg(ZnPt)3
_symmetry_space_group_name_H-M   'P 1'
_cell_length_a   7.26363700
_cell_length_b   7.26363661
_cell_length_c   3.91696000
_cell_angle_alpha   90.00000000
_cell_angle_beta   90.00000000
_cell_angle_gamma   119.99999724
_symmetry_Int_Tables_number   1
_chemical_formula_structural   Gd2Mg(ZnPt)3
_chemical_formula_sum   'Gd2 Mg1 Zn3 Pt3'
_cell_volume   178.97320740
_cell_formula_units_Z   1
loop_
 _symmetry_equiv_pos_site_id
 _symmetry_equiv_pos_as_xyz
  1  'x, y, z'
loop_
 _atom_site_type_symbol
 _atom_site_label
 _atom_site_symmetry_multiplicity
 _atom_site_fract_x
 _atom_site_fract_y
 _atom_site_fract_z
 _atom_site_occupancy
  Gd  Gd0  1  0.594507  0.002093  0.000000  1
  Gd  Gd1  1  0.405492  0.407586  0.000000  1
  Mg  Mg2  1  0.000000  0.597225  0.000000  1
  Zn  Zn3  1  0.245160  0.992652  0.499999  1
  Zn  Zn4  1  0.000000  0.255319  0.499999  1
  Zn  Zn5  1  0.754840  0.747492  0.499999  1
  Pt  Pt6  1  0.000000  0.989975  0.000000  1
  Pt  Pt7  1  0.677446  0.342551  0.499999  1
  Pt  Pt8  1  0.322555  0.665106  0.499999  1
