# generated using pymatgen
data_Zr8Be5Si11W12
_symmetry_space_group_name_H-M   'P 1'
_cell_length_a   6.49612731
_cell_length_b   6.63213951
_cell_length_c   12.63701200
_cell_angle_alpha   90.00926113
_cell_angle_beta   89.75516515
_cell_angle_gamma   89.97968602
_symmetry_Int_Tables_number   1
_chemical_formula_structural   Zr8Be5Si11W12
_chemical_formula_sum   'Zr8 Be5 Si11 W12'
_cell_volume   544.43818826
_cell_formula_units_Z   1
loop_
 _symmetry_equiv_pos_site_id
 _symmetry_equiv_pos_as_xyz
  1  'x, y, z'
loop_
 _atom_site_type_symbol
 _atom_site_label
 _atom_site_symmetry_multiplicity
 _atom_site_fract_x
 _atom_site_fract_y
 _atom_site_fract_z
 _atom_site_occupancy
  Zr  Zr0  1  0.499428  0.669821  0.593535  1
  Zr  Zr1  1  0.997468  0.832009  0.904385  1
  Zr  Zr2  1  0.502892  0.331569  0.096306  1
  Zr  Zr3  1  0.994774  0.161119  0.406908  1
  Zr  Zr4  1  0.502235  0.330051  0.405351  1
  Zr  Zr5  1  0.001369  0.167982  0.096266  1
  Zr  Zr6  1  0.497924  0.667603  0.904094  1
  Zr  Zr7  1  0.997650  0.834615  0.593600  1
  Be  Be8  1  0.659962  0.963694  0.461060  1
  Be  Be9  1  0.457830  0.380852  0.749167  1
  Be  Be10  1  0.957953  0.119418  0.750023  1
  Be  Be11  1  0.542689  0.617763  0.250203  1
  Be  Be12  1  0.043565  0.880243  0.250653  1
  Si  Si13  1  0.169155  0.539615  0.039377  1
  Si  Si14  1  0.331143  0.040176  0.960750  1
  Si  Si15  1  0.831187  0.460995  0.538400  1
  Si  Si16  1  0.343275  0.037223  0.537529  1
  Si  Si17  1  0.831677  0.459917  0.961182  1
  Si  Si18  1  0.668879  0.959801  0.038985  1
  Si  Si19  1  0.166070  0.538468  0.459134  1
  Si  Si20  1  0.708881  0.869138  0.748563  1
  Si  Si21  1  0.209122  0.631133  0.748233  1
  Si  Si22  1  0.289812  0.131068  0.251999  1
  Si  Si23  1  0.791403  0.369880  0.252553  1
  W  W24  1  0.664272  0.174063  0.627098  1
  W  W25  1  0.161799  0.327304  0.872057  1
  W  W26  1  0.339245  0.827098  0.127567  1
  W  W27  1  0.832837  0.681844  0.374299  1
  W  W28  1  0.342789  0.826076  0.372720  1
  W  W29  1  0.839285  0.673602  0.127623  1
  W  W30  1  0.661392  0.173705  0.872650  1
  W  W31  1  0.161852  0.324387  0.626039  1
  W  W32  1  0.835161  0.492375  0.749359  1
  W  W33  1  0.335355  0.007241  0.748907  1
  W  W34  1  0.164769  0.508258  0.250778  1
  W  W35  1  0.664901  0.989893  0.252645  1
