# generated using pymatgen
data_Ce2Zn16Rh
_symmetry_space_group_name_H-M   'P 1'
_cell_length_a   8.78393508
_cell_length_b   8.95014677
_cell_length_c   8.95014600
_cell_angle_alpha   120.00593311
_cell_angle_beta   89.99209438
_cell_angle_gamma   90.00790334
_symmetry_Int_Tables_number   1
_chemical_formula_structural   Ce2Zn16Rh
_chemical_formula_sum   'Ce4 Zn32 Rh2'
_cell_volume   609.33209340
_cell_formula_units_Z   2
loop_
 _symmetry_equiv_pos_site_id
 _symmetry_equiv_pos_as_xyz
  1  'x, y, z'
loop_
 _atom_site_type_symbol
 _atom_site_label
 _atom_site_symmetry_multiplicity
 _atom_site_fract_x
 _atom_site_fract_y
 _atom_site_fract_z
 _atom_site_occupancy
  Ce  Ce0  1  0.243770  0.666787  0.333213  1
  Ce  Ce1  1  0.756230  0.333213  0.666787  1
  Ce  Ce2  1  0.754208  0.999804  0.000196  1
  Ce  Ce3  1  0.245792  0.000196  0.999804  1
  Zn  Zn4  1  0.751218  0.670372  0.046021  1
  Zn  Zn5  1  0.751211  0.375529  0.329542  1
  Zn  Zn6  1  0.751313  0.953948  0.624332  1
  Zn  Zn7  1  0.751313  0.375668  0.046052  1
  Zn  Zn8  1  0.751218  0.953979  0.329628  1
  Zn  Zn9  1  0.751211  0.670458  0.624471  1
  Zn  Zn10  1  0.248782  0.329628  0.953979  1
  Zn  Zn11  1  0.248789  0.624471  0.670458  1
  Zn  Zn12  1  0.248687  0.046052  0.375668  1
  Zn  Zn13  1  0.248687  0.624332  0.953948  1
  Zn  Zn14  1  0.248782  0.046021  0.670372  1
  Zn  Zn15  1  0.248789  0.329542  0.375529  1
  Zn  Zn16  1  0.474253  0.839236  0.678544  1
  Zn  Zn17  1  0.474107  0.839490  0.160510  1
  Zn  Zn18  1  0.474253  0.321456  0.160764  1
  Zn  Zn19  1  0.525747  0.160764  0.321456  1
  Zn  Zn20  1  0.525893  0.160510  0.839490  1
  Zn  Zn21  1  0.525747  0.678544  0.839236  1
  Zn  Zn22  1  0.979249  0.163587  0.327106  1
  Zn  Zn23  1  0.979313  0.163459  0.836541  1
  Zn  Zn24  1  0.979249  0.672894  0.836413  1
  Zn  Zn25  1  0.020751  0.836413  0.672894  1
  Zn  Zn26  1  0.020687  0.836541  0.163459  1
  Zn  Zn27  1  0.020751  0.327106  0.163587  1
  Zn  Zn28  1  0.500000  0.500000  0.000000  1
  Zn  Zn29  1  0.500000  0.500000  0.500000  1
  Zn  Zn30  1  0.500000  0.000000  0.500000  1
  Zn  Zn31  1  0.000000  0.500000  0.000000  1
  Zn  Zn32  1  0.000000  0.500000  0.500000  1
  Zn  Zn33  1  0.000000  0.000000  0.500000  1
  Zn  Zn34  1  0.601446  0.666814  0.333185  1
  Zn  Zn35  1  0.398554  0.333185  0.666814  1
  Rh  Rh36  1  0.092151  0.333382  0.666618  1
  Rh  Rh37  1  0.907849  0.666618  0.333382  1
