# generated using pymatgen
data_KFe(Sb4Ir)3
_symmetry_space_group_name_H-M   'P 1'
_cell_length_a   8.10949987
_cell_length_b   8.10949919
_cell_length_c   8.14446600
_cell_angle_alpha   109.55858953
_cell_angle_beta   109.55858783
_cell_angle_gamma   109.38371046
_symmetry_Int_Tables_number   1
_chemical_formula_structural   KFe(Sb4Ir)3
_chemical_formula_sum   'K1 Fe1 Sb12 Ir3'
_cell_volume   411.86930369
_cell_formula_units_Z   1
loop_
 _symmetry_equiv_pos_site_id
 _symmetry_equiv_pos_as_xyz
  1  'x, y, z'
loop_
 _atom_site_type_symbol
 _atom_site_label
 _atom_site_symmetry_multiplicity
 _atom_site_fract_x
 _atom_site_fract_y
 _atom_site_fract_z
 _atom_site_occupancy
  K  K0  1  0.000000  0.000000  0.000000  1
  Fe  Fe1  1  0.000000  0.000000  0.500000  1
  Sb  Sb2  1  0.847715  0.669472  0.503382  1
  Sb  Sb3  1  0.152285  0.330528  0.496618  1
  Sb  Sb4  1  0.154543  0.655876  0.810959  1
  Sb  Sb5  1  0.845457  0.344124  0.189041  1
  Sb  Sb6  1  0.655876  0.501333  0.844918  1
  Sb  Sb7  1  0.344124  0.498667  0.155082  1
  Sb  Sb8  1  0.669472  0.821758  0.166090  1
  Sb  Sb9  1  0.330528  0.178242  0.833910  1
  Sb  Sb10  1  0.501333  0.845457  0.656415  1
  Sb  Sb11  1  0.498667  0.154543  0.343585  1
  Sb  Sb12  1  0.178242  0.847715  0.344333  1
  Sb  Sb13  1  0.821758  0.152285  0.655667  1
  Ir  Ir14  1  0.500000  0.500000  0.500000  1
  Ir  Ir15  1  0.500000  0.000000  0.000000  1
  Ir  Ir16  1  0.000000  0.500000  0.000000  1
