# generated using pymatgen
data_Tb8GaPd7Pt17
_symmetry_space_group_name_H-M   'P 1'
_cell_length_a   8.38904008
_cell_length_b   8.38904008
_cell_length_c   8.36042200
_cell_angle_alpha   90.00272311
_cell_angle_beta   90.00272311
_cell_angle_gamma   89.98471479
_symmetry_Int_Tables_number   1
_chemical_formula_structural   Tb8GaPd7Pt17
_chemical_formula_sum   'Tb8 Ga1 Pd7 Pt17'
_cell_volume   588.37298167
_cell_formula_units_Z   1
loop_
 _symmetry_equiv_pos_site_id
 _symmetry_equiv_pos_as_xyz
  1  'x, y, z'
loop_
 _atom_site_type_symbol
 _atom_site_label
 _atom_site_symmetry_multiplicity
 _atom_site_fract_x
 _atom_site_fract_y
 _atom_site_fract_z
 _atom_site_occupancy
  Tb  Tb0  1  0.251498  0.251498  0.748021  1
  Tb  Tb1  1  0.252303  0.747980  0.252498  1
  Tb  Tb2  1  0.747980  0.252303  0.252498  1
  Tb  Tb3  1  0.748360  0.748360  0.748206  1
  Tb  Tb4  1  0.747800  0.747800  0.252274  1
  Tb  Tb5  1  0.748481  0.251713  0.747966  1
  Tb  Tb6  1  0.251713  0.748481  0.747966  1
  Tb  Tb7  1  0.252033  0.252033  0.252431  1
  Ga  Ga8  1  0.000292  0.000292  0.996993  1
  Pd  Pd9  1  0.499911  0.746205  0.500120  1
  Pd  Pd10  1  0.746205  0.499911  0.500120  1
  Pd  Pd11  1  0.999888  0.292798  0.000941  1
  Pd  Pd12  1  0.292798  0.999888  0.000941  1
  Pd  Pd13  1  0.999827  0.999827  0.291780  1
  Pd  Pd14  1  0.999788  0.707598  0.000952  1
  Pd  Pd15  1  0.707598  0.999788  0.000952  1
  Pt  Pt16  1  0.499470  0.499470  0.747245  1
  Pt  Pt17  1  0.499676  0.253571  0.500113  1
  Pt  Pt18  1  0.253571  0.499676  0.500113  1
  Pt  Pt19  1  0.499488  0.499488  0.252747  1
  Pt  Pt20  1  0.999752  0.999752  0.703244  1
  Pt  Pt21  1  0.000477  0.500174  0.740209  1
  Pt  Pt22  1  0.500201  0.260135  0.000109  1
  Pt  Pt23  1  0.261771  0.000049  0.499893  1
  Pt  Pt24  1  0.000049  0.261771  0.499893  1
  Pt  Pt25  1  0.500174  0.000477  0.740209  1
  Pt  Pt26  1  0.260135  0.500201  0.000109  1
  Pt  Pt27  1  0.000448  0.500162  0.260849  1
  Pt  Pt28  1  0.500116  0.739659  0.000068  1
  Pt  Pt29  1  0.000137  0.738235  0.499812  1
  Pt  Pt30  1  0.500162  0.000448  0.260849  1
  Pt  Pt31  1  0.738235  0.000137  0.499812  1
  Pt  Pt32  1  0.739659  0.500116  0.000068  1
