# generated using pymatgen
data_TbY6(LuPb2)3
_symmetry_space_group_name_H-M   'P 1'
_cell_length_a   9.03543900
_cell_length_b   9.03543900
_cell_length_c   6.57183100
_cell_angle_alpha   90.00000000
_cell_angle_beta   90.00000000
_cell_angle_gamma   119.99999633
_symmetry_Int_Tables_number   1
_chemical_formula_structural   TbY6(LuPb2)3
_chemical_formula_sum   'Tb1 Y6 Lu3 Pb6'
_cell_volume   464.63888343
_cell_formula_units_Z   1
loop_
 _symmetry_equiv_pos_site_id
 _symmetry_equiv_pos_as_xyz
  1  'x, y, z'
loop_
 _atom_site_type_symbol
 _atom_site_label
 _atom_site_symmetry_multiplicity
 _atom_site_fract_x
 _atom_site_fract_y
 _atom_site_fract_z
 _atom_site_occupancy
  Tb  Tb0  1  0.666667  0.333333  0.000000  1
  Y  Y1  1  0.761370  0.761549  0.749649  1
  Y  Y2  1  0.238451  0.999821  0.749649  1
  Y  Y3  1  0.000179  0.238630  0.749649  1
  Y  Y4  1  0.238451  0.238630  0.250351  1
  Y  Y5  1  0.761370  0.999821  0.250351  1
  Y  Y6  1  0.000179  0.761549  0.250351  1
  Lu  Lu7  1  0.333333  0.666667  0.000000  1
  Lu  Lu8  1  0.333333  0.666667  0.500000  1
  Lu  Lu9  1  0.666667  0.333333  0.500000  1
  Pb  Pb10  1  0.395016  0.396255  0.748761  1
  Pb  Pb11  1  0.603745  0.998761  0.748761  1
  Pb  Pb12  1  0.001239  0.604984  0.748761  1
  Pb  Pb13  1  0.603745  0.604984  0.251239  1
  Pb  Pb14  1  0.395016  0.998761  0.251239  1
  Pb  Pb15  1  0.001239  0.396255  0.251239  1
