# generated using pymatgen
data_Zr3Ta3(B2Ru5)2
_symmetry_space_group_name_H-M   'P 1'
_cell_length_a   9.49489614
_cell_length_b   9.49489614
_cell_length_c   3.09511800
_cell_angle_alpha   90.00000000
_cell_angle_beta   90.00000000
_cell_angle_gamma   90.09325527
_symmetry_Int_Tables_number   1
_chemical_formula_structural   Zr3Ta3(B2Ru5)2
_chemical_formula_sum   'Zr3 Ta3 B4 Ru10'
_cell_volume   279.03396684
_cell_formula_units_Z   1
loop_
 _symmetry_equiv_pos_site_id
 _symmetry_equiv_pos_as_xyz
  1  'x, y, z'
loop_
 _atom_site_type_symbol
 _atom_site_label
 _atom_site_symmetry_multiplicity
 _atom_site_fract_x
 _atom_site_fract_y
 _atom_site_fract_z
 _atom_site_occupancy
  Zr  Zr0  1  0.824194  0.676527  0.000000  1
  Zr  Zr1  1  0.176527  0.324194  0.000000  1
  Zr  Zr2  1  0.324154  0.824154  0.000000  1
  Ta  Ta3  1  0.676909  0.176909  0.000000  1
  Ta  Ta4  1  0.499772  0.500001  0.000000  1
  Ta  Ta5  1  0.000001  0.999772  0.000000  1
  B  B6  1  0.621005  0.878894  0.000000  1
  B  B7  1  0.378894  0.121005  0.000000  1
  B  B8  1  0.120841  0.620841  0.000000  1
  B  B9  1  0.878414  0.378414  0.000000  1
  Ru  Ru10  1  0.571041  0.719094  0.500000  1
  Ru  Ru11  1  0.434316  0.280738  0.500000  1
  Ru  Ru12  1  0.069711  0.781497  0.500000  1
  Ru  Ru13  1  0.923701  0.216174  0.500000  1
  Ru  Ru14  1  0.281497  0.569711  0.500000  1
  Ru  Ru15  1  0.716174  0.423701  0.500000  1
  Ru  Ru16  1  0.219094  0.071041  0.500000  1
  Ru  Ru17  1  0.780738  0.934316  0.500000  1
  Ru  Ru18  1  0.504416  0.004416  0.500000  1
  Ru  Ru19  1  0.998604  0.498604  0.500000  1
