# generated using pymatgen
data_Na8Th(NpBr8)3
_symmetry_space_group_name_H-M   'P 1'
_cell_length_a   7.72603700
_cell_length_b   7.72603648
_cell_length_c   28.71920700
_cell_angle_alpha   90.00000000
_cell_angle_beta   90.00000000
_cell_angle_gamma   119.99999795
_symmetry_Int_Tables_number   1
_chemical_formula_structural   Na8Th(NpBr8)3
_chemical_formula_sum   'Na8 Th1 Np3 Br24'
_cell_volume   1484.62449798
_cell_formula_units_Z   1
loop_
 _symmetry_equiv_pos_site_id
 _symmetry_equiv_pos_as_xyz
  1  'x, y, z'
loop_
 _atom_site_type_symbol
 _atom_site_label
 _atom_site_symmetry_multiplicity
 _atom_site_fract_x
 _atom_site_fract_y
 _atom_site_fract_z
 _atom_site_occupancy
  Na  Na0  1  0.000000  0.000000  0.250233  1
  Na  Na1  1  0.000000  0.000000  0.749767  1
  Na  Na2  1  0.333333  0.666667  0.000320  1
  Na  Na3  1  0.333333  0.666667  0.499642  1
  Na  Na4  1  0.333333  0.666667  0.250085  1
  Na  Na5  1  0.666667  0.333333  0.749915  1
  Na  Na6  1  0.666667  0.333333  0.999680  1
  Na  Na7  1  0.666667  0.333333  0.500358  1
  Th  Th8  1  0.000000  0.000000  0.000000  1
  Np  Np9  1  0.000000  0.000000  0.500000  1
  Np  Np10  1  0.333333  0.666667  0.749659  1
  Np  Np11  1  0.666667  0.333333  0.250341  1
  Br  Br12  1  0.363563  0.029784  0.303690  1
  Br  Br13  1  0.333346  0.970247  0.802988  1
  Br  Br14  1  0.999688  0.311757  0.054446  1
  Br  Br15  1  0.000848  0.303306  0.553176  1
  Br  Br16  1  0.970216  0.333780  0.303690  1
  Br  Br17  1  0.029753  0.363098  0.802988  1
  Br  Br18  1  0.363098  0.333346  0.197012  1
  Br  Br19  1  0.333780  0.363563  0.696310  1
  Br  Br20  1  0.303306  0.302458  0.446824  1
  Br  Br21  1  0.311757  0.312068  0.945554  1
  Br  Br22  1  0.697542  0.000848  0.446824  1
  Br  Br23  1  0.312068  0.000312  0.054446  1
  Br  Br24  1  0.302458  0.999152  0.553176  1
  Br  Br25  1  0.688243  0.687932  0.054446  1
  Br  Br26  1  0.696694  0.697542  0.553176  1
  Br  Br27  1  0.666220  0.636437  0.303690  1
  Br  Br28  1  0.636902  0.666654  0.802988  1
  Br  Br29  1  0.970247  0.636902  0.197012  1
  Br  Br30  1  0.029784  0.666220  0.696310  1
  Br  Br31  1  0.999152  0.696694  0.446824  1
  Br  Br32  1  0.000312  0.688243  0.945554  1
  Br  Br33  1  0.687932  0.999688  0.945554  1
  Br  Br34  1  0.666654  0.029753  0.197012  1
  Br  Br35  1  0.636437  0.970216  0.696310  1
