# generated using pymatgen
data_Tm3LuAl3(Ga5Ir2)3
_symmetry_space_group_name_H-M   'P 1'
_cell_length_a   7.56148511
_cell_length_b   7.56318562
_cell_length_c   9.46349779
_cell_angle_alpha   89.97935190
_cell_angle_beta   89.97379484
_cell_angle_gamma   119.91843835
_symmetry_Int_Tables_number   1
_chemical_formula_structural   Tm3LuAl3(Ga5Ir2)3
_chemical_formula_sum   'Tm3 Lu1 Al3 Ga15 Ir6'
_cell_volume   469.08373922
_cell_formula_units_Z   1
loop_
 _symmetry_equiv_pos_site_id
 _symmetry_equiv_pos_as_xyz
  1  'x, y, z'
loop_
 _atom_site_type_symbol
 _atom_site_label
 _atom_site_symmetry_multiplicity
 _atom_site_fract_x
 _atom_site_fract_y
 _atom_site_fract_z
 _atom_site_occupancy
  Tm  Tm0  1  0.000061  0.670209  0.249859  1
  Tm  Tm1  1  0.000112  0.330398  0.749161  1
  Tm  Tm2  1  0.670327  0.000002  0.249847  1
  Lu  Lu3  1  0.330190  0.000123  0.749280  1
  Al  Al4  1  0.665069  0.665061  0.446697  1
  Al  Al5  1  0.668617  0.668586  0.053241  1
  Al  Al6  1  0.331569  0.331291  0.945629  1
  Ga  Ga7  1  0.126957  0.126727  0.249354  1
  Ga  Ga8  1  0.873942  0.873984  0.749461  1
  Ga  Ga9  1  0.999100  0.334886  0.080534  1
  Ga  Ga10  1  0.001794  0.665716  0.918472  1
  Ga  Ga11  1  0.001275  0.665764  0.581534  1
  Ga  Ga12  1  0.335344  0.000089  0.417999  1
  Ga  Ga13  1  0.000158  0.335291  0.417661  1
  Ga  Ga14  1  0.664747  0.000816  0.581573  1
  Ga  Ga15  1  0.664726  0.001303  0.918438  1
  Ga  Ga16  1  0.334911  0.998953  0.080222  1
  Ga  Ga17  1  0.329090  0.328730  0.566048  1
  Ga  Ga18  1  0.347557  0.551013  0.249703  1
  Ga  Ga19  1  0.655312  0.449725  0.750253  1
  Ga  Ga20  1  0.550910  0.347323  0.249692  1
  Ga  Ga21  1  0.450094  0.655812  0.750264  1
  Ir  Ir22  1  0.669518  0.330180  0.999737  1
  Ir  Ir23  1  0.330082  0.669368  0.999763  1
  Ir  Ir24  1  0.330276  0.672250  0.499357  1
  Ir  Ir25  1  0.672405  0.330442  0.499319  1
  Ir  Ir26  1  0.000269  0.000273  0.999283  1
  Ir  Ir27  1  0.995586  0.995689  0.497618  1
