# generated using pymatgen
data_Tb3Ho13(TmIr3)4
_symmetry_space_group_name_H-M   'P 1'
_cell_length_a   10.84336753
_cell_length_b   10.84181018
_cell_length_c   6.33991400
_cell_angle_alpha   89.99631128
_cell_angle_beta   90.01783332
_cell_angle_gamma   89.99022444
_symmetry_Int_Tables_number   1
_chemical_formula_structural   Tb3Ho13(TmIr3)4
_chemical_formula_sum   'Tb3 Ho13 Tm4 Ir12'
_cell_volume   745.33122476
_cell_formula_units_Z   1
loop_
 _symmetry_equiv_pos_site_id
 _symmetry_equiv_pos_as_xyz
  1  'x, y, z'
loop_
 _atom_site_type_symbol
 _atom_site_label
 _atom_site_symmetry_multiplicity
 _atom_site_fract_x
 _atom_site_fract_y
 _atom_site_fract_z
 _atom_site_occupancy
  Tb  Tb0  1  0.290322  0.087963  0.376983  1
  Tb  Tb1  1  0.290382  0.912052  0.876997  1
  Tb  Tb2  1  0.709741  0.087847  0.877016  1
  Ho  Ho3  1  0.709107  0.912130  0.377506  1
  Ho  Ho4  1  0.587809  0.790673  0.877396  1
  Ho  Ho5  1  0.587739  0.209262  0.377431  1
  Ho  Ho6  1  0.412554  0.790612  0.377478  1
  Ho  Ho7  1  0.412370  0.209346  0.877498  1
  Ho  Ho8  1  0.209061  0.412482  0.622463  1
  Ho  Ho9  1  0.209037  0.587545  0.122435  1
  Ho  Ho10  1  0.790932  0.412497  0.122460  1
  Ho  Ho11  1  0.790940  0.587569  0.622365  1
  Ho  Ho12  1  0.912438  0.709029  0.122388  1
  Ho  Ho13  1  0.912666  0.291189  0.622193  1
  Ho  Ho14  1  0.087301  0.708800  0.622264  1
  Ho  Ho15  1  0.087295  0.291192  0.122216  1
  Tm  Tm16  1  0.999786  0.999886  0.500266  1
  Tm  Tm17  1  0.999944  0.999956  0.000445  1
  Tm  Tm18  1  0.500053  0.500053  0.000202  1
  Tm  Tm19  1  0.500066  0.500012  0.500004  1
  Ir  Ir20  1  0.847921  0.152759  0.251179  1
  Ir  Ir21  1  0.847768  0.846877  0.749728  1
  Ir  Ir22  1  0.151733  0.153250  0.750922  1
  Ir  Ir23  1  0.151749  0.846705  0.250901  1
  Ir  Ir24  1  0.652429  0.348344  0.749680  1
  Ir  Ir25  1  0.652532  0.652330  0.249982  1
  Ir  Ir26  1  0.347616  0.348383  0.249671  1
  Ir  Ir27  1  0.347653  0.651684  0.749650  1
  Ir  Ir28  1  0.500577  0.999706  0.123317  1
  Ir  Ir29  1  0.500625  0.999740  0.622317  1
  Ir  Ir30  1  0.999909  0.500047  0.877312  1
  Ir  Ir31  1  0.999944  0.500079  0.377335  1
