# generated using pymatgen
data_Th2TiCo16
_symmetry_space_group_name_H-M   'P 1'
_cell_length_a   6.34042453
_cell_length_b   6.34042443
_cell_length_c   6.34042439
_cell_angle_alpha   82.95309427
_cell_angle_beta   82.95308715
_cell_angle_gamma   82.95310236
_symmetry_Int_Tables_number   1
_chemical_formula_structural   Th2TiCo16
_chemical_formula_sum   'Th2 Ti1 Co16'
_cell_volume   249.55151500
_cell_formula_units_Z   1
loop_
 _symmetry_equiv_pos_site_id
 _symmetry_equiv_pos_as_xyz
  1  'x, y, z'
loop_
 _atom_site_type_symbol
 _atom_site_label
 _atom_site_symmetry_multiplicity
 _atom_site_fract_x
 _atom_site_fract_y
 _atom_site_fract_z
 _atom_site_occupancy
  Th  Th0  1  0.656164  0.656164  0.656164  1
  Th  Th1  1  0.351239  0.351239  0.351239  1
  Ti  Ti2  1  0.092448  0.092448  0.092448  1
  Co  Co3  1  0.710339  0.997986  0.288418  1
  Co  Co4  1  0.997986  0.288418  0.710339  1
  Co  Co5  1  0.288418  0.710339  0.997986  1
  Co  Co6  1  0.997986  0.710339  0.288418  1
  Co  Co7  1  0.710339  0.288418  0.997986  1
  Co  Co8  1  0.288418  0.997986  0.710339  1
  Co  Co9  1  0.998562  0.505180  0.998562  1
  Co  Co10  1  0.505180  0.998562  0.998562  1
  Co  Co11  1  0.998562  0.998562  0.505180  1
  Co  Co12  1  0.345693  0.345693  0.852927  1
  Co  Co13  1  0.345693  0.852927  0.345693  1
  Co  Co14  1  0.852927  0.345693  0.345693  1
  Co  Co15  1  0.656153  0.656153  0.146957  1
  Co  Co16  1  0.656153  0.146957  0.656153  1
  Co  Co17  1  0.146957  0.656153  0.656153  1
  Co  Co18  1  0.900786  0.900786  0.900786  1
