# generated using pymatgen
data_Lu16In3HgRh4
_symmetry_space_group_name_H-M   'P 1'
_cell_length_a   9.43885049
_cell_length_b   9.43885014
_cell_length_c   9.43885030
_cell_angle_alpha   59.97641422
_cell_angle_beta   59.97641596
_cell_angle_gamma   59.97641239
_symmetry_Int_Tables_number   1
_chemical_formula_structural   Lu16In3HgRh4
_chemical_formula_sum   'Lu16 In3 Hg1 Rh4'
_cell_volume   594.30579254
_cell_formula_units_Z   1
loop_
 _symmetry_equiv_pos_site_id
 _symmetry_equiv_pos_as_xyz
  1  'x, y, z'
loop_
 _atom_site_type_symbol
 _atom_site_label
 _atom_site_symmetry_multiplicity
 _atom_site_fract_x
 _atom_site_fract_y
 _atom_site_fract_z
 _atom_site_occupancy
  Lu  Lu0  1  0.598402  0.598402  0.598402  1
  Lu  Lu1  1  0.601908  0.601908  0.197671  1
  Lu  Lu2  1  0.601908  0.197671  0.601908  1
  Lu  Lu3  1  0.197671  0.601908  0.601908  1
  Lu  Lu4  1  0.058337  0.440341  0.440341  1
  Lu  Lu5  1  0.438544  0.060277  0.060277  1
  Lu  Lu6  1  0.440341  0.058337  0.440341  1
  Lu  Lu7  1  0.060277  0.438544  0.060277  1
  Lu  Lu8  1  0.440341  0.440341  0.058337  1
  Lu  Lu9  1  0.060277  0.060277  0.438544  1
  Lu  Lu10  1  0.185182  0.812864  0.812864  1
  Lu  Lu11  1  0.811658  0.188450  0.188450  1
  Lu  Lu12  1  0.812864  0.185182  0.812864  1
  Lu  Lu13  1  0.188450  0.811658  0.188450  1
  Lu  Lu14  1  0.812864  0.812864  0.185182  1
  Lu  Lu15  1  0.188450  0.188450  0.811658  1
  In  In16  1  0.832963  0.832963  0.501365  1
  In  In17  1  0.832963  0.501365  0.832963  1
  In  In18  1  0.501365  0.832963  0.832963  1
  Hg  Hg19  1  0.837370  0.837370  0.837370  1
  Rh  Rh20  1  0.392442  0.392442  0.392442  1
  Rh  Rh21  1  0.391326  0.391326  0.822770  1
  Rh  Rh22  1  0.391326  0.822770  0.391326  1
  Rh  Rh23  1  0.822770  0.391326  0.391326  1
