# generated using pymatgen
data_Tb3YOsI4
_symmetry_space_group_name_H-M   'P 1'
_cell_length_a   11.44113984
_cell_length_b   11.42603962
_cell_length_c   6.21138102
_cell_angle_alpha   90.01582386
_cell_angle_beta   90.02652104
_cell_angle_gamma   88.37281794
_symmetry_Int_Tables_number   1
_chemical_formula_structural   Tb3YOsI4
_chemical_formula_sum   'Tb6 Y2 Os2 I8'
_cell_volume   811.66714520
_cell_formula_units_Z   2
loop_
 _symmetry_equiv_pos_site_id
 _symmetry_equiv_pos_as_xyz
  1  'x, y, z'
loop_
 _atom_site_type_symbol
 _atom_site_label
 _atom_site_symmetry_multiplicity
 _atom_site_fract_x
 _atom_site_fract_y
 _atom_site_fract_z
 _atom_site_occupancy
  Tb  Tb0  1  0.802051  0.084195  0.999170  1
  Tb  Tb1  1  0.083990  0.801951  0.499151  1
  Tb  Tb2  1  0.078736  0.195463  0.000366  1
  Tb  Tb3  1  0.195411  0.078733  0.500352  1
  Tb  Tb4  1  0.921479  0.804481  0.999660  1
  Tb  Tb5  1  0.915799  0.198003  0.500818  1
  Y  Y6  1  0.198076  0.915844  0.000904  1
  Y  Y7  1  0.804457  0.921307  0.499591  1
  Os  Os8  1  0.999872  0.000216  0.250010  1
  Os  Os9  1  0.000124  0.999976  0.750012  1
  I  I10  1  0.644930  0.152149  0.510285  1
  I  I11  1  0.858253  0.648659  0.505600  1
  I  I12  1  0.351482  0.141414  0.994397  1
  I  I13  1  0.141623  0.351491  0.494403  1
  I  I14  1  0.648488  0.858347  0.005642  1
  I  I15  1  0.355105  0.847623  0.489643  1
  I  I16  1  0.152474  0.645067  0.010278  1
  I  I17  1  0.847650  0.355081  0.989718  1
