# generated using pymatgen
data_Nb4PdSe8
_symmetry_space_group_name_H-M   'P 1'
_cell_length_a   7.03779000
_cell_length_b   7.03779056
_cell_length_c   13.01229900
_cell_angle_alpha   90.00000000
_cell_angle_beta   90.00000000
_cell_angle_gamma   120.00000675
_symmetry_Int_Tables_number   1
_chemical_formula_structural   Nb4PdSe8
_chemical_formula_sum   'Nb8 Pd2 Se16'
_cell_volume   558.15816042
_cell_formula_units_Z   2
loop_
 _symmetry_equiv_pos_site_id
 _symmetry_equiv_pos_as_xyz
  1  'x, y, z'
loop_
 _atom_site_type_symbol
 _atom_site_label
 _atom_site_symmetry_multiplicity
 _atom_site_fract_x
 _atom_site_fract_y
 _atom_site_fract_z
 _atom_site_occupancy
  Nb  Nb0  1  0.000000  0.000000  0.250000  1
  Nb  Nb1  1  0.000000  0.000000  0.750000  1
  Nb  Nb2  1  0.510326  0.020651  0.250000  1
  Nb  Nb3  1  0.489674  0.979349  0.750000  1
  Nb  Nb4  1  0.979349  0.489674  0.250000  1
  Nb  Nb5  1  0.020651  0.510326  0.750000  1
  Nb  Nb6  1  0.510326  0.489674  0.250000  1
  Nb  Nb7  1  0.489674  0.510326  0.750000  1
  Pd  Pd8  1  0.000000  0.000000  0.000000  1
  Pd  Pd9  1  0.000000  0.000000  0.500000  1
  Se  Se10  1  0.333333  0.666667  0.614487  1
  Se  Se11  1  0.666667  0.333333  0.385513  1
  Se  Se12  1  0.666667  0.333333  0.114487  1
  Se  Se13  1  0.333333  0.666667  0.885513  1
  Se  Se14  1  0.169635  0.339271  0.125526  1
  Se  Se15  1  0.830365  0.660729  0.874474  1
  Se  Se16  1  0.660729  0.830365  0.125526  1
  Se  Se17  1  0.830365  0.660729  0.625526  1
  Se  Se18  1  0.339271  0.169635  0.874474  1
  Se  Se19  1  0.169635  0.339271  0.374474  1
  Se  Se20  1  0.169635  0.830365  0.125526  1
  Se  Se21  1  0.339271  0.169635  0.625526  1
  Se  Se22  1  0.830365  0.169635  0.874474  1
  Se  Se23  1  0.660729  0.830365  0.374474  1
  Se  Se24  1  0.830365  0.169635  0.625526  1
  Se  Se25  1  0.169635  0.830365  0.374474  1
