# generated using pymatgen
data_Dy7HoNb12Si15Ge
_symmetry_space_group_name_H-M   'P 1'
_cell_length_a   6.88426050
_cell_length_b   7.08041364
_cell_length_c   13.45412404
_cell_angle_alpha   90.04036978
_cell_angle_beta   89.92938023
_cell_angle_gamma   90.02021080
_symmetry_Int_Tables_number   1
_chemical_formula_structural   Dy7HoNb12Si15Ge
_chemical_formula_sum   'Dy7 Ho1 Nb12 Si15 Ge1'
_cell_volume   655.79920853
_cell_formula_units_Z   1
loop_
 _symmetry_equiv_pos_site_id
 _symmetry_equiv_pos_as_xyz
  1  'x, y, z'
loop_
 _atom_site_type_symbol
 _atom_site_label
 _atom_site_symmetry_multiplicity
 _atom_site_fract_x
 _atom_site_fract_y
 _atom_site_fract_z
 _atom_site_occupancy
  Dy  Dy0  1  0.502576  0.328476  0.095692  1
  Dy  Dy1  1  0.001468  0.171104  0.403966  1
  Dy  Dy2  1  0.500523  0.673448  0.596382  1
  Dy  Dy3  1  0.997452  0.828304  0.904763  1
  Dy  Dy4  1  0.497377  0.671440  0.904592  1
  Dy  Dy5  1  0.997316  0.829227  0.595886  1
  Dy  Dy6  1  0.503067  0.327157  0.403406  1
  Ho  Ho7  1  0.002300  0.172015  0.095511  1
  Nb  Nb8  1  0.664719  0.008663  0.750202  1
  Nb  Nb9  1  0.164642  0.490471  0.751871  1
  Nb  Nb10  1  0.334900  0.991456  0.249703  1
  Nb  Nb11  1  0.835315  0.508883  0.249817  1
  Nb  Nb12  1  0.836551  0.324507  0.625975  1
  Nb  Nb13  1  0.338235  0.174882  0.874687  1
  Nb  Nb14  1  0.161670  0.675231  0.125403  1
  Nb  Nb15  1  0.661363  0.825450  0.373983  1
  Nb  Nb16  1  0.160087  0.677580  0.372812  1
  Nb  Nb17  1  0.661010  0.824823  0.125367  1
  Nb  Nb18  1  0.838334  0.324701  0.874699  1
  Nb  Nb19  1  0.340745  0.171442  0.626796  1
  Si  Si20  1  0.797501  0.626104  0.750202  1
  Si  Si21  1  0.296473  0.872777  0.750562  1
  Si  Si22  1  0.202768  0.373638  0.249592  1
  Si  Si23  1  0.703312  0.126226  0.249442  1
  Si  Si24  1  0.543066  0.376541  0.750380  1
  Si  Si25  1  0.043063  0.123716  0.750091  1
  Si  Si26  1  0.456570  0.623535  0.249882  1
  Si  Si27  1  0.955983  0.877122  0.248985  1
  Si  Si28  1  0.664137  0.037678  0.540098  1
  Si  Si29  1  0.163330  0.462544  0.959715  1
  Si  Si30  1  0.335834  0.963163  0.040552  1
  Si  Si31  1  0.832581  0.538058  0.458738  1
  Si  Si32  1  0.335938  0.962370  0.459621  1
  Si  Si33  1  0.836753  0.536915  0.040735  1
  Si  Si34  1  0.663687  0.037267  0.959634  1
  Ge  Ge35  1  0.169356  0.463086  0.540252  1
