# generated using pymatgen
data_Ho3Tm17(Bi2Sb)4
_symmetry_space_group_name_H-M   'P 1'
_cell_length_a   8.10215999
_cell_length_b   9.37848300
_cell_length_c   11.84883715
_cell_angle_alpha   90.00000000
_cell_angle_beta   90.03742884
_cell_angle_gamma   90.00000000
_symmetry_Int_Tables_number   1
_chemical_formula_structural   Ho3Tm17(Bi2Sb)4
_chemical_formula_sum   'Ho3 Tm17 Bi8 Sb4'
_cell_volume   900.34518856
_cell_formula_units_Z   1
loop_
 _symmetry_equiv_pos_site_id
 _symmetry_equiv_pos_as_xyz
  1  'x, y, z'
loop_
 _atom_site_type_symbol
 _atom_site_label
 _atom_site_symmetry_multiplicity
 _atom_site_fract_x
 _atom_site_fract_y
 _atom_site_fract_z
 _atom_site_occupancy
  Ho  Ho0  1  0.815649  0.250000  0.282618  1
  Ho  Ho1  1  0.684118  0.750000  0.782491  1
  Ho  Ho2  1  0.184074  0.750000  0.717481  1
  Tm  Tm3  1  0.353882  0.750000  0.215042  1
  Tm  Tm4  1  0.853766  0.750000  0.284904  1
  Tm  Tm5  1  0.646204  0.250000  0.785143  1
  Tm  Tm6  1  0.146341  0.250000  0.715026  1
  Tm  Tm7  1  0.689024  0.564436  0.058524  1
  Tm  Tm8  1  0.188777  0.935618  0.441443  1
  Tm  Tm9  1  0.311058  0.064399  0.941623  1
  Tm  Tm10  1  0.811254  0.435594  0.558408  1
  Tm  Tm11  1  0.311058  0.435601  0.941623  1
  Tm  Tm12  1  0.811254  0.064406  0.558408  1
  Tm  Tm13  1  0.689024  0.935564  0.058524  1
  Tm  Tm14  1  0.188777  0.564382  0.441443  1
  Tm  Tm15  1  0.473684  0.250000  0.488559  1
  Tm  Tm16  1  0.973786  0.250000  0.011318  1
  Tm  Tm17  1  0.526217  0.750000  0.511076  1
  Tm  Tm18  1  0.026287  0.750000  0.989011  1
  Tm  Tm19  1  0.315680  0.250000  0.217063  1
  Bi  Bi20  1  0.565567  0.995919  0.325439  1
  Bi  Bi21  1  0.066864  0.504078  0.174303  1
  Bi  Bi22  1  0.433916  0.495558  0.674285  1
  Bi  Bi23  1  0.933777  0.004572  0.825910  1
  Bi  Bi24  1  0.433916  0.004442  0.674285  1
  Bi  Bi25  1  0.933777  0.495428  0.825910  1
  Bi  Bi26  1  0.565567  0.504081  0.325439  1
  Bi  Bi27  1  0.066864  0.995922  0.174303  1
  Sb  Sb28  1  0.404992  0.750000  0.959095  1
  Sb  Sb29  1  0.904790  0.750000  0.540857  1
  Sb  Sb30  1  0.594524  0.250000  0.041538  1
  Sb  Sb31  1  0.095529  0.250000  0.458913  1
