# generated using pymatgen
data_Rb8Na4TbHo3Sb8
_symmetry_space_group_name_H-M   'P 1'
_cell_length_a   11.33604823
_cell_length_b   11.33604682
_cell_length_c   7.48196026
_cell_angle_alpha   90.02307099
_cell_angle_beta   89.97692593
_cell_angle_gamma   98.50203373
_symmetry_Int_Tables_number   1
_chemical_formula_structural   Rb8Na4TbHo3Sb8
_chemical_formula_sum   'Rb8 Na4 Tb1 Ho3 Sb8'
_cell_volume   950.91041766
_cell_formula_units_Z   1
loop_
 _symmetry_equiv_pos_site_id
 _symmetry_equiv_pos_as_xyz
  1  'x, y, z'
loop_
 _atom_site_type_symbol
 _atom_site_label
 _atom_site_symmetry_multiplicity
 _atom_site_fract_x
 _atom_site_fract_y
 _atom_site_fract_z
 _atom_site_occupancy
  Rb  Rb0  1  0.070747  0.429437  0.250130  1
  Rb  Rb1  1  0.429437  0.070747  0.749870  1
  Rb  Rb2  1  0.929261  0.570747  0.749932  1
  Rb  Rb3  1  0.570747  0.929261  0.250068  1
  Rb  Rb4  1  0.676290  0.323656  0.215937  1
  Rb  Rb5  1  0.823508  0.176322  0.715798  1
  Rb  Rb6  1  0.323656  0.676290  0.784063  1
  Rb  Rb7  1  0.176322  0.823508  0.284202  1
  Na  Na8  1  0.382561  0.382561  0.000000  1
  Na  Na9  1  0.117572  0.117572  0.500000  1
  Na  Na10  1  0.617580  0.617580  0.000000  1
  Na  Na11  1  0.882368  0.882368  0.500000  1
  Tb  Tb12  1  0.131099  0.131099  0.000000  1
  Ho  Ho13  1  0.369369  0.369369  0.500000  1
  Ho  Ho14  1  0.868929  0.868929  0.000000  1
  Ho  Ho15  1  0.630690  0.630690  0.500000  1
  Sb  Sb16  1  0.846313  0.653692  0.249947  1
  Sb  Sb17  1  0.653692  0.846313  0.750053  1
  Sb  Sb18  1  0.153785  0.347532  0.748515  1
  Sb  Sb19  1  0.347532  0.153785  0.251485  1
  Sb  Sb20  1  0.898525  0.099961  0.212149  1
  Sb  Sb21  1  0.600244  0.399810  0.711116  1
  Sb  Sb22  1  0.099961  0.898525  0.787851  1
  Sb  Sb23  1  0.399810  0.600244  0.288884  1
