# generated using pymatgen
data_PrZn9Au2
_symmetry_space_group_name_H-M   'P 1'
_cell_length_a   8.43815802
_cell_length_b   8.43815785
_cell_length_c   8.43815819
_cell_angle_alpha   99.78998984
_cell_angle_beta   99.78998821
_cell_angle_gamma   131.29417020
_symmetry_Int_Tables_number   1
_chemical_formula_structural   PrZn9Au2
_chemical_formula_sum   'Pr2 Zn18 Au4'
_cell_volume   411.24793816
_cell_formula_units_Z   2
loop_
 _symmetry_equiv_pos_site_id
 _symmetry_equiv_pos_as_xyz
  1  'x, y, z'
loop_
 _atom_site_type_symbol
 _atom_site_label
 _atom_site_symmetry_multiplicity
 _atom_site_fract_x
 _atom_site_fract_y
 _atom_site_fract_z
 _atom_site_occupancy
  Pr  Pr0  1  0.500000  0.500000  0.000000  1
  Pr  Pr1  1  0.750000  0.250000  0.500000  1
  Zn  Zn2  1  0.840704  0.426605  0.171074  1
  Zn  Zn3  1  0.330370  0.159296  0.585901  1
  Zn  Zn4  1  0.255531  0.426605  0.585901  1
  Zn  Zn5  1  0.330370  0.744469  0.171074  1
  Zn  Zn6  1  0.994469  0.323395  0.914099  1
  Zn  Zn7  1  0.255531  0.669630  0.828926  1
  Zn  Zn8  1  0.250000  0.750000  0.500000  1
  Zn  Zn9  1  0.994469  0.080370  0.671074  1
  Zn  Zn10  1  0.000000  0.000000  0.000000  1
  Zn  Zn11  1  0.676605  0.005531  0.085901  1
  Zn  Zn12  1  0.409296  0.323395  0.328926  1
  Zn  Zn13  1  0.919630  0.005531  0.328926  1
  Zn  Zn14  1  0.840704  0.669630  0.414099  1
  Zn  Zn15  1  0.573395  0.744469  0.414099  1
  Zn  Zn16  1  0.676605  0.590704  0.671074  1
  Zn  Zn17  1  0.409296  0.080370  0.085901  1
  Zn  Zn18  1  0.919630  0.590704  0.914099  1
  Zn  Zn19  1  0.573395  0.159296  0.828926  1
  Au  Au20  1  0.125000  0.875000  0.750000  1
  Au  Au21  1  0.625000  0.875000  0.750000  1
  Au  Au22  1  0.125000  0.875000  0.250000  1
  Au  Au23  1  0.125000  0.375000  0.250000  1
