# generated using pymatgen
data_IrS27
_symmetry_space_group_name_H-M   'P 1'
_cell_length_a   15.13009707
_cell_length_b   15.08921233
_cell_length_c   15.07909878
_cell_angle_alpha   118.49939414
_cell_angle_beta   118.78143721
_cell_angle_gamma   118.91207233
_symmetry_Int_Tables_number   1
_chemical_formula_structural   IrS27
_chemical_formula_sum   'Ir1 S27'
_cell_volume   1001.53845159
_cell_formula_units_Z   1
loop_
 _symmetry_equiv_pos_site_id
 _symmetry_equiv_pos_as_xyz
  1  'x, y, z'
loop_
 _atom_site_type_symbol
 _atom_site_label
 _atom_site_symmetry_multiplicity
 _atom_site_fract_x
 _atom_site_fract_y
 _atom_site_fract_z
 _atom_site_occupancy
  Ir  Ir0  1  0.939320  0.942093  0.943637  1
  S  S1  1  0.803768  0.521295  0.521348  1
  S  S2  1  0.523647  0.523981  0.805763  1
  S  S3  1  0.522092  0.804544  0.522498  1
  S  S4  1  0.246686  0.375931  0.635300  1
  S  S5  1  0.353199  0.952027  0.352543  1
  S  S6  1  0.352899  0.352509  0.951939  1
  S  S7  1  0.951723  0.352921  0.352656  1
  S  S8  1  0.127006  0.739235  0.256008  1
  S  S9  1  0.254796  0.125761  0.738275  1
  S  S10  1  0.738717  0.255830  0.126170  1
  S  S11  1  0.739020  0.126679  0.256237  1
  S  S12  1  0.255083  0.738347  0.125763  1
  S  S13  1  0.126546  0.255349  0.738860  1
  S  S14  1  0.347478  0.879268  0.530199  1
  S  S15  1  0.529714  0.347163  0.879197  1
  S  S16  1  0.879762  0.530404  0.347302  1
  S  S17  1  0.879670  0.347592  0.530506  1
  S  S18  1  0.529937  0.879568  0.347123  1
  S  S19  1  0.347370  0.529987  0.879082  1
  S  S20  1  0.245421  0.634409  0.375035  1
  S  S21  1  0.376069  0.247232  0.635750  1
  S  S22  1  0.634743  0.374682  0.245191  1
  S  S23  1  0.634408  0.244910  0.374680  1
  S  S24  1  0.375304  0.635285  0.246379  1
  S  S25  1  0.839181  0.982089  0.980558  1
  S  S26  1  0.986186  0.982571  0.846785  1
  S  S27  1  0.985550  0.843631  0.980511  1
