# generated using pymatgen
data_HfTi11(IrRh)6
_symmetry_space_group_name_H-M   'P 1'
_cell_length_a   4.22750834
_cell_length_b   6.95981198
_cell_length_c   12.47999758
_cell_angle_alpha   90.05997028
_cell_angle_beta   90.04482275
_cell_angle_gamma   89.99942817
_symmetry_Int_Tables_number   1
_chemical_formula_structural   HfTi11(IrRh)6
_chemical_formula_sum   'Hf1 Ti11 Ir6 Rh6'
_cell_volume   367.19445155
_cell_formula_units_Z   1
loop_
 _symmetry_equiv_pos_site_id
 _symmetry_equiv_pos_as_xyz
  1  'x, y, z'
loop_
 _atom_site_type_symbol
 _atom_site_label
 _atom_site_symmetry_multiplicity
 _atom_site_fract_x
 _atom_site_fract_y
 _atom_site_fract_z
 _atom_site_occupancy
  Hf  Hf0  1  0.999961  0.747634  0.829783  1
  Ti  Ti1  1  0.500033  0.249792  0.016675  1
  Ti  Ti2  1  0.500145  0.752952  0.991624  1
  Ti  Ti3  1  0.000055  0.251109  0.182502  1
  Ti  Ti4  1  0.000211  0.748875  0.157448  1
  Ti  Ti5  1  0.500081  0.250129  0.328548  1
  Ti  Ti6  1  0.500048  0.751088  0.337385  1
  Ti  Ti7  1  0.000008  0.251157  0.481107  1
  Ti  Ti8  1  0.999778  0.747650  0.513208  1
  Ti  Ti9  1  0.499895  0.249744  0.655213  1
  Ti  Ti10  1  0.499847  0.753151  0.670842  1
  Ti  Ti11  1  0.999918  0.249941  0.835729  1
  Ir  Ir12  1  0.000131  0.011728  0.002992  1
  Ir  Ir13  1  0.500112  0.518559  0.167503  1
  Ir  Ir14  1  0.000061  0.976040  0.333307  1
  Ir  Ir15  1  0.499943  0.506271  0.499008  1
  Ir  Ir16  1  0.999832  0.018077  0.663603  1
  Ir  Ir17  1  0.499947  0.477235  0.833462  1
  Rh  Rh18  1  0.000150  0.478805  0.002660  1
  Rh  Rh19  1  0.500147  0.978613  0.168027  1
  Rh  Rh20  1  0.000080  0.530532  0.333319  1
  Rh  Rh21  1  0.499907  0.995686  0.498485  1
  Rh  Rh22  1  0.999805  0.469686  0.663815  1
  Rh  Rh23  1  0.499906  0.035542  0.833752  1
