# generated using pymatgen
data_CsNpNbO6
_symmetry_space_group_name_H-M   'P 1'
_cell_length_a   7.69133474
_cell_length_b   7.69133555
_cell_length_c   7.69133504
_cell_angle_alpha   118.57067361
_cell_angle_beta   121.24853999
_cell_angle_gamma   90.17223698
_symmetry_Int_Tables_number   1
_chemical_formula_structural   CsNpNbO6
_chemical_formula_sum   'Cs2 Np2 Nb2 O12'
_cell_volume   321.94786247
_cell_formula_units_Z   2
loop_
 _symmetry_equiv_pos_site_id
 _symmetry_equiv_pos_as_xyz
  1  'x, y, z'
loop_
 _atom_site_type_symbol
 _atom_site_label
 _atom_site_symmetry_multiplicity
 _atom_site_fract_x
 _atom_site_fract_y
 _atom_site_fract_z
 _atom_site_occupancy
  Cs  Cs0  1  0.622613  0.872613  0.750000  1
  Cs  Cs1  1  0.377387  0.127387  0.250000  1
  Np  Np2  1  0.000000  0.500000  0.000000  1
  Np  Np3  1  0.000000  0.000000  0.500000  1
  Nb  Nb4  1  0.500000  0.500000  0.000000  1
  Nb  Nb5  1  0.000000  0.500000  0.500000  1
  O  O6  1  0.072283  0.822283  0.250000  1
  O  O7  1  0.693219  0.443219  0.250000  1
  O  O8  1  0.065596  0.808271  0.625027  1
  O  O9  1  0.683243  0.440567  0.874973  1
  O  O10  1  0.683243  0.808271  0.242675  1
  O  O11  1  0.065596  0.440567  0.257325  1
  O  O12  1  0.927717  0.177717  0.750000  1
  O  O13  1  0.306781  0.556781  0.750000  1
  O  O14  1  0.934404  0.191729  0.374973  1
  O  O15  1  0.316757  0.559433  0.125027  1
  O  O16  1  0.316757  0.191729  0.757325  1
  O  O17  1  0.934404  0.559433  0.742675  1
