# generated using pymatgen
data_CaSi(SbRh2)3
_symmetry_space_group_name_H-M   'P 1'
_cell_length_a   7.55618700
_cell_length_b   7.55618684
_cell_length_c   3.89047500
_cell_angle_alpha   90.00000000
_cell_angle_beta   90.00000000
_cell_angle_gamma   119.99999633
_symmetry_Int_Tables_number   1
_chemical_formula_structural   CaSi(SbRh2)3
_chemical_formula_sum   'Ca1 Si1 Sb3 Rh6'
_cell_volume   192.37058334
_cell_formula_units_Z   1
loop_
 _symmetry_equiv_pos_site_id
 _symmetry_equiv_pos_as_xyz
  1  'x, y, z'
loop_
 _atom_site_type_symbol
 _atom_site_label
 _atom_site_symmetry_multiplicity
 _atom_site_fract_x
 _atom_site_fract_y
 _atom_site_fract_z
 _atom_site_occupancy
  Ca  Ca0  1  0.000000  0.000000  0.000000  1
  Si  Si1  1  0.333333  0.666667  0.000000  1
  Sb  Sb2  1  0.810903  0.621808  0.500000  1
  Sb  Sb3  1  0.378192  0.189097  0.500000  1
  Sb  Sb4  1  0.810903  0.189097  0.500000  1
  Rh  Rh5  1  0.209004  0.790996  0.500000  1
  Rh  Rh6  1  0.209004  0.418009  0.500000  1
  Rh  Rh7  1  0.526400  0.052802  0.000000  1
  Rh  Rh8  1  0.947198  0.473600  0.000000  1
  Rh  Rh9  1  0.526400  0.473600  0.000000  1
  Rh  Rh10  1  0.581991  0.790996  0.500000  1
