# generated using pymatgen
data_Er5Si12PtRh18
_symmetry_space_group_name_H-M   'P 1'
_cell_length_a   12.69362500
_cell_length_b   12.69362326
_cell_length_c   3.91651900
_cell_angle_alpha   90.00000000
_cell_angle_beta   90.00000000
_cell_angle_gamma   120.00000192
_symmetry_Int_Tables_number   1
_chemical_formula_structural   Er5Si12PtRh18
_chemical_formula_sum   'Er5 Si12 Pt1 Rh18'
_cell_volume   546.51505464
_cell_formula_units_Z   1
loop_
 _symmetry_equiv_pos_site_id
 _symmetry_equiv_pos_as_xyz
  1  'x, y, z'
loop_
 _atom_site_type_symbol
 _atom_site_label
 _atom_site_symmetry_multiplicity
 _atom_site_fract_x
 _atom_site_fract_y
 _atom_site_fract_z
 _atom_site_occupancy
  Er  Er0  1  0.666667  0.333333  0.000000  1
  Er  Er1  1  0.333333  0.666667  0.000000  1
  Er  Er2  1  0.809184  0.809184  0.500000  1
  Er  Er3  1  0.190816  0.000000  0.500000  1
  Er  Er4  1  0.000000  0.190816  0.500000  1
  Si  Si5  1  0.685250  0.164615  0.500000  1
  Si  Si6  1  0.835385  0.520634  0.500000  1
  Si  Si7  1  0.479366  0.314750  0.500000  1
  Si  Si8  1  0.164615  0.685250  0.500000  1
  Si  Si9  1  0.520634  0.835385  0.500000  1
  Si  Si10  1  0.314750  0.479366  0.500000  1
  Si  Si11  1  0.629396  0.629396  0.000000  1
  Si  Si12  1  0.370604  0.000000  0.000000  1
  Si  Si13  1  0.000000  0.370604  0.000000  1
  Si  Si14  1  0.183043  0.183043  0.000000  1
  Si  Si15  1  0.816957  0.000000  0.000000  1
  Si  Si16  1  0.000000  0.816957  0.000000  1
  Pt  Pt17  1  0.000000  0.000000  0.000000  1
  Rh  Rh18  1  0.806970  0.182465  0.000000  1
  Rh  Rh19  1  0.817535  0.624505  0.000000  1
  Rh  Rh20  1  0.375495  0.193030  0.000000  1
  Rh  Rh21  1  0.182465  0.806970  0.000000  1
  Rh  Rh22  1  0.624505  0.817535  0.000000  1
  Rh  Rh23  1  0.193030  0.375495  0.000000  1
  Rh  Rh24  1  0.445587  0.445587  0.000000  1
  Rh  Rh25  1  0.554413  0.000000  0.000000  1
  Rh  Rh26  1  0.000000  0.554413  0.000000  1
  Rh  Rh27  1  0.278795  0.278795  0.500000  1
  Rh  Rh28  1  0.721205  0.000000  0.500000  1
  Rh  Rh29  1  0.000000  0.721205  0.500000  1
  Rh  Rh30  1  0.872827  0.359081  0.500000  1
  Rh  Rh31  1  0.640919  0.513746  0.500000  1
  Rh  Rh32  1  0.486254  0.127173  0.500000  1
  Rh  Rh33  1  0.359081  0.872827  0.500000  1
  Rh  Rh34  1  0.513746  0.640919  0.500000  1
  Rh  Rh35  1  0.127173  0.486254  0.500000  1
