# generated using pymatgen
data_Ba4LiAgO6
_symmetry_space_group_name_H-M   'P 1'
_cell_length_a   7.30454672
_cell_length_b   7.30454597
_cell_length_c   11.38700400
_cell_angle_alpha   90.00000000
_cell_angle_beta   90.00000000
_cell_angle_gamma   132.78501563
_symmetry_Int_Tables_number   1
_chemical_formula_structural   Ba4LiAgO6
_chemical_formula_sum   'Ba8 Li2 Ag2 O12'
_cell_volume   445.89983888
_cell_formula_units_Z   2
loop_
 _symmetry_equiv_pos_site_id
 _symmetry_equiv_pos_as_xyz
  1  'x, y, z'
loop_
 _atom_site_type_symbol
 _atom_site_label
 _atom_site_symmetry_multiplicity
 _atom_site_fract_x
 _atom_site_fract_y
 _atom_site_fract_z
 _atom_site_occupancy
  Ba  Ba0  1  0.186667  0.886414  0.750000  1
  Ba  Ba1  1  0.645728  0.354272  0.500000  1
  Ba  Ba2  1  0.813333  0.113586  0.250000  1
  Ba  Ba3  1  0.886414  0.186667  0.750000  1
  Ba  Ba4  1  0.113586  0.813333  0.250000  1
  Ba  Ba5  1  0.354272  0.645728  0.000000  1
  Ba  Ba6  1  0.354272  0.645728  0.500000  1
  Ba  Ba7  1  0.645728  0.354272  0.000000  1
  Li  Li8  1  0.528616  0.528616  0.250000  1
  Li  Li9  1  0.471384  0.471384  0.750000  1
  Ag  Ag10  1  0.000000  0.000000  0.000000  1
  Ag  Ag11  1  0.000000  0.000000  0.500000  1
  O  O12  1  0.262173  0.567718  0.250000  1
  O  O13  1  0.154589  0.845411  0.500000  1
  O  O14  1  0.567718  0.262173  0.250000  1
  O  O15  1  0.732181  0.732181  0.387694  1
  O  O16  1  0.154589  0.845411  0.000000  1
  O  O17  1  0.845411  0.154589  0.000000  1
  O  O18  1  0.432282  0.737827  0.750000  1
  O  O19  1  0.737827  0.432282  0.750000  1
  O  O20  1  0.732181  0.732181  0.112306  1
  O  O21  1  0.845411  0.154589  0.500000  1
  O  O22  1  0.267819  0.267819  0.612306  1
  O  O23  1  0.267819  0.267819  0.887694  1
