# generated using pymatgen
data_LuAl5Cu6
_symmetry_space_group_name_H-M   'P 1'
_cell_length_a   10.26870027
_cell_length_b   8.15960200
_cell_length_c   7.75775661
_cell_angle_alpha   80.29628577
_cell_angle_beta   51.56095155
_cell_angle_gamma   48.13171921
_symmetry_Int_Tables_number   1
_chemical_formula_structural   LuAl5Cu6
_chemical_formula_sum   'Lu2 Al10 Cu12'
_cell_volume   343.66148089
_cell_formula_units_Z   2
loop_
 _symmetry_equiv_pos_site_id
 _symmetry_equiv_pos_as_xyz
  1  'x, y, z'
loop_
 _atom_site_type_symbol
 _atom_site_label
 _atom_site_symmetry_multiplicity
 _atom_site_fract_x
 _atom_site_fract_y
 _atom_site_fract_z
 _atom_site_occupancy
  Lu  Lu0  1  0.999981  0.000010  0.000028  1
  Lu  Lu1  1  0.250019  0.249990  0.249972  1
  Al  Al2  1  0.499992  0.500009  0.500009  1
  Al  Al3  1  0.750008  0.749991  0.749991  1
  Al  Al4  1  0.753111  0.072472  0.838640  1
  Al  Al5  1  0.838753  0.335707  0.753028  1
  Al  Al6  1  0.072499  0.753060  0.335759  1
  Al  Al7  1  0.335807  0.838610  0.072438  1
  Al  Al8  1  0.496889  0.177528  0.411360  1
  Al  Al9  1  0.411247  0.914293  0.496972  1
  Al  Al10  1  0.177501  0.496940  0.914241  1
  Al  Al11  1  0.914193  0.411390  0.177562  1
  Cu  Cu12  1  0.625000  0.125000  0.625000  1
  Cu  Cu13  1  0.625000  0.625000  0.625000  1
  Cu  Cu14  1  0.125000  0.625000  0.625000  1
  Cu  Cu15  1  0.625000  0.625000  0.125000  1
  Cu  Cu16  1  0.493504  0.433719  0.182874  1
  Cu  Cu17  1  0.182879  0.889899  0.493428  1
  Cu  Cu18  1  0.433715  0.493450  0.889937  1
  Cu  Cu19  1  0.889914  0.182888  0.433752  1
  Cu  Cu20  1  0.756496  0.816281  0.067126  1
  Cu  Cu21  1  0.067121  0.360101  0.756572  1
  Cu  Cu22  1  0.816285  0.756550  0.360063  1
  Cu  Cu23  1  0.360086  0.067112  0.816248  1
