# generated using pymatgen
data_CaDy(Si7Rh3)2
_symmetry_space_group_name_H-M   'P 1'
_cell_length_a   8.00095268
_cell_length_b   8.00095333
_cell_length_c   8.00095371
_cell_angle_alpha   57.07941450
_cell_angle_beta   57.07940953
_cell_angle_gamma   57.07940711
_symmetry_Int_Tables_number   1
_chemical_formula_structural   CaDy(Si7Rh3)2
_chemical_formula_sum   'Ca1 Dy1 Si14 Rh6'
_cell_volume   337.78856116
_cell_formula_units_Z   1
loop_
 _symmetry_equiv_pos_site_id
 _symmetry_equiv_pos_as_xyz
  1  'x, y, z'
loop_
 _atom_site_type_symbol
 _atom_site_label
 _atom_site_symmetry_multiplicity
 _atom_site_fract_x
 _atom_site_fract_y
 _atom_site_fract_z
 _atom_site_occupancy
  Ca  Ca0  1  0.000000  0.000000  0.000000  1
  Dy  Dy1  1  0.500000  0.500000  0.500000  1
  Si  Si2  1  0.749679  0.749679  0.749679  1
  Si  Si3  1  0.250321  0.250321  0.250321  1
  Si  Si4  1  0.851817  0.065226  0.672845  1
  Si  Si5  1  0.672845  0.851817  0.065226  1
  Si  Si6  1  0.065226  0.672845  0.851817  1
  Si  Si7  1  0.649367  0.828002  0.433756  1
  Si  Si8  1  0.433756  0.649367  0.828002  1
  Si  Si9  1  0.828002  0.433756  0.649367  1
  Si  Si10  1  0.171998  0.566244  0.350633  1
  Si  Si11  1  0.566244  0.350633  0.171998  1
  Si  Si12  1  0.350633  0.171998  0.566244  1
  Si  Si13  1  0.934774  0.327155  0.148183  1
  Si  Si14  1  0.327155  0.148183  0.934774  1
  Si  Si15  1  0.148183  0.934774  0.327155  1
  Rh  Rh16  1  0.071540  0.431063  0.748791  1
  Rh  Rh17  1  0.251209  0.928460  0.568937  1
  Rh  Rh18  1  0.568937  0.251209  0.928460  1
  Rh  Rh19  1  0.928460  0.568937  0.251209  1
  Rh  Rh20  1  0.431063  0.748791  0.071540  1
  Rh  Rh21  1  0.748791  0.071540  0.431063  1
