# generated using pymatgen
data_Nd4LuSn4
_symmetry_space_group_name_H-M   'P 1'
_cell_length_a   8.19507300
_cell_length_b   8.35376900
_cell_length_c   15.89614200
_cell_angle_alpha   90.00000000
_cell_angle_beta   90.00000000
_cell_angle_gamma   90.00000000
_symmetry_Int_Tables_number   1
_chemical_formula_structural   Nd4LuSn4
_chemical_formula_sum   'Nd16 Lu4 Sn16'
_cell_volume   1088.24585610
_cell_formula_units_Z   4
loop_
 _symmetry_equiv_pos_site_id
 _symmetry_equiv_pos_as_xyz
  1  'x, y, z'
loop_
 _atom_site_type_symbol
 _atom_site_label
 _atom_site_symmetry_multiplicity
 _atom_site_fract_x
 _atom_site_fract_y
 _atom_site_fract_z
 _atom_site_occupancy
  Nd  Nd0  1  0.018743  0.180919  0.401939  1
  Nd  Nd1  1  0.366044  0.838363  0.121175  1
  Nd  Nd2  1  0.133956  0.338363  0.621175  1
  Nd  Nd3  1  0.481257  0.680919  0.901939  1
  Nd  Nd4  1  0.866044  0.661637  0.121175  1
  Nd  Nd5  1  0.133956  0.338363  0.878825  1
  Nd  Nd6  1  0.481257  0.680919  0.598061  1
  Nd  Nd7  1  0.633956  0.161637  0.621175  1
  Nd  Nd8  1  0.866044  0.661637  0.378825  1
  Nd  Nd9  1  0.018743  0.180919  0.098061  1
  Nd  Nd10  1  0.981257  0.819081  0.901939  1
  Nd  Nd11  1  0.633956  0.161637  0.878825  1
  Nd  Nd12  1  0.518743  0.319081  0.098061  1
  Nd  Nd13  1  0.366044  0.838363  0.378825  1
  Nd  Nd14  1  0.981257  0.819081  0.598061  1
  Nd  Nd15  1  0.518743  0.319081  0.401939  1
  Lu  Lu16  1  0.197921  0.502613  0.250000  1
  Lu  Lu17  1  0.697921  0.997387  0.250000  1
  Lu  Lu18  1  0.302079  0.002613  0.750000  1
  Lu  Lu19  1  0.802079  0.497387  0.750000  1
  Sn  Sn20  1  0.793096  0.465622  0.544819  1
  Sn  Sn21  1  0.706904  0.965622  0.455181  1
  Sn  Sn22  1  0.675078  0.851430  0.750000  1
  Sn  Sn23  1  0.206904  0.534378  0.455181  1
  Sn  Sn24  1  0.293096  0.034378  0.955181  1
  Sn  Sn25  1  0.824922  0.351430  0.250000  1
  Sn  Sn26  1  0.793096  0.465622  0.955181  1
  Sn  Sn27  1  0.561899  0.616503  0.250000  1
  Sn  Sn28  1  0.206904  0.534378  0.044819  1
  Sn  Sn29  1  0.438101  0.383497  0.750000  1
  Sn  Sn30  1  0.175078  0.648570  0.750000  1
  Sn  Sn31  1  0.938101  0.116503  0.750000  1
  Sn  Sn32  1  0.293096  0.034378  0.544819  1
  Sn  Sn33  1  0.706904  0.965622  0.044819  1
  Sn  Sn34  1  0.324922  0.148570  0.250000  1
  Sn  Sn35  1  0.061899  0.883497  0.250000  1
