# generated using pymatgen
data_Dy4Er8InCo4Ni
_symmetry_space_group_name_H-M   'P 1'
_cell_length_a   8.24063759
_cell_length_b   8.24063766
_cell_length_c   8.24063721
_cell_angle_alpha   106.91857963
_cell_angle_beta   110.62016661
_cell_angle_gamma   110.90482063
_symmetry_Int_Tables_number   1
_chemical_formula_structural   Dy4Er8InCo4Ni
_chemical_formula_sum   'Dy4 Er8 In1 Co4 Ni1'
_cell_volume   430.14443250
_cell_formula_units_Z   1
loop_
 _symmetry_equiv_pos_site_id
 _symmetry_equiv_pos_as_xyz
  1  'x, y, z'
loop_
 _atom_site_type_symbol
 _atom_site_label
 _atom_site_symmetry_multiplicity
 _atom_site_fract_x
 _atom_site_fract_y
 _atom_site_fract_z
 _atom_site_occupancy
  Dy  Dy0  1  0.195507  0.211958  0.407466  1
  Dy  Dy1  1  0.804493  0.788042  0.592534  1
  Dy  Dy2  1  0.195507  0.788042  0.983548  1
  Dy  Dy3  1  0.804493  0.211958  0.016452  1
  Er  Er4  1  0.478504  0.292786  0.185718  1
  Er  Er5  1  0.107067  0.292786  0.814282  1
  Er  Er6  1  0.892933  0.707214  0.185718  1
  Er  Er7  1  0.521496  0.707214  0.814282  1
  Er  Er8  1  0.305070  0.620586  0.315515  1
  Er  Er9  1  0.305070  0.989556  0.684485  1
  Er  Er10  1  0.694930  0.379414  0.684485  1
  Er  Er11  1  0.694930  0.010444  0.315515  1
  In  In12  1  0.000000  0.500000  0.500000  1
  Co  Co13  1  0.500000  0.612608  0.112608  1
  Co  Co14  1  0.500000  0.387392  0.887392  1
  Co  Co15  1  0.378243  0.000000  0.378243  1
  Co  Co16  1  0.621757  0.000000  0.621757  1
  Ni  Ni17  1  0.000000  0.000000  0.000000  1
