# generated using pymatgen
data_Zr2UFe3
_symmetry_space_group_name_H-M   'P 1'
_cell_length_a   4.92699447
_cell_length_b   4.92699504
_cell_length_c   4.92659200
_cell_angle_alpha   65.47216473
_cell_angle_beta   65.47762857
_cell_angle_gamma   65.47051613
_symmetry_Int_Tables_number   1
_chemical_formula_structural   Zr2UFe3
_chemical_formula_sum   'Zr2 U1 Fe3'
_cell_volume   94.63114050
_cell_formula_units_Z   1
loop_
 _symmetry_equiv_pos_site_id
 _symmetry_equiv_pos_as_xyz
  1  'x, y, z'
loop_
 _atom_site_type_symbol
 _atom_site_label
 _atom_site_symmetry_multiplicity
 _atom_site_fract_x
 _atom_site_fract_y
 _atom_site_fract_z
 _atom_site_occupancy
  Zr  Zr0  1  0.626968  0.627006  0.626945  1
  Zr  Zr1  1  0.373032  0.372994  0.373055  1
  U  U2  1  0.000000  0.000000  0.000000  1
  Fe  Fe3  1  0.000000  0.500000  0.000000  1
  Fe  Fe4  1  0.500000  0.000000  0.000000  1
  Fe  Fe5  1  0.000000  0.000000  0.500000  1
