# generated using pymatgen
data_YScNb4(B2Ru5)2
_symmetry_space_group_name_H-M   'P 1'
_cell_length_a   9.52381633
_cell_length_b   9.52381677
_cell_length_c   3.07753900
_cell_angle_alpha   90.00000000
_cell_angle_beta   90.00000000
_cell_angle_gamma   89.60378199
_symmetry_Int_Tables_number   1
_chemical_formula_structural   YScNb4(B2Ru5)2
_chemical_formula_sum   'Y1 Sc1 Nb4 B4 Ru10'
_cell_volume   279.13559697
_cell_formula_units_Z   1
loop_
 _symmetry_equiv_pos_site_id
 _symmetry_equiv_pos_as_xyz
  1  'x, y, z'
loop_
 _atom_site_type_symbol
 _atom_site_label
 _atom_site_symmetry_multiplicity
 _atom_site_fract_x
 _atom_site_fract_y
 _atom_site_fract_z
 _atom_site_occupancy
  Y  Y0  1  0.174497  0.174497  0.000000  1
  Sc  Sc1  1  0.823660  0.823660  0.000000  1
  Nb  Nb2  1  0.501730  0.999233  0.000000  1
  Nb  Nb3  1  0.999233  0.501730  0.000000  1
  Nb  Nb4  1  0.676117  0.324364  0.000000  1
  Nb  Nb5  1  0.324364  0.676117  0.000000  1
  B  B6  1  0.379921  0.379921  0.000000  1
  B  B7  1  0.623915  0.623915  0.000000  1
  B  B8  1  0.878065  0.118738  0.000000  1
  B  B9  1  0.118738  0.878065  0.000000  1
  Ru  Ru10  1  0.501684  0.501684  0.500000  1
  Ru  Ru11  1  0.994092  0.994092  0.500000  1
  Ru  Ru12  1  0.440645  0.223372  0.500000  1
  Ru  Ru13  1  0.565511  0.779805  0.500000  1
  Ru  Ru14  1  0.918232  0.284214  0.500000  1
  Ru  Ru15  1  0.076978  0.715228  0.500000  1
  Ru  Ru16  1  0.715228  0.076978  0.500000  1
  Ru  Ru17  1  0.284214  0.918232  0.500000  1
  Ru  Ru18  1  0.779805  0.565511  0.500000  1
  Ru  Ru19  1  0.223372  0.440645  0.500000  1
