# generated using pymatgen
data_Er8Ga3Ir
_symmetry_space_group_name_H-M   'P 1'
_cell_length_a   9.98458600
_cell_length_b   9.98458639
_cell_length_c   6.95587200
_cell_angle_alpha   90.00000000
_cell_angle_beta   90.00000000
_cell_angle_gamma   120.00000532
_symmetry_Int_Tables_number   1
_chemical_formula_structural   Er8Ga3Ir
_chemical_formula_sum   'Er16 Ga6 Ir2'
_cell_volume   600.54054154
_cell_formula_units_Z   2
loop_
 _symmetry_equiv_pos_site_id
 _symmetry_equiv_pos_as_xyz
  1  'x, y, z'
loop_
 _atom_site_type_symbol
 _atom_site_label
 _atom_site_symmetry_multiplicity
 _atom_site_fract_x
 _atom_site_fract_y
 _atom_site_fract_z
 _atom_site_occupancy
  Er  Er0  1  0.000000  0.000000  0.267902  1
  Er  Er1  1  0.000000  0.000000  0.767902  1
  Er  Er2  1  0.171224  0.828776  0.991231  1
  Er  Er3  1  0.828776  0.171224  0.491231  1
  Er  Er4  1  0.171224  0.342448  0.991231  1
  Er  Er5  1  0.657552  0.828776  0.991231  1
  Er  Er6  1  0.342448  0.171224  0.491231  1
  Er  Er7  1  0.828776  0.657552  0.491231  1
  Er  Er8  1  0.333333  0.666667  0.663658  1
  Er  Er9  1  0.666667  0.333333  0.163658  1
  Er  Er10  1  0.465731  0.534269  0.295165  1
  Er  Er11  1  0.534269  0.465731  0.795165  1
  Er  Er12  1  0.465731  0.931463  0.295165  1
  Er  Er13  1  0.068537  0.534269  0.295165  1
  Er  Er14  1  0.931463  0.465731  0.795165  1
  Er  Er15  1  0.534269  0.068537  0.795165  1
  Ga  Ga16  1  0.163411  0.836589  0.541472  1
  Ga  Ga17  1  0.836589  0.163411  0.041472  1
  Ga  Ga18  1  0.163411  0.326821  0.541472  1
  Ga  Ga19  1  0.673179  0.836589  0.541472  1
  Ga  Ga20  1  0.326821  0.163411  0.041472  1
  Ga  Ga21  1  0.836589  0.673179  0.041472  1
  Ir  Ir22  1  0.333333  0.666667  0.057896  1
  Ir  Ir23  1  0.666667  0.333333  0.557896  1
