# generated using pymatgen
data_Y10CdCoAu2
_symmetry_space_group_name_H-M   'P 1'
_cell_length_a   9.57248248
_cell_length_b   9.57248194
_cell_length_c   9.56118000
_cell_angle_alpha   90.00000000
_cell_angle_beta   90.00000000
_cell_angle_gamma   119.88912104
_symmetry_Int_Tables_number   1
_chemical_formula_structural   Y10CdCoAu2
_chemical_formula_sum   'Y20 Cd2 Co2 Au4'
_cell_volume   759.58330567
_cell_formula_units_Z   2
loop_
 _symmetry_equiv_pos_site_id
 _symmetry_equiv_pos_as_xyz
  1  'x, y, z'
loop_
 _atom_site_type_symbol
 _atom_site_label
 _atom_site_symmetry_multiplicity
 _atom_site_fract_x
 _atom_site_fract_y
 _atom_site_fract_z
 _atom_site_occupancy
  Y  Y0  1  0.004483  0.995517  0.476923  1
  Y  Y1  1  0.004483  0.995517  0.023077  1
  Y  Y2  1  0.541334  0.458666  0.250000  1
  Y  Y3  1  0.542824  0.086141  0.250000  1
  Y  Y4  1  0.913859  0.457176  0.250000  1
  Y  Y5  1  0.454941  0.545059  0.750000  1
  Y  Y6  1  0.448295  0.915998  0.750000  1
  Y  Y7  1  0.084002  0.551705  0.750000  1
  Y  Y8  1  0.210637  0.789363  0.436608  1
  Y  Y9  1  0.209272  0.420609  0.436968  1
  Y  Y10  1  0.579391  0.790728  0.436968  1
  Y  Y11  1  0.790265  0.209735  0.561828  1
  Y  Y12  1  0.788810  0.580191  0.562472  1
  Y  Y13  1  0.419809  0.211190  0.562472  1
  Y  Y14  1  0.790265  0.209735  0.938172  1
  Y  Y15  1  0.788810  0.580191  0.937528  1
  Y  Y16  1  0.419809  0.211190  0.937528  1
  Y  Y17  1  0.210637  0.789363  0.063392  1
  Y  Y18  1  0.209272  0.420609  0.063032  1
  Y  Y19  1  0.579391  0.790728  0.063032  1
  Cd  Cd20  1  0.111803  0.222807  0.750000  1
  Cd  Cd21  1  0.777193  0.888197  0.750000  1
  Co  Co22  1  0.334028  0.665972  0.250000  1
  Co  Co23  1  0.667552  0.332448  0.750000  1
  Au  Au24  1  0.875743  0.124257  0.250000  1
  Au  Au25  1  0.873228  0.747279  0.250000  1
  Au  Au26  1  0.252721  0.126772  0.250000  1
  Au  Au27  1  0.117141  0.882859  0.750000  1
