# generated using pymatgen
data_SrAcU2(NiAs)4
_symmetry_space_group_name_H-M   'P 1'
_cell_length_a   4.12963600
_cell_length_b   4.12963591
_cell_length_c   16.19708900
_cell_angle_alpha   90.00000000
_cell_angle_beta   90.00000000
_cell_angle_gamma   120.00001676
_symmetry_Int_Tables_number   1
_chemical_formula_structural   SrAcU2(NiAs)4
_chemical_formula_sum   'Sr1 Ac1 U2 Ni4 As4'
_cell_volume   239.21646232
_cell_formula_units_Z   1
loop_
 _symmetry_equiv_pos_site_id
 _symmetry_equiv_pos_as_xyz
  1  'x, y, z'
loop_
 _atom_site_type_symbol
 _atom_site_label
 _atom_site_symmetry_multiplicity
 _atom_site_fract_x
 _atom_site_fract_y
 _atom_site_fract_z
 _atom_site_occupancy
  Sr  Sr0  1  0.000000  0.000000  0.500000  1
  Ac  Ac1  1  0.000000  0.000000  0.000000  1
  U  U2  1  0.000000  0.000000  0.252084  1
  U  U3  1  0.000000  0.000000  0.747916  1
  Ni  Ni4  1  0.333333  0.666667  0.160375  1
  Ni  Ni5  1  0.666667  0.333333  0.839625  1
  Ni  Ni6  1  0.666667  0.333333  0.660511  1
  Ni  Ni7  1  0.333333  0.666667  0.339489  1
  As  As8  1  0.333333  0.666667  0.630114  1
  As  As9  1  0.666667  0.333333  0.369886  1
  As  As10  1  0.666667  0.333333  0.130934  1
  As  As11  1  0.333333  0.666667  0.869066  1
