# generated using pymatgen
data_Y3Al12Ru3Pt
_symmetry_space_group_name_H-M   'P 1'
_cell_length_a   8.84094307
_cell_length_b   8.78948011
_cell_length_c   9.57047865
_cell_angle_alpha   90.00000064
_cell_angle_beta   90.04944731
_cell_angle_gamma   119.80762969
_symmetry_Int_Tables_number   1
_chemical_formula_structural   Y3Al12Ru3Pt
_chemical_formula_sum   'Y6 Al24 Ru6 Pt2'
_cell_volume   645.30414763
_cell_formula_units_Z   2
loop_
 _symmetry_equiv_pos_site_id
 _symmetry_equiv_pos_as_xyz
  1  'x, y, z'
loop_
 _atom_site_type_symbol
 _atom_site_label
 _atom_site_symmetry_multiplicity
 _atom_site_fract_x
 _atom_site_fract_y
 _atom_site_fract_z
 _atom_site_occupancy
  Y  Y0  1  0.190952  0.385754  0.252267  1
  Y  Y1  1  0.809048  0.614246  0.747733  1
  Y  Y2  1  0.616689  0.808345  0.251627  1
  Y  Y3  1  0.383311  0.191655  0.748373  1
  Y  Y4  1  0.190952  0.805199  0.252267  1
  Y  Y5  1  0.809048  0.194801  0.747733  1
  Al  Al6  1  0.327074  0.663537  0.025157  1
  Al  Al7  1  0.672926  0.336463  0.974843  1
  Al  Al8  1  0.666809  0.333404  0.521907  1
  Al  Al9  1  0.333191  0.666596  0.478093  1
  Al  Al10  1  0.163555  0.326873  0.576917  1
  Al  Al11  1  0.836445  0.673127  0.423083  1
  Al  Al12  1  0.673643  0.836822  0.576226  1
  Al  Al13  1  0.841916  0.674733  0.078373  1
  Al  Al14  1  0.326357  0.163178  0.423774  1
  Al  Al15  1  0.158084  0.325267  0.921627  1
  Al  Al16  1  0.163555  0.836681  0.576917  1
  Al  Al17  1  0.322892  0.161445  0.079125  1
  Al  Al18  1  0.836445  0.163319  0.423083  1
  Al  Al19  1  0.677108  0.838555  0.920875  1
  Al  Al20  1  0.841916  0.167182  0.078373  1
  Al  Al21  1  0.158084  0.832818  0.921627  1
  Al  Al22  1  0.562358  0.125077  0.252738  1
  Al  Al23  1  0.437642  0.874923  0.747262  1
  Al  Al24  1  0.877557  0.438778  0.248990  1
  Al  Al25  1  0.122443  0.561222  0.751010  1
  Al  Al26  1  0.562358  0.437281  0.252738  1
  Al  Al27  1  0.437642  0.562719  0.747262  1
  Al  Al28  1  0.998279  0.999139  0.250418  1
  Al  Al29  1  0.001721  0.000861  0.749582  1
  Ru  Ru30  1  0.000000  0.500000  0.000000  1
  Ru  Ru31  1  0.500000  0.000000  0.500000  1
  Ru  Ru32  1  0.000000  0.500000  0.500000  1
  Ru  Ru33  1  0.500000  0.500000  0.500000  1
  Ru  Ru34  1  0.000000  0.000000  0.000000  1
  Ru  Ru35  1  0.000000  0.000000  0.500000  1
  Pt  Pt36  1  0.500000  0.000000  0.000000  1
  Pt  Pt37  1  0.500000  0.500000  0.000000  1
