# generated using pymatgen
data_Li8Nd8SiSb7
_symmetry_space_group_name_H-M   'P 1'
_cell_length_a   9.48381800
_cell_length_b   9.48381810
_cell_length_c   7.44814200
_cell_angle_alpha   90.00000000
_cell_angle_beta   90.00000000
_cell_angle_gamma   119.99999269
_symmetry_Int_Tables_number   1
_chemical_formula_structural   Li8Nd8SiSb7
_chemical_formula_sum   'Li8 Nd8 Si1 Sb7'
_cell_volume   580.15633386
_cell_formula_units_Z   1
loop_
 _symmetry_equiv_pos_site_id
 _symmetry_equiv_pos_as_xyz
  1  'x, y, z'
loop_
 _atom_site_type_symbol
 _atom_site_label
 _atom_site_symmetry_multiplicity
 _atom_site_fract_x
 _atom_site_fract_y
 _atom_site_fract_z
 _atom_site_occupancy
  Li  Li0  1  0.167917  0.335835  0.268342  1
  Li  Li1  1  0.167917  0.832083  0.268342  1
  Li  Li2  1  0.664165  0.832083  0.268342  1
  Li  Li3  1  0.828071  0.656142  0.768687  1
  Li  Li4  1  0.828071  0.171929  0.768687  1
  Li  Li5  1  0.343858  0.171929  0.768687  1
  Li  Li6  1  0.333333  0.666667  0.692326  1
  Li  Li7  1  0.666667  0.333333  0.193076  1
  Nd  Nd8  1  0.514154  0.028310  0.501292  1
  Nd  Nd9  1  0.514154  0.485846  0.501292  1
  Nd  Nd10  1  0.971690  0.485846  0.501292  1
  Nd  Nd11  1  0.498397  0.996793  0.992372  1
  Nd  Nd12  1  0.498397  0.501603  0.992372  1
  Nd  Nd13  1  0.003207  0.501603  0.992372  1
  Nd  Nd14  1  0.000000  0.000000  0.500977  1
  Nd  Nd15  1  0.000000  0.000000  0.000030  1
  Si  Si16  1  0.666667  0.333333  0.757241  1
  Sb  Sb17  1  0.166344  0.332688  0.741122  1
  Sb  Sb18  1  0.166344  0.833656  0.741122  1
  Sb  Sb19  1  0.667312  0.833656  0.741122  1
  Sb  Sb20  1  0.833274  0.666548  0.241249  1
  Sb  Sb21  1  0.833274  0.166726  0.241249  1
  Sb  Sb22  1  0.333452  0.166726  0.241249  1
  Sb  Sb23  1  0.333333  0.666667  0.259130  1
