# generated using pymatgen
data_Nd(Ga3Pd)3
_symmetry_space_group_name_H-M   'P 1'
_cell_length_a   10.52827183
_cell_length_b   10.52827227
_cell_length_c   10.52827380
_cell_angle_alpha   42.44686814
_cell_angle_beta   42.44687524
_cell_angle_gamma   42.44687208
_symmetry_Int_Tables_number   1
_chemical_formula_structural   Nd(Ga3Pd)3
_chemical_formula_sum   'Nd2 Ga18 Pd6'
_cell_volume   481.27248055
_cell_formula_units_Z   2
loop_
 _symmetry_equiv_pos_site_id
 _symmetry_equiv_pos_as_xyz
  1  'x, y, z'
loop_
 _atom_site_type_symbol
 _atom_site_label
 _atom_site_symmetry_multiplicity
 _atom_site_fract_x
 _atom_site_fract_y
 _atom_site_fract_z
 _atom_site_occupancy
  Nd  Nd0  1  0.166778  0.166778  0.166778  1
  Nd  Nd1  1  0.833222  0.833222  0.833222  1
  Ga  Ga2  1  0.108666  0.435900  0.764304  1
  Ga  Ga3  1  0.435900  0.764304  0.108666  1
  Ga  Ga4  1  0.564100  0.891334  0.235696  1
  Ga  Ga5  1  0.951154  0.951154  0.951154  1
  Ga  Ga6  1  0.048846  0.048846  0.048846  1
  Ga  Ga7  1  0.298043  0.701957  0.500000  1
  Ga  Ga8  1  0.891334  0.235696  0.564100  1
  Ga  Ga9  1  0.384316  0.384316  0.384316  1
  Ga  Ga10  1  0.500000  0.298043  0.701957  1
  Ga  Ga11  1  0.235696  0.564100  0.891334  1
  Ga  Ga12  1  0.715106  0.715106  0.715106  1
  Ga  Ga13  1  0.615684  0.615684  0.615684  1
  Ga  Ga14  1  0.334352  0.000000  0.665648  1
  Ga  Ga15  1  0.701957  0.500000  0.298043  1
  Ga  Ga16  1  0.665648  0.334352  0.000000  1
  Ga  Ga17  1  0.284894  0.284894  0.284894  1
  Ga  Ga18  1  0.000000  0.665648  0.334352  1
  Ga  Ga19  1  0.764304  0.108666  0.435900  1
  Pd  Pd20  1  0.418460  0.078329  0.758412  1
  Pd  Pd21  1  0.581540  0.241588  0.921671  1
  Pd  Pd22  1  0.078329  0.758412  0.418460  1
  Pd  Pd23  1  0.758412  0.418460  0.078329  1
  Pd  Pd24  1  0.921671  0.581540  0.241588  1
  Pd  Pd25  1  0.241588  0.921671  0.581540  1
