# generated using pymatgen
data_DyHoLu6(CdPt)2
_symmetry_space_group_name_H-M   'P 1'
_cell_length_a   9.53669447
_cell_length_b   9.52536176
_cell_length_c   9.52527920
_cell_angle_alpha   60.07901679
_cell_angle_beta   59.96092655
_cell_angle_gamma   59.96006488
_symmetry_Int_Tables_number   1
_chemical_formula_structural   DyHoLu6(CdPt)2
_chemical_formula_sum   'Dy2 Ho2 Lu12 Cd4 Pt4'
_cell_volume   611.84420544
_cell_formula_units_Z   2
loop_
 _symmetry_equiv_pos_site_id
 _symmetry_equiv_pos_as_xyz
  1  'x, y, z'
loop_
 _atom_site_type_symbol
 _atom_site_label
 _atom_site_symmetry_multiplicity
 _atom_site_fract_x
 _atom_site_fract_y
 _atom_site_fract_z
 _atom_site_occupancy
  Dy  Dy0  1  0.564919  0.564919  0.935081  1
  Dy  Dy1  1  0.935081  0.935081  0.564918  1
  Ho  Ho2  1  0.564870  0.935130  0.564870  1
  Ho  Ho3  1  0.935130  0.564869  0.935130  1
  Lu  Lu4  1  0.353021  0.352124  0.352193  1
  Lu  Lu5  1  0.352124  0.353021  0.942663  1
  Lu  Lu6  1  0.352193  0.942663  0.353021  1
  Lu  Lu7  1  0.942663  0.352193  0.352124  1
  Lu  Lu8  1  0.811127  0.188873  0.188873  1
  Lu  Lu9  1  0.188873  0.811127  0.811127  1
  Lu  Lu10  1  0.188610  0.811390  0.188610  1
  Lu  Lu11  1  0.811390  0.188610  0.811390  1
  Lu  Lu12  1  0.188609  0.188609  0.811391  1
  Lu  Lu13  1  0.811391  0.811391  0.188609  1
  Lu  Lu14  1  0.938827  0.561173  0.561173  1
  Lu  Lu15  1  0.561173  0.938827  0.938827  1
  Cd  Cd16  1  0.583230  0.580966  0.580939  1
  Cd  Cd17  1  0.580966  0.583230  0.254865  1
  Cd  Cd18  1  0.580939  0.254865  0.583230  1
  Cd  Cd19  1  0.254865  0.580939  0.580966  1
  Pt  Pt20  1  0.144552  0.142561  0.142519  1
  Pt  Pt21  1  0.142561  0.144552  0.570368  1
  Pt  Pt22  1  0.142519  0.570368  0.144552  1
  Pt  Pt23  1  0.570368  0.142519  0.142561  1
