# generated using pymatgen
data_Zr9Ta(OsO)3
_symmetry_space_group_name_H-M   'P 1'
_cell_length_a   8.57937800
_cell_length_b   8.57937774
_cell_length_c   8.62038900
_cell_angle_alpha   90.00000000
_cell_angle_beta   90.00000000
_cell_angle_gamma   120.00000099
_symmetry_Int_Tables_number   1
_chemical_formula_structural   Zr9Ta(OsO)3
_chemical_formula_sum   'Zr18 Ta2 Os6 O6'
_cell_volume   549.50175547
_cell_formula_units_Z   2
loop_
 _symmetry_equiv_pos_site_id
 _symmetry_equiv_pos_as_xyz
  1  'x, y, z'
loop_
 _atom_site_type_symbol
 _atom_site_label
 _atom_site_symmetry_multiplicity
 _atom_site_fract_x
 _atom_site_fract_y
 _atom_site_fract_z
 _atom_site_occupancy
  Zr  Zr0  1  0.452831  0.905662  0.250000  1
  Zr  Zr1  1  0.547169  0.094338  0.750000  1
  Zr  Zr2  1  0.094338  0.547169  0.250000  1
  Zr  Zr3  1  0.905662  0.452831  0.750000  1
  Zr  Zr4  1  0.452831  0.547169  0.250000  1
  Zr  Zr5  1  0.547169  0.452831  0.750000  1
  Zr  Zr6  1  0.203759  0.407516  0.563150  1
  Zr  Zr7  1  0.796241  0.592484  0.436850  1
  Zr  Zr8  1  0.592484  0.796241  0.563150  1
  Zr  Zr9  1  0.796241  0.592484  0.063150  1
  Zr  Zr10  1  0.407516  0.203759  0.436850  1
  Zr  Zr11  1  0.203759  0.407516  0.936850  1
  Zr  Zr12  1  0.203759  0.796241  0.563150  1
  Zr  Zr13  1  0.407516  0.203759  0.063150  1
  Zr  Zr14  1  0.796241  0.203759  0.436850  1
  Zr  Zr15  1  0.592484  0.796241  0.936850  1
  Zr  Zr16  1  0.796241  0.203759  0.063150  1
  Zr  Zr17  1  0.203759  0.796241  0.936850  1
  Ta  Ta18  1  0.000000  0.000000  0.000000  1
  Ta  Ta19  1  0.000000  0.000000  0.500000  1
  Os  Os20  1  0.111697  0.223392  0.250000  1
  Os  Os21  1  0.888303  0.776608  0.750000  1
  Os  Os22  1  0.776608  0.888303  0.250000  1
  Os  Os23  1  0.223392  0.111697  0.750000  1
  Os  Os24  1  0.111697  0.888303  0.250000  1
  Os  Os25  1  0.888303  0.111697  0.750000  1
  O  O26  1  0.500000  0.000000  0.000000  1
  O  O27  1  0.000000  0.500000  0.000000  1
  O  O28  1  0.500000  0.000000  0.500000  1
  O  O29  1  0.500000  0.500000  0.000000  1
  O  O30  1  0.000000  0.500000  0.500000  1
  O  O31  1  0.500000  0.500000  0.500000  1
