# generated using pymatgen
data_AcLa11(GeBr3)4
_symmetry_space_group_name_H-M   'P 1'
_cell_length_a   10.59722845
_cell_length_b   10.68165221
_cell_length_c   10.59722700
_cell_angle_alpha   109.41140994
_cell_angle_beta   109.60033909
_cell_angle_gamma   109.41140217
_symmetry_Int_Tables_number   1
_chemical_formula_structural   AcLa11(GeBr3)4
_chemical_formula_sum   'Ac1 La11 Ge4 Br12'
_cell_volume   923.31315822
_cell_formula_units_Z   1
loop_
 _symmetry_equiv_pos_site_id
 _symmetry_equiv_pos_as_xyz
  1  'x, y, z'
loop_
 _atom_site_type_symbol
 _atom_site_label
 _atom_site_symmetry_multiplicity
 _atom_site_fract_x
 _atom_site_fract_y
 _atom_site_fract_z
 _atom_site_occupancy
  Ac  Ac0  1  0.253626  0.750000  0.246374  1
  La  La1  1  0.489972  0.750000  0.010028  1
  La  La2  1  0.749560  0.239340  0.258104  1
  La  La3  1  0.241896  0.260660  0.750440  1
  La  La4  1  0.482134  0.488613  0.240425  1
  La  La5  1  0.259575  0.011387  0.017866  1
  La  La6  1  0.241313  0.479355  0.490186  1
  La  La7  1  0.009814  0.020645  0.258687  1
  La  La8  1  0.008032  0.488728  0.747417  1
  La  La9  1  0.492857  0.242894  0.481913  1
  La  La10  1  0.752583  0.011272  0.491968  1
  La  La11  1  0.018087  0.257106  0.007143  1
  Ge  Ge12  1  0.250240  0.250000  0.249760  1
  Ge  Ge13  1  0.000185  0.250000  0.499815  1
  Ge  Ge14  1  0.250040  0.499049  0.999606  1
  Ge  Ge15  1  0.500394  0.000951  0.249960  1
  Br  Br16  1  0.997161  0.992722  0.744979  1
  Br  Br17  1  0.755639  0.748054  0.251027  1
  Br  Br18  1  0.984986  0.747986  0.986471  1
  Br  Br19  1  0.252397  0.004744  0.512715  1
  Br  Br20  1  0.744628  0.995425  0.990853  1
  Br  Br21  1  0.504505  0.250000  0.995495  1
  Br  Br22  1  0.746420  0.250000  0.753580  1
  Br  Br23  1  0.513529  0.752014  0.515014  1
  Br  Br24  1  0.755021  0.507278  0.502839  1
  Br  Br25  1  0.248973  0.751946  0.744361  1
  Br  Br26  1  0.509147  0.504575  0.755372  1
  Br  Br27  1  0.987285  0.495256  0.247603  1
