# generated using pymatgen
data_PaNb2Co3Ni17B6
_symmetry_space_group_name_H-M   'P 1'
_cell_length_a   7.54286453
_cell_length_b   7.54286419
_cell_length_c   7.53824887
_cell_angle_alpha   59.95410900
_cell_angle_beta   59.95410654
_cell_angle_gamma   60.02319235
_symmetry_Int_Tables_number   1
_chemical_formula_structural   PaNb2Co3Ni17B6
_chemical_formula_sum   'Pa1 Nb2 Co3 Ni17 B6'
_cell_volume   303.11150895
_cell_formula_units_Z   1
loop_
 _symmetry_equiv_pos_site_id
 _symmetry_equiv_pos_as_xyz
  1  'x, y, z'
loop_
 _atom_site_type_symbol
 _atom_site_label
 _atom_site_symmetry_multiplicity
 _atom_site_fract_x
 _atom_site_fract_y
 _atom_site_fract_z
 _atom_site_occupancy
  Pa  Pa0  1  0.254451  0.254451  0.245818  1
  Nb  Nb1  1  0.748411  0.748411  0.747006  1
  Nb  Nb2  1  0.000226  0.000226  0.999696  1
  Co  Co3  1  0.385505  0.385505  0.385448  1
  Co  Co4  1  0.617357  0.617357  0.618068  1
  Co  Co5  1  0.385508  0.385508  0.843430  1
  Ni  Ni6  1  0.388900  0.833463  0.388607  1
  Ni  Ni7  1  0.616165  0.616165  0.150613  1
  Ni  Ni8  1  0.615629  0.150869  0.616723  1
  Ni  Ni9  1  0.833463  0.388900  0.388607  1
  Ni  Ni10  1  0.150869  0.615629  0.616723  1
  Ni  Ni11  1  0.344211  0.998301  0.998848  1
  Ni  Ni12  1  0.661182  0.996512  0.996630  1
  Ni  Ni13  1  0.998901  0.343484  0.659237  1
  Ni  Ni14  1  0.997368  0.660655  0.344963  1
  Ni  Ni15  1  0.998301  0.344211  0.998848  1
  Ni  Ni16  1  0.660655  0.997368  0.344963  1
  Ni  Ni17  1  0.996512  0.661182  0.996630  1
  Ni  Ni18  1  0.343484  0.998901  0.659237  1
  Ni  Ni19  1  0.998951  0.998951  0.344454  1
  Ni  Ni20  1  0.998639  0.998639  0.658573  1
  Ni  Ni21  1  0.661495  0.344833  0.996975  1
  Ni  Ni22  1  0.344833  0.661495  0.996975  1
  B  B23  1  0.729314  0.268626  0.269278  1
  B  B24  1  0.271925  0.727915  0.731587  1
  B  B25  1  0.268626  0.729314  0.269278  1
  B  B26  1  0.727915  0.271925  0.731587  1
  B  B27  1  0.270279  0.270279  0.730067  1
  B  B28  1  0.730923  0.730923  0.271130  1
