# generated using pymatgen
data_Ce2Co2AsPH2
_symmetry_space_group_name_H-M   'P 1'
_cell_length_a   3.96201200
_cell_length_b   3.96201200
_cell_length_c   7.31308200
_cell_angle_alpha   90.00000000
_cell_angle_beta   90.00000000
_cell_angle_gamma   90.00000000
_symmetry_Int_Tables_number   1
_chemical_formula_structural   Ce2Co2AsPH2
_chemical_formula_sum   'Ce2 Co2 As1 P1 H2'
_cell_volume   114.79739055
_cell_formula_units_Z   1
loop_
 _symmetry_equiv_pos_site_id
 _symmetry_equiv_pos_as_xyz
  1  'x, y, z'
loop_
 _atom_site_type_symbol
 _atom_site_label
 _atom_site_symmetry_multiplicity
 _atom_site_fract_x
 _atom_site_fract_y
 _atom_site_fract_z
 _atom_site_occupancy
  Ce  Ce0  1  0.500000  0.000000  0.322172  1
  Ce  Ce1  1  0.000000  0.500000  0.684711  1
  Co  Co2  1  0.500000  0.500000  0.989513  1
  Co  Co3  1  0.000000  0.000000  0.989513  1
  As  As4  1  0.000000  0.500000  0.173609  1
  P  P5  1  0.500000  0.000000  0.837425  1
  H  H6  1  0.000000  0.000000  0.501528  1
  H  H7  1  0.500000  0.500000  0.501528  1
