# generated using pymatgen
data_Pr2Nb3Si4
_symmetry_space_group_name_H-M   'P 1'
_cell_length_a   7.02945558
_cell_length_b   7.27378051
_cell_length_c   13.66152939
_cell_angle_alpha   90.01618701
_cell_angle_beta   89.98115384
_cell_angle_gamma   90.01880005
_symmetry_Int_Tables_number   1
_chemical_formula_structural   Pr2Nb3Si4
_chemical_formula_sum   'Pr8 Nb12 Si16'
_cell_volume   698.52368976
_cell_formula_units_Z   4
loop_
 _symmetry_equiv_pos_site_id
 _symmetry_equiv_pos_as_xyz
  1  'x, y, z'
loop_
 _atom_site_type_symbol
 _atom_site_label
 _atom_site_symmetry_multiplicity
 _atom_site_fract_x
 _atom_site_fract_y
 _atom_site_fract_z
 _atom_site_occupancy
  Pr  Pr0  1  0.505111  0.331353  0.096017  1
  Pr  Pr1  1  0.005235  0.168639  0.403804  1
  Pr  Pr2  1  0.494964  0.668705  0.596133  1
  Pr  Pr3  1  0.994618  0.831328  0.904022  1
  Pr  Pr4  1  0.494773  0.668588  0.904023  1
  Pr  Pr5  1  0.994874  0.831182  0.596145  1
  Pr  Pr6  1  0.505299  0.331476  0.403882  1
  Pr  Pr7  1  0.005095  0.168763  0.096025  1
  Nb  Nb8  1  0.662571  0.013467  0.750072  1
  Nb  Nb9  1  0.162735  0.486244  0.750167  1
  Nb  Nb10  1  0.337310  0.986538  0.249908  1
  Nb  Nb11  1  0.837220  0.513723  0.249921  1
  Nb  Nb12  1  0.838103  0.323941  0.626510  1
  Nb  Nb13  1  0.337833  0.176172  0.873592  1
  Nb  Nb14  1  0.162082  0.676261  0.126316  1
  Nb  Nb15  1  0.662067  0.823978  0.373476  1
  Nb  Nb16  1  0.161915  0.676204  0.373499  1
  Nb  Nb17  1  0.661949  0.823899  0.126380  1
  Nb  Nb18  1  0.837968  0.323699  0.873604  1
  Nb  Nb19  1  0.338271  0.175815  0.626571  1
  Si  Si20  1  0.798249  0.612166  0.750168  1
  Si  Si21  1  0.298172  0.887678  0.750161  1
  Si  Si22  1  0.201680  0.387904  0.249859  1
  Si  Si23  1  0.701774  0.112302  0.249860  1
  Si  Si24  1  0.542756  0.368856  0.750116  1
  Si  Si25  1  0.042553  0.130781  0.750026  1
  Si  Si26  1  0.457372  0.631149  0.249863  1
  Si  Si27  1  0.957434  0.869084  0.249971  1
  Si  Si28  1  0.657260  0.041025  0.542941  1
  Si  Si29  1  0.156903  0.459155  0.957050  1
  Si  Si30  1  0.342930  0.959183  0.042922  1
  Si  Si31  1  0.843082  0.541091  0.456988  1
  Si  Si32  1  0.343136  0.959007  0.457054  1
  Si  Si33  1  0.842969  0.540867  0.042945  1
  Si  Si34  1  0.656688  0.040906  0.957036  1
  Si  Si35  1  0.157053  0.458872  0.542974  1
