# generated using pymatgen
data_Ho12TlSi4Au
_symmetry_space_group_name_H-M   'P 1'
_cell_length_a   8.45800261
_cell_length_b   8.45800136
_cell_length_c   8.45800200
_cell_angle_alpha   112.19200407
_cell_angle_beta   111.10061033
_cell_angle_gamma   105.20549052
_symmetry_Int_Tables_number   1
_chemical_formula_structural   Ho12TlSi4Au
_chemical_formula_sum   'Ho12 Tl1 Si4 Au1'
_cell_volume   463.81757362
_cell_formula_units_Z   1
loop_
 _symmetry_equiv_pos_site_id
 _symmetry_equiv_pos_as_xyz
  1  'x, y, z'
loop_
 _atom_site_type_symbol
 _atom_site_label
 _atom_site_symmetry_multiplicity
 _atom_site_fract_x
 _atom_site_fract_y
 _atom_site_fract_z
 _atom_site_occupancy
  Ho  Ho0  1  0.321438  0.619630  0.298192  1
  Ho  Ho1  1  0.678562  0.380370  0.701808  1
  Ho  Ho2  1  0.321438  0.023245  0.701808  1
  Ho  Ho3  1  0.678562  0.976755  0.298192  1
  Ho  Ho4  1  0.181896  0.272387  0.454284  1
  Ho  Ho5  1  0.818104  0.727613  0.545716  1
  Ho  Ho6  1  0.181896  0.727613  0.909509  1
  Ho  Ho7  1  0.818104  0.272387  0.090491  1
  Ho  Ho8  1  0.432830  0.234332  0.198497  1
  Ho  Ho9  1  0.567170  0.765668  0.801503  1
  Ho  Ho10  1  0.035834  0.234332  0.801503  1
  Ho  Ho11  1  0.964166  0.765668  0.198497  1
  Tl  Tl12  1  0.500000  0.500000  0.000000  1
  Si  Si13  1  0.117010  0.617010  0.500000  1
  Si  Si14  1  0.882990  0.382990  0.500000  1
  Si  Si15  1  0.365553  0.000000  0.365553  1
  Si  Si16  1  0.634447  0.000000  0.634447  1
  Au  Au17  1  0.000000  0.000000  0.000000  1
