# generated using pymatgen
data_Pr4HoSi2Pb
_symmetry_space_group_name_H-M   'P 1'
_cell_length_a   7.79461622
_cell_length_b   7.79461753
_cell_length_c   9.41208852
_cell_angle_alpha   114.46107294
_cell_angle_beta   114.46106659
_cell_angle_gamma   89.99999297
_symmetry_Int_Tables_number   1
_chemical_formula_structural   Pr4HoSi2Pb
_chemical_formula_sum   'Pr8 Ho2 Si4 Pb2'
_cell_volume   463.53871754
_cell_formula_units_Z   2
loop_
 _symmetry_equiv_pos_site_id
 _symmetry_equiv_pos_as_xyz
  1  'x, y, z'
loop_
 _atom_site_type_symbol
 _atom_site_label
 _atom_site_symmetry_multiplicity
 _atom_site_fract_x
 _atom_site_fract_y
 _atom_site_fract_z
 _atom_site_occupancy
  Pr  Pr0  1  0.962688  0.809807  0.272495  1
  Pr  Pr1  1  0.309807  0.462688  0.272495  1
  Pr  Pr2  1  0.809807  0.309807  0.272495  1
  Pr  Pr3  1  0.462688  0.962688  0.272495  1
  Pr  Pr4  1  0.037312  0.190193  0.727505  1
  Pr  Pr5  1  0.690193  0.537312  0.727505  1
  Pr  Pr6  1  0.190193  0.690193  0.727505  1
  Pr  Pr7  1  0.537312  0.037312  0.727505  1
  Ho  Ho8  1  0.500000  0.500000  0.000000  1
  Ho  Ho9  1  0.000000  0.000000  0.000000  1
  Si  Si10  1  0.622781  0.877219  0.000000  1
  Si  Si11  1  0.377219  0.122781  0.000000  1
  Si  Si12  1  0.877219  0.377219  0.000000  1
  Si  Si13  1  0.122781  0.622781  0.000000  1
  Pb  Pb14  1  0.750000  0.750000  0.500000  1
  Pb  Pb15  1  0.250000  0.250000  0.500000  1
