# generated using pymatgen
data_Na2Ag4Te3
_symmetry_space_group_name_H-M   'P 1'
_cell_length_a   9.23002844
_cell_length_b   9.23002848
_cell_length_c   11.88675919
_cell_angle_alpha   73.22496573
_cell_angle_beta   73.22496472
_cell_angle_gamma   29.60114575
_symmetry_Int_Tables_number   1
_chemical_formula_structural   Na2Ag4Te3
_chemical_formula_sum   'Na4 Ag8 Te6'
_cell_volume   477.41135451
_cell_formula_units_Z   2
loop_
 _symmetry_equiv_pos_site_id
 _symmetry_equiv_pos_as_xyz
  1  'x, y, z'
loop_
 _atom_site_type_symbol
 _atom_site_label
 _atom_site_symmetry_multiplicity
 _atom_site_fract_x
 _atom_site_fract_y
 _atom_site_fract_z
 _atom_site_occupancy
  Na  Na0  1  0.184161  0.184161  0.650662  1
  Na  Na1  1  0.815839  0.815839  0.349338  1
  Na  Na2  1  0.655256  0.655256  0.169508  1
  Na  Na3  1  0.344744  0.344744  0.830492  1
  Ag  Ag4  1  0.408504  0.408504  0.534914  1
  Ag  Ag5  1  0.996139  0.996139  0.879328  1
  Ag  Ag6  1  0.974367  0.974367  0.632997  1
  Ag  Ag7  1  0.412132  0.412132  0.075659  1
  Ag  Ag8  1  0.591496  0.591496  0.465086  1
  Ag  Ag9  1  0.587868  0.587868  0.924341  1
  Ag  Ag10  1  0.025633  0.025633  0.367003  1
  Ag  Ag11  1  0.003861  0.003861  0.120672  1
  Te  Te12  1  0.158591  0.158591  0.963060  1
  Te  Te13  1  0.817848  0.817848  0.627449  1
  Te  Te14  1  0.538465  0.538465  0.715481  1
  Te  Te15  1  0.182152  0.182152  0.372551  1
  Te  Te16  1  0.461535  0.461535  0.284519  1
  Te  Te17  1  0.841409  0.841409  0.036940  1
