# generated using pymatgen
data_Tb8Ho4Ga2TcNi3
_symmetry_space_group_name_H-M   'P 1'
_cell_length_a   8.34399724
_cell_length_b   8.34424161
_cell_length_c   8.34399825
_cell_angle_alpha   112.79539792
_cell_angle_beta   109.28228070
_cell_angle_gamma   106.39849232
_symmetry_Int_Tables_number   1
_chemical_formula_structural   Tb8Ho4Ga2TcNi3
_chemical_formula_sum   'Tb8 Ho4 Ga2 Tc1 Ni3'
_cell_volume   445.81619567
_cell_formula_units_Z   1
loop_
 _symmetry_equiv_pos_site_id
 _symmetry_equiv_pos_as_xyz
  1  'x, y, z'
loop_
 _atom_site_type_symbol
 _atom_site_label
 _atom_site_symmetry_multiplicity
 _atom_site_fract_x
 _atom_site_fract_y
 _atom_site_fract_z
 _atom_site_occupancy
  Tb  Tb0  1  0.442400  0.248530  0.193898  1
  Tb  Tb1  1  0.573172  0.767978  0.805155  1
  Tb  Tb2  1  0.037176  0.232022  0.805193  1
  Tb  Tb3  1  0.945369  0.751470  0.193869  1
  Tb  Tb4  1  0.185907  0.280065  0.465972  1
  Tb  Tb5  1  0.825441  0.721097  0.546554  1
  Tb  Tb6  1  0.185908  0.719935  0.905842  1
  Tb  Tb7  1  0.825456  0.278903  0.104343  1
  Ho  Ho8  1  0.325764  0.639342  0.308255  1
  Ho  Ho9  1  0.668911  0.360658  0.686420  1
  Ho  Ho10  1  0.325724  0.017498  0.686427  1
  Ho  Ho11  1  0.668929  0.982502  0.308226  1
  Ga  Ga12  1  0.493688  0.500000  0.993688  1
  Ga  Ga13  1  0.016622  0.000000  0.016622  1
  Tc  Tc14  1  0.326413  0.000000  0.326413  1
  Ni  Ni15  1  0.652787  0.000000  0.652787  1
  Ni  Ni16  1  0.118560  0.618643  0.500416  1
  Ni  Ni17  1  0.881773  0.381357  0.499917  1
