# generated using pymatgen
data_Er8Sc12Ga9Sn7
_symmetry_space_group_name_H-M   'P 1'
_cell_length_a   7.33063894
_cell_length_b   7.75075613
_cell_length_c   14.73281228
_cell_angle_alpha   89.94503980
_cell_angle_beta   90.14128446
_cell_angle_gamma   90.02243606
_symmetry_Int_Tables_number   1
_chemical_formula_structural   Er8Sc12Ga9Sn7
_chemical_formula_sum   'Er8 Sc12 Ga9 Sn7'
_cell_volume   837.08585631
_cell_formula_units_Z   1
loop_
 _symmetry_equiv_pos_site_id
 _symmetry_equiv_pos_as_xyz
  1  'x, y, z'
loop_
 _atom_site_type_symbol
 _atom_site_label
 _atom_site_symmetry_multiplicity
 _atom_site_fract_x
 _atom_site_fract_y
 _atom_site_fract_z
 _atom_site_occupancy
  Er  Er0  1  0.995769  0.181184  0.099681  1
  Er  Er1  1  0.004159  0.818699  0.899808  1
  Er  Er2  1  0.504095  0.681884  0.900023  1
  Er  Er3  1  0.005963  0.814313  0.599517  1
  Er  Er4  1  0.495615  0.318880  0.099604  1
  Er  Er5  1  0.999111  0.184269  0.401976  1
  Er  Er6  1  0.493592  0.322280  0.401960  1
  Er  Er7  1  0.494628  0.674908  0.598067  1
  Sc  Sc8  1  0.172332  0.502388  0.746603  1
  Sc  Sc9  1  0.827810  0.497249  0.250673  1
  Sc  Sc10  1  0.327711  0.002238  0.250009  1
  Sc  Sc11  1  0.671510  0.997041  0.749534  1
  Sc  Sc12  1  0.326631  0.172839  0.629584  1
  Sc  Sc13  1  0.668585  0.835777  0.367578  1
  Sc  Sc14  1  0.170647  0.656332  0.370841  1
  Sc  Sc15  1  0.667093  0.837705  0.133281  1
  Sc  Sc16  1  0.839101  0.339092  0.631871  1
  Sc  Sc17  1  0.333001  0.162156  0.866665  1
  Sc  Sc18  1  0.832315  0.337596  0.866693  1
  Sc  Sc19  1  0.167245  0.662530  0.133020  1
  Ga  Ga20  1  0.032769  0.113497  0.750151  1
  Ga  Ga21  1  0.967753  0.885398  0.250761  1
  Ga  Ga22  1  0.466289  0.614278  0.250203  1
  Ga  Ga23  1  0.534122  0.386143  0.748982  1
  Ga  Ga24  1  0.293370  0.865738  0.749509  1
  Ga  Ga25  1  0.706713  0.136463  0.250477  1
  Ga  Ga26  1  0.207057  0.363702  0.249688  1
  Ga  Ga27  1  0.792220  0.635879  0.750245  1
  Ga  Ga28  1  0.173765  0.459233  0.542069  1
  Sn  Sn29  1  0.828543  0.541438  0.461276  1
  Sn  Sn30  1  0.320316  0.956567  0.459383  1
  Sn  Sn31  1  0.819420  0.543593  0.040564  1
  Sn  Sn32  1  0.679777  0.042030  0.541162  1
  Sn  Sn33  1  0.180699  0.456643  0.958809  1
  Sn  Sn34  1  0.680905  0.043492  0.959408  1
  Sn  Sn35  1  0.319366  0.956547  0.040326  1
