# generated using pymatgen
data_TmLu7B24(RhW)2
_symmetry_space_group_name_H-M   'P 1'
_cell_length_a   3.58311300
_cell_length_b   9.10701078
_cell_length_c   11.50908801
_cell_angle_alpha   90.39086922
_cell_angle_beta   90.00000000
_cell_angle_gamma   90.00000000
_symmetry_Int_Tables_number   1
_chemical_formula_structural   TmLu7B24(RhW)2
_chemical_formula_sum   'Tm1 Lu7 B24 Rh2 W2'
_cell_volume   375.54947594
_cell_formula_units_Z   1
loop_
 _symmetry_equiv_pos_site_id
 _symmetry_equiv_pos_as_xyz
  1  'x, y, z'
loop_
 _atom_site_type_symbol
 _atom_site_label
 _atom_site_symmetry_multiplicity
 _atom_site_fract_x
 _atom_site_fract_y
 _atom_site_fract_z
 _atom_site_occupancy
  Tm  Tm0  1  0.500000  0.318126  0.412192  1
  Lu  Lu1  1  0.500000  0.682055  0.587852  1
  Lu  Lu2  1  0.500000  0.176273  0.916530  1
  Lu  Lu3  1  0.500000  0.823712  0.083454  1
  Lu  Lu4  1  0.500000  0.444916  0.127130  1
  Lu  Lu5  1  0.500000  0.555085  0.872839  1
  Lu  Lu6  1  0.500000  0.055488  0.626844  1
  Lu  Lu7  1  0.500000  0.944387  0.373182  1
  B  B8  1  0.000000  0.106146  0.472196  1
  B  B9  1  0.000000  0.893670  0.527848  1
  B  B10  1  0.000000  0.395570  0.970356  1
  B  B11  1  0.000000  0.604431  0.029642  1
  B  B12  1  0.000000  0.131962  0.318748  1
  B  B13  1  0.000000  0.867921  0.681159  1
  B  B14  1  0.000000  0.368168  0.816363  1
  B  B15  1  0.000000  0.631832  0.183637  1
  B  B16  1  0.000000  0.051102  0.065208  1
  B  B17  1  0.000000  0.948889  0.934790  1
  B  B18  1  0.000000  0.446742  0.565404  1
  B  B19  1  0.000000  0.553441  0.434692  1
  B  B20  1  0.000000  0.482714  0.288487  1
  B  B21  1  0.000000  0.517429  0.711440  1
  B  B22  1  0.000000  0.022790  0.786164  1
  B  B23  1  0.000000  0.977199  0.213840  1
  B  B24  1  0.000000  0.251804  0.077874  1
  B  B25  1  0.000000  0.748211  0.922119  1
  B  B26  1  0.000000  0.249816  0.578881  1
  B  B27  1  0.000000  0.750147  0.421289  1
  B  B28  1  0.000000  0.297487  0.237450  1
  B  B29  1  0.000000  0.702447  0.762413  1
  B  B30  1  0.000000  0.208551  0.734671  1
  B  B31  1  0.000000  0.791444  0.265340  1
  Rh  Rh32  1  0.500000  0.361311  0.678231  1
  Rh  Rh33  1  0.500000  0.638790  0.321820  1
  W  W34  1  0.500000  0.139184  0.181108  1
  W  W35  1  0.500000  0.860759  0.818805  1
