# generated using pymatgen
data_Pr2Ho2LuPt4
_symmetry_space_group_name_H-M   'P 1'
_cell_length_a   7.62610400
_cell_length_b   7.73654600
_cell_length_c   14.58970800
_cell_angle_alpha   90.00000000
_cell_angle_beta   90.00000000
_cell_angle_gamma   90.00000000
_symmetry_Int_Tables_number   1
_chemical_formula_structural   Pr2Ho2LuPt4
_chemical_formula_sum   'Pr8 Ho8 Lu4 Pt16'
_cell_volume   860.78845924
_cell_formula_units_Z   4
loop_
 _symmetry_equiv_pos_site_id
 _symmetry_equiv_pos_as_xyz
  1  'x, y, z'
loop_
 _atom_site_type_symbol
 _atom_site_label
 _atom_site_symmetry_multiplicity
 _atom_site_fract_x
 _atom_site_fract_y
 _atom_site_fract_z
 _atom_site_occupancy
  Pr  Pr0  1  0.485529  0.671990  0.598316  1
  Pr  Pr1  1  0.985529  0.828010  0.901684  1
  Pr  Pr2  1  0.514471  0.328010  0.098316  1
  Pr  Pr3  1  0.014471  0.171990  0.401684  1
  Pr  Pr4  1  0.514471  0.328010  0.401684  1
  Pr  Pr5  1  0.014471  0.171990  0.098316  1
  Pr  Pr6  1  0.485529  0.671990  0.901684  1
  Pr  Pr7  1  0.985529  0.828010  0.598316  1
  Ho  Ho8  1  0.643354  0.166713  0.622731  1
  Ho  Ho9  1  0.143354  0.333287  0.877269  1
  Ho  Ho10  1  0.356646  0.833287  0.122731  1
  Ho  Ho11  1  0.856646  0.666713  0.377269  1
  Ho  Ho12  1  0.356646  0.833287  0.377269  1
  Ho  Ho13  1  0.856646  0.666713  0.122731  1
  Ho  Ho14  1  0.643354  0.166713  0.877269  1
  Ho  Ho15  1  0.143354  0.333287  0.622731  1
  Lu  Lu16  1  0.806349  0.506291  0.750000  1
  Lu  Lu17  1  0.306349  0.993709  0.750000  1
  Lu  Lu18  1  0.193651  0.493709  0.250000  1
  Lu  Lu19  1  0.693651  0.006291  0.250000  1
  Pt  Pt20  1  0.688223  0.965795  0.454390  1
  Pt  Pt21  1  0.188223  0.534205  0.045610  1
  Pt  Pt22  1  0.311777  0.034205  0.954390  1
  Pt  Pt23  1  0.811777  0.465795  0.545610  1
  Pt  Pt24  1  0.311777  0.034205  0.545610  1
  Pt  Pt25  1  0.811777  0.465795  0.954390  1
  Pt  Pt26  1  0.688223  0.965795  0.045610  1
  Pt  Pt27  1  0.188223  0.534205  0.454390  1
  Pt  Pt28  1  0.437516  0.372824  0.750000  1
  Pt  Pt29  1  0.937516  0.127176  0.750000  1
  Pt  Pt30  1  0.562484  0.627176  0.250000  1
  Pt  Pt31  1  0.062484  0.872824  0.250000  1
  Pt  Pt32  1  0.669274  0.864061  0.750000  1
  Pt  Pt33  1  0.169274  0.635939  0.750000  1
  Pt  Pt34  1  0.330726  0.135939  0.250000  1
  Pt  Pt35  1  0.830726  0.364061  0.250000  1
