# generated using pymatgen
data_Ba6Cr(ReO6)3
_symmetry_space_group_name_H-M   'P 1'
_cell_length_a   9.95974076
_cell_length_b   9.95974035
_cell_length_c   9.83489800
_cell_angle_alpha   80.28440814
_cell_angle_beta   80.28440853
_cell_angle_gamma   119.99499178
_symmetry_Int_Tables_number   1
_chemical_formula_structural   Ba6Cr(ReO6)3
_chemical_formula_sum   'Ba12 Cr2 Re6 O36'
_cell_volume   795.35314556
_cell_formula_units_Z   2
loop_
 _symmetry_equiv_pos_site_id
 _symmetry_equiv_pos_as_xyz
  1  'x, y, z'
loop_
 _atom_site_type_symbol
 _atom_site_label
 _atom_site_symmetry_multiplicity
 _atom_site_fract_x
 _atom_site_fract_y
 _atom_site_fract_z
 _atom_site_occupancy
  Ba  Ba0  1  0.631751  0.959364  0.122246  1
  Ba  Ba1  1  0.286717  0.286717  0.122839  1
  Ba  Ba2  1  0.959364  0.631751  0.122246  1
  Ba  Ba3  1  0.368249  0.040636  0.877754  1
  Ba  Ba4  1  0.040636  0.368249  0.877754  1
  Ba  Ba5  1  0.713283  0.713283  0.877161  1
  Ba  Ba6  1  0.462135  0.796342  0.610223  1
  Ba  Ba7  1  0.130051  0.130051  0.613907  1
  Ba  Ba8  1  0.796342  0.462135  0.610223  1
  Ba  Ba9  1  0.537865  0.203658  0.389777  1
  Ba  Ba10  1  0.203658  0.537865  0.389777  1
  Ba  Ba11  1  0.869949  0.869949  0.386093  1
  Cr  Cr12  1  0.666748  0.333252  0.000000  1
  Cr  Cr13  1  0.333252  0.666748  0.000000  1
  Re  Re14  1  0.422235  0.422235  0.739789  1
  Re  Re15  1  0.086413  0.751651  0.739267  1
  Re  Re16  1  0.751651  0.086413  0.739267  1
  Re  Re17  1  0.577765  0.577765  0.260211  1
  Re  Re18  1  0.248349  0.913587  0.260733  1
  Re  Re19  1  0.913587  0.248349  0.260733  1
  O  O20  1  0.459144  0.302891  0.633240  1
  O  O21  1  0.119994  0.621957  0.640840  1
  O  O22  1  0.785729  0.966499  0.631322  1
  O  O23  1  0.618100  0.618100  0.638711  1
  O  O24  1  0.278845  0.941130  0.633009  1
  O  O25  1  0.941130  0.278845  0.633009  1
  O  O26  1  0.302891  0.459144  0.633240  1
  O  O27  1  0.966499  0.785729  0.631322  1
  O  O28  1  0.621957  0.119994  0.640840  1
  O  O29  1  0.540856  0.697109  0.366760  1
  O  O30  1  0.214271  0.033501  0.368678  1
  O  O31  1  0.880006  0.378043  0.359160  1
  O  O32  1  0.381900  0.381900  0.361289  1
  O  O33  1  0.058870  0.721155  0.366991  1
  O  O34  1  0.721155  0.058870  0.366991  1
  O  O35  1  0.697109  0.540856  0.366760  1
  O  O36  1  0.378043  0.880006  0.359160  1
  O  O37  1  0.033501  0.214271  0.368678  1
  O  O38  1  0.619400  0.455950  0.129181  1
  O  O39  1  0.294214  0.793538  0.128744  1
  O  O40  1  0.955983  0.146094  0.133289  1
  O  O41  1  0.765228  0.765228  0.132834  1
  O  O42  1  0.457497  0.120915  0.129317  1
  O  O43  1  0.120915  0.457497  0.129317  1
  O  O44  1  0.455950  0.619400  0.129181  1
  O  O45  1  0.146094  0.955983  0.133289  1
  O  O46  1  0.793538  0.294214  0.128744  1
  O  O47  1  0.380600  0.544050  0.870819  1
  O  O48  1  0.044017  0.853906  0.866711  1
  O  O49  1  0.705786  0.206462  0.871256  1
  O  O50  1  0.234772  0.234772  0.867166  1
  O  O51  1  0.879085  0.542503  0.870683  1
  O  O52  1  0.542503  0.879085  0.870683  1
  O  O53  1  0.544050  0.380600  0.870819  1
  O  O54  1  0.206462  0.705786  0.871256  1
  O  O55  1  0.853906  0.044017  0.866711  1
