# generated using pymatgen
data_Dy5Ti3(Si3Ir4)4
_symmetry_space_group_name_H-M   'P 1'
_cell_length_a   12.91314000
_cell_length_b   12.91313976
_cell_length_c   4.00429900
_cell_angle_alpha   90.00000000
_cell_angle_beta   90.00000000
_cell_angle_gamma   120.00000063
_symmetry_Int_Tables_number   1
_chemical_formula_structural   Dy5Ti3(Si3Ir4)4
_chemical_formula_sum   'Dy5 Ti3 Si12 Ir16'
_cell_volume   578.25691971
_cell_formula_units_Z   1
loop_
 _symmetry_equiv_pos_site_id
 _symmetry_equiv_pos_as_xyz
  1  'x, y, z'
loop_
 _atom_site_type_symbol
 _atom_site_label
 _atom_site_symmetry_multiplicity
 _atom_site_fract_x
 _atom_site_fract_y
 _atom_site_fract_z
 _atom_site_occupancy
  Dy  Dy0  1  0.333333  0.666667  0.500000  1
  Dy  Dy1  1  0.666667  0.333333  0.500000  1
  Dy  Dy2  1  0.000000  0.812150  0.000000  1
  Dy  Dy3  1  0.187850  0.187850  0.000000  1
  Dy  Dy4  1  0.812150  0.000000  0.000000  1
  Ti  Ti5  1  0.000000  0.437201  0.500000  1
  Ti  Ti6  1  0.562799  0.562799  0.500000  1
  Ti  Ti7  1  0.437201  0.000000  0.500000  1
  Si  Si8  1  0.000000  0.634177  0.500000  1
  Si  Si9  1  0.365823  0.365823  0.500000  1
  Si  Si10  1  0.634177  0.000000  0.500000  1
  Si  Si11  1  0.518985  0.691852  0.000000  1
  Si  Si12  1  0.308148  0.827133  0.000000  1
  Si  Si13  1  0.172867  0.481015  0.000000  1
  Si  Si14  1  0.481015  0.172867  0.000000  1
  Si  Si15  1  0.691852  0.518985  0.000000  1
  Si  Si16  1  0.827133  0.308148  0.000000  1
  Si  Si17  1  0.000000  0.182009  0.500000  1
  Si  Si18  1  0.817991  0.817991  0.500000  1
  Si  Si19  1  0.182009  0.000000  0.500000  1
  Ir  Ir20  1  0.510553  0.875012  0.000000  1
  Ir  Ir21  1  0.124988  0.635541  0.000000  1
  Ir  Ir22  1  0.364459  0.489447  0.000000  1
  Ir  Ir23  1  0.489447  0.364459  0.000000  1
  Ir  Ir24  1  0.875012  0.510553  0.000000  1
  Ir  Ir25  1  0.635541  0.124988  0.000000  1
  Ir  Ir26  1  0.000000  0.281375  0.000000  1
  Ir  Ir27  1  0.718625  0.718625  0.000000  1
  Ir  Ir28  1  0.281375  0.000000  0.000000  1
  Ir  Ir29  1  0.625310  0.806768  0.500000  1
  Ir  Ir30  1  0.193232  0.818541  0.500000  1
  Ir  Ir31  1  0.181459  0.374690  0.500000  1
  Ir  Ir32  1  0.374690  0.181459  0.500000  1
  Ir  Ir33  1  0.806768  0.625310  0.500000  1
  Ir  Ir34  1  0.818541  0.193232  0.500000  1
  Ir  Ir35  1  0.000000  0.000000  0.500000  1
