# generated using pymatgen
data_ZrPaRh6
_symmetry_space_group_name_H-M   'P 1'
_cell_length_a   4.02855600
_cell_length_b   4.02855600
_cell_length_c   7.99137800
_cell_angle_alpha   90.00000000
_cell_angle_beta   90.00000000
_cell_angle_gamma   90.00000000
_symmetry_Int_Tables_number   1
_chemical_formula_structural   ZrPaRh6
_chemical_formula_sum   'Zr1 Pa1 Rh6'
_cell_volume   129.69417885
_cell_formula_units_Z   1
loop_
 _symmetry_equiv_pos_site_id
 _symmetry_equiv_pos_as_xyz
  1  'x, y, z'
loop_
 _atom_site_type_symbol
 _atom_site_label
 _atom_site_symmetry_multiplicity
 _atom_site_fract_x
 _atom_site_fract_y
 _atom_site_fract_z
 _atom_site_occupancy
  Zr  Zr0  1  0.000000  0.000000  0.500000  1
  Pa  Pa1  1  0.000000  0.000000  0.000000  1
  Rh  Rh2  1  0.500000  0.500000  0.000000  1
  Rh  Rh3  1  0.500000  0.500000  0.500000  1
  Rh  Rh4  1  0.500000  0.000000  0.252748  1
  Rh  Rh5  1  0.500000  0.000000  0.747252  1
  Rh  Rh6  1  0.000000  0.500000  0.252748  1
  Rh  Rh7  1  0.000000  0.500000  0.747252  1
