# generated using pymatgen
data_Er10Tm6ZnIn3Rh4
_symmetry_space_group_name_H-M   'P 1'
_cell_length_a   9.49965432
_cell_length_b   9.49769061
_cell_length_c   9.50397047
_cell_angle_alpha   60.07997378
_cell_angle_beta   60.09049734
_cell_angle_gamma   60.09901925
_symmetry_Int_Tables_number   1
_chemical_formula_structural   Er10Tm6ZnIn3Rh4
_chemical_formula_sum   'Er10 Tm6 Zn1 In3 Rh4'
_cell_volume   607.57373511
_cell_formula_units_Z   1
loop_
 _symmetry_equiv_pos_site_id
 _symmetry_equiv_pos_as_xyz
  1  'x, y, z'
loop_
 _atom_site_type_symbol
 _atom_site_label
 _atom_site_symmetry_multiplicity
 _atom_site_fract_x
 _atom_site_fract_y
 _atom_site_fract_z
 _atom_site_occupancy
  Er  Er0  1  0.062000  0.062414  0.438509  1
  Er  Er1  1  0.435980  0.068905  0.436274  1
  Er  Er2  1  0.061976  0.438453  0.062258  1
  Er  Er3  1  0.054186  0.647084  0.647292  1
  Er  Er4  1  0.436271  0.436153  0.068731  1
  Er  Er5  1  0.647268  0.054343  0.647022  1
  Er  Er6  1  0.189374  0.810989  0.189331  1
  Er  Er7  1  0.189009  0.189269  0.810967  1
  Er  Er8  1  0.810193  0.810165  0.190463  1
  Er  Er9  1  0.438678  0.062088  0.061915  1
  Tm  Tm10  1  0.810940  0.189539  0.189172  1
  Tm  Tm11  1  0.068318  0.436253  0.436471  1
  Tm  Tm12  1  0.810380  0.190507  0.810099  1
  Tm  Tm13  1  0.190583  0.810226  0.809969  1
  Tm  Tm14  1  0.647500  0.647028  0.053869  1
  Tm  Tm15  1  0.651186  0.650807  0.651178  1
  Zn  Zn16  1  0.415858  0.416002  0.415775  1
  In  In17  1  0.745837  0.417248  0.416940  1
  In  In18  1  0.417358  0.745518  0.417033  1
  In  In19  1  0.417203  0.417285  0.745561  1
  Rh  Rh20  1  0.858052  0.858334  0.427624  1
  Rh  Rh21  1  0.856381  0.856342  0.856490  1
  Rh  Rh22  1  0.428016  0.857338  0.858379  1
  Rh  Rh23  1  0.857455  0.427710  0.858677  1
