# generated using pymatgen
data_Y4Ni13Ge
_symmetry_space_group_name_H-M   'P 1'
_cell_length_a   12.49581861
_cell_length_b   12.49581795
_cell_length_c   12.48734300
_cell_angle_alpha   22.64182735
_cell_angle_beta   22.64183322
_cell_angle_gamma   23.05797150
_symmetry_Int_Tables_number   1
_chemical_formula_structural   Y4Ni13Ge
_chemical_formula_sum   'Y4 Ni13 Ge1'
_cell_volume   256.44185184
_cell_formula_units_Z   1
loop_
 _symmetry_equiv_pos_site_id
 _symmetry_equiv_pos_as_xyz
  1  'x, y, z'
loop_
 _atom_site_type_symbol
 _atom_site_label
 _atom_site_symmetry_multiplicity
 _atom_site_fract_x
 _atom_site_fract_y
 _atom_site_fract_z
 _atom_site_occupancy
  Y  Y0  1  0.949032  0.949032  0.948526  1
  Y  Y1  1  0.050968  0.050968  0.051474  1
  Y  Y2  1  0.852425  0.852425  0.853441  1
  Y  Y3  1  0.147575  0.147575  0.146559  1
  Ni  Ni4  1  0.390763  0.889941  0.390830  1
  Ni  Ni5  1  0.389452  0.389452  0.890913  1
  Ni  Ni6  1  0.889941  0.390763  0.390830  1
  Ni  Ni7  1  0.609237  0.110059  0.609170  1
  Ni  Ni8  1  0.610548  0.610548  0.109087  1
  Ni  Ni9  1  0.110059  0.609237  0.609170  1
  Ni  Ni10  1  0.000000  0.500000  0.500000  1
  Ni  Ni11  1  0.500000  0.000000  0.500000  1
  Ni  Ni12  1  0.721672  0.721672  0.724090  1
  Ni  Ni13  1  0.278328  0.278328  0.275910  1
  Ni  Ni14  1  0.610374  0.610374  0.612406  1
  Ni  Ni15  1  0.389626  0.389626  0.387594  1
  Ni  Ni16  1  0.500000  0.500000  0.500000  1
  Ge  Ge17  1  0.500000  0.500000  0.000000  1
