# generated using pymatgen
data_SrRe2(Sb6Pt)2
_symmetry_space_group_name_H-M   'P 1'
_cell_length_a   8.27693203
_cell_length_b   8.22680597
_cell_length_c   8.27693206
_cell_angle_alpha   109.52981421
_cell_angle_beta   109.62746740
_cell_angle_gamma   109.50237419
_symmetry_Int_Tables_number   1
_chemical_formula_structural   SrRe2(Sb6Pt)2
_chemical_formula_sum   'Sr1 Re2 Sb12 Pt2'
_cell_volume   432.53594346
_cell_formula_units_Z   1
loop_
 _symmetry_equiv_pos_site_id
 _symmetry_equiv_pos_as_xyz
  1  'x, y, z'
loop_
 _atom_site_type_symbol
 _atom_site_label
 _atom_site_symmetry_multiplicity
 _atom_site_fract_x
 _atom_site_fract_y
 _atom_site_fract_z
 _atom_site_occupancy
  Sr  Sr0  1  0.000000  0.000000  0.000000  1
  Re  Re1  1  0.500000  0.500000  0.500000  1
  Re  Re2  1  0.000000  0.500000  0.000000  1
  Sb  Sb3  1  0.159778  0.495874  0.336096  1
  Sb  Sb4  1  0.501609  0.652673  0.839333  1
  Sb  Sb5  1  0.339088  0.841278  0.187173  1
  Sb  Sb6  1  0.813338  0.652673  0.151063  1
  Sb  Sb7  1  0.654106  0.841278  0.502190  1
  Sb  Sb8  1  0.186662  0.347327  0.848937  1
  Sb  Sb9  1  0.660912  0.158722  0.812827  1
  Sb  Sb10  1  0.345894  0.158722  0.497810  1
  Sb  Sb11  1  0.498391  0.347327  0.160667  1
  Sb  Sb12  1  0.840222  0.504126  0.663904  1
  Sb  Sb13  1  0.847342  0.193449  0.346105  1
  Sb  Sb14  1  0.152658  0.806551  0.653895  1
  Pt  Pt15  1  0.500000  0.000000  0.000000  1
  Pt  Pt16  1  0.000000  0.000000  0.500000  1
