# generated using pymatgen
data_Tb4Tm4Tc(B8Os)3
_symmetry_space_group_name_H-M   'P 1'
_cell_length_a   3.64655800
_cell_length_b   9.11583740
_cell_length_c   11.51253200
_cell_angle_alpha   89.95146980
_cell_angle_beta   90.00000000
_cell_angle_gamma   90.00000000
_symmetry_Int_Tables_number   1
_chemical_formula_structural   Tb4Tm4Tc(B8Os)3
_chemical_formula_sum   'Tb4 Tm4 Tc1 B24 Os3'
_cell_volume   382.69288722
_cell_formula_units_Z   1
loop_
 _symmetry_equiv_pos_site_id
 _symmetry_equiv_pos_as_xyz
  1  'x, y, z'
loop_
 _atom_site_type_symbol
 _atom_site_label
 _atom_site_symmetry_multiplicity
 _atom_site_fract_x
 _atom_site_fract_y
 _atom_site_fract_z
 _atom_site_occupancy
  Tb  Tb0  1  0.000000  0.323501  0.412975  1
  Tb  Tb1  1  0.000000  0.677581  0.583819  1
  Tb  Tb2  1  0.000000  0.820165  0.087967  1
  Tb  Tb3  1  0.000000  0.177899  0.914699  1
  Tm  Tm4  1  0.000000  0.942806  0.372578  1
  Tm  Tm5  1  0.000000  0.056715  0.627446  1
  Tm  Tm6  1  0.000000  0.444731  0.128214  1
  Tm  Tm7  1  0.000000  0.556470  0.872230  1
  Tc  Tc8  1  0.000000  0.638094  0.320586  1
  B  B9  1  0.500000  0.553370  0.432565  1
  B  B10  1  0.500000  0.446088  0.567662  1
  B  B11  1  0.500000  0.054046  0.067538  1
  B  B12  1  0.500000  0.945902  0.932741  1
  B  B13  1  0.500000  0.748976  0.418909  1
  B  B14  1  0.500000  0.251128  0.580956  1
  B  B15  1  0.500000  0.249209  0.080848  1
  B  B16  1  0.500000  0.750866  0.919100  1
  B  B17  1  0.500000  0.791613  0.266358  1
  B  B18  1  0.500000  0.208663  0.733656  1
  B  B19  1  0.500000  0.291283  0.233135  1
  B  B20  1  0.500000  0.709063  0.766302  1
  B  B21  1  0.500000  0.630787  0.185520  1
  B  B22  1  0.500000  0.369050  0.814971  1
  B  B23  1  0.500000  0.130762  0.314365  1
  B  B24  1  0.500000  0.869503  0.685190  1
  B  B25  1  0.500000  0.982799  0.213315  1
  B  B26  1  0.500000  0.017117  0.787044  1
  B  B27  1  0.500000  0.482419  0.286705  1
  B  B28  1  0.500000  0.516883  0.713341  1
  B  B29  1  0.500000  0.604589  0.028492  1
  B  B30  1  0.500000  0.395238  0.970873  1
  B  B31  1  0.500000  0.105090  0.471096  1
  B  B32  1  0.500000  0.895966  0.529280  1
  Os  Os33  1  0.000000  0.361562  0.680004  1
  Os  Os34  1  0.000000  0.137948  0.178889  1
  Os  Os35  1  0.000000  0.862115  0.820631  1
