# generated using pymatgen
data_KBaCuF6
_symmetry_space_group_name_H-M   'P 1'
_cell_length_a   5.82805019
_cell_length_b   5.82805055
_cell_length_c   5.82805000
_cell_angle_alpha   59.99999176
_cell_angle_beta   59.99998974
_cell_angle_gamma   59.99999518
_symmetry_Int_Tables_number   1
_chemical_formula_structural   KBaCuF6
_chemical_formula_sum   'K1 Ba1 Cu1 F6'
_cell_volume   139.97638972
_cell_formula_units_Z   1
loop_
 _symmetry_equiv_pos_site_id
 _symmetry_equiv_pos_as_xyz
  1  'x, y, z'
loop_
 _atom_site_type_symbol
 _atom_site_label
 _atom_site_symmetry_multiplicity
 _atom_site_fract_x
 _atom_site_fract_y
 _atom_site_fract_z
 _atom_site_occupancy
  K  K0  1  0.250000  0.250000  0.250000  1
  Ba  Ba1  1  0.750000  0.750000  0.750000  1
  Cu  Cu2  1  0.000000  0.000000  0.000000  1
  F  F3  1  0.766981  0.766981  0.233019  1
  F  F4  1  0.233019  0.766981  0.233019  1
  F  F5  1  0.766981  0.233019  0.233019  1
  F  F6  1  0.233019  0.233019  0.766981  1
  F  F7  1  0.766981  0.233019  0.766981  1
  F  F8  1  0.233019  0.766981  0.766981  1
