# generated using pymatgen
data_SmY2(Co3P2)3
_symmetry_space_group_name_H-M   'P 1'
_cell_length_a   3.71011000
_cell_length_b   10.56723400
_cell_length_c   12.21699200
_cell_angle_alpha   90.00000000
_cell_angle_beta   90.00000000
_cell_angle_gamma   90.00000000
_symmetry_Int_Tables_number   1
_chemical_formula_structural   SmY2(Co3P2)3
_chemical_formula_sum   'Sm2 Y4 Co18 P12'
_cell_volume   478.97450810
_cell_formula_units_Z   2
loop_
 _symmetry_equiv_pos_site_id
 _symmetry_equiv_pos_as_xyz
  1  'x, y, z'
loop_
 _atom_site_type_symbol
 _atom_site_label
 _atom_site_symmetry_multiplicity
 _atom_site_fract_x
 _atom_site_fract_y
 _atom_site_fract_z
 _atom_site_occupancy
  Sm  Sm0  1  0.000000  0.500000  0.522129  1
  Sm  Sm1  1  0.500000  0.000000  0.477871  1
  Y  Y2  1  0.500000  0.817077  0.205059  1
  Y  Y3  1  0.500000  0.182923  0.205059  1
  Y  Y4  1  0.000000  0.682923  0.794941  1
  Y  Y5  1  0.000000  0.317077  0.794941  1
  Co  Co6  1  0.500000  0.500000  0.157410  1
  Co  Co7  1  0.000000  0.000000  0.842590  1
  Co  Co8  1  0.500000  0.500000  0.704988  1
  Co  Co9  1  0.000000  0.000000  0.295012  1
  Co  Co10  1  0.000000  0.500000  0.986541  1
  Co  Co11  1  0.500000  0.000000  0.013459  1
  Co  Co12  1  0.500000  0.333457  0.995004  1
  Co  Co13  1  0.500000  0.666543  0.995004  1
  Co  Co14  1  0.000000  0.166543  0.004996  1
  Co  Co15  1  0.000000  0.833457  0.004996  1
  Co  Co16  1  0.500000  0.297095  0.429650  1
  Co  Co17  1  0.500000  0.702905  0.429650  1
  Co  Co18  1  0.000000  0.202905  0.570350  1
  Co  Co19  1  0.000000  0.797095  0.570350  1
  Co  Co20  1  0.500000  0.879855  0.711552  1
  Co  Co21  1  0.500000  0.120145  0.711552  1
  Co  Co22  1  0.000000  0.620145  0.288448  1
  Co  Co23  1  0.000000  0.379855  0.288448  1
  P  P24  1  0.500000  0.500000  0.883532  1
  P  P25  1  0.000000  0.000000  0.116468  1
  P  P26  1  0.500000  0.500000  0.341071  1
  P  P27  1  0.000000  0.000000  0.658929  1
  P  P28  1  0.500000  0.308364  0.616600  1
  P  P29  1  0.500000  0.691636  0.616600  1
  P  P30  1  0.000000  0.191636  0.383400  1
  P  P31  1  0.000000  0.808364  0.383400  1
  P  P32  1  0.500000  0.847339  0.894066  1
  P  P33  1  0.500000  0.152661  0.894066  1
  P  P34  1  0.000000  0.652661  0.105934  1
  P  P35  1  0.000000  0.347339  0.105934  1
