# generated using pymatgen
data_Tb3Mn(Co5B2)2
_symmetry_space_group_name_H-M   'P 1'
_cell_length_a   5.05799402
_cell_length_b   5.05804099
_cell_length_c   9.75580500
_cell_angle_alpha   90.00235375
_cell_angle_beta   89.99848669
_cell_angle_gamma   120.00900501
_symmetry_Int_Tables_number   1
_chemical_formula_structural   Tb3Mn(Co5B2)2
_chemical_formula_sum   'Tb3 Mn1 Co10 B4'
_cell_volume   216.12996490
_cell_formula_units_Z   1
loop_
 _symmetry_equiv_pos_site_id
 _symmetry_equiv_pos_as_xyz
  1  'x, y, z'
loop_
 _atom_site_type_symbol
 _atom_site_label
 _atom_site_symmetry_multiplicity
 _atom_site_fract_x
 _atom_site_fract_y
 _atom_site_fract_z
 _atom_site_occupancy
  Tb  Tb0  1  0.999952  0.000017  0.000151  1
  Tb  Tb1  1  0.000003  0.999995  0.341961  1
  Tb  Tb2  1  0.000009  0.999997  0.657776  1
  Mn  Mn3  1  0.333253  0.666715  0.000011  1
  Co  Co4  1  0.666622  0.333337  0.000052  1
  Co  Co5  1  0.499675  0.999338  0.500008  1
  Co  Co6  1  0.499673  0.500328  0.499991  1
  Co  Co7  1  0.000660  0.500324  0.500001  1
  Co  Co8  1  0.501241  0.002460  0.204879  1
  Co  Co9  1  0.501244  0.498747  0.204779  1
  Co  Co10  1  0.997534  0.498751  0.204856  1
  Co  Co11  1  0.501214  0.002420  0.795285  1
  Co  Co12  1  0.501213  0.498793  0.795317  1
  Co  Co13  1  0.997591  0.498795  0.795279  1
  B  B14  1  0.333304  0.666671  0.349534  1
  B  B15  1  0.666700  0.333326  0.350934  1
  B  B16  1  0.666678  0.333321  0.648899  1
  B  B17  1  0.333336  0.666664  0.650289  1
