# generated using pymatgen
data_SmTcF7
_symmetry_space_group_name_H-M   'P 1'
_cell_length_a   5.66623400
_cell_length_b   9.09057164
_cell_length_c   12.23445805
_cell_angle_alpha   62.11492000
_cell_angle_beta   90.00000000
_cell_angle_gamma   90.00000000
_symmetry_Int_Tables_number   1
_chemical_formula_structural   SmTcF7
_chemical_formula_sum   'Sm4 Tc4 F28'
_cell_volume   557.01565761
_cell_formula_units_Z   4
loop_
 _symmetry_equiv_pos_site_id
 _symmetry_equiv_pos_as_xyz
  1  'x, y, z'
loop_
 _atom_site_type_symbol
 _atom_site_label
 _atom_site_symmetry_multiplicity
 _atom_site_fract_x
 _atom_site_fract_y
 _atom_site_fract_z
 _atom_site_occupancy
  Sm  Sm0  1  0.758559  0.811975  0.764791  1
  Sm  Sm1  1  0.258559  0.188025  0.735209  1
  Sm  Sm2  1  0.241441  0.188025  0.235209  1
  Sm  Sm3  1  0.741441  0.811975  0.264791  1
  Tc  Tc4  1  0.756802  0.272903  0.957566  1
  Tc  Tc5  1  0.256802  0.727097  0.542434  1
  Tc  Tc6  1  0.243198  0.727097  0.042434  1
  Tc  Tc7  1  0.743198  0.272903  0.457566  1
  F  F8  1  0.442475  0.708020  0.918679  1
  F  F9  1  0.942475  0.291980  0.581321  1
  F  F10  1  0.557525  0.291980  0.081321  1
  F  F11  1  0.057525  0.708020  0.418679  1
  F  F12  1  0.453248  0.279427  0.544529  1
  F  F13  1  0.953248  0.720573  0.955471  1
  F  F14  1  0.546752  0.720573  0.455471  1
  F  F15  1  0.046752  0.279427  0.044529  1
  F  F16  1  0.770298  0.516900  0.861119  1
  F  F17  1  0.270298  0.483100  0.638881  1
  F  F18  1  0.229702  0.483100  0.138881  1
  F  F19  1  0.729702  0.516900  0.361119  1
  F  F20  1  0.758205  0.029577  0.052800  1
  F  F21  1  0.258205  0.970423  0.447200  1
  F  F22  1  0.241795  0.970423  0.947200  1
  F  F23  1  0.741795  0.029577  0.552800  1
  F  F24  1  0.975696  0.729787  0.635530  1
  F  F25  1  0.475696  0.270213  0.864470  1
  F  F26  1  0.024304  0.270213  0.364470  1
  F  F27  1  0.524304  0.729787  0.135530  1
  F  F28  1  0.049575  0.745152  0.169564  1
  F  F29  1  0.549575  0.254848  0.330436  1
  F  F30  1  0.950425  0.254848  0.830436  1
  F  F31  1  0.450425  0.745152  0.669564  1
  F  F32  1  0.413421  0.968867  0.230940  1
  F  F33  1  0.913421  0.031133  0.269060  1
  F  F34  1  0.586579  0.031133  0.769060  1
  F  F35  1  0.086579  0.968867  0.730940  1
