# generated using pymatgen
data_Y4PaPdPt14
_symmetry_space_group_name_H-M   'P 1'
_cell_length_a   4.15424800
_cell_length_b   4.15424800
_cell_length_c   20.56591300
_cell_angle_alpha   90.00000000
_cell_angle_beta   90.00000000
_cell_angle_gamma   90.00000000
_symmetry_Int_Tables_number   1
_chemical_formula_structural   Y4PaPdPt14
_chemical_formula_sum   'Y4 Pa1 Pd1 Pt14'
_cell_volume   354.92192895
_cell_formula_units_Z   1
loop_
 _symmetry_equiv_pos_site_id
 _symmetry_equiv_pos_as_xyz
  1  'x, y, z'
loop_
 _atom_site_type_symbol
 _atom_site_label
 _atom_site_symmetry_multiplicity
 _atom_site_fract_x
 _atom_site_fract_y
 _atom_site_fract_z
 _atom_site_occupancy
  Y  Y0  1  0.000000  0.000000  0.203030  1
  Y  Y1  1  0.000000  0.000000  0.400960  1
  Y  Y2  1  0.000000  0.000000  0.599102  1
  Y  Y3  1  0.000000  0.000000  0.796650  1
  Pa  Pa4  1  0.000000  0.000000  0.999882  1
  Pd  Pd5  1  0.500000  0.500000  0.800823  1
  Pt  Pt6  1  0.500000  0.500000  0.000235  1
  Pt  Pt7  1  0.500000  0.500000  0.199563  1
  Pt  Pt8  1  0.500000  0.500000  0.400157  1
  Pt  Pt9  1  0.500000  0.500000  0.599654  1
  Pt  Pt10  1  0.500000  0.000000  0.098192  1
  Pt  Pt11  1  0.500000  0.000000  0.300409  1
  Pt  Pt12  1  0.500000  0.000000  0.499844  1
  Pt  Pt13  1  0.500000  0.000000  0.699569  1
  Pt  Pt14  1  0.500000  0.000000  0.901958  1
  Pt  Pt15  1  0.000000  0.500000  0.098192  1
  Pt  Pt16  1  0.000000  0.500000  0.300409  1
  Pt  Pt17  1  0.000000  0.500000  0.499844  1
  Pt  Pt18  1  0.000000  0.500000  0.699569  1
  Pt  Pt19  1  0.000000  0.500000  0.901958  1
