# generated using pymatgen
data_Tb3Pa(InPt2)2
_symmetry_space_group_name_H-M   'P 1'
_cell_length_a   7.84077686
_cell_length_b   7.84077686
_cell_length_c   3.66981700
_cell_angle_alpha   90.00000000
_cell_angle_beta   90.00000000
_cell_angle_gamma   88.52009121
_symmetry_Int_Tables_number   1
_chemical_formula_structural   Tb3Pa(InPt2)2
_chemical_formula_sum   'Tb3 Pa1 In2 Pt4'
_cell_volume   225.53695430
_cell_formula_units_Z   1
loop_
 _symmetry_equiv_pos_site_id
 _symmetry_equiv_pos_as_xyz
  1  'x, y, z'
loop_
 _atom_site_type_symbol
 _atom_site_label
 _atom_site_symmetry_multiplicity
 _atom_site_fract_x
 _atom_site_fract_y
 _atom_site_fract_z
 _atom_site_occupancy
  Tb  Tb0  1  0.827611  0.331807  0.500000  1
  Tb  Tb1  1  0.168192  0.672390  0.500000  1
  Tb  Tb2  1  0.674242  0.825759  0.500000  1
  Pa  Pa3  1  0.332962  0.167037  0.500000  1
  In  In4  1  0.994236  0.999616  0.000000  1
  In  In5  1  0.500383  0.505763  0.000000  1
  Pt  Pt6  1  0.618303  0.136028  0.000000  1
  Pt  Pt7  1  0.142423  0.357578  0.000000  1
  Pt  Pt8  1  0.877675  0.622325  0.000000  1
  Pt  Pt9  1  0.363973  0.881697  0.000000  1
