# generated using pymatgen
data_Ho2Ga2IrPd
_symmetry_space_group_name_H-M   'P 1'
_cell_length_a   4.41791900
_cell_length_b   6.84424400
_cell_length_c   7.67156700
_cell_angle_alpha   90.00000000
_cell_angle_beta   90.00000000
_cell_angle_gamma   90.00000000
_symmetry_Int_Tables_number   1
_chemical_formula_structural   Ho2Ga2IrPd
_chemical_formula_sum   'Ho4 Ga4 Ir2 Pd2'
_cell_volume   231.96759259
_cell_formula_units_Z   2
loop_
 _symmetry_equiv_pos_site_id
 _symmetry_equiv_pos_as_xyz
  1  'x, y, z'
loop_
 _atom_site_type_symbol
 _atom_site_label
 _atom_site_symmetry_multiplicity
 _atom_site_fract_x
 _atom_site_fract_y
 _atom_site_fract_z
 _atom_site_occupancy
  Ho  Ho0  1  0.250000  0.025114  0.812545  1
  Ho  Ho1  1  0.250000  0.525114  0.687455  1
  Ho  Ho2  1  0.750000  0.985487  0.195986  1
  Ho  Ho3  1  0.750000  0.485487  0.304014  1
  Ga  Ga4  1  0.250000  0.161892  0.426944  1
  Ga  Ga5  1  0.250000  0.661892  0.073056  1
  Ga  Ga6  1  0.750000  0.832717  0.570261  1
  Ga  Ga7  1  0.750000  0.332717  0.929739  1
  Ir  Ir8  1  0.250000  0.771945  0.395051  1
  Ir  Ir9  1  0.250000  0.271945  0.104949  1
  Pd  Pd10  1  0.750000  0.222845  0.604176  1
  Pd  Pd11  1  0.750000  0.722845  0.895824  1
