# generated using pymatgen
data_Y12Si8(Ir3Rh)3
_symmetry_space_group_name_H-M   'P 1'
_cell_length_a   5.53987582
_cell_length_b   7.56834917
_cell_length_c   14.87705883
_cell_angle_alpha   89.98527911
_cell_angle_beta   89.96459352
_cell_angle_gamma   90.08560505
_symmetry_Int_Tables_number   1
_chemical_formula_structural   Y12Si8(Ir3Rh)3
_chemical_formula_sum   'Y12 Si8 Ir9 Rh3'
_cell_volume   623.76023957
_cell_formula_units_Z   1
loop_
 _symmetry_equiv_pos_site_id
 _symmetry_equiv_pos_as_xyz
  1  'x, y, z'
loop_
 _atom_site_type_symbol
 _atom_site_label
 _atom_site_symmetry_multiplicity
 _atom_site_fract_x
 _atom_site_fract_y
 _atom_site_fract_z
 _atom_site_occupancy
  Y  Y0  1  0.899857  0.829469  0.750000  1
  Y  Y1  1  0.869800  0.524096  0.391907  1
  Y  Y2  1  0.370259  0.972732  0.609068  1
  Y  Y3  1  0.130004  0.474869  0.891446  1
  Y  Y4  1  0.630118  0.027849  0.108528  1
  Y  Y5  1  0.100244  0.170481  0.249924  1
  Y  Y6  1  0.130279  0.475677  0.608750  1
  Y  Y7  1  0.629642  0.027487  0.391256  1
  Y  Y8  1  0.398720  0.671973  0.249704  1
  Y  Y9  1  0.370722  0.973903  0.891447  1
  Y  Y10  1  0.600830  0.327832  0.750521  1
  Y  Y11  1  0.870680  0.523356  0.108049  1
  Si  Si12  1  0.621590  0.624257  0.896730  1
  Si  Si13  1  0.880560  0.126523  0.603002  1
  Si  Si14  1  0.117898  0.873946  0.103460  1
  Si  Si15  1  0.118634  0.873624  0.396571  1
  Si  Si16  1  0.622208  0.623716  0.603240  1
  Si  Si17  1  0.880710  0.125283  0.896867  1
  Si  Si18  1  0.380236  0.375954  0.103130  1
  Si  Si19  1  0.377389  0.376645  0.396835  1
  Ir  Ir20  1  0.600236  0.332679  0.960343  1
  Ir  Ir21  1  0.103018  0.167163  0.460893  1
  Ir  Ir22  1  0.103121  0.167132  0.039296  1
  Ir  Ir23  1  0.414951  0.680080  0.749994  1
  Ir  Ir24  1  0.898927  0.832111  0.960715  1
  Ir  Ir25  1  0.586192  0.320483  0.250355  1
  Ir  Ir26  1  0.898264  0.832401  0.539223  1
  Ir  Ir27  1  0.908631  0.818055  0.250060  1
  Ir  Ir28  1  0.088931  0.181171  0.749712  1
  Rh  Rh29  1  0.600638  0.332543  0.538575  1
  Rh  Rh30  1  0.398682  0.667993  0.461458  1
  Rh  Rh31  1  0.398029  0.668521  0.038941  1
