# generated using pymatgen
data_ScMn4TcP3
_symmetry_space_group_name_H-M   'P 1'
_cell_length_a   3.65297600
_cell_length_b   10.51575500
_cell_length_c   12.00871600
_cell_angle_alpha   90.00000000
_cell_angle_beta   90.00000000
_cell_angle_gamma   90.00000000
_symmetry_Int_Tables_number   1
_chemical_formula_structural   ScMn4TcP3
_chemical_formula_sum   'Sc4 Mn16 Tc4 P12'
_cell_volume   461.30042233
_cell_formula_units_Z   4
loop_
 _symmetry_equiv_pos_site_id
 _symmetry_equiv_pos_as_xyz
  1  'x, y, z'
loop_
 _atom_site_type_symbol
 _atom_site_label
 _atom_site_symmetry_multiplicity
 _atom_site_fract_x
 _atom_site_fract_y
 _atom_site_fract_z
 _atom_site_occupancy
  Sc  Sc0  1  0.250000  0.585965  0.705731  1
  Sc  Sc1  1  0.250000  0.914035  0.205731  1
  Sc  Sc2  1  0.750000  0.414035  0.294269  1
  Sc  Sc3  1  0.750000  0.085965  0.794269  1
  Mn  Mn4  1  0.250000  0.412943  0.494288  1
  Mn  Mn5  1  0.250000  0.087057  0.994288  1
  Mn  Mn6  1  0.750000  0.587057  0.505712  1
  Mn  Mn7  1  0.750000  0.912943  0.005712  1
  Mn  Mn8  1  0.250000  0.210551  0.183969  1
  Mn  Mn9  1  0.250000  0.289450  0.683969  1
  Mn  Mn10  1  0.750000  0.789450  0.816031  1
  Mn  Mn11  1  0.750000  0.710550  0.316031  1
  Mn  Mn12  1  0.250000  0.883817  0.693602  1
  Mn  Mn13  1  0.250000  0.616183  0.193602  1
  Mn  Mn14  1  0.750000  0.116183  0.306398  1
  Mn  Mn15  1  0.750000  0.383817  0.806398  1
  Mn  Mn16  1  0.250000  0.465509  0.933669  1
  Mn  Mn17  1  0.250000  0.034491  0.433669  1
  Mn  Mn18  1  0.750000  0.534491  0.066331  1
  Mn  Mn19  1  0.750000  0.965509  0.566331  1
  Tc  Tc20  1  0.250000  0.712221  0.984316  1
  Tc  Tc21  1  0.250000  0.787779  0.484316  1
  Tc  Tc22  1  0.750000  0.287779  0.015684  1
  Tc  Tc23  1  0.750000  0.212221  0.515684  1
  P  P24  1  0.250000  0.411419  0.119577  1
  P  P25  1  0.250000  0.088581  0.619577  1
  P  P26  1  0.750000  0.588581  0.880423  1
  P  P27  1  0.750000  0.911419  0.380423  1
  P  P28  1  0.250000  0.258663  0.873842  1
  P  P29  1  0.250000  0.241337  0.373842  1
  P  P30  1  0.750000  0.741337  0.126158  1
  P  P31  1  0.750000  0.758663  0.626158  1
  P  P32  1  0.250000  0.590220  0.382891  1
  P  P33  1  0.250000  0.909780  0.882891  1
  P  P34  1  0.750000  0.409780  0.617109  1
  P  P35  1  0.750000  0.090220  0.117109  1
