# generated using pymatgen
data_Yb2Pr8Ga5Bi
_symmetry_space_group_name_H-M   'P 1'
_cell_length_a   8.11404600
_cell_length_b   8.11404600
_cell_length_c   14.22786900
_cell_angle_alpha   90.00000000
_cell_angle_beta   90.00000000
_cell_angle_gamma   90.00000000
_symmetry_Int_Tables_number   1
_chemical_formula_structural   Yb2Pr8Ga5Bi
_chemical_formula_sum   'Yb4 Pr16 Ga10 Bi2'
_cell_volume   936.73077541
_cell_formula_units_Z   2
loop_
 _symmetry_equiv_pos_site_id
 _symmetry_equiv_pos_as_xyz
  1  'x, y, z'
loop_
 _atom_site_type_symbol
 _atom_site_label
 _atom_site_symmetry_multiplicity
 _atom_site_fract_x
 _atom_site_fract_y
 _atom_site_fract_z
 _atom_site_occupancy
  Yb  Yb0  1  0.000000  0.500000  0.762838  1
  Yb  Yb1  1  0.000000  0.500000  0.230470  1
  Yb  Yb2  1  0.500000  0.000000  0.237162  1
  Yb  Yb3  1  0.500000  0.000000  0.769530  1
  Pr  Pr4  1  0.829302  0.832063  0.609587  1
  Pr  Pr5  1  0.173834  0.829322  0.100428  1
  Pr  Pr6  1  0.167937  0.829302  0.390413  1
  Pr  Pr7  1  0.832063  0.170698  0.390413  1
  Pr  Pr8  1  0.670698  0.667937  0.390413  1
  Pr  Pr9  1  0.667937  0.329302  0.609587  1
  Pr  Pr10  1  0.332063  0.670698  0.609587  1
  Pr  Pr11  1  0.670678  0.673834  0.100428  1
  Pr  Pr12  1  0.673834  0.329322  0.899572  1
  Pr  Pr13  1  0.829322  0.826166  0.899572  1
  Pr  Pr14  1  0.329302  0.332063  0.390413  1
  Pr  Pr15  1  0.170698  0.167937  0.609587  1
  Pr  Pr16  1  0.826166  0.170678  0.100428  1
  Pr  Pr17  1  0.326166  0.670678  0.899572  1
  Pr  Pr18  1  0.329322  0.326166  0.100428  1
  Pr  Pr19  1  0.170678  0.173834  0.899572  1
  Ga  Ga20  1  0.619622  0.380328  0.247844  1
  Ga  Ga21  1  0.119622  0.880328  0.752156  1
  Ga  Ga22  1  0.380328  0.380378  0.752156  1
  Ga  Ga23  1  0.380378  0.619672  0.247844  1
  Ga  Ga24  1  0.880328  0.880378  0.247844  1
  Ga  Ga25  1  0.619672  0.619622  0.752156  1
  Ga  Ga26  1  0.880378  0.119672  0.752156  1
  Ga  Ga27  1  0.500000  0.000000  0.000462  1
  Ga  Ga28  1  0.119672  0.119622  0.247844  1
  Ga  Ga29  1  0.000000  0.500000  0.999538  1
  Bi  Bi30  1  0.000000  0.500000  0.502102  1
  Bi  Bi31  1  0.500000  0.000000  0.497898  1
