# generated using pymatgen
data_Nd2PtRh5
_symmetry_space_group_name_H-M   'P 1'
_cell_length_a   5.37354904
_cell_length_b   5.37314829
_cell_length_c   17.70852400
_cell_angle_alpha   90.00000000
_cell_angle_beta   90.00000000
_cell_angle_gamma   120.01675905
_symmetry_Int_Tables_number   1
_chemical_formula_structural   Nd2PtRh5
_chemical_formula_sum   'Nd6 Pt3 Rh15'
_cell_volume   442.72054135
_cell_formula_units_Z   3
loop_
 _symmetry_equiv_pos_site_id
 _symmetry_equiv_pos_as_xyz
  1  'x, y, z'
loop_
 _atom_site_type_symbol
 _atom_site_label
 _atom_site_symmetry_multiplicity
 _atom_site_fract_x
 _atom_site_fract_y
 _atom_site_fract_z
 _atom_site_occupancy
  Nd  Nd0  1  0.333339  0.666667  0.543267  1
  Nd  Nd1  1  0.666666  0.333319  0.044168  1
  Nd  Nd2  1  0.666666  0.333319  0.455832  1
  Nd  Nd3  1  0.333339  0.666667  0.956733  1
  Nd  Nd4  1  0.333334  0.666668  0.750000  1
  Nd  Nd5  1  0.666662  0.333347  0.250000  1
  Pt  Pt6  1  0.000010  0.999972  0.250000  1
  Pt  Pt7  1  0.999992  0.999977  0.999706  1
  Pt  Pt8  1  0.999992  0.999977  0.500294  1
  Rh  Rh9  1  0.168308  0.336617  0.127234  1
  Rh  Rh10  1  0.832657  0.665322  0.627943  1
  Rh  Rh11  1  0.663382  0.831695  0.127230  1
  Rh  Rh12  1  0.168319  0.831686  0.127216  1
  Rh  Rh13  1  0.832650  0.167360  0.627927  1
  Rh  Rh14  1  0.334692  0.167352  0.627936  1
  Rh  Rh15  1  0.832657  0.665322  0.872057  1
  Rh  Rh16  1  0.832650  0.167360  0.872073  1
  Rh  Rh17  1  0.334692  0.167352  0.872064  1
  Rh  Rh18  1  0.663382  0.831695  0.372770  1
  Rh  Rh19  1  0.168319  0.831686  0.372784  1
  Rh  Rh20  1  0.168308  0.336617  0.372766  1
  Rh  Rh21  1  0.999984  0.000033  0.750000  1
  Rh  Rh22  1  0.333326  0.666676  0.250000  1
  Rh  Rh23  1  0.666672  0.333316  0.750000  1
