# generated using pymatgen
data_Dy11YIr3Pt
_symmetry_space_group_name_H-M   'P 1'
_cell_length_a   6.40395554
_cell_length_b   7.20841919
_cell_length_c   9.37535900
_cell_angle_alpha   90.00000000
_cell_angle_beta   90.00000000
_cell_angle_gamma   89.89500757
_symmetry_Int_Tables_number   1
_chemical_formula_structural   Dy11YIr3Pt
_chemical_formula_sum   'Dy11 Y1 Ir3 Pt1'
_cell_volume   432.78830863
_cell_formula_units_Z   1
loop_
 _symmetry_equiv_pos_site_id
 _symmetry_equiv_pos_as_xyz
  1  'x, y, z'
loop_
 _atom_site_type_symbol
 _atom_site_label
 _atom_site_symmetry_multiplicity
 _atom_site_fract_x
 _atom_site_fract_y
 _atom_site_fract_z
 _atom_site_occupancy
  Dy  Dy0  1  0.330912  0.676397  0.060922  1
  Dy  Dy1  1  0.173601  0.181046  0.439603  1
  Dy  Dy2  1  0.673460  0.321577  0.563254  1
  Dy  Dy3  1  0.825452  0.822467  0.934968  1
  Dy  Dy4  1  0.673460  0.321577  0.936746  1
  Dy  Dy5  1  0.825452  0.822467  0.565032  1
  Dy  Dy6  1  0.330912  0.676397  0.439078  1
  Dy  Dy7  1  0.173601  0.181046  0.060397  1
  Dy  Dy8  1  0.628178  0.035692  0.250000  1
  Dy  Dy9  1  0.130673  0.466095  0.750000  1
  Dy  Dy10  1  0.368223  0.965626  0.750000  1
  Y  Y11  1  0.866942  0.527822  0.250000  1
  Ir  Ir12  1  0.447930  0.383493  0.250000  1
  Ir  Ir13  1  0.952759  0.116469  0.750000  1
  Ir  Ir14  1  0.547250  0.616253  0.750000  1
  Pt  Pt15  1  0.051193  0.885580  0.250000  1
