# generated using pymatgen
data_Er2MnFe2P6Ir7
_symmetry_space_group_name_H-M   'P 1'
_cell_length_a   3.89233200
_cell_length_b   10.66264100
_cell_length_c   12.41078200
_cell_angle_alpha   90.00000000
_cell_angle_beta   90.00000000
_cell_angle_gamma   90.00000000
_symmetry_Int_Tables_number   1
_chemical_formula_structural   Er2MnFe2P6Ir7
_chemical_formula_sum   'Er4 Mn2 Fe4 P12 Ir14'
_cell_volume   515.07896111
_cell_formula_units_Z   2
loop_
 _symmetry_equiv_pos_site_id
 _symmetry_equiv_pos_as_xyz
  1  'x, y, z'
loop_
 _atom_site_type_symbol
 _atom_site_label
 _atom_site_symmetry_multiplicity
 _atom_site_fract_x
 _atom_site_fract_y
 _atom_site_fract_z
 _atom_site_occupancy
  Er  Er0  1  0.250000  0.583539  0.712262  1
  Er  Er1  1  0.250000  0.916461  0.212262  1
  Er  Er2  1  0.750000  0.422964  0.290948  1
  Er  Er3  1  0.750000  0.077036  0.790948  1
  Mn  Mn4  1  0.250000  0.714540  0.983317  1
  Mn  Mn5  1  0.250000  0.785460  0.483317  1
  Fe  Fe6  1  0.250000  0.454214  0.935292  1
  Fe  Fe7  1  0.250000  0.045786  0.435292  1
  Fe  Fe8  1  0.750000  0.535330  0.065839  1
  Fe  Fe9  1  0.750000  0.964670  0.565839  1
  P  P10  1  0.250000  0.433176  0.107282  1
  P  P11  1  0.250000  0.066824  0.607282  1
  P  P12  1  0.750000  0.571809  0.896308  1
  P  P13  1  0.750000  0.928191  0.396308  1
  P  P14  1  0.250000  0.266370  0.866370  1
  P  P15  1  0.250000  0.233630  0.366370  1
  P  P16  1  0.750000  0.729105  0.129217  1
  P  P17  1  0.750000  0.770895  0.629217  1
  P  P18  1  0.250000  0.604437  0.389310  1
  P  P19  1  0.250000  0.895563  0.889310  1
  P  P20  1  0.750000  0.404274  0.612674  1
  P  P21  1  0.750000  0.095726  0.112674  1
  Ir  Ir22  1  0.750000  0.282917  0.013440  1
  Ir  Ir23  1  0.750000  0.217083  0.513440  1
  Ir  Ir24  1  0.250000  0.407246  0.477858  1
  Ir  Ir25  1  0.250000  0.092755  0.977858  1
  Ir  Ir26  1  0.750000  0.594632  0.522642  1
  Ir  Ir27  1  0.750000  0.905368  0.022642  1
  Ir  Ir28  1  0.250000  0.235539  0.176360  1
  Ir  Ir29  1  0.250000  0.264461  0.676360  1
  Ir  Ir30  1  0.750000  0.766390  0.824103  1
  Ir  Ir31  1  0.750000  0.733610  0.324103  1
  Ir  Ir32  1  0.250000  0.879506  0.697767  1
  Ir  Ir33  1  0.250000  0.620494  0.197767  1
  Ir  Ir34  1  0.750000  0.115807  0.299013  1
  Ir  Ir35  1  0.750000  0.384193  0.799013  1
