# generated using pymatgen
data_Y9Lu(Al2Ru3)2
_symmetry_space_group_name_H-M   'P 1'
_cell_length_a   8.35232516
_cell_length_b   8.35232507
_cell_length_c   8.35232416
_cell_angle_alpha   109.45991863
_cell_angle_beta   109.45991717
_cell_angle_gamma   109.45991074
_symmetry_Int_Tables_number   1
_chemical_formula_structural   Y9Lu(Al2Ru3)2
_chemical_formula_sum   'Y9 Lu1 Al4 Ru6'
_cell_volume   448.72666554
_cell_formula_units_Z   1
loop_
 _symmetry_equiv_pos_site_id
 _symmetry_equiv_pos_as_xyz
  1  'x, y, z'
loop_
 _atom_site_type_symbol
 _atom_site_label
 _atom_site_symmetry_multiplicity
 _atom_site_fract_x
 _atom_site_fract_y
 _atom_site_fract_z
 _atom_site_occupancy
  Y  Y0  1  0.319485  0.569042  0.750397  1
  Y  Y1  1  0.750397  0.319485  0.569042  1
  Y  Y2  1  0.569042  0.750397  0.319485  1
  Y  Y3  1  0.714634  0.500740  0.999186  1
  Y  Y4  1  0.999186  0.714634  0.500740  1
  Y  Y5  1  0.500740  0.999186  0.714634  1
  Y  Y6  1  0.249398  0.181289  0.931826  1
  Y  Y7  1  0.931826  0.249398  0.181289  1
  Y  Y8  1  0.181289  0.931826  0.249398  1
  Lu  Lu9  1  0.789334  0.789334  0.789334  1
  Al  Al10  1  0.412838  0.412838  0.412838  1
  Al  Al11  1  0.088739  0.499464  0.999218  1
  Al  Al12  1  0.999218  0.088739  0.499464  1
  Al  Al13  1  0.499464  0.999218  0.088739  1
  Ru  Ru14  1  0.877690  0.125121  0.750212  1
  Ru  Ru15  1  0.750212  0.877690  0.125121  1
  Ru  Ru16  1  0.125121  0.750212  0.877690  1
  Ru  Ru17  1  0.249417  0.621237  0.370730  1
  Ru  Ru18  1  0.370730  0.249417  0.621237  1
  Ru  Ru19  1  0.621237  0.370730  0.249417  1
