# generated using pymatgen
data_Pr2Nd6Ga3Co
_symmetry_space_group_name_H-M   'P 1'
_cell_length_a   10.38034140
_cell_length_b   10.38319254
_cell_length_c   7.25933526
_cell_angle_alpha   89.96924739
_cell_angle_beta   90.01480186
_cell_angle_gamma   119.96258345
_symmetry_Int_Tables_number   1
_chemical_formula_structural   Pr2Nd6Ga3Co
_chemical_formula_sum   'Pr4 Nd12 Ga6 Co2'
_cell_volume   677.84998126
_cell_formula_units_Z   2
loop_
 _symmetry_equiv_pos_site_id
 _symmetry_equiv_pos_as_xyz
  1  'x, y, z'
loop_
 _atom_site_type_symbol
 _atom_site_label
 _atom_site_symmetry_multiplicity
 _atom_site_fract_x
 _atom_site_fract_y
 _atom_site_fract_z
 _atom_site_occupancy
  Pr  Pr0  1  0.666682  0.333641  0.177571  1
  Pr  Pr1  1  0.000000  0.999996  0.272012  1
  Pr  Pr2  1  0.459884  0.919733  0.291912  1
  Pr  Pr3  1  0.080282  0.540031  0.291892  1
  Nd  Nd4  1  0.459728  0.540267  0.292051  1
  Nd  Nd5  1  0.342151  0.171277  0.484198  1
  Nd  Nd6  1  0.828948  0.171023  0.484289  1
  Nd  Nd7  1  0.828757  0.657842  0.484447  1
  Nd  Nd8  1  0.333392  0.666398  0.678606  1
  Nd  Nd9  1  0.000012  0.000035  0.771512  1
  Nd  Nd10  1  0.540554  0.080992  0.791608  1
  Nd  Nd11  1  0.540479  0.459552  0.791559  1
  Nd  Nd12  1  0.918889  0.459454  0.791505  1
  Nd  Nd13  1  0.171104  0.828944  0.982938  1
  Nd  Nd14  1  0.657698  0.828738  0.983091  1
  Nd  Nd15  1  0.171206  0.342329  0.983333  1
  Ga  Ga16  1  0.835968  0.671980  0.045583  1
  Ga  Ga17  1  0.327613  0.163734  0.045602  1
  Ga  Ga18  1  0.836159  0.163728  0.045501  1
  Ga  Ga19  1  0.164230  0.328177  0.546521  1
  Ga  Ga20  1  0.163814  0.836277  0.546866  1
  Ga  Ga21  1  0.672216  0.835997  0.546535  1
  Co  Co22  1  0.333599  0.666501  0.047741  1
  Co  Co23  1  0.666638  0.333356  0.549134  1
