# generated using pymatgen
data_Er3Al9Fe4Si3
_symmetry_space_group_name_H-M   'P 1'
_cell_length_a   8.46621600
_cell_length_b   8.45338687
_cell_length_c   9.29281200
_cell_angle_alpha   90.00000000
_cell_angle_beta   90.00000000
_cell_angle_gamma   120.05022340
_symmetry_Int_Tables_number   1
_chemical_formula_structural   Er3Al9Fe4Si3
_chemical_formula_sum   'Er6 Al18 Fe8 Si6'
_cell_volume   575.67565027
_cell_formula_units_Z   2
loop_
 _symmetry_equiv_pos_site_id
 _symmetry_equiv_pos_as_xyz
  1  'x, y, z'
loop_
 _atom_site_type_symbol
 _atom_site_label
 _atom_site_symmetry_multiplicity
 _atom_site_fract_x
 _atom_site_fract_y
 _atom_site_fract_z
 _atom_site_occupancy
  Er  Er0  1  0.194102  0.388202  0.250000  1
  Er  Er1  1  0.805898  0.611798  0.750000  1
  Er  Er2  1  0.607940  0.806986  0.250000  1
  Er  Er3  1  0.392060  0.193014  0.750000  1
  Er  Er4  1  0.199044  0.806986  0.250000  1
  Er  Er5  1  0.800956  0.193014  0.750000  1
  Al  Al6  1  0.163591  0.327182  0.575062  1
  Al  Al7  1  0.836409  0.672818  0.424938  1
  Al  Al8  1  0.671749  0.835243  0.573877  1
  Al  Al9  1  0.836409  0.672818  0.075062  1
  Al  Al10  1  0.328251  0.164757  0.426123  1
  Al  Al11  1  0.163591  0.327182  0.924938  1
  Al  Al12  1  0.163493  0.835243  0.573877  1
  Al  Al13  1  0.328251  0.164757  0.073877  1
  Al  Al14  1  0.836507  0.164757  0.426123  1
  Al  Al15  1  0.671749  0.835243  0.926123  1
  Al  Al16  1  0.836507  0.164757  0.073877  1
  Al  Al17  1  0.163493  0.835243  0.926123  1
  Al  Al18  1  0.876334  0.435568  0.250000  1
  Al  Al19  1  0.123666  0.564432  0.750000  1
  Al  Al20  1  0.559234  0.435568  0.250000  1
  Al  Al21  1  0.440766  0.564432  0.750000  1
  Al  Al22  1  0.999449  0.998897  0.250000  1
  Al  Al23  1  0.000551  0.001103  0.750000  1
  Fe  Fe24  1  0.500000  0.000000  0.000000  1
  Fe  Fe25  1  0.000000  0.500000  0.000000  1
  Fe  Fe26  1  0.500000  0.000000  0.500000  1
  Fe  Fe27  1  0.500000  0.500000  0.000000  1
  Fe  Fe28  1  0.000000  0.500000  0.500000  1
  Fe  Fe29  1  0.500000  0.500000  0.500000  1
  Fe  Fe30  1  0.000000  0.000000  0.000000  1
  Fe  Fe31  1  0.000000  0.000000  0.500000  1
  Si  Si32  1  0.331479  0.662959  0.031639  1
  Si  Si33  1  0.668521  0.337041  0.968361  1
  Si  Si34  1  0.668521  0.337041  0.531639  1
  Si  Si35  1  0.331479  0.662959  0.468361  1
  Si  Si36  1  0.560921  0.121842  0.250000  1
  Si  Si37  1  0.439079  0.878158  0.750000  1
