# generated using pymatgen
data_W2Br8N
_symmetry_space_group_name_H-M   'P 1'
_cell_length_a   7.37073196
_cell_length_b   7.39761131
_cell_length_c   7.21597223
_cell_angle_alpha   90.40664860
_cell_angle_beta   98.50079374
_cell_angle_gamma   95.91779890
_symmetry_Int_Tables_number   1
_chemical_formula_structural   W2Br8N
_chemical_formula_sum   'W2 Br8 N1'
_cell_volume   386.96058297
_cell_formula_units_Z   1
loop_
 _symmetry_equiv_pos_site_id
 _symmetry_equiv_pos_as_xyz
  1  'x, y, z'
loop_
 _atom_site_type_symbol
 _atom_site_label
 _atom_site_symmetry_multiplicity
 _atom_site_fract_x
 _atom_site_fract_y
 _atom_site_fract_z
 _atom_site_occupancy
  W  W0  1  0.050994  0.417414  0.775683  1
  W  W1  1  0.948983  0.582589  0.224369  1
  Br  Br2  1  0.657563  0.383977  0.205420  1
  Br  Br3  1  0.890435  0.676635  0.589538  1
  Br  Br4  1  0.246961  0.771238  0.298350  1
  Br  Br5  1  0.789237  0.844576  0.111609  1
  Br  Br6  1  0.211595  0.156045  0.888844  1
  Br  Br7  1  0.341707  0.616893  0.794224  1
  Br  Br8  1  0.108957  0.322883  0.410276  1
  Br  Br9  1  0.753675  0.227806  0.701757  1
  N  N10  1  0.999892  0.499944  0.999928  1
