# generated using pymatgen
data_TbHoLu2Fe3Ru5
_symmetry_space_group_name_H-M   'P 1'
_cell_length_a   5.19860032
_cell_length_b   5.37661958
_cell_length_c   9.07038154
_cell_angle_alpha   72.75949668
_cell_angle_beta   91.97199164
_cell_angle_gamma   121.13937595
_symmetry_Int_Tables_number   1
_chemical_formula_structural   TbHoLu2Fe3Ru5
_chemical_formula_sum   'Tb1 Ho1 Lu2 Fe3 Ru5'
_cell_volume   205.04320941
_cell_formula_units_Z   1
loop_
 _symmetry_equiv_pos_site_id
 _symmetry_equiv_pos_as_xyz
  1  'x, y, z'
loop_
 _atom_site_type_symbol
 _atom_site_label
 _atom_site_symmetry_multiplicity
 _atom_site_fract_x
 _atom_site_fract_y
 _atom_site_fract_z
 _atom_site_occupancy
  Tb  Tb0  1  0.873785  0.749503  0.374777  1
  Ho  Ho1  1  0.501414  0.000359  0.500698  1
  Lu  Lu2  1  0.374448  0.749877  0.874694  1
  Lu  Lu3  1  0.000778  0.000451  0.999877  1
  Fe  Fe4  1  0.687502  0.375067  0.937369  1
  Fe  Fe5  1  0.939682  0.377691  0.184299  1
  Fe  Fe6  1  0.435061  0.372194  0.690672  1
  Ru  Ru7  1  0.442278  0.379119  0.179899  1
  Ru  Ru8  1  0.932709  0.370811  0.695047  1
  Ru  Ru9  1  0.442278  0.883260  0.179899  1
  Ru  Ru10  1  0.932709  0.866850  0.695047  1
  Ru  Ru11  1  0.187354  0.374817  0.437721  1
