# generated using pymatgen
data_Ca6PrEr(Si3Pd)4
_symmetry_space_group_name_H-M   'P 1'
_cell_length_a   8.25997500
_cell_length_b   8.25997509
_cell_length_c   8.36077700
_cell_angle_alpha   90.00000000
_cell_angle_beta   90.00000000
_cell_angle_gamma   120.00000364
_symmetry_Int_Tables_number   1
_chemical_formula_structural   Ca6PrEr(Si3Pd)4
_chemical_formula_sum   'Ca6 Pr1 Er1 Si12 Pd4'
_cell_volume   494.00884659
_cell_formula_units_Z   1
loop_
 _symmetry_equiv_pos_site_id
 _symmetry_equiv_pos_as_xyz
  1  'x, y, z'
loop_
 _atom_site_type_symbol
 _atom_site_label
 _atom_site_symmetry_multiplicity
 _atom_site_fract_x
 _atom_site_fract_y
 _atom_site_fract_z
 _atom_site_occupancy
  Ca  Ca0  1  0.500803  0.001609  0.250000  1
  Ca  Ca1  1  0.499054  0.998105  0.750000  1
  Ca  Ca2  1  0.998391  0.499197  0.250000  1
  Ca  Ca3  1  0.001895  0.500946  0.750000  1
  Ca  Ca4  1  0.500803  0.499197  0.250000  1
  Ca  Ca5  1  0.499054  0.500946  0.750000  1
  Pr  Pr6  1  0.000000  0.000000  0.250000  1
  Er  Er7  1  0.000000  0.000000  0.750000  1
  Si  Si8  1  0.164894  0.329786  0.996188  1
  Si  Si9  1  0.835108  0.670217  0.994215  1
  Si  Si10  1  0.670214  0.835106  0.996188  1
  Si  Si11  1  0.835108  0.670217  0.505785  1
  Si  Si12  1  0.329783  0.164892  0.994215  1
  Si  Si13  1  0.164894  0.329786  0.503812  1
  Si  Si14  1  0.164894  0.835106  0.996188  1
  Si  Si15  1  0.329783  0.164892  0.505785  1
  Si  Si16  1  0.835108  0.164892  0.994215  1
  Si  Si17  1  0.670214  0.835106  0.503812  1
  Si  Si18  1  0.835108  0.164892  0.505785  1
  Si  Si19  1  0.164894  0.835106  0.503812  1
  Pd  Pd20  1  0.333333  0.666667  0.000407  1
  Pd  Pd21  1  0.666667  0.333333  0.997922  1
  Pd  Pd22  1  0.666667  0.333333  0.502078  1
  Pd  Pd23  1  0.333333  0.666667  0.499593  1
