# generated using pymatgen
data_ErTm5(NiRh8)2
_symmetry_space_group_name_H-M   'P 1'
_cell_length_a   5.24437700
_cell_length_b   5.24437787
_cell_length_c   17.25622000
_cell_angle_alpha   90.00000000
_cell_angle_beta   90.00000000
_cell_angle_gamma   119.99998822
_symmetry_Int_Tables_number   1
_chemical_formula_structural   ErTm5(NiRh8)2
_chemical_formula_sum   'Er1 Tm5 Ni2 Rh16'
_cell_volume   411.02120886
_cell_formula_units_Z   1
loop_
 _symmetry_equiv_pos_site_id
 _symmetry_equiv_pos_as_xyz
  1  'x, y, z'
loop_
 _atom_site_type_symbol
 _atom_site_label
 _atom_site_symmetry_multiplicity
 _atom_site_fract_x
 _atom_site_fract_y
 _atom_site_fract_z
 _atom_site_occupancy
  Er  Er0  1  0.666667  0.333333  0.250000  1
  Tm  Tm1  1  0.333333  0.666667  0.957968  1
  Tm  Tm2  1  0.666667  0.333333  0.041777  1
  Tm  Tm3  1  0.666667  0.333333  0.458223  1
  Tm  Tm4  1  0.333333  0.666667  0.542032  1
  Tm  Tm5  1  0.333333  0.666667  0.750000  1
  Ni  Ni6  1  0.333333  0.666667  0.250000  1
  Ni  Ni7  1  0.666667  0.333333  0.750000  1
  Rh  Rh8  1  0.168950  0.831050  0.373557  1
  Rh  Rh9  1  0.168950  0.337901  0.373557  1
  Rh  Rh10  1  0.662099  0.831050  0.373557  1
  Rh  Rh11  1  0.831091  0.168909  0.626651  1
  Rh  Rh12  1  0.831091  0.662181  0.626651  1
  Rh  Rh13  1  0.337819  0.168909  0.626651  1
  Rh  Rh14  1  0.831091  0.168909  0.873349  1
  Rh  Rh15  1  0.831091  0.662181  0.873349  1
  Rh  Rh16  1  0.337819  0.168909  0.873349  1
  Rh  Rh17  1  0.168950  0.831050  0.126443  1
  Rh  Rh18  1  0.168950  0.337901  0.126443  1
  Rh  Rh19  1  0.662099  0.831050  0.126443  1
  Rh  Rh20  1  0.000000  0.000000  0.250000  1
  Rh  Rh21  1  0.000000  0.000000  0.750000  1
  Rh  Rh22  1  0.000000  0.000000  0.500106  1
  Rh  Rh23  1  0.000000  0.000000  0.999894  1
