# generated using pymatgen
data_YCo2(SiRh)3
_symmetry_space_group_name_H-M   'P 1'
_cell_length_a   3.79644100
_cell_length_b   10.89256400
_cell_length_c   12.39667400
_cell_angle_alpha   90.00000000
_cell_angle_beta   90.00000000
_cell_angle_gamma   90.00000000
_symmetry_Int_Tables_number   1
_chemical_formula_structural   YCo2(SiRh)3
_chemical_formula_sum   'Y4 Co8 Si12 Rh12'
_cell_volume   512.63936940
_cell_formula_units_Z   4
loop_
 _symmetry_equiv_pos_site_id
 _symmetry_equiv_pos_as_xyz
  1  'x, y, z'
loop_
 _atom_site_type_symbol
 _atom_site_label
 _atom_site_symmetry_multiplicity
 _atom_site_fract_x
 _atom_site_fract_y
 _atom_site_fract_z
 _atom_site_occupancy
  Y  Y0  1  0.250000  0.916585  0.207513  1
  Y  Y1  1  0.750000  0.083415  0.792487  1
  Y  Y2  1  0.750000  0.416585  0.292487  1
  Y  Y3  1  0.250000  0.583415  0.707513  1
  Co  Co4  1  0.250000  0.612563  0.196671  1
  Co  Co5  1  0.750000  0.387437  0.803329  1
  Co  Co6  1  0.750000  0.112563  0.303329  1
  Co  Co7  1  0.250000  0.887437  0.696671  1
  Co  Co8  1  0.250000  0.031885  0.431569  1
  Co  Co9  1  0.750000  0.968115  0.568431  1
  Co  Co10  1  0.750000  0.531885  0.068431  1
  Co  Co11  1  0.250000  0.468115  0.931569  1
  Si  Si12  1  0.250000  0.075395  0.608134  1
  Si  Si13  1  0.750000  0.924605  0.391866  1
  Si  Si14  1  0.750000  0.575395  0.891866  1
  Si  Si15  1  0.250000  0.424605  0.108134  1
  Si  Si16  1  0.250000  0.223014  0.373257  1
  Si  Si17  1  0.750000  0.776986  0.626743  1
  Si  Si18  1  0.750000  0.723014  0.126743  1
  Si  Si19  1  0.250000  0.276986  0.873257  1
  Si  Si20  1  0.250000  0.896171  0.887042  1
  Si  Si21  1  0.750000  0.103829  0.112958  1
  Si  Si22  1  0.750000  0.396171  0.612958  1
  Si  Si23  1  0.250000  0.603829  0.387042  1
  Rh  Rh24  1  0.250000  0.794240  0.490721  1
  Rh  Rh25  1  0.750000  0.205760  0.509279  1
  Rh  Rh26  1  0.750000  0.294240  0.009279  1
  Rh  Rh27  1  0.250000  0.705760  0.990721  1
  Rh  Rh28  1  0.250000  0.093786  0.986231  1
  Rh  Rh29  1  0.750000  0.906214  0.013769  1
  Rh  Rh30  1  0.750000  0.593786  0.513769  1
  Rh  Rh31  1  0.250000  0.406214  0.486231  1
  Rh  Rh32  1  0.250000  0.276861  0.681190  1
  Rh  Rh33  1  0.750000  0.723139  0.318810  1
  Rh  Rh34  1  0.750000  0.776861  0.818810  1
  Rh  Rh35  1  0.250000  0.223139  0.181190  1
