# generated using pymatgen
data_Ho3CdPd8
_symmetry_space_group_name_H-M   'P 1'
_cell_length_a   4.20792114
_cell_length_b   5.83562177
_cell_length_c   17.45547847
_cell_angle_alpha   89.99837972
_cell_angle_beta   90.00098400
_cell_angle_gamma   90.00858574
_symmetry_Int_Tables_number   1
_chemical_formula_structural   Ho3CdPd8
_chemical_formula_sum   'Ho6 Cd2 Pd16'
_cell_volume   428.63386517
_cell_formula_units_Z   2
loop_
 _symmetry_equiv_pos_site_id
 _symmetry_equiv_pos_as_xyz
  1  'x, y, z'
loop_
 _atom_site_type_symbol
 _atom_site_label
 _atom_site_symmetry_multiplicity
 _atom_site_fract_x
 _atom_site_fract_y
 _atom_site_fract_z
 _atom_site_occupancy
  Ho  Ho0  1  0.524570  0.340269  0.047022  1
  Ho  Ho1  1  0.524390  0.840584  0.206145  1
  Ho  Ho2  1  0.525847  0.340244  0.365269  1
  Ho  Ho3  1  0.527481  0.739755  0.547008  1
  Ho  Ho4  1  0.527623  0.237885  0.706148  1
  Ho  Ho5  1  0.526139  0.737475  0.865319  1
  Cd  Cd6  1  0.026709  0.040065  0.456069  1
  Cd  Cd7  1  0.025214  0.039078  0.956124  1
  Pd  Pd8  1  0.524569  0.828681  0.037059  1
  Pd  Pd9  1  0.024110  0.089656  0.122897  1
  Pd  Pd10  1  0.024227  0.592027  0.122923  1
  Pd  Pd11  1  0.524268  0.341309  0.206148  1
  Pd  Pd12  1  0.025048  0.591538  0.289435  1
  Pd  Pd13  1  0.024832  0.089174  0.289325  1
  Pd  Pd14  1  0.525903  0.828372  0.375271  1
  Pd  Pd15  1  0.026811  0.540060  0.456169  1
  Pd  Pd16  1  0.527467  0.251716  0.536970  1
  Pd  Pd17  1  0.027948  0.990358  0.622867  1
  Pd  Pd18  1  0.027843  0.487951  0.622946  1
  Pd  Pd19  1  0.527798  0.737005  0.706160  1
  Pd  Pd20  1  0.027016  0.485644  0.789487  1
  Pd  Pd21  1  0.027180  0.987919  0.789306  1
  Pd  Pd22  1  0.526091  0.249065  0.875235  1
  Pd  Pd23  1  0.025250  0.539133  0.956238  1
