# generated using pymatgen
data_Y4Ga16TcNi2
_symmetry_space_group_name_H-M   'P 1'
_cell_length_a   6.08450700
_cell_length_b   6.08450700
_cell_length_c   11.23776700
_cell_angle_alpha   90.00000000
_cell_angle_beta   90.00000000
_cell_angle_gamma   90.00000000
_symmetry_Int_Tables_number   1
_chemical_formula_structural   Y4Ga16TcNi2
_chemical_formula_sum   'Y4 Ga16 Tc1 Ni2'
_cell_volume   416.03590547
_cell_formula_units_Z   1
loop_
 _symmetry_equiv_pos_site_id
 _symmetry_equiv_pos_as_xyz
  1  'x, y, z'
loop_
 _atom_site_type_symbol
 _atom_site_label
 _atom_site_symmetry_multiplicity
 _atom_site_fract_x
 _atom_site_fract_y
 _atom_site_fract_z
 _atom_site_occupancy
  Y  Y0  1  0.500000  0.000000  0.807644  1
  Y  Y1  1  0.000000  0.500000  0.807644  1
  Y  Y2  1  0.500000  0.000000  0.192356  1
  Y  Y3  1  0.000000  0.500000  0.192356  1
  Ga  Ga4  1  0.250054  0.250054  0.616162  1
  Ga  Ga5  1  0.749946  0.749946  0.616162  1
  Ga  Ga6  1  0.749946  0.250054  0.616162  1
  Ga  Ga7  1  0.250054  0.749946  0.616162  1
  Ga  Ga8  1  0.749946  0.749946  0.383838  1
  Ga  Ga9  1  0.250054  0.250054  0.383838  1
  Ga  Ga10  1  0.250054  0.749946  0.383838  1
  Ga  Ga11  1  0.749946  0.250054  0.383838  1
  Ga  Ga12  1  0.287707  0.287707  0.000000  1
  Ga  Ga13  1  0.712293  0.712293  0.000000  1
  Ga  Ga14  1  0.712293  0.287707  0.000000  1
  Ga  Ga15  1  0.287707  0.712293  0.000000  1
  Ga  Ga16  1  0.500000  0.500000  0.802034  1
  Ga  Ga17  1  0.500000  0.500000  0.197966  1
  Ga  Ga18  1  0.000000  0.000000  0.773827  1
  Ga  Ga19  1  0.000000  0.000000  0.226173  1
  Tc  Tc20  1  0.000000  0.000000  0.000000  1
  Ni  Ni21  1  0.500000  0.000000  0.500000  1
  Ni  Ni22  1  0.000000  0.500000  0.500000  1
