# generated using pymatgen
data_CsLi(CeSe2)2
_symmetry_space_group_name_H-M   'P 1'
_cell_length_a   4.37991600
_cell_length_b   7.73145191
_cell_length_c   15.02098900
_cell_angle_alpha   90.00000000
_cell_angle_beta   90.00000000
_cell_angle_gamma   106.45445065
_symmetry_Int_Tables_number   1
_chemical_formula_structural   CsLi(CeSe2)2
_chemical_formula_sum   'Cs2 Li2 Ce4 Se8'
_cell_volume   487.82544983
_cell_formula_units_Z   2
loop_
 _symmetry_equiv_pos_site_id
 _symmetry_equiv_pos_as_xyz
  1  'x, y, z'
loop_
 _atom_site_type_symbol
 _atom_site_label
 _atom_site_symmetry_multiplicity
 _atom_site_fract_x
 _atom_site_fract_y
 _atom_site_fract_z
 _atom_site_occupancy
  Cs  Cs0  1  0.106641  0.213282  0.250000  1
  Cs  Cs1  1  0.893358  0.786717  0.750000  1
  Li  Li2  1  0.832529  0.665061  0.250000  1
  Li  Li3  1  0.167470  0.334939  0.750000  1
  Ce  Ce4  1  0.366601  0.733201  0.059137  1
  Ce  Ce5  1  0.366601  0.733201  0.440863  1
  Ce  Ce6  1  0.633398  0.266799  0.559137  1
  Ce  Ce7  1  0.633398  0.266799  0.940863  1
  Se  Se8  1  0.000000  0.000000  0.000000  1
  Se  Se9  1  0.742222  0.484445  0.106278  1
  Se  Se10  1  0.416782  0.833563  0.250000  1
  Se  Se11  1  0.742222  0.484445  0.393722  1
  Se  Se12  1  0.000000  0.000000  0.500000  1
  Se  Se13  1  0.257778  0.515555  0.606278  1
  Se  Se14  1  0.583217  0.166436  0.750000  1
  Se  Se15  1  0.257778  0.515555  0.893722  1
