# generated using pymatgen
data_Dy(TmPt)4
_symmetry_space_group_name_H-M   'P 1'
_cell_length_a   7.41295900
_cell_length_b   7.50811800
_cell_length_c   14.60815000
_cell_angle_alpha   90.00000000
_cell_angle_beta   90.00000000
_cell_angle_gamma   90.00000000
_symmetry_Int_Tables_number   1
_chemical_formula_structural   Dy(TmPt)4
_chemical_formula_sum   'Dy4 Tm16 Pt16'
_cell_volume   813.05122273
_cell_formula_units_Z   4
loop_
 _symmetry_equiv_pos_site_id
 _symmetry_equiv_pos_as_xyz
  1  'x, y, z'
loop_
 _atom_site_type_symbol
 _atom_site_label
 _atom_site_symmetry_multiplicity
 _atom_site_fract_x
 _atom_site_fract_y
 _atom_site_fract_z
 _atom_site_occupancy
  Dy  Dy0  1  0.499110  0.320530  0.407617  1
  Dy  Dy1  1  0.999110  0.179470  0.092383  1
  Dy  Dy2  1  0.500890  0.679470  0.907617  1
  Dy  Dy3  1  0.000890  0.820530  0.592383  1
  Tm  Tm4  1  0.656852  0.167594  0.622695  1
  Tm  Tm5  1  0.156852  0.332406  0.877305  1
  Tm  Tm6  1  0.343148  0.832406  0.122695  1
  Tm  Tm7  1  0.843148  0.667594  0.377305  1
  Tm  Tm8  1  0.343244  0.832154  0.377560  1
  Tm  Tm9  1  0.843244  0.667846  0.122440  1
  Tm  Tm10  1  0.656756  0.167846  0.877560  1
  Tm  Tm11  1  0.156756  0.332154  0.622440  1
  Tm  Tm12  1  0.501518  0.680131  0.592786  1
  Tm  Tm13  1  0.001518  0.819869  0.907214  1
  Tm  Tm14  1  0.498482  0.319869  0.092786  1
  Tm  Tm15  1  0.998482  0.180131  0.407214  1
  Tm  Tm16  1  0.819284  0.511130  0.749967  1
  Tm  Tm17  1  0.319284  0.988870  0.750033  1
  Tm  Tm18  1  0.180716  0.488870  0.249967  1
  Tm  Tm19  1  0.680716  0.011130  0.250033  1
  Pt  Pt20  1  0.683958  0.966824  0.458332  1
  Pt  Pt21  1  0.183958  0.533176  0.041668  1
  Pt  Pt22  1  0.316042  0.033176  0.958332  1
  Pt  Pt23  1  0.816042  0.466824  0.541668  1
  Pt  Pt24  1  0.316965  0.032938  0.541643  1
  Pt  Pt25  1  0.816965  0.467062  0.958357  1
  Pt  Pt26  1  0.683035  0.967062  0.041643  1
  Pt  Pt27  1  0.183035  0.532938  0.458357  1
  Pt  Pt28  1  0.454370  0.386745  0.749736  1
  Pt  Pt29  1  0.954370  0.113255  0.750264  1
  Pt  Pt30  1  0.545630  0.613255  0.249736  1
  Pt  Pt31  1  0.045630  0.886745  0.250264  1
  Pt  Pt32  1  0.682716  0.856538  0.749719  1
  Pt  Pt33  1  0.182716  0.643462  0.750281  1
  Pt  Pt34  1  0.317284  0.143462  0.249719  1
  Pt  Pt35  1  0.817284  0.356538  0.250281  1
