# generated using pymatgen
data_Sm3Al3Ga2Pd
_symmetry_space_group_name_H-M   'P 1'
_cell_length_a   7.20230200
_cell_length_b   7.20230248
_cell_length_c   4.39576800
_cell_angle_alpha   90.00000000
_cell_angle_beta   90.00000000
_cell_angle_gamma   120.97079772
_symmetry_Int_Tables_number   1
_chemical_formula_structural   Sm3Al3Ga2Pd
_chemical_formula_sum   'Sm3 Al3 Ga2 Pd1'
_cell_volume   195.51314718
_cell_formula_units_Z   1
loop_
 _symmetry_equiv_pos_site_id
 _symmetry_equiv_pos_as_xyz
  1  'x, y, z'
loop_
 _atom_site_type_symbol
 _atom_site_label
 _atom_site_symmetry_multiplicity
 _atom_site_fract_x
 _atom_site_fract_y
 _atom_site_fract_z
 _atom_site_occupancy
  Sm  Sm0  1  0.585487  0.001686  0.000000  1
  Sm  Sm1  1  0.001686  0.585487  0.000000  1
  Sm  Sm2  1  0.415347  0.415347  0.000000  1
  Al  Al3  1  0.768294  0.768294  0.500000  1
  Al  Al4  1  0.232530  0.999051  0.500000  1
  Al  Al5  1  0.999051  0.232530  0.500000  1
  Ga  Ga6  1  0.334260  0.665944  0.500000  1
  Ga  Ga7  1  0.665944  0.334260  0.500000  1
  Pd  Pd8  1  0.997401  0.997401  0.000000  1
