# generated using pymatgen
data_Tm12Tc3Pt
_symmetry_space_group_name_H-M   'P 1'
_cell_length_a   6.20445713
_cell_length_b   7.35208400
_cell_length_c   9.02136300
_cell_angle_alpha   90.00000000
_cell_angle_beta   90.00000000
_cell_angle_gamma   90.01157845
_symmetry_Int_Tables_number   1
_chemical_formula_structural   Tm12Tc3Pt
_chemical_formula_sum   'Tm12 Tc3 Pt1'
_cell_volume   411.51568952
_cell_formula_units_Z   1
loop_
 _symmetry_equiv_pos_site_id
 _symmetry_equiv_pos_as_xyz
  1  'x, y, z'
loop_
 _atom_site_type_symbol
 _atom_site_label
 _atom_site_symmetry_multiplicity
 _atom_site_fract_x
 _atom_site_fract_y
 _atom_site_fract_z
 _atom_site_occupancy
  Tm  Tm0  1  0.331053  0.675748  0.065837  1
  Tm  Tm1  1  0.163311  0.177424  0.437056  1
  Tm  Tm2  1  0.665828  0.318801  0.558237  1
  Tm  Tm3  1  0.838695  0.827864  0.941169  1
  Tm  Tm4  1  0.665828  0.318801  0.941763  1
  Tm  Tm5  1  0.838695  0.827864  0.558831  1
  Tm  Tm6  1  0.331053  0.675748  0.434163  1
  Tm  Tm7  1  0.163311  0.177424  0.062944  1
  Tm  Tm8  1  0.874831  0.542083  0.250000  1
  Tm  Tm9  1  0.620412  0.037426  0.250000  1
  Tm  Tm10  1  0.127126  0.455775  0.750000  1
  Tm  Tm11  1  0.374217  0.965159  0.750000  1
  Tc  Tc12  1  0.037831  0.885232  0.250000  1
  Tc  Tc13  1  0.464581  0.386207  0.250000  1
  Tc  Tc14  1  0.958554  0.114760  0.750000  1
  Pt  Pt15  1  0.544672  0.613684  0.750000  1
