# generated using pymatgen
data_Sn7F16
_symmetry_space_group_name_H-M   'P 1'
_cell_length_a   10.20837450
_cell_length_b   10.20837441
_cell_length_c   11.10167200
_cell_angle_alpha   89.08859471
_cell_angle_beta   89.08859472
_cell_angle_gamma   45.00003927
_symmetry_Int_Tables_number   1
_chemical_formula_structural   Sn7F16
_chemical_formula_sum   'Sn14 F32'
_cell_volume   817.94198145
_cell_formula_units_Z   2
loop_
 _symmetry_equiv_pos_site_id
 _symmetry_equiv_pos_as_xyz
  1  'x, y, z'
loop_
 _atom_site_type_symbol
 _atom_site_label
 _atom_site_symmetry_multiplicity
 _atom_site_fract_x
 _atom_site_fract_y
 _atom_site_fract_z
 _atom_site_occupancy
  Sn  Sn0  1  0.331894  0.668106  0.750000  1
  Sn  Sn1  1  0.668106  0.331894  0.250000  1
  Sn  Sn2  1  0.097382  0.752716  0.393837  1
  Sn  Sn3  1  0.542844  0.754380  0.470073  1
  Sn  Sn4  1  0.902618  0.247284  0.606163  1
  Sn  Sn5  1  0.457156  0.245620  0.529927  1
  Sn  Sn6  1  0.709163  0.878218  0.179580  1
  Sn  Sn7  1  0.752716  0.097382  0.893837  1
  Sn  Sn8  1  0.247284  0.902618  0.106163  1
  Sn  Sn9  1  0.121782  0.290837  0.320420  1
  Sn  Sn10  1  0.290837  0.121782  0.820420  1
  Sn  Sn11  1  0.878218  0.709163  0.679580  1
  Sn  Sn12  1  0.754380  0.542844  0.970073  1
  Sn  Sn13  1  0.245620  0.457156  0.029927  1
  F  F14  1  0.394643  0.132857  0.406328  1
  F  F15  1  0.180825  0.498174  0.459789  1
  F  F16  1  0.867143  0.605357  0.093672  1
  F  F17  1  0.989351  0.704202  0.251719  1
  F  F18  1  0.132857  0.394643  0.906328  1
  F  F19  1  0.501826  0.819175  0.040211  1
  F  F20  1  0.441542  0.415658  0.791759  1
  F  F21  1  0.295798  0.010649  0.248281  1
  F  F22  1  0.372494  0.697243  0.920069  1
  F  F23  1  0.627506  0.302757  0.079931  1
  F  F24  1  0.697243  0.372494  0.420069  1
  F  F25  1  0.286663  0.273601  0.660108  1
  F  F26  1  0.819175  0.501826  0.540211  1
  F  F27  1  0.704202  0.989351  0.751719  1
  F  F28  1  0.080690  0.775162  0.794622  1
  F  F29  1  0.010649  0.295798  0.748281  1
  F  F30  1  0.713337  0.726399  0.339892  1
  F  F31  1  0.775162  0.080690  0.294622  1
  F  F32  1  0.224838  0.919310  0.705378  1
  F  F33  1  0.498174  0.180825  0.959789  1
  F  F34  1  0.726399  0.713337  0.839892  1
  F  F35  1  0.137329  0.121575  0.982189  1
  F  F36  1  0.302757  0.627506  0.579931  1
  F  F37  1  0.121575  0.137329  0.482189  1
  F  F38  1  0.878425  0.862671  0.517811  1
  F  F39  1  0.584342  0.558458  0.708241  1
  F  F40  1  0.919310  0.224838  0.205378  1
  F  F41  1  0.415658  0.441542  0.291759  1
  F  F42  1  0.558458  0.584342  0.208241  1
  F  F43  1  0.273601  0.286663  0.160108  1
  F  F44  1  0.605357  0.867143  0.593672  1
  F  F45  1  0.862671  0.878425  0.017811  1
