# generated using pymatgen
data_TmScZn(Ni2P)6
_symmetry_space_group_name_H-M   'P 1'
_cell_length_a   9.05540700
_cell_length_b   9.05540631
_cell_length_c   3.62080200
_cell_angle_alpha   90.00000000
_cell_angle_beta   90.00000000
_cell_angle_gamma   119.99999885
_symmetry_Int_Tables_number   1
_chemical_formula_structural   TmScZn(Ni2P)6
_chemical_formula_sum   'Tm1 Sc1 Zn1 Ni12 P6'
_cell_volume   257.12915918
_cell_formula_units_Z   1
loop_
 _symmetry_equiv_pos_site_id
 _symmetry_equiv_pos_as_xyz
  1  'x, y, z'
loop_
 _atom_site_type_symbol
 _atom_site_label
 _atom_site_symmetry_multiplicity
 _atom_site_fract_x
 _atom_site_fract_y
 _atom_site_fract_z
 _atom_site_occupancy
  Tm  Tm0  1  0.666667  0.333333  0.500000  1
  Sc  Sc1  1  0.333333  0.666667  0.000000  1
  Zn  Zn2  1  0.000000  0.000000  0.000000  1
  Ni  Ni3  1  0.440434  0.061314  0.000000  1
  Ni  Ni4  1  0.620879  0.559566  0.000000  1
  Ni  Ni5  1  0.938686  0.379121  0.000000  1
  Ni  Ni6  1  0.165588  0.297656  0.000000  1
  Ni  Ni7  1  0.132068  0.834412  0.000000  1
  Ni  Ni8  1  0.702344  0.867932  0.000000  1
  Ni  Ni9  1  0.383633  0.439201  0.500000  1
  Ni  Ni10  1  0.055569  0.616367  0.500000  1
  Ni  Ni11  1  0.560799  0.944431  0.500000  1
  Ni  Ni12  1  0.247533  0.108228  0.500000  1
  Ni  Ni13  1  0.860695  0.752467  0.500000  1
  Ni  Ni14  1  0.891772  0.139305  0.500000  1
  P  P15  1  0.403959  0.288094  0.000000  1
  P  P16  1  0.884137  0.596041  0.000000  1
  P  P17  1  0.711906  0.115863  0.000000  1
  P  P18  1  0.116498  0.409899  0.500000  1
  P  P19  1  0.293401  0.883502  0.500000  1
  P  P20  1  0.590101  0.706599  0.500000  1
