# generated using pymatgen
data_Sc5Ti2Co17P12
_symmetry_space_group_name_H-M   'P 1'
_cell_length_a   11.93650914
_cell_length_b   11.89402864
_cell_length_c   3.59173500
_cell_angle_alpha   90.00000000
_cell_angle_beta   90.00000000
_cell_angle_gamma   119.88233110
_symmetry_Int_Tables_number   1
_chemical_formula_structural   Sc5Ti2Co17P12
_chemical_formula_sum   'Sc5 Ti2 Co17 P12'
_cell_volume   442.13506600
_cell_formula_units_Z   1
loop_
 _symmetry_equiv_pos_site_id
 _symmetry_equiv_pos_as_xyz
  1  'x, y, z'
loop_
 _atom_site_type_symbol
 _atom_site_label
 _atom_site_symmetry_multiplicity
 _atom_site_fract_x
 _atom_site_fract_y
 _atom_site_fract_z
 _atom_site_occupancy
  Sc  Sc0  1  0.665140  0.332626  0.000000  1
  Sc  Sc1  1  0.334860  0.667487  0.000000  1
  Sc  Sc2  1  0.185067  0.182990  0.500000  1
  Sc  Sc3  1  0.814933  0.997923  0.500000  1
  Sc  Sc4  1  0.000000  0.811052  0.500000  1
  Ti  Ti5  1  0.558449  0.558266  0.000000  1
  Ti  Ti6  1  0.441551  0.999818  0.000000  1
  Co  Co7  1  0.000000  0.449757  0.000000  1
  Co  Co8  1  0.824869  0.201030  0.000000  1
  Co  Co9  1  0.805495  0.624691  0.000000  1
  Co  Co10  1  0.372508  0.177538  0.000000  1
  Co  Co11  1  0.194505  0.819196  0.000000  1
  Co  Co12  1  0.627492  0.805030  0.000000  1
  Co  Co13  1  0.175131  0.376161  0.000000  1
  Co  Co14  1  0.646041  0.127209  0.500000  1
  Co  Co15  1  0.873574  0.515331  0.500000  1
  Co  Co16  1  0.481299  0.355514  0.500000  1
  Co  Co17  1  0.126426  0.641757  0.500000  1
  Co  Co18  1  0.518701  0.874215  0.500000  1
  Co  Co19  1  0.353959  0.481169  0.500000  1
  Co  Co20  1  0.720641  0.719665  0.500000  1
  Co  Co21  1  0.279359  0.999023  0.500000  1
  Co  Co22  1  0.000000  0.284130  0.500000  1
  Co  Co23  1  0.000000  0.002143  0.000000  1
  P  P24  1  0.352356  0.355508  0.000000  1
  P  P25  1  0.647644  0.003151  0.000000  1
  P  P26  1  0.000000  0.636476  0.000000  1
  P  P27  1  0.833469  0.316386  0.500000  1
  P  P28  1  0.686821  0.515493  0.500000  1
  P  P29  1  0.482965  0.169884  0.500000  1
  P  P30  1  0.313179  0.828672  0.500000  1
  P  P31  1  0.517035  0.686919  0.500000  1
  P  P32  1  0.166531  0.482917  0.500000  1
  P  P33  1  0.825118  0.823472  0.000000  1
  P  P34  1  0.174882  0.998353  0.000000  1
  P  P35  1  0.000000  0.179048  0.000000  1
