# generated using pymatgen
data_Dy16InHg3(IrRh)2
_symmetry_space_group_name_H-M   'P 1'
_cell_length_a   9.62560828
_cell_length_b   9.60183515
_cell_length_c   9.60183596
_cell_angle_alpha   59.89181187
_cell_angle_beta   60.00663582
_cell_angle_gamma   60.00664015
_symmetry_Int_Tables_number   1
_chemical_formula_structural   Dy16InHg3(IrRh)2
_chemical_formula_sum   'Dy16 In1 Hg3 Ir2 Rh2'
_cell_volume   627.05965346
_cell_formula_units_Z   1
loop_
 _symmetry_equiv_pos_site_id
 _symmetry_equiv_pos_as_xyz
  1  'x, y, z'
loop_
 _atom_site_type_symbol
 _atom_site_label
 _atom_site_symmetry_multiplicity
 _atom_site_fract_x
 _atom_site_fract_y
 _atom_site_fract_z
 _atom_site_occupancy
  Dy  Dy0  1  0.690326  0.310208  0.310208  1
  Dy  Dy1  1  0.691166  0.690310  0.310800  1
  Dy  Dy2  1  0.309882  0.690290  0.310658  1
  Dy  Dy3  1  0.936078  0.937959  0.560083  1
  Dy  Dy4  1  0.147912  0.148744  0.551652  1
  Dy  Dy5  1  0.561526  0.939065  0.561481  1
  Dy  Dy6  1  0.149843  0.149999  0.149999  1
  Dy  Dy7  1  0.309882  0.310658  0.690290  1
  Dy  Dy8  1  0.939004  0.560922  0.560922  1
  Dy  Dy9  1  0.561526  0.561481  0.939065  1
  Dy  Dy10  1  0.560731  0.936096  0.936096  1
  Dy  Dy11  1  0.936078  0.560083  0.937959  1
  Dy  Dy12  1  0.147912  0.551652  0.148744  1
  Dy  Dy13  1  0.310900  0.690467  0.690467  1
  Dy  Dy14  1  0.691166  0.310800  0.690310  1
  Dy  Dy15  1  0.552598  0.148235  0.148235  1
  In  In16  1  0.919439  0.920098  0.920098  1
  Hg  Hg17  1  0.914552  0.914908  0.256622  1
  Hg  Hg18  1  0.256800  0.914781  0.914781  1
  Hg  Hg19  1  0.914552  0.256622  0.914908  1
  Ir  Ir20  1  0.357652  0.357127  0.357127  1
  Ir  Ir21  1  0.926251  0.356701  0.356701  1
  Rh  Rh22  1  0.357112  0.356503  0.926289  1
  Rh  Rh23  1  0.357112  0.926289  0.356503  1
