# generated using pymatgen
data_EuInGePd2
_symmetry_space_group_name_H-M   'P 1'
_cell_length_a   4.32893000
_cell_length_b   4.32893000
_cell_length_c   11.31524100
_cell_angle_alpha   90.00000000
_cell_angle_beta   90.00000000
_cell_angle_gamma   90.00000000
_symmetry_Int_Tables_number   1
_chemical_formula_structural   EuInGePd2
_chemical_formula_sum   'Eu2 In2 Ge2 Pd4'
_cell_volume   212.04348565
_cell_formula_units_Z   2
loop_
 _symmetry_equiv_pos_site_id
 _symmetry_equiv_pos_as_xyz
  1  'x, y, z'
loop_
 _atom_site_type_symbol
 _atom_site_label
 _atom_site_symmetry_multiplicity
 _atom_site_fract_x
 _atom_site_fract_y
 _atom_site_fract_z
 _atom_site_occupancy
  Eu  Eu0  1  0.000000  0.500000  0.232547  1
  Eu  Eu1  1  0.500000  0.000000  0.767453  1
  In  In2  1  0.000000  0.000000  0.500000  1
  In  In3  1  0.500000  0.500000  0.500000  1
  Ge  Ge4  1  0.000000  0.500000  0.879467  1
  Ge  Ge5  1  0.500000  0.000000  0.120533  1
  Pd  Pd6  1  0.000000  0.500000  0.659524  1
  Pd  Pd7  1  0.500000  0.000000  0.340476  1
  Pd  Pd8  1  0.000000  0.000000  0.000000  1
  Pd  Pd9  1  0.500000  0.500000  0.000000  1
