# generated using pymatgen
data_Tm8GaPt24
_symmetry_space_group_name_H-M   'P 1'
_cell_length_a   8.33363800
_cell_length_b   8.33363800
_cell_length_c   8.33363800
_cell_angle_alpha   90.00000000
_cell_angle_beta   90.00000000
_cell_angle_gamma   90.00000000
_symmetry_Int_Tables_number   1
_chemical_formula_structural   Tm8GaPt24
_chemical_formula_sum   'Tm8 Ga1 Pt24'
_cell_volume   578.76717825
_cell_formula_units_Z   1
loop_
 _symmetry_equiv_pos_site_id
 _symmetry_equiv_pos_as_xyz
  1  'x, y, z'
loop_
 _atom_site_type_symbol
 _atom_site_label
 _atom_site_symmetry_multiplicity
 _atom_site_fract_x
 _atom_site_fract_y
 _atom_site_fract_z
 _atom_site_occupancy
  Tm  Tm0  1  0.251345  0.251345  0.748655  1
  Tm  Tm1  1  0.251345  0.748655  0.251345  1
  Tm  Tm2  1  0.748655  0.251345  0.251345  1
  Tm  Tm3  1  0.748655  0.748655  0.748655  1
  Tm  Tm4  1  0.748655  0.748655  0.251345  1
  Tm  Tm5  1  0.748655  0.251345  0.748655  1
  Tm  Tm6  1  0.251345  0.748655  0.748655  1
  Tm  Tm7  1  0.251345  0.251345  0.251345  1
  Ga  Ga8  1  0.000000  0.000000  0.000000  1
  Pt  Pt9  1  0.500000  0.500000  0.746478  1
  Pt  Pt10  1  0.500000  0.253522  0.500000  1
  Pt  Pt11  1  0.253522  0.500000  0.500000  1
  Pt  Pt12  1  0.500000  0.500000  0.253522  1
  Pt  Pt13  1  0.500000  0.746478  0.500000  1
  Pt  Pt14  1  0.746478  0.500000  0.500000  1
  Pt  Pt15  1  0.000000  0.000000  0.705569  1
  Pt  Pt16  1  0.000000  0.294431  0.000000  1
  Pt  Pt17  1  0.294431  0.000000  0.000000  1
  Pt  Pt18  1  0.000000  0.000000  0.294431  1
  Pt  Pt19  1  0.000000  0.705569  0.000000  1
  Pt  Pt20  1  0.705569  0.000000  0.000000  1
  Pt  Pt21  1  0.000000  0.500000  0.738455  1
  Pt  Pt22  1  0.500000  0.261545  0.000000  1
  Pt  Pt23  1  0.261545  0.000000  0.500000  1
  Pt  Pt24  1  0.000000  0.261545  0.500000  1
  Pt  Pt25  1  0.500000  0.000000  0.738455  1
  Pt  Pt26  1  0.261545  0.500000  0.000000  1
  Pt  Pt27  1  0.000000  0.500000  0.261545  1
  Pt  Pt28  1  0.500000  0.738455  0.000000  1
  Pt  Pt29  1  0.000000  0.738455  0.500000  1
  Pt  Pt30  1  0.500000  0.000000  0.261545  1
  Pt  Pt31  1  0.738455  0.000000  0.500000  1
  Pt  Pt32  1  0.738455  0.500000  0.000000  1
