# generated using pymatgen
data_NdTh3(GaNi2)2
_symmetry_space_group_name_H-M   'P 1'
_cell_length_a   7.42686102
_cell_length_b   7.42686072
_cell_length_c   3.72002600
_cell_angle_alpha   90.00000000
_cell_angle_beta   90.00000000
_cell_angle_gamma   91.15581393
_symmetry_Int_Tables_number   1
_chemical_formula_structural   NdTh3(GaNi2)2
_chemical_formula_sum   'Nd1 Th3 Ga2 Ni4'
_cell_volume   205.14842154
_cell_formula_units_Z   1
loop_
 _symmetry_equiv_pos_site_id
 _symmetry_equiv_pos_as_xyz
  1  'x, y, z'
loop_
 _atom_site_type_symbol
 _atom_site_label
 _atom_site_symmetry_multiplicity
 _atom_site_fract_x
 _atom_site_fract_y
 _atom_site_fract_z
 _atom_site_occupancy
  Nd  Nd0  1  0.819873  0.680127  0.500000  1
  Th  Th1  1  0.680655  0.177420  0.500000  1
  Th  Th2  1  0.322580  0.819345  0.500000  1
  Th  Th3  1  0.178120  0.321880  0.500000  1
  Ga  Ga4  1  0.499041  0.500154  0.000000  1
  Ga  Ga5  1  0.999846  0.000959  0.000000  1
  Ni  Ni6  1  0.134745  0.617642  0.000000  1
  Ni  Ni7  1  0.882358  0.365255  0.000000  1
  Ni  Ni8  1  0.612929  0.887071  0.000000  1
  Ni  Ni9  1  0.369851  0.130149  0.000000  1
