# generated using pymatgen
data_Sc10Ga3FeBi2
_symmetry_space_group_name_H-M   'P 1'
_cell_length_a   8.13410083
_cell_length_b   8.13410039
_cell_length_c   8.23918000
_cell_angle_alpha   125.62652464
_cell_angle_beta   125.62652241
_cell_angle_gamma   79.62740025
_symmetry_Int_Tables_number   1
_chemical_formula_structural   Sc10Ga3FeBi2
_chemical_formula_sum   'Sc10 Ga3 Fe1 Bi2'
_cell_volume   349.54705472
_cell_formula_units_Z   1
loop_
 _symmetry_equiv_pos_site_id
 _symmetry_equiv_pos_as_xyz
  1  'x, y, z'
loop_
 _atom_site_type_symbol
 _atom_site_label
 _atom_site_symmetry_multiplicity
 _atom_site_fract_x
 _atom_site_fract_y
 _atom_site_fract_z
 _atom_site_occupancy
  Sc  Sc0  1  0.007901  0.002038  0.009940  1
  Sc  Sc1  1  0.497962  0.492099  0.990060  1
  Sc  Sc2  1  0.777012  0.296992  0.795844  1
  Sc  Sc3  1  0.203008  0.722988  0.204156  1
  Sc  Sc4  1  0.481168  0.001148  0.204156  1
  Sc  Sc5  1  0.310007  0.451192  0.500000  1
  Sc  Sc6  1  0.048808  0.189993  0.500000  1
  Sc  Sc7  1  0.498852  0.018832  0.795844  1
  Sc  Sc8  1  0.700669  0.517324  0.500000  1
  Sc  Sc9  1  0.982676  0.799331  0.500000  1
  Ga  Ga10  1  0.136898  0.639557  0.776455  1
  Ga  Ga11  1  0.860443  0.363102  0.223545  1
  Ga  Ga12  1  0.634026  0.865974  0.500000  1
  Fe  Fe13  1  0.375518  0.124482  0.500000  1
  Bi  Bi14  1  0.242526  0.257474  0.000000  1
  Bi  Bi15  1  0.742526  0.757474  0.000000  1
