# generated using pymatgen
data_Tb17Ho3(Ir5Pt)2
_symmetry_space_group_name_H-M   'P 1'
_cell_length_a   10.98552658
_cell_length_b   10.98828303
_cell_length_c   6.36296404
_cell_angle_alpha   89.99441926
_cell_angle_beta   89.96697869
_cell_angle_gamma   89.99421997
_symmetry_Int_Tables_number   1
_chemical_formula_structural   Tb17Ho3(Ir5Pt)2
_chemical_formula_sum   'Tb17 Ho3 Ir10 Pt2'
_cell_volume   768.08645938
_cell_formula_units_Z   1
loop_
 _symmetry_equiv_pos_site_id
 _symmetry_equiv_pos_as_xyz
  1  'x, y, z'
loop_
 _atom_site_type_symbol
 _atom_site_label
 _atom_site_symmetry_multiplicity
 _atom_site_fract_x
 _atom_site_fract_y
 _atom_site_fract_z
 _atom_site_occupancy
  Tb  Tb0  1  0.291277  0.088462  0.376255  1
  Tb  Tb1  1  0.291185  0.911644  0.876358  1
  Tb  Tb2  1  0.705358  0.090147  0.874202  1
  Tb  Tb3  1  0.705328  0.909766  0.374181  1
  Tb  Tb4  1  0.584622  0.790624  0.878597  1
  Tb  Tb5  1  0.584566  0.209326  0.378678  1
  Tb  Tb6  1  0.410757  0.791140  0.377791  1
  Tb  Tb7  1  0.410681  0.208918  0.877730  1
  Tb  Tb8  1  0.209170  0.411401  0.621998  1
  Tb  Tb9  1  0.209123  0.588590  0.122084  1
  Tb  Tb10  1  0.790623  0.414550  0.122438  1
  Tb  Tb11  1  0.790584  0.585475  0.622311  1
  Tb  Tb12  1  0.913392  0.707290  0.126525  1
  Tb  Tb13  1  0.913390  0.292845  0.626617  1
  Tb  Tb14  1  0.091673  0.706788  0.622345  1
  Tb  Tb15  1  0.091661  0.293044  0.122212  1
  Tb  Tb16  1  0.003010  0.999522  0.499952  1
  Ho  Ho17  1  0.003077  0.000450  0.999953  1
  Ho  Ho18  1  0.499774  0.499562  0.999890  1
  Ho  Ho19  1  0.499791  0.500477  0.499913  1
  Ir  Ir20  1  0.152749  0.153634  0.750467  1
  Ir  Ir21  1  0.152811  0.846378  0.249623  1
  Ir  Ir22  1  0.654431  0.346384  0.749507  1
  Ir  Ir23  1  0.654383  0.653583  0.249478  1
  Ir  Ir24  1  0.347162  0.346733  0.250373  1
  Ir  Ir25  1  0.347149  0.653288  0.750393  1
  Ir  Ir26  1  0.500702  0.999824  0.123405  1
  Ir  Ir27  1  0.500701  0.000205  0.623338  1
  Ir  Ir28  1  0.999575  0.500223  0.876886  1
  Ir  Ir29  1  0.999587  0.499764  0.376855  1
  Pt  Pt30  1  0.845822  0.153185  0.249386  1
  Pt  Pt31  1  0.845889  0.846775  0.750259  1
