# generated using pymatgen
data_Mg2Hg(SO4)3
_symmetry_space_group_name_H-M   'P 1'
_cell_length_a   8.51915800
_cell_length_b   8.51915779
_cell_length_c   7.43592900
_cell_angle_alpha   90.00000000
_cell_angle_beta   90.00000000
_cell_angle_gamma   120.00000083
_symmetry_Int_Tables_number   1
_chemical_formula_structural   Mg2Hg(SO4)3
_chemical_formula_sum   'Mg4 Hg2 S6 O24'
_cell_volume   467.36824088
_cell_formula_units_Z   2
loop_
 _symmetry_equiv_pos_site_id
 _symmetry_equiv_pos_as_xyz
  1  'x, y, z'
loop_
 _atom_site_type_symbol
 _atom_site_label
 _atom_site_symmetry_multiplicity
 _atom_site_fract_x
 _atom_site_fract_y
 _atom_site_fract_z
 _atom_site_occupancy
  Mg  Mg0  1  0.666667  0.333333  0.952490  1
  Mg  Mg1  1  0.333333  0.666667  0.047510  1
  Mg  Mg2  1  0.333333  0.666667  0.452490  1
  Mg  Mg3  1  0.666667  0.333333  0.547510  1
  Hg  Hg4  1  0.000000  0.000000  0.000000  1
  Hg  Hg5  1  0.000000  0.000000  0.500000  1
  S  S6  1  0.033937  0.667625  0.750000  1
  S  S7  1  0.667625  0.633688  0.250000  1
  S  S8  1  0.633688  0.966063  0.750000  1
  S  S9  1  0.366312  0.033937  0.250000  1
  S  S10  1  0.966063  0.332375  0.250000  1
  S  S11  1  0.332375  0.366312  0.750000  1
  O  O12  1  0.869994  0.481258  0.750000  1
  O  O13  1  0.165050  0.966330  0.250000  1
  O  O14  1  0.445199  0.140624  0.085832  1
  O  O15  1  0.198719  0.165050  0.750000  1
  O  O16  1  0.611263  0.130006  0.750000  1
  O  O17  1  0.518742  0.388737  0.750000  1
  O  O18  1  0.859376  0.304576  0.085832  1
  O  O19  1  0.140624  0.695424  0.585832  1
  O  O20  1  0.304576  0.445199  0.585832  1
  O  O21  1  0.130006  0.518742  0.250000  1
  O  O22  1  0.033670  0.198719  0.250000  1
  O  O23  1  0.966330  0.801281  0.750000  1
  O  O24  1  0.801281  0.834950  0.250000  1
  O  O25  1  0.304576  0.445199  0.914168  1
  O  O26  1  0.140624  0.695424  0.914168  1
  O  O27  1  0.481258  0.611263  0.250000  1
  O  O28  1  0.695424  0.554801  0.085832  1
  O  O29  1  0.445199  0.140624  0.414168  1
  O  O30  1  0.388737  0.869994  0.250000  1
  O  O31  1  0.859376  0.304576  0.414168  1
  O  O32  1  0.695424  0.554801  0.414168  1
  O  O33  1  0.834950  0.033670  0.750000  1
  O  O34  1  0.554801  0.859376  0.585832  1
  O  O35  1  0.554801  0.859376  0.914168  1
