# generated using pymatgen
data_Ca3Er(AgPb)2
_symmetry_space_group_name_H-M   'P 1'
_cell_length_a   7.51645300
_cell_length_b   5.36286000
_cell_length_c   10.71580400
_cell_angle_alpha   90.00000000
_cell_angle_beta   90.00332838
_cell_angle_gamma   90.00000000
_symmetry_Int_Tables_number   1
_chemical_formula_structural   Ca3Er(AgPb)2
_chemical_formula_sum   'Ca6 Er2 Ag4 Pb4'
_cell_volume   431.95068485
_cell_formula_units_Z   2
loop_
 _symmetry_equiv_pos_site_id
 _symmetry_equiv_pos_as_xyz
  1  'x, y, z'
loop_
 _atom_site_type_symbol
 _atom_site_label
 _atom_site_symmetry_multiplicity
 _atom_site_fract_x
 _atom_site_fract_y
 _atom_site_fract_z
 _atom_site_occupancy
  Ca  Ca0  1  0.000317  0.249999  0.376790  1
  Ca  Ca1  1  0.500010  0.249999  0.376911  1
  Ca  Ca2  1  0.500875  0.750000  0.624987  1
  Ca  Ca3  1  0.998797  0.750000  0.625138  1
  Ca  Ca4  1  0.499698  0.249999  0.872978  1
  Ca  Ca5  1  0.999994  0.249999  0.873077  1
  Er  Er6  1  0.001843  0.750000  0.124984  1
  Er  Er7  1  0.498454  0.750000  0.125120  1
  Ag  Ag8  1  0.750131  0.249999  0.124829  1
  Ag  Ag9  1  0.250079  0.750000  0.369196  1
  Ag  Ag10  1  0.749870  0.249999  0.624831  1
  Ag  Ag11  1  0.249903  0.750000  0.881088  1
  Pb  Pb12  1  0.250196  0.249999  0.124955  1
  Pb  Pb13  1  0.750206  0.750000  0.369289  1
  Pb  Pb14  1  0.249807  0.249999  0.624951  1
  Pb  Pb15  1  0.749819  0.750000  0.880876  1
