# generated using pymatgen
data_YHo5ZrCo17P12
_symmetry_space_group_name_H-M   'P 1'
_cell_length_a   3.71392400
_cell_length_b   10.60946500
_cell_length_c   12.32116200
_cell_angle_alpha   90.00000000
_cell_angle_beta   90.00000000
_cell_angle_gamma   90.00000000
_symmetry_Int_Tables_number   1
_chemical_formula_structural   YHo5ZrCo17P12
_chemical_formula_sum   'Y1 Ho5 Zr1 Co17 P12'
_cell_volume   485.48762522
_cell_formula_units_Z   1
loop_
 _symmetry_equiv_pos_site_id
 _symmetry_equiv_pos_as_xyz
  1  'x, y, z'
loop_
 _atom_site_type_symbol
 _atom_site_label
 _atom_site_symmetry_multiplicity
 _atom_site_fract_x
 _atom_site_fract_y
 _atom_site_fract_z
 _atom_site_occupancy
  Y  Y0  1  0.500000  0.000000  0.477504  1
  Ho  Ho1  1  0.000000  0.500000  0.529688  1
  Ho  Ho2  1  0.500000  0.821560  0.207222  1
  Ho  Ho3  1  0.500000  0.178440  0.207222  1
  Ho  Ho4  1  0.000000  0.682946  0.796051  1
  Ho  Ho5  1  0.000000  0.317054  0.796051  1
  Zr  Zr6  1  0.500000  0.500000  0.154762  1
  Co  Co7  1  0.000000  0.500000  0.983368  1
  Co  Co8  1  0.500000  0.000000  0.013321  1
  Co  Co9  1  0.500000  0.294102  0.434756  1
  Co  Co10  1  0.500000  0.705898  0.434756  1
  Co  Co11  1  0.000000  0.202530  0.570280  1
  Co  Co12  1  0.000000  0.797470  0.570280  1
  Co  Co13  1  0.500000  0.880010  0.707477  1
  Co  Co14  1  0.500000  0.119990  0.707477  1
  Co  Co15  1  0.000000  0.622795  0.298371  1
  Co  Co16  1  0.000000  0.377205  0.298371  1
  Co  Co17  1  0.500000  0.326913  0.987865  1
  Co  Co18  1  0.500000  0.673087  0.987865  1
  Co  Co19  1  0.000000  0.161374  0.001491  1
  Co  Co20  1  0.000000  0.838626  0.001491  1
  Co  Co21  1  0.000000  0.000000  0.836458  1
  Co  Co22  1  0.500000  0.500000  0.702900  1
  Co  Co23  1  0.000000  0.000000  0.295561  1
  P  P24  1  0.500000  0.309235  0.618119  1
  P  P25  1  0.500000  0.690765  0.618119  1
  P  P26  1  0.000000  0.188447  0.386023  1
  P  P27  1  0.000000  0.811553  0.386023  1
  P  P28  1  0.500000  0.500000  0.881355  1
  P  P29  1  0.000000  0.000000  0.116326  1
  P  P30  1  0.500000  0.852339  0.888297  1
  P  P31  1  0.500000  0.147661  0.888297  1
  P  P32  1  0.000000  0.665369  0.099652  1
  P  P33  1  0.000000  0.334631  0.099652  1
  P  P34  1  0.500000  0.500000  0.362588  1
  P  P35  1  0.000000  0.000000  0.654965  1
