# generated using pymatgen
data_TbZn2Cu2Ag
_symmetry_space_group_name_H-M   'P 1'
_cell_length_a   5.16232200
_cell_length_b   5.14815328
_cell_length_c   5.14815226
_cell_angle_alpha   60.23817809
_cell_angle_beta   59.90892161
_cell_angle_gamma   59.90892047
_symmetry_Int_Tables_number   1
_chemical_formula_structural   TbZn2Cu2Ag
_chemical_formula_sum   'Tb1 Zn2 Cu2 Ag1'
_cell_volume   96.78480401
_cell_formula_units_Z   1
loop_
 _symmetry_equiv_pos_site_id
 _symmetry_equiv_pos_as_xyz
  1  'x, y, z'
loop_
 _atom_site_type_symbol
 _atom_site_label
 _atom_site_symmetry_multiplicity
 _atom_site_fract_x
 _atom_site_fract_y
 _atom_site_fract_z
 _atom_site_occupancy
  Tb  Tb0  1  0.002250  0.997750  0.997750  1
  Zn  Zn1  1  0.623067  0.623446  0.130419  1
  Zn  Zn2  1  0.623067  0.130419  0.623446  1
  Cu  Cu3  1  0.127230  0.624449  0.624449  1
  Cu  Cu4  1  0.623872  0.624449  0.624449  1
  Ag  Ag5  1  0.250514  0.249486  0.249486  1
