# generated using pymatgen
data_Tm3Sb3RuRh2
_symmetry_space_group_name_H-M   'P 1'
_cell_length_a   7.43264000
_cell_length_b   7.43263945
_cell_length_c   3.87725900
_cell_angle_alpha   90.00000000
_cell_angle_beta   90.00000000
_cell_angle_gamma   119.99999354
_symmetry_Int_Tables_number   1
_chemical_formula_structural   Tm3Sb3RuRh2
_chemical_formula_sum   'Tm3 Sb3 Ru1 Rh2'
_cell_volume   185.49902749
_cell_formula_units_Z   1
loop_
 _symmetry_equiv_pos_site_id
 _symmetry_equiv_pos_as_xyz
  1  'x, y, z'
loop_
 _atom_site_type_symbol
 _atom_site_label
 _atom_site_symmetry_multiplicity
 _atom_site_fract_x
 _atom_site_fract_y
 _atom_site_fract_z
 _atom_site_occupancy
  Tm  Tm0  1  0.600558  0.000000  0.500001  1
  Tm  Tm1  1  0.399442  0.399442  0.500001  1
  Tm  Tm2  1  0.000000  0.600558  0.500001  1
  Sb  Sb3  1  0.263486  0.000000  0.000000  1
  Sb  Sb4  1  0.000000  0.263486  0.000000  1
  Sb  Sb5  1  0.736514  0.736514  0.000000  1
  Ru  Ru6  1  0.000000  0.000000  0.500001  1
  Rh  Rh7  1  0.666667  0.333333  0.000000  1
  Rh  Rh8  1  0.333333  0.666666  0.000000  1
