# generated using pymatgen
data_Sc3BeP2Rh3
_symmetry_space_group_name_H-M   'P 1'
_cell_length_a   6.51122100
_cell_length_b   6.51122143
_cell_length_c   3.65231200
_cell_angle_alpha   90.00000000
_cell_angle_beta   90.00000000
_cell_angle_gamma   120.00000291
_symmetry_Int_Tables_number   1
_chemical_formula_structural   Sc3BeP2Rh3
_chemical_formula_sum   'Sc3 Be1 P2 Rh3'
_cell_volume   134.09833636
_cell_formula_units_Z   1
loop_
 _symmetry_equiv_pos_site_id
 _symmetry_equiv_pos_as_xyz
  1  'x, y, z'
loop_
 _atom_site_type_symbol
 _atom_site_label
 _atom_site_symmetry_multiplicity
 _atom_site_fract_x
 _atom_site_fract_y
 _atom_site_fract_z
 _atom_site_occupancy
  Sc  Sc0  1  0.408020  0.408020  0.500000  1
  Sc  Sc1  1  0.591980  0.000000  0.500000  1
  Sc  Sc2  1  0.000000  0.591980  0.500000  1
  Be  Be3  1  0.000000  0.000000  0.500000  1
  P  P4  1  0.666667  0.333333  0.000000  1
  P  P5  1  0.333333  0.666667  0.000000  1
  Rh  Rh6  1  0.000000  0.242986  0.000000  1
  Rh  Rh7  1  0.242986  0.000000  0.000000  1
  Rh  Rh8  1  0.757014  0.757014  0.000000  1
