# generated using pymatgen
data_AsPb2I
_symmetry_space_group_name_H-M   'P 1'
_cell_length_a   8.30523043
_cell_length_b   8.30523004
_cell_length_c   8.30523047
_cell_angle_alpha   31.16291327
_cell_angle_beta   31.16292205
_cell_angle_gamma   31.16291725
_symmetry_Int_Tables_number   1
_chemical_formula_structural   AsPb2I
_chemical_formula_sum   'As1 Pb2 I1'
_cell_volume   136.11939474
_cell_formula_units_Z   1
loop_
 _symmetry_equiv_pos_site_id
 _symmetry_equiv_pos_as_xyz
  1  'x, y, z'
loop_
 _atom_site_type_symbol
 _atom_site_label
 _atom_site_symmetry_multiplicity
 _atom_site_fract_x
 _atom_site_fract_y
 _atom_site_fract_z
 _atom_site_occupancy
  As  As0  1  0.500000  0.500000  0.500000  1
  Pb  Pb1  1  0.232435  0.232435  0.232435  1
  Pb  Pb2  1  0.767565  0.767565  0.767565  1
  I  I3  1  0.000000  0.000000  0.000000  1
