# generated using pymatgen
data_TbDy2Pa(Al3Ir)6
_symmetry_space_group_name_H-M   'P 1'
_cell_length_a   7.58349802
_cell_length_b   7.57788955
_cell_length_c   9.44065700
_cell_angle_alpha   90.00000000
_cell_angle_beta   90.00000000
_cell_angle_gamma   119.62787842
_symmetry_Int_Tables_number   1
_chemical_formula_structural   TbDy2Pa(Al3Ir)6
_chemical_formula_sum   'Tb1 Dy2 Pa1 Al18 Ir6'
_cell_volume   471.59263037
_cell_formula_units_Z   1
loop_
 _symmetry_equiv_pos_site_id
 _symmetry_equiv_pos_as_xyz
  1  'x, y, z'
loop_
 _atom_site_type_symbol
 _atom_site_label
 _atom_site_symmetry_multiplicity
 _atom_site_fract_x
 _atom_site_fract_y
 _atom_site_fract_z
 _atom_site_occupancy
  Tb  Tb0  1  0.004973  0.329553  0.250000  1
  Dy  Dy1  1  0.671685  0.994999  0.750000  1
  Dy  Dy2  1  0.329686  0.004387  0.250000  1
  Pa  Pa3  1  0.995983  0.670967  0.750000  1
  Al  Al4  1  0.131115  0.130217  0.750000  1
  Al  Al5  1  0.872703  0.873891  0.250000  1
  Al  Al6  1  0.000867  0.332078  0.574628  1
  Al  Al7  1  0.999052  0.665037  0.421603  1
  Al  Al8  1  0.999052  0.665037  0.078397  1
  Al  Al9  1  0.338286  0.003825  0.925384  1
  Al  Al10  1  0.000867  0.332078  0.925372  1
  Al  Al11  1  0.665157  0.999739  0.075447  1
  Al  Al12  1  0.665157  0.999739  0.424553  1
  Al  Al13  1  0.338286  0.003825  0.574616  1
  Al  Al14  1  0.332952  0.332884  0.054930  1
  Al  Al15  1  0.663249  0.665913  0.948007  1
  Al  Al16  1  0.663249  0.665913  0.551993  1
  Al  Al17  1  0.332952  0.332884  0.445070  1
  Al  Al18  1  0.339145  0.546581  0.750000  1
  Al  Al19  1  0.659572  0.450416  0.250000  1
  Al  Al20  1  0.546307  0.341169  0.750000  1
  Al  Al21  1  0.451470  0.661027  0.250000  1
  Ir  Ir22  1  0.673778  0.330044  0.502298  1
  Ir  Ir23  1  0.326050  0.672014  0.502307  1
  Ir  Ir24  1  0.326050  0.672014  0.997693  1
  Ir  Ir25  1  0.673778  0.330044  0.997702  1
  Ir  Ir26  1  0.999286  0.996863  0.503198  1
  Ir  Ir27  1  0.999286  0.996863  0.996802  1
