# generated using pymatgen
data_Be2Nb6SiGe
_symmetry_space_group_name_H-M   'P 1'
_cell_length_a   6.68847632
_cell_length_b   6.69339832
_cell_length_c   3.44679600
_cell_angle_alpha   90.00000000
_cell_angle_beta   90.00000000
_cell_angle_gamma   90.16951703
_symmetry_Int_Tables_number   1
_chemical_formula_structural   Be2Nb6SiGe
_chemical_formula_sum   'Be2 Nb6 Si1 Ge1'
_cell_volume   154.30768074
_cell_formula_units_Z   1
loop_
 _symmetry_equiv_pos_site_id
 _symmetry_equiv_pos_as_xyz
  1  'x, y, z'
loop_
 _atom_site_type_symbol
 _atom_site_label
 _atom_site_symmetry_multiplicity
 _atom_site_fract_x
 _atom_site_fract_y
 _atom_site_fract_z
 _atom_site_occupancy
  Be  Be0  1  0.619451  0.879065  0.000000  1
  Be  Be1  1  0.122209  0.623210  0.000000  1
  Nb  Nb2  1  0.998334  0.991440  0.000000  1
  Nb  Nb3  1  0.495189  0.506897  0.000000  1
  Nb  Nb4  1  0.673516  0.167456  0.500000  1
  Nb  Nb5  1  0.183858  0.326923  0.500000  1
  Nb  Nb6  1  0.820661  0.689011  0.500000  1
  Nb  Nb7  1  0.322327  0.817498  0.500000  1
  Si  Si8  1  0.382403  0.113126  0.000000  1
  Ge  Ge9  1  0.882051  0.385373  0.000000  1
