# generated using pymatgen
data_Pa3Ru7
_symmetry_space_group_name_H-M   'P 1'
_cell_length_a   10.83556677
_cell_length_b   10.83556617
_cell_length_c   4.03215200
_cell_angle_alpha   90.00000000
_cell_angle_beta   90.00000000
_cell_angle_gamma   158.55424042
_symmetry_Int_Tables_number   1
_chemical_formula_structural   Pa3Ru7
_chemical_formula_sum   'Pa3 Ru7'
_cell_volume   173.08936741
_cell_formula_units_Z   1
loop_
 _symmetry_equiv_pos_site_id
 _symmetry_equiv_pos_as_xyz
  1  'x, y, z'
loop_
 _atom_site_type_symbol
 _atom_site_label
 _atom_site_symmetry_multiplicity
 _atom_site_fract_x
 _atom_site_fract_y
 _atom_site_fract_z
 _atom_site_occupancy
  Pa  Pa0  1  0.815337  0.184663  0.000000  1
  Pa  Pa1  1  0.184663  0.815337  0.000000  1
  Pa  Pa2  1  0.000000  0.000000  0.000000  1
  Ru  Ru3  1  0.696745  0.303255  0.500000  1
  Ru  Ru4  1  0.303255  0.696745  0.500000  1
  Ru  Ru5  1  0.904929  0.095071  0.500000  1
  Ru  Ru6  1  0.500000  0.500000  0.500000  1
  Ru  Ru7  1  0.404203  0.595797  0.000000  1
  Ru  Ru8  1  0.595797  0.404203  0.000000  1
  Ru  Ru9  1  0.095071  0.904929  0.500000  1
