# generated using pymatgen
data_Y3Tm5(Si3Pt)4
_symmetry_space_group_name_H-M   'P 1'
_cell_length_a   8.14981506
_cell_length_b   8.16315157
_cell_length_c   7.82739400
_cell_angle_alpha   90.00000000
_cell_angle_beta   90.00000000
_cell_angle_gamma   119.83175426
_symmetry_Int_Tables_number   1
_chemical_formula_structural   Y3Tm5(Si3Pt)4
_chemical_formula_sum   'Y3 Tm5 Si12 Pt4'
_cell_volume   451.73862991
_cell_formula_units_Z   1
loop_
 _symmetry_equiv_pos_site_id
 _symmetry_equiv_pos_as_xyz
  1  'x, y, z'
loop_
 _atom_site_type_symbol
 _atom_site_label
 _atom_site_symmetry_multiplicity
 _atom_site_fract_x
 _atom_site_fract_y
 _atom_site_fract_z
 _atom_site_occupancy
  Y  Y0  1  0.512757  0.024916  0.250000  1
  Y  Y1  1  0.487784  0.974559  0.750000  1
  Y  Y2  1  0.974206  0.487253  0.250000  1
  Tm  Tm3  1  0.024237  0.511556  0.750000  1
  Tm  Tm4  1  0.512498  0.488430  0.250000  1
  Tm  Tm5  1  0.487375  0.512526  0.750000  1
  Tm  Tm6  1  0.999606  0.000026  0.250000  1
  Tm  Tm7  1  0.999499  0.999858  0.750000  1
  Si  Si8  1  0.165116  0.330067  0.002072  1
  Si  Si9  1  0.834928  0.670040  0.996655  1
  Si  Si10  1  0.670097  0.834808  0.002987  1
  Si  Si11  1  0.834928  0.670040  0.503345  1
  Si  Si12  1  0.330476  0.165413  0.996829  1
  Si  Si13  1  0.165116  0.330067  0.497928  1
  Si  Si14  1  0.165089  0.834589  0.002747  1
  Si  Si15  1  0.330476  0.165413  0.503171  1
  Si  Si16  1  0.834907  0.165228  0.996092  1
  Si  Si17  1  0.670097  0.834808  0.497013  1
  Si  Si18  1  0.834907  0.165228  0.503908  1
  Si  Si19  1  0.165089  0.834589  0.497253  1
  Pt  Pt20  1  0.333530  0.664501  0.040164  1
  Pt  Pt21  1  0.666874  0.335792  0.956276  1
  Pt  Pt22  1  0.666874  0.335792  0.543724  1
  Pt  Pt23  1  0.333530  0.664501  0.459836  1
