# generated using pymatgen
data_Y12MgCo6
_symmetry_space_group_name_H-M   'P 1'
_cell_length_a   8.43653571
_cell_length_b   8.43653536
_cell_length_c   8.43653600
_cell_angle_alpha   109.47122457
_cell_angle_beta   109.47122372
_cell_angle_gamma   109.47121840
_symmetry_Int_Tables_number   1
_chemical_formula_structural   Y12MgCo6
_chemical_formula_sum   'Y12 Mg1 Co6'
_cell_volume   462.24319688
_cell_formula_units_Z   1
loop_
 _symmetry_equiv_pos_site_id
 _symmetry_equiv_pos_as_xyz
  1  'x, y, z'
loop_
 _atom_site_type_symbol
 _atom_site_label
 _atom_site_symmetry_multiplicity
 _atom_site_fract_x
 _atom_site_fract_y
 _atom_site_fract_z
 _atom_site_occupancy
  Y  Y0  1  0.805025  0.695423  0.500450  1
  Y  Y1  1  0.194975  0.304577  0.499550  1
  Y  Y2  1  0.194975  0.695423  0.890398  1
  Y  Y3  1  0.805025  0.304577  0.109602  1
  Y  Y4  1  0.695423  0.500450  0.805025  1
  Y  Y5  1  0.304577  0.499550  0.194975  1
  Y  Y6  1  0.695423  0.890398  0.194975  1
  Y  Y7  1  0.304577  0.109602  0.805025  1
  Y  Y8  1  0.500450  0.805025  0.695423  1
  Y  Y9  1  0.499550  0.194975  0.304577  1
  Y  Y10  1  0.109602  0.805025  0.304577  1
  Y  Y11  1  0.890398  0.194975  0.695423  1
  Mg  Mg12  1  0.000000  0.000000  0.000000  1
  Co  Co13  1  0.888025  0.388025  0.500000  1
  Co  Co14  1  0.111975  0.611975  0.500000  1
  Co  Co15  1  0.388025  0.500000  0.888025  1
  Co  Co16  1  0.611975  0.500000  0.111975  1
  Co  Co17  1  0.500000  0.888025  0.388025  1
  Co  Co18  1  0.500000  0.111975  0.611975  1
