# generated using pymatgen
data_Sc9TaCo8Si19As
_symmetry_space_group_name_H-M   'P 1'
_cell_length_a   12.01142000
_cell_length_b   12.01104747
_cell_length_c   3.93473800
_cell_angle_alpha   90.00000000
_cell_angle_beta   90.00000000
_cell_angle_gamma   90.19348675
_symmetry_Int_Tables_number   1
_chemical_formula_structural   Sc9TaCo8Si19As
_chemical_formula_sum   'Sc9 Ta1 Co8 Si19 As1'
_cell_volume   567.66037490
_cell_formula_units_Z   1
loop_
 _symmetry_equiv_pos_site_id
 _symmetry_equiv_pos_as_xyz
  1  'x, y, z'
loop_
 _atom_site_type_symbol
 _atom_site_label
 _atom_site_symmetry_multiplicity
 _atom_site_fract_x
 _atom_site_fract_y
 _atom_site_fract_z
 _atom_site_occupancy
  Sc  Sc0  1  0.000802  0.997277  0.000000  1
  Sc  Sc1  1  0.497548  0.500715  0.000000  1
  Sc  Sc2  1  0.176731  0.321791  0.500000  1
  Sc  Sc3  1  0.822650  0.675975  0.500000  1
  Sc  Sc4  1  0.324447  0.824576  0.500000  1
  Sc  Sc5  1  0.878849  0.381416  0.500000  1
  Sc  Sc6  1  0.392068  0.113155  0.500000  1
  Sc  Sc7  1  0.613285  0.891979  0.500000  1
  Sc  Sc8  1  0.110532  0.612899  0.500000  1
  Ta  Ta9  1  0.676699  0.176791  0.500000  1
  Co  Co10  1  0.523305  0.253174  0.000000  1
  Co  Co11  1  0.255568  0.474062  0.000000  1
  Co  Co12  1  0.743781  0.520335  0.000000  1
  Co  Co13  1  0.475466  0.746198  0.000000  1
  Co  Co14  1  0.974579  0.752858  0.000000  1
  Co  Co15  1  0.020593  0.241457  0.000000  1
  Co  Co16  1  0.753296  0.023169  0.000000  1
  Co  Co17  1  0.246456  0.975239  0.000000  1
  Si  Si18  1  0.570145  0.070176  0.000000  1
  Si  Si19  1  0.926462  0.569667  0.000000  1
  Si  Si20  1  0.432856  0.932754  0.000000  1
  Si  Si21  1  0.198408  0.155768  0.000000  1
  Si  Si22  1  0.156642  0.801644  0.000000  1
  Si  Si23  1  0.839329  0.194625  0.000000  1
  Si  Si24  1  0.802125  0.843820  0.000000  1
  Si  Si25  1  0.301720  0.657094  0.000000  1
  Si  Si26  1  0.694375  0.339776  0.000000  1
  Si  Si27  1  0.656479  0.697887  0.000000  1
  Si  Si28  1  0.344521  0.301377  0.000000  1
  Si  Si29  1  0.007882  0.157618  0.500000  1
  Si  Si30  1  0.165922  0.003751  0.500000  1
  Si  Si31  1  0.836638  0.016074  0.500000  1
  Si  Si32  1  0.001119  0.832907  0.500000  1
  Si  Si33  1  0.503710  0.665758  0.500000  1
  Si  Si34  1  0.516275  0.336388  0.500000  1
  Si  Si35  1  0.658835  0.507757  0.500000  1
  Si  Si36  1  0.334140  0.501532  0.500000  1
  As  As37  1  0.065758  0.430559  0.000000  1
