# generated using pymatgen
data_Nd3Lu2Pb3
_symmetry_space_group_name_H-M   'P 1'
_cell_length_a   9.22001700
_cell_length_b   9.22001730
_cell_length_c   6.70980600
_cell_angle_alpha   90.00000000
_cell_angle_beta   90.00000000
_cell_angle_gamma   120.00000252
_symmetry_Int_Tables_number   1
_chemical_formula_structural   Nd3Lu2Pb3
_chemical_formula_sum   'Nd6 Lu4 Pb6'
_cell_volume   493.97394451
_cell_formula_units_Z   2
loop_
 _symmetry_equiv_pos_site_id
 _symmetry_equiv_pos_as_xyz
  1  'x, y, z'
loop_
 _atom_site_type_symbol
 _atom_site_label
 _atom_site_symmetry_multiplicity
 _atom_site_fract_x
 _atom_site_fract_y
 _atom_site_fract_z
 _atom_site_occupancy
  Nd  Nd0  1  0.758856  0.758856  0.750000  1
  Nd  Nd1  1  0.241144  0.000000  0.750000  1
  Nd  Nd2  1  0.000000  0.241144  0.750000  1
  Nd  Nd3  1  0.241144  0.241144  0.250000  1
  Nd  Nd4  1  0.758856  0.000000  0.250000  1
  Nd  Nd5  1  0.000000  0.758856  0.250000  1
  Lu  Lu6  1  0.666667  0.333333  0.000000  1
  Lu  Lu7  1  0.333333  0.666667  0.000000  1
  Lu  Lu8  1  0.333333  0.666667  0.500000  1
  Lu  Lu9  1  0.666667  0.333333  0.500000  1
  Pb  Pb10  1  0.397791  0.397791  0.750000  1
  Pb  Pb11  1  0.602209  0.000000  0.750000  1
  Pb  Pb12  1  0.000000  0.602209  0.750000  1
  Pb  Pb13  1  0.602209  0.602209  0.250000  1
  Pb  Pb14  1  0.397791  0.000000  0.250000  1
  Pb  Pb15  1  0.000000  0.397791  0.250000  1
