# generated using pymatgen
data_MnSbRuF12
_symmetry_space_group_name_H-M   'P 1'
_cell_length_a   5.33861211
_cell_length_b   5.63941896
_cell_length_c   9.23765836
_cell_angle_alpha   73.83102608
_cell_angle_beta   88.67515677
_cell_angle_gamma   62.37475731
_symmetry_Int_Tables_number   1
_chemical_formula_structural   MnSbRuF12
_chemical_formula_sum   'Mn1 Sb1 Ru1 F12'
_cell_volume   234.81962097
_cell_formula_units_Z   1
loop_
 _symmetry_equiv_pos_site_id
 _symmetry_equiv_pos_as_xyz
  1  'x, y, z'
loop_
 _atom_site_type_symbol
 _atom_site_label
 _atom_site_symmetry_multiplicity
 _atom_site_fract_x
 _atom_site_fract_y
 _atom_site_fract_z
 _atom_site_occupancy
  Mn  Mn0  1  0.499749  0.501367  0.498048  1
  Sb  Sb1  1  0.226810  0.995534  0.759457  1
  Ru  Ru2  1  0.772799  0.001280  0.244830  1
  F  F3  1  0.944393  0.229184  0.201239  1
  F  F4  1  0.051848  0.763766  0.794640  1
  F  F5  1  0.012091  0.767532  0.138672  1
  F  F6  1  0.464045  0.778351  0.628197  1
  F  F7  1  0.533177  0.228906  0.370259  1
  F  F8  1  0.950393  0.238541  0.573589  1
  F  F9  1  0.055573  0.760803  0.426678  1
  F  F10  1  0.403860  0.237348  0.685196  1
  F  F11  1  0.595708  0.759104  0.312908  1
  F  F12  1  0.516225  0.774357  0.924791  1
  F  F13  1  0.494837  0.220966  0.079792  1
  F  F14  1  0.978493  0.242961  0.861703  1
