# generated using pymatgen
data_NaYb11(AgGe)12
_symmetry_space_group_name_H-M   'P 1'
_cell_length_a   4.57457100
_cell_length_b   7.84424986
_cell_length_c   21.38005967
_cell_angle_alpha   89.93151654
_cell_angle_beta   90.00000000
_cell_angle_gamma   90.00000000
_symmetry_Int_Tables_number   1
_chemical_formula_structural   NaYb11(AgGe)12
_chemical_formula_sum   'Na1 Yb11 Ag12 Ge12'
_cell_volume   767.20317877
_cell_formula_units_Z   1
loop_
 _symmetry_equiv_pos_site_id
 _symmetry_equiv_pos_as_xyz
  1  'x, y, z'
loop_
 _atom_site_type_symbol
 _atom_site_label
 _atom_site_symmetry_multiplicity
 _atom_site_fract_x
 _atom_site_fract_y
 _atom_site_fract_z
 _atom_site_occupancy
  Na  Na0  1  0.750000  0.706777  0.832902  1
  Yb  Yb1  1  0.250000  0.220477  0.000081  1
  Yb  Yb2  1  0.250000  0.278863  0.500496  1
  Yb  Yb3  1  0.750000  0.779323  0.998513  1
  Yb  Yb4  1  0.750000  0.721872  0.499805  1
  Yb  Yb5  1  0.250000  0.209240  0.333768  1
  Yb  Yb6  1  0.250000  0.293632  0.833728  1
  Yb  Yb7  1  0.750000  0.791074  0.667076  1
  Yb  Yb8  1  0.750000  0.710340  0.166252  1
  Yb  Yb9  1  0.250000  0.209484  0.667469  1
  Yb  Yb10  1  0.250000  0.289066  0.167543  1
  Yb  Yb11  1  0.750000  0.789551  0.332732  1
  Ag  Ag12  1  0.250000  0.911499  0.762339  1
  Ag  Ag13  1  0.250000  0.587553  0.262489  1
  Ag  Ag14  1  0.750000  0.087568  0.237521  1
  Ag  Ag15  1  0.750000  0.412595  0.737001  1
  Ag  Ag16  1  0.250000  0.919353  0.905832  1
  Ag  Ag17  1  0.250000  0.580175  0.405521  1
  Ag  Ag18  1  0.750000  0.080303  0.094355  1
  Ag  Ag19  1  0.750000  0.419910  0.594382  1
  Ag  Ag20  1  0.250000  0.917894  0.564736  1
  Ag  Ag21  1  0.250000  0.582304  0.064916  1
  Ag  Ag22  1  0.750000  0.081933  0.435326  1
  Ag  Ag23  1  0.750000  0.418307  0.935214  1
  Ge  Ge24  1  0.250000  0.581956  0.726233  1
  Ge  Ge25  1  0.250000  0.917740  0.228469  1
  Ge  Ge26  1  0.750000  0.417860  0.271478  1
  Ge  Ge27  1  0.750000  0.083514  0.772190  1
  Ge  Ge28  1  0.250000  0.910869  0.102810  1
  Ge  Ge29  1  0.250000  0.588583  0.601974  1
  Ge  Ge30  1  0.750000  0.090453  0.897165  1
  Ge  Ge31  1  0.750000  0.410919  0.397313  1
  Ge  Ge32  1  0.250000  0.588616  0.930509  1
  Ge  Ge33  1  0.250000  0.909236  0.426805  1
  Ge  Ge34  1  0.750000  0.410747  0.072810  1
  Ge  Ge35  1  0.750000  0.090415  0.572246  1
