# generated using pymatgen
data_RbBa3H12PtAu
_symmetry_space_group_name_H-M   'P 1'
_cell_length_a   8.09994805
_cell_length_b   8.09994958
_cell_length_c   6.09433608
_cell_angle_alpha   89.99064670
_cell_angle_beta   89.99063083
_cell_angle_gamma   134.97057972
_symmetry_Int_Tables_number   1
_chemical_formula_structural   RbBa3H12PtAu
_chemical_formula_sum   'Rb1 Ba3 H12 Pt1 Au1'
_cell_volume   282.87775703
_cell_formula_units_Z   1
loop_
 _symmetry_equiv_pos_site_id
 _symmetry_equiv_pos_as_xyz
  1  'x, y, z'
loop_
 _atom_site_type_symbol
 _atom_site_label
 _atom_site_symmetry_multiplicity
 _atom_site_fract_x
 _atom_site_fract_y
 _atom_site_fract_z
 _atom_site_occupancy
  Rb  Rb0  1  0.855361  0.144639  0.500000  1
  Ba  Ba1  1  0.351291  0.648709  0.000000  1
  Ba  Ba2  1  0.650250  0.349750  0.000000  1
  Ba  Ba3  1  0.147232  0.852768  0.500000  1
  H  H4  1  0.009884  0.523094  0.235203  1
  H  H5  1  0.476906  0.990116  0.764797  1
  H  H6  1  0.009820  0.522727  0.764514  1
  H  H7  1  0.477273  0.990180  0.235486  1
  H  H8  1  0.112565  0.887435  0.000000  1
  H  H9  1  0.614644  0.385356  0.500000  1
  H  H10  1  0.889274  0.110726  0.000000  1
  H  H11  1  0.392851  0.607149  0.500000  1
  H  H12  1  0.691563  0.687508  0.306410  1
  H  H13  1  0.312492  0.308437  0.693590  1
  H  H14  1  0.691568  0.687512  0.693328  1
  H  H15  1  0.312488  0.308432  0.306672  1
  Pt  Pt16  1  0.503550  0.496450  0.500000  1
  Au  Au17  1  0.000988  0.999012  0.000000  1
