# generated using pymatgen
data_Ac3Nd5(Si3Pt)4
_symmetry_space_group_name_H-M   'P 1'
_cell_length_a   8.43488100
_cell_length_b   8.43488056
_cell_length_c   8.72305600
_cell_angle_alpha   90.00000000
_cell_angle_beta   90.00000000
_cell_angle_gamma   119.99999782
_symmetry_Int_Tables_number   1
_chemical_formula_structural   Ac3Nd5(Si3Pt)4
_chemical_formula_sum   'Ac3 Nd5 Si12 Pt4'
_cell_volume   537.47367625
_cell_formula_units_Z   1
loop_
 _symmetry_equiv_pos_site_id
 _symmetry_equiv_pos_as_xyz
  1  'x, y, z'
loop_
 _atom_site_type_symbol
 _atom_site_label
 _atom_site_symmetry_multiplicity
 _atom_site_fract_x
 _atom_site_fract_y
 _atom_site_fract_z
 _atom_site_occupancy
  Ac  Ac0  1  0.499914  0.500086  0.750000  1
  Ac  Ac1  1  0.000172  0.500086  0.750000  1
  Ac  Ac2  1  0.499914  0.999828  0.750000  1
  Nd  Nd3  1  0.500083  0.499917  0.250000  1
  Nd  Nd4  1  0.999834  0.499917  0.250000  1
  Nd  Nd5  1  0.500083  0.000166  0.250000  1
  Nd  Nd6  1  0.000000  0.000000  0.750000  1
  Nd  Nd7  1  0.000000  0.000000  0.250000  1
  Si  Si8  1  0.834964  0.165036  0.008280  1
  Si  Si9  1  0.165039  0.834961  0.008837  1
  Si  Si10  1  0.330073  0.165036  0.008280  1
  Si  Si11  1  0.165039  0.834961  0.491163  1
  Si  Si12  1  0.669923  0.834961  0.008837  1
  Si  Si13  1  0.834964  0.165036  0.491720  1
  Si  Si14  1  0.834964  0.669927  0.008280  1
  Si  Si15  1  0.669923  0.834961  0.491163  1
  Si  Si16  1  0.165039  0.330077  0.008837  1
  Si  Si17  1  0.330073  0.165036  0.491720  1
  Si  Si18  1  0.165039  0.330077  0.491163  1
  Si  Si19  1  0.834964  0.669927  0.491720  1
  Pt  Pt20  1  0.666667  0.333333  0.011913  1
  Pt  Pt21  1  0.333333  0.666667  0.012188  1
  Pt  Pt22  1  0.333333  0.666667  0.487812  1
  Pt  Pt23  1  0.666667  0.333333  0.488087  1
