# generated using pymatgen
data_Tm8Sc11Si16Hg
_symmetry_space_group_name_H-M   'P 1'
_cell_length_a   7.00690737
_cell_length_b   7.35283341
_cell_length_c   13.93526100
_cell_angle_alpha   90.00000000
_cell_angle_beta   90.00000000
_cell_angle_gamma   89.90649492
_symmetry_Int_Tables_number   1
_chemical_formula_structural   Tm8Sc11Si16Hg
_chemical_formula_sum   'Tm8 Sc11 Si16 Hg1'
_cell_volume   717.95236680
_cell_formula_units_Z   1
loop_
 _symmetry_equiv_pos_site_id
 _symmetry_equiv_pos_as_xyz
  1  'x, y, z'
loop_
 _atom_site_type_symbol
 _atom_site_label
 _atom_site_symmetry_multiplicity
 _atom_site_fract_x
 _atom_site_fract_y
 _atom_site_fract_z
 _atom_site_occupancy
  Tm  Tm0  1  0.010271  0.175553  0.096416  1
  Tm  Tm1  1  0.990430  0.816272  0.902611  1
  Tm  Tm2  1  0.485548  0.674263  0.902958  1
  Tm  Tm3  1  0.990430  0.816272  0.597389  1
  Tm  Tm4  1  0.510799  0.323012  0.096611  1
  Tm  Tm5  1  0.010271  0.175553  0.403584  1
  Tm  Tm6  1  0.510799  0.323012  0.403389  1
  Tm  Tm7  1  0.485548  0.674263  0.597042  1
  Sc  Sc8  1  0.837843  0.496718  0.250000  1
  Sc  Sc9  1  0.339954  0.004087  0.250000  1
  Sc  Sc10  1  0.657215  0.996824  0.750000  1
  Sc  Sc11  1  0.324997  0.182658  0.626111  1
  Sc  Sc12  1  0.671204  0.824092  0.374759  1
  Sc  Sc13  1  0.169620  0.680365  0.373194  1
  Sc  Sc14  1  0.671204  0.824092  0.125241  1
  Sc  Sc15  1  0.838217  0.325314  0.626081  1
  Sc  Sc16  1  0.324997  0.182658  0.873889  1
  Sc  Sc17  1  0.838217  0.325314  0.873919  1
  Sc  Sc18  1  0.169620  0.680365  0.126806  1
  Si  Si19  1  0.026235  0.091022  0.750000  1
  Si  Si20  1  0.968729  0.890603  0.250000  1
  Si  Si21  1  0.467621  0.614494  0.250000  1
  Si  Si22  1  0.542748  0.381946  0.750000  1
  Si  Si23  1  0.290839  0.883194  0.750000  1
  Si  Si24  1  0.713696  0.131185  0.250000  1
  Si  Si25  1  0.212957  0.370561  0.250000  1
  Si  Si26  1  0.769300  0.633823  0.750000  1
  Si  Si27  1  0.164339  0.459696  0.528443  1
  Si  Si28  1  0.840751  0.535874  0.462102  1
  Si  Si29  1  0.342939  0.966791  0.462156  1
  Si  Si30  1  0.840751  0.535874  0.037898  1
  Si  Si31  1  0.658771  0.033040  0.540261  1
  Si  Si32  1  0.164339  0.459696  0.971557  1
  Si  Si33  1  0.658771  0.033040  0.959739  1
  Si  Si34  1  0.342939  0.966791  0.037844  1
  Hg  Hg35  1  0.157094  0.511685  0.750000  1
