# generated using pymatgen
data_Sm2Ta2NbSi4
_symmetry_space_group_name_H-M   'P 1'
_cell_length_a   7.10834906
_cell_length_b   7.10994920
_cell_length_c   13.19105611
_cell_angle_alpha   89.97207630
_cell_angle_beta   89.97582269
_cell_angle_gamma   89.98852930
_symmetry_Int_Tables_number   1
_chemical_formula_structural   Sm2Ta2NbSi4
_chemical_formula_sum   'Sm8 Ta8 Nb4 Si16'
_cell_volume   666.67583355
_cell_formula_units_Z   4
loop_
 _symmetry_equiv_pos_site_id
 _symmetry_equiv_pos_as_xyz
  1  'x, y, z'
loop_
 _atom_site_type_symbol
 _atom_site_label
 _atom_site_symmetry_multiplicity
 _atom_site_fract_x
 _atom_site_fract_y
 _atom_site_fract_z
 _atom_site_occupancy
  Sm  Sm0  1  0.996607  0.339043  0.217776  1
  Sm  Sm1  1  0.003438  0.660815  0.717879  1
  Sm  Sm2  1  0.160829  0.496535  0.468006  1
  Sm  Sm3  1  0.502491  0.839150  0.032188  1
  Sm  Sm4  1  0.839036  0.503459  0.968022  1
  Sm  Sm5  1  0.497470  0.160984  0.532141  1
  Sm  Sm6  1  0.339019  0.997058  0.781915  1
  Sm  Sm7  1  0.661115  0.002943  0.282044  1
  Ta  Ta8  1  0.169974  0.170498  0.999388  1
  Ta  Ta9  1  0.829982  0.829606  0.500217  1
  Ta  Ta10  1  0.329409  0.670202  0.250192  1
  Ta  Ta11  1  0.670243  0.330118  0.750224  1
  Ta  Ta12  1  0.156286  0.990517  0.375686  1
  Ta  Ta13  1  0.843359  0.009358  0.875318  1
  Ta  Ta14  1  0.509400  0.657058  0.625933  1
  Ta  Ta15  1  0.343193  0.491117  0.874285  1
  Nb  Nb16  1  0.490784  0.343486  0.125606  1
  Nb  Nb17  1  0.656233  0.508663  0.374611  1
  Nb  Nb18  1  0.991699  0.156699  0.624623  1
  Nb  Nb19  1  0.008408  0.843663  0.124233  1
  Si  Si20  1  0.291694  0.042999  0.186519  1
  Si  Si21  1  0.707864  0.956956  0.686379  1
  Si  Si22  1  0.456559  0.792118  0.436561  1
  Si  Si23  1  0.207645  0.542820  0.063495  1
  Si  Si24  1  0.543425  0.207462  0.936144  1
  Si  Si25  1  0.792706  0.457242  0.563951  1
  Si  Si26  1  0.043100  0.292966  0.813871  1
  Si  Si27  1  0.956965  0.707445  0.313753  1
  Si  Si28  1  0.368908  0.297198  0.315475  1
  Si  Si29  1  0.630248  0.702313  0.815729  1
  Si  Si30  1  0.203140  0.869821  0.565269  1
  Si  Si31  1  0.129879  0.797387  0.934007  1
  Si  Si32  1  0.798095  0.130086  0.064852  1
  Si  Si33  1  0.870249  0.201386  0.434406  1
  Si  Si34  1  0.298888  0.370460  0.684500  1
  Si  Si35  1  0.701657  0.630369  0.184806  1
