# generated using pymatgen
data_SrTb4(RhO6)2
_symmetry_space_group_name_H-M   'P 1'
_cell_length_a   6.97682569
_cell_length_b   6.97682678
_cell_length_c   7.51370651
_cell_angle_alpha   74.42858049
_cell_angle_beta   74.42857602
_cell_angle_gamma   50.79574329
_symmetry_Int_Tables_number   1
_chemical_formula_structural   SrTb4(RhO6)2
_chemical_formula_sum   'Sr1 Tb4 Rh2 O12'
_cell_volume   270.60723315
_cell_formula_units_Z   1
loop_
 _symmetry_equiv_pos_site_id
 _symmetry_equiv_pos_as_xyz
  1  'x, y, z'
loop_
 _atom_site_type_symbol
 _atom_site_label
 _atom_site_symmetry_multiplicity
 _atom_site_fract_x
 _atom_site_fract_y
 _atom_site_fract_z
 _atom_site_occupancy
  Sr  Sr0  1  0.000000  0.000000  0.500000  1
  Tb  Tb1  1  0.303827  0.303827  0.364748  1
  Tb  Tb2  1  0.696173  0.696173  0.635252  1
  Tb  Tb3  1  0.308499  0.308499  0.825758  1
  Tb  Tb4  1  0.691501  0.691501  0.174242  1
  Rh  Rh5  1  0.753817  0.246183  0.000000  1
  Rh  Rh6  1  0.246183  0.753817  0.000000  1
  O  O7  1  0.899479  0.422354  0.923693  1
  O  O8  1  0.422354  0.899479  0.923693  1
  O  O9  1  0.100521  0.577646  0.076307  1
  O  O10  1  0.577646  0.100521  0.076307  1
  O  O11  1  0.094550  0.572656  0.587660  1
  O  O12  1  0.572656  0.094550  0.587660  1
  O  O13  1  0.905450  0.427344  0.412340  1
  O  O14  1  0.427344  0.905450  0.412340  1
  O  O15  1  0.002502  0.002502  0.826546  1
  O  O16  1  0.997498  0.997498  0.173454  1
  O  O17  1  0.500233  0.500233  0.814441  1
  O  O18  1  0.499767  0.499767  0.185559  1
