# generated using pymatgen
data_Cs4Rb16Si4AsP11
_symmetry_space_group_name_H-M   'P 1'
_cell_length_a   5.59249100
_cell_length_b   14.32456912
_cell_length_c   15.62379843
_cell_angle_alpha   89.90589398
_cell_angle_beta   90.00000000
_cell_angle_gamma   90.00000000
_symmetry_Int_Tables_number   1
_chemical_formula_structural   Cs4Rb16Si4AsP11
_chemical_formula_sum   'Cs4 Rb16 Si4 As1 P11'
_cell_volume   1251.62117694
_cell_formula_units_Z   1
loop_
 _symmetry_equiv_pos_site_id
 _symmetry_equiv_pos_as_xyz
  1  'x, y, z'
loop_
 _atom_site_type_symbol
 _atom_site_label
 _atom_site_symmetry_multiplicity
 _atom_site_fract_x
 _atom_site_fract_y
 _atom_site_fract_z
 _atom_site_occupancy
  Cs  Cs0  1  0.750000  0.452608  0.153605  1
  Cs  Cs1  1  0.250000  0.547236  0.846561  1
  Cs  Cs2  1  0.750000  0.950537  0.345833  1
  Cs  Cs3  1  0.250000  0.047435  0.655752  1
  Rb  Rb4  1  0.250000  0.272138  0.783741  1
  Rb  Rb5  1  0.750000  0.727531  0.215320  1
  Rb  Rb6  1  0.250000  0.771482  0.717105  1
  Rb  Rb7  1  0.750000  0.224903  0.283031  1
  Rb  Rb8  1  0.250000  0.849368  0.467002  1
  Rb  Rb9  1  0.750000  0.151059  0.536175  1
  Rb  Rb10  1  0.250000  0.346359  0.035839  1
  Rb  Rb11  1  0.750000  0.653098  0.964721  1
  Rb  Rb12  1  0.250000  0.617555  0.320519  1
  Rb  Rb13  1  0.750000  0.388902  0.679410  1
  Rb  Rb14  1  0.250000  0.110387  0.178341  1
  Rb  Rb15  1  0.750000  0.889498  0.821344  1
  Rb  Rb16  1  0.250000  0.565248  0.554845  1
  Rb  Rb17  1  0.750000  0.436264  0.445201  1
  Rb  Rb18  1  0.250000  0.064817  0.943813  1
  Rb  Rb19  1  0.750000  0.935147  0.055514  1
  Si  Si20  1  0.750000  0.233504  0.926299  1
  Si  Si21  1  0.250000  0.766506  0.072735  1
  Si  Si22  1  0.750000  0.734442  0.573492  1
  Si  Si23  1  0.250000  0.263224  0.428738  1
  As  As24  1  0.250000  0.370170  0.315045  1
  P  P25  1  0.250000  0.311457  0.562774  1
  P  P26  1  0.750000  0.688931  0.438322  1
  P  P27  1  0.250000  0.813887  0.937827  1
  P  P28  1  0.750000  0.185836  0.061059  1
  P  P29  1  0.250000  0.112323  0.401919  1
  P  P30  1  0.750000  0.885826  0.599947  1
  P  P31  1  0.250000  0.615043  0.098668  1
  P  P32  1  0.750000  0.385156  0.900511  1
  P  P33  1  0.750000  0.132873  0.818973  1
  P  P34  1  0.250000  0.867005  0.180152  1
  P  P35  1  0.750000  0.632245  0.679866  1
