# generated using pymatgen
data_CeEu3Ti4O14
_symmetry_space_group_name_H-M   'P 1'
_cell_length_a   7.29160957
_cell_length_b   7.29160934
_cell_length_c   7.31320091
_cell_angle_alpha   60.09761307
_cell_angle_beta   60.09761730
_cell_angle_gamma   60.00000026
_symmetry_Int_Tables_number   1
_chemical_formula_structural   CeEu3Ti4O14
_chemical_formula_sum   'Ce1 Eu3 Ti4 O14'
_cell_volume   275.34583691
_cell_formula_units_Z   1
loop_
 _symmetry_equiv_pos_site_id
 _symmetry_equiv_pos_as_xyz
  1  'x, y, z'
loop_
 _atom_site_type_symbol
 _atom_site_label
 _atom_site_symmetry_multiplicity
 _atom_site_fract_x
 _atom_site_fract_y
 _atom_site_fract_z
 _atom_site_occupancy
  Ce  Ce0  1  0.125000  0.125000  0.625000  1
  Eu  Eu1  1  0.125000  0.625000  0.125000  1
  Eu  Eu2  1  0.625000  0.125000  0.125000  1
  Eu  Eu3  1  0.125000  0.125000  0.125000  1
  Ti  Ti4  1  0.125000  0.625000  0.625000  1
  Ti  Ti5  1  0.625000  0.625000  0.625000  1
  Ti  Ti6  1  0.625000  0.125000  0.625000  1
  Ti  Ti7  1  0.625000  0.625000  0.125000  1
  O  O8  1  0.297941  0.706430  0.697689  1
  O  O9  1  0.550402  0.951029  0.948167  1
  O  O10  1  0.706430  0.297941  0.697689  1
  O  O11  1  0.699598  0.699598  0.301833  1
  O  O12  1  0.005907  0.005907  0.982278  1
  O  O13  1  0.297941  0.297941  0.697689  1
  O  O14  1  0.298971  0.699598  0.301833  1
  O  O15  1  0.951029  0.550402  0.948167  1
  O  O16  1  0.244093  0.244093  0.267722  1
  O  O17  1  0.952059  0.952059  0.552311  1
  O  O18  1  0.550402  0.550402  0.948167  1
  O  O19  1  0.543570  0.952059  0.552311  1
  O  O20  1  0.699598  0.298971  0.301833  1
  O  O21  1  0.952059  0.543570  0.552311  1
