# generated using pymatgen
data_V3Sb8OsSe4
_symmetry_space_group_name_H-M   'P 1'
_cell_length_a   6.52942000
_cell_length_b   6.44843345
_cell_length_c   18.66368199
_cell_angle_alpha   85.53527632
_cell_angle_beta   90.00000000
_cell_angle_gamma   90.00000000
_symmetry_Int_Tables_number   1
_chemical_formula_structural   V3Sb8OsSe4
_chemical_formula_sum   'V6 Sb16 Os2 Se8'
_cell_volume   783.44093769
_cell_formula_units_Z   2
loop_
 _symmetry_equiv_pos_site_id
 _symmetry_equiv_pos_as_xyz
  1  'x, y, z'
loop_
 _atom_site_type_symbol
 _atom_site_label
 _atom_site_symmetry_multiplicity
 _atom_site_fract_x
 _atom_site_fract_y
 _atom_site_fract_z
 _atom_site_occupancy
  V  V0  1  0.875353  0.667051  0.492861  1
  V  V1  1  0.375353  0.332949  0.007139  1
  V  V2  1  0.125107  0.334051  0.507504  1
  V  V3  1  0.625107  0.665949  0.992496  1
  V  V4  1  0.624536  0.333944  0.507558  1
  V  V5  1  0.124536  0.666056  0.992442  1
  Sb  Sb6  1  0.401229  0.200143  0.273615  1
  Sb  Sb7  1  0.901229  0.799857  0.226385  1
  Sb  Sb8  1  0.600074  0.787059  0.726960  1
  Sb  Sb9  1  0.100074  0.212941  0.773040  1
  Sb  Sb10  1  0.851952  0.219643  0.273863  1
  Sb  Sb11  1  0.351952  0.780357  0.226137  1
  Sb  Sb12  1  0.149753  0.786320  0.727179  1
  Sb  Sb13  1  0.649753  0.213680  0.772821  1
  Sb  Sb14  1  0.374710  0.082994  0.428248  1
  Sb  Sb15  1  0.874710  0.917006  0.071752  1
  Sb  Sb16  1  0.630521  0.924558  0.573673  1
  Sb  Sb17  1  0.130521  0.075442  0.926327  1
  Sb  Sb18  1  0.874837  0.079615  0.426908  1
  Sb  Sb19  1  0.374837  0.920385  0.073092  1
  Sb  Sb20  1  0.118694  0.924537  0.573945  1
  Sb  Sb21  1  0.618694  0.075463  0.926055  1
  Os  Os22  1  0.374327  0.682309  0.495706  1
  Os  Os23  1  0.874327  0.317691  0.004294  1
  Se  Se24  1  0.874738  0.405778  0.598196  1
  Se  Se25  1  0.374738  0.594222  0.901804  1
  Se  Se26  1  0.124193  0.588544  0.402965  1
  Se  Se27  1  0.624193  0.411456  0.097035  1
  Se  Se28  1  0.625351  0.589486  0.403176  1
  Se  Se29  1  0.125351  0.410514  0.096824  1
  Se  Se30  1  0.374624  0.410625  0.598127  1
  Se  Se31  1  0.874624  0.589375  0.901873  1
