# generated using pymatgen
data_K3Tb(BO3)2
_symmetry_space_group_name_H-M   'P 1'
_cell_length_a   5.59258000
_cell_length_b   6.92311800
_cell_length_c   9.46868300
_cell_angle_alpha   90.00000000
_cell_angle_beta   90.00000000
_cell_angle_gamma   90.00000000
_symmetry_Int_Tables_number   1
_chemical_formula_structural   K3Tb(BO3)2
_chemical_formula_sum   'K6 Tb2 B4 O12'
_cell_volume   366.60933255
_cell_formula_units_Z   2
loop_
 _symmetry_equiv_pos_site_id
 _symmetry_equiv_pos_as_xyz
  1  'x, y, z'
loop_
 _atom_site_type_symbol
 _atom_site_label
 _atom_site_symmetry_multiplicity
 _atom_site_fract_x
 _atom_site_fract_y
 _atom_site_fract_z
 _atom_site_occupancy
  K  K0  1  0.000000  0.232397  0.332696  1
  K  K1  1  0.000000  0.767603  0.667304  1
  K  K2  1  0.500000  0.732397  0.167304  1
  K  K3  1  0.500000  0.500000  0.500000  1
  K  K4  1  0.500000  0.267603  0.832696  1
  K  K5  1  0.000000  0.000000  0.000000  1
  Tb  Tb6  1  0.000000  0.500000  0.000000  1
  Tb  Tb7  1  0.500000  0.000000  0.500000  1
  B  B8  1  0.000000  0.763410  0.334064  1
  B  B9  1  0.000000  0.236590  0.665936  1
  B  B10  1  0.500000  0.736590  0.834064  1
  B  B11  1  0.500000  0.263410  0.165936  1
  O  O12  1  0.715799  0.299598  0.097003  1
  O  O13  1  0.215799  0.200402  0.597003  1
  O  O14  1  0.500000  0.192563  0.303960  1
  O  O15  1  0.715799  0.700402  0.902997  1
  O  O16  1  0.284201  0.299598  0.097003  1
  O  O17  1  0.215799  0.799598  0.402997  1
  O  O18  1  0.784201  0.200402  0.597003  1
  O  O19  1  0.284201  0.700402  0.902997  1
  O  O20  1  0.784201  0.799598  0.402997  1
  O  O21  1  0.000000  0.307437  0.803960  1
  O  O22  1  0.000000  0.692563  0.196040  1
  O  O23  1  0.500000  0.807437  0.696040  1
