# generated using pymatgen
data_K2HfS4
_symmetry_space_group_name_H-M   'P 1'
_cell_length_a   9.61268500
_cell_length_b   6.61545200
_cell_length_c   23.71909900
_cell_angle_alpha   90.00000000
_cell_angle_beta   90.00000000
_cell_angle_gamma   90.00000000
_symmetry_Int_Tables_number   1
_chemical_formula_structural   K2HfS4
_chemical_formula_sum   'K16 Hf8 S32'
_cell_volume   1508.35102065
_cell_formula_units_Z   8
loop_
 _symmetry_equiv_pos_site_id
 _symmetry_equiv_pos_as_xyz
  1  'x, y, z'
loop_
 _atom_site_type_symbol
 _atom_site_label
 _atom_site_symmetry_multiplicity
 _atom_site_fract_x
 _atom_site_fract_y
 _atom_site_fract_z
 _atom_site_occupancy
  K  K0  1  0.859304  0.197236  0.034162  1
  K  K1  1  0.640696  0.697238  0.034162  1
  K  K2  1  0.567684  0.444974  0.200261  1
  K  K3  1  0.932317  0.944974  0.200261  1
  K  K4  1  0.067683  0.444974  0.299739  1
  K  K5  1  0.432316  0.944974  0.299739  1
  K  K6  1  0.359303  0.197236  0.465838  1
  K  K7  1  0.140696  0.697238  0.465838  1
  K  K8  1  0.859304  0.302762  0.534162  1
  K  K9  1  0.640696  0.802764  0.534162  1
  K  K10  1  0.567684  0.055026  0.700261  1
  K  K11  1  0.932317  0.555028  0.700261  1
  K  K12  1  0.067683  0.055026  0.799739  1
  K  K13  1  0.432316  0.555028  0.799739  1
  K  K14  1  0.359303  0.302762  0.965838  1
  K  K15  1  0.140696  0.802764  0.965838  1
  Hf  Hf16  1  0.170870  0.459940  0.129829  1
  Hf  Hf17  1  0.329131  0.959941  0.129829  1
  Hf  Hf18  1  0.670869  0.459940  0.370171  1
  Hf  Hf19  1  0.829130  0.959941  0.370171  1
  Hf  Hf20  1  0.170870  0.040059  0.629829  1
  Hf  Hf21  1  0.329131  0.540060  0.629829  1
  Hf  Hf22  1  0.670869  0.040059  0.870171  1
  Hf  Hf23  1  0.829130  0.540060  0.870171  1
  S  S24  1  0.170646  0.148786  0.065061  1
  S  S25  1  0.329354  0.648787  0.065061  1
  S  S26  1  0.548966  0.128588  0.089322  1
  S  S27  1  0.951033  0.628586  0.089322  1
  S  S28  1  0.913541  0.440102  0.159816  1
  S  S29  1  0.586458  0.940101  0.159816  1
  S  S30  1  0.265792  0.220649  0.201772  1
  S  S31  1  0.234207  0.720649  0.201772  1
  S  S32  1  0.765792  0.220649  0.298229  1
  S  S33  1  0.734208  0.720649  0.298229  1
  S  S34  1  0.413542  0.440102  0.340184  1
  S  S35  1  0.086457  0.940101  0.340184  1
  S  S36  1  0.048966  0.128588  0.410678  1
  S  S37  1  0.451035  0.628586  0.410678  1
  S  S38  1  0.670646  0.148786  0.434939  1
  S  S39  1  0.829354  0.648787  0.434939  1
  S  S40  1  0.170646  0.351213  0.565061  1
  S  S41  1  0.329354  0.851213  0.565061  1
  S  S42  1  0.548966  0.371414  0.589322  1
  S  S43  1  0.951033  0.871414  0.589322  1
  S  S44  1  0.913541  0.059899  0.659816  1
  S  S45  1  0.586458  0.559898  0.659816  1
  S  S46  1  0.265792  0.279351  0.701772  1
  S  S47  1  0.234207  0.779352  0.701772  1
  S  S48  1  0.765792  0.279351  0.798229  1
  S  S49  1  0.734208  0.779352  0.798229  1
  S  S50  1  0.413542  0.059899  0.840184  1
  S  S51  1  0.086457  0.559898  0.840184  1
  S  S52  1  0.048966  0.371414  0.910678  1
  S  S53  1  0.451035  0.871414  0.910678  1
  S  S54  1  0.670646  0.351213  0.934939  1
  S  S55  1  0.829354  0.851213  0.934939  1
