# generated using pymatgen
data_Tb17Tm3Si15Pt
_symmetry_space_group_name_H-M   'P 1'
_cell_length_a   7.39925100
_cell_length_b   7.76038214
_cell_length_c   14.60216600
_cell_angle_alpha   90.00000000
_cell_angle_beta   90.00000000
_cell_angle_gamma   90.05157105
_symmetry_Int_Tables_number   1
_chemical_formula_structural   Tb17Tm3Si15Pt
_chemical_formula_sum   'Tb17 Tm3 Si15 Pt1'
_cell_volume   838.47085818
_cell_formula_units_Z   1
loop_
 _symmetry_equiv_pos_site_id
 _symmetry_equiv_pos_as_xyz
  1  'x, y, z'
loop_
 _atom_site_type_symbol
 _atom_site_label
 _atom_site_symmetry_multiplicity
 _atom_site_fract_x
 _atom_site_fract_y
 _atom_site_fract_z
 _atom_site_occupancy
  Tb  Tb0  1  0.677983  0.181633  0.624447  1
  Tb  Tb1  1  0.187785  0.323902  0.875099  1
  Tb  Tb2  1  0.317750  0.819464  0.123155  1
  Tb  Tb3  1  0.817809  0.678375  0.376830  1
  Tb  Tb4  1  0.317750  0.819464  0.376845  1
  Tb  Tb5  1  0.817809  0.678375  0.123170  1
  Tb  Tb6  1  0.677983  0.181633  0.875553  1
  Tb  Tb7  1  0.187785  0.323902  0.624901  1
  Tb  Tb8  1  0.523313  0.678701  0.595838  1
  Tb  Tb9  1  0.026401  0.817119  0.903822  1
  Tb  Tb10  1  0.473074  0.314750  0.097428  1
  Tb  Tb11  1  0.973229  0.182599  0.403075  1
  Tb  Tb12  1  0.473074  0.314750  0.402572  1
  Tb  Tb13  1  0.973229  0.182599  0.096925  1
  Tb  Tb14  1  0.523313  0.678701  0.904162  1
  Tb  Tb15  1  0.026401  0.817119  0.596178  1
  Tb  Tb16  1  0.647939  0.013596  0.250000  1
  Tm  Tm17  1  0.845885  0.513967  0.750000  1
  Tm  Tm18  1  0.354133  0.983027  0.750000  1
  Tm  Tm19  1  0.150036  0.484378  0.250000  1
  Si  Si20  1  0.645753  0.970982  0.460975  1
  Si  Si21  1  0.147739  0.527628  0.039850  1
  Si  Si22  1  0.350746  0.025805  0.959549  1
  Si  Si23  1  0.855392  0.471523  0.540417  1
  Si  Si24  1  0.350746  0.025805  0.540451  1
  Si  Si25  1  0.855392  0.471523  0.959583  1
  Si  Si26  1  0.645753  0.970982  0.039025  1
  Si  Si27  1  0.147739  0.527628  0.460150  1
  Si  Si28  1  0.981006  0.099535  0.750000  1
  Si  Si29  1  0.521469  0.600962  0.250000  1
  Si  Si30  1  0.020590  0.896669  0.250000  1
  Si  Si31  1  0.738652  0.875426  0.750000  1
  Si  Si32  1  0.226192  0.634971  0.750000  1
  Si  Si33  1  0.265395  0.129254  0.250000  1
  Si  Si34  1  0.769984  0.373118  0.250000  1
  Pt  Pt35  1  0.484769  0.410137  0.750000  1
