# generated using pymatgen
data_Cs3KPr24(OsI10)4
_symmetry_space_group_name_H-M   'P 1'
_cell_length_a   14.00454200
_cell_length_b   14.33867684
_cell_length_c   15.90621885
_cell_angle_alpha   89.96162804
_cell_angle_beta   90.00000000
_cell_angle_gamma   90.00000000
_symmetry_Int_Tables_number   1
_chemical_formula_structural   Cs3KPr24(OsI10)4
_chemical_formula_sum   'Cs3 K1 Pr24 Os4 I40'
_cell_volume   3194.07304264
_cell_formula_units_Z   1
loop_
 _symmetry_equiv_pos_site_id
 _symmetry_equiv_pos_as_xyz
  1  'x, y, z'
loop_
 _atom_site_type_symbol
 _atom_site_label
 _atom_site_symmetry_multiplicity
 _atom_site_fract_x
 _atom_site_fract_y
 _atom_site_fract_z
 _atom_site_occupancy
  Cs  Cs0  1  0.750000  0.481311  0.421890  1
  Cs  Cs1  1  0.250000  0.981615  0.077604  1
  Cs  Cs2  1  0.250000  0.518423  0.578382  1
  K  K3  1  0.750000  0.018831  0.950549  1
  Pr  Pr4  1  0.106656  0.378789  0.057013  1
  Pr  Pr5  1  0.893302  0.879118  0.442473  1
  Pr  Pr6  1  0.250000  0.607945  0.986242  1
  Pr  Pr7  1  0.106746  0.120716  0.557247  1
  Pr  Pr8  1  0.750000  0.391784  0.013465  1
  Pr  Pr9  1  0.392610  0.616160  0.202033  1
  Pr  Pr10  1  0.893134  0.621123  0.942391  1
  Pr  Pr11  1  0.607564  0.383220  0.797571  1
  Pr  Pr12  1  0.892679  0.116166  0.297386  1
  Pr  Pr13  1  0.750000  0.608316  0.728094  1
  Pr  Pr14  1  0.107059  0.883767  0.702230  1
  Pr  Pr15  1  0.750000  0.108010  0.513195  1
  Pr  Pr16  1  0.606866  0.621123  0.942391  1
  Pr  Pr17  1  0.250000  0.108129  0.771865  1
  Pr  Pr18  1  0.392941  0.883767  0.702230  1
  Pr  Pr19  1  0.393344  0.378789  0.057013  1
  Pr  Pr20  1  0.107390  0.616160  0.202033  1
  Pr  Pr21  1  0.393254  0.120716  0.557247  1
  Pr  Pr22  1  0.892436  0.383220  0.797571  1
  Pr  Pr23  1  0.250000  0.391473  0.271690  1
  Pr  Pr24  1  0.750000  0.891198  0.227817  1
  Pr  Pr25  1  0.250000  0.891756  0.486092  1
  Pr  Pr26  1  0.606698  0.879118  0.442473  1
  Pr  Pr27  1  0.607321  0.116166  0.297386  1
  Os  Os28  1  0.750000  0.500924  0.872299  1
  Os  Os29  1  0.250000  0.000784  0.627484  1
  Os  Os30  1  0.250000  0.498741  0.127480  1
  Os  Os31  1  0.750000  0.998859  0.371707  1
  I  I32  1  0.418290  0.497604  0.878553  1
  I  I33  1  0.910352  0.762478  0.787523  1
  I  I34  1  0.077530  0.748118  0.036988  1
  I  I35  1  0.250000  0.236432  0.961575  1
  I  I36  1  0.422470  0.748118  0.036988  1
  I  I37  1  0.250000  0.772344  0.282902  1
  I  I38  1  0.081710  0.497604  0.878553  1
  I  I39  1  0.750000  0.227781  0.716664  1
  I  I40  1  0.750000  0.272448  0.216842  1
  I  I41  1  0.250000  0.263288  0.461556  1
  I  I42  1  0.910049  0.737177  0.287310  1
  I  I43  1  0.409815  0.236463  0.211596  1
  I  I44  1  0.918538  0.499734  0.627427  1
  I  I45  1  0.417985  0.002005  0.377879  1
  I  I46  1  0.582032  0.997923  0.621143  1
  I  I47  1  0.082015  0.002005  0.377879  1
  I  I48  1  0.585404  0.002594  0.123805  1
  I  I49  1  0.090185  0.236463  0.211596  1
  I  I50  1  0.579040  0.250216  0.962549  1
  I  I51  1  0.750000  0.736717  0.537961  1
  I  I52  1  0.914596  0.002594  0.123805  1
  I  I53  1  0.418509  0.500042  0.372433  1
  I  I54  1  0.409600  0.263198  0.711885  1
  I  I55  1  0.917897  0.502353  0.121308  1
  I  I56  1  0.418155  0.999798  0.872513  1
  I  I57  1  0.581462  0.499734  0.627427  1
  I  I58  1  0.750000  0.768515  0.033784  1
  I  I59  1  0.589648  0.762478  0.787523  1
  I  I60  1  0.589951  0.737177  0.287310  1
  I  I61  1  0.077380  0.751913  0.536473  1
  I  I62  1  0.920960  0.250216  0.962549  1
  I  I63  1  0.422620  0.751913  0.536473  1
  I  I64  1  0.917968  0.997923  0.621143  1
  I  I65  1  0.081845  0.999798  0.872513  1
  I  I66  1  0.090400  0.263198  0.711885  1
  I  I67  1  0.250000  0.727612  0.782925  1
  I  I68  1  0.922577  0.247707  0.462237  1
  I  I69  1  0.081491  0.500042  0.372433  1
  I  I70  1  0.582103  0.502353  0.121308  1
  I  I71  1  0.577423  0.247707  0.462237  1
