# generated using pymatgen
data_Mg5B3Ir7
_symmetry_space_group_name_H-M   'P 1'
_cell_length_a   2.92785800
_cell_length_b   11.44555300
_cell_length_c   12.08886500
_cell_angle_alpha   90.00000000
_cell_angle_beta   90.00000000
_cell_angle_gamma   90.00000000
_symmetry_Int_Tables_number   1
_chemical_formula_structural   Mg5B3Ir7
_chemical_formula_sum   'Mg10 B6 Ir14'
_cell_volume   405.10939791
_cell_formula_units_Z   2
loop_
 _symmetry_equiv_pos_site_id
 _symmetry_equiv_pos_as_xyz
  1  'x, y, z'
loop_
 _atom_site_type_symbol
 _atom_site_label
 _atom_site_symmetry_multiplicity
 _atom_site_fract_x
 _atom_site_fract_y
 _atom_site_fract_z
 _atom_site_occupancy
  Mg  Mg0  1  0.500000  0.750000  0.197288  1
  Mg  Mg1  1  0.500000  0.250000  0.802712  1
  Mg  Mg2  1  0.500000  0.451617  0.128688  1
  Mg  Mg3  1  0.500000  0.548383  0.871312  1
  Mg  Mg4  1  0.500000  0.048383  0.128688  1
  Mg  Mg5  1  0.500000  0.951617  0.871312  1
  Mg  Mg6  1  0.500000  0.371874  0.351248  1
  Mg  Mg7  1  0.500000  0.628126  0.648752  1
  Mg  Mg8  1  0.500000  0.128126  0.351248  1
  Mg  Mg9  1  0.500000  0.871874  0.648752  1
  B  B10  1  0.500000  0.750000  0.965898  1
  B  B11  1  0.500000  0.250000  0.034102  1
  B  B12  1  0.500000  0.886912  0.406276  1
  B  B13  1  0.500000  0.113088  0.593724  1
  B  B14  1  0.500000  0.613088  0.406276  1
  B  B15  1  0.500000  0.386912  0.593724  1
  Ir  Ir16  1  0.000000  0.000000  0.500000  1
  Ir  Ir17  1  0.000000  0.500000  0.500000  1
  Ir  Ir18  1  0.000000  0.750000  0.828332  1
  Ir  Ir19  1  0.000000  0.250000  0.171668  1
  Ir  Ir20  1  0.000000  0.750000  0.465727  1
  Ir  Ir21  1  0.000000  0.250000  0.534273  1
  Ir  Ir22  1  0.000000  0.870927  0.041780  1
  Ir  Ir23  1  0.000000  0.129073  0.958220  1
  Ir  Ir24  1  0.000000  0.629073  0.041780  1
  Ir  Ir25  1  0.000000  0.370927  0.958220  1
  Ir  Ir26  1  0.000000  0.926283  0.280777  1
  Ir  Ir27  1  0.000000  0.073717  0.719223  1
  Ir  Ir28  1  0.000000  0.573717  0.280777  1
  Ir  Ir29  1  0.000000  0.426283  0.719223  1
