# generated using pymatgen
data_LiEu2PdRh
_symmetry_space_group_name_H-M   'P 1'
_cell_length_a   5.76480369
_cell_length_b   5.76480457
_cell_length_c   5.76480554
_cell_angle_alpha   135.98804081
_cell_angle_beta   118.46869768
_cell_angle_gamma   78.70426135
_symmetry_Int_Tables_number   1
_chemical_formula_structural   LiEu2PdRh
_chemical_formula_sum   'Li1 Eu2 Pd1 Rh1'
_cell_volume   113.57903705
_cell_formula_units_Z   1
loop_
 _symmetry_equiv_pos_site_id
 _symmetry_equiv_pos_as_xyz
  1  'x, y, z'
loop_
 _atom_site_type_symbol
 _atom_site_label
 _atom_site_symmetry_multiplicity
 _atom_site_fract_x
 _atom_site_fract_y
 _atom_site_fract_z
 _atom_site_occupancy
  Li  Li0  1  0.992036  0.000000  0.992036  1
  Eu  Eu1  1  0.704687  0.197851  0.506836  1
  Eu  Eu2  1  0.308985  0.802149  0.506836  1
  Pd  Pd3  1  0.255728  0.500000  0.755728  1
  Rh  Rh4  1  0.738566  0.500000  0.238566  1
