# generated using pymatgen
data_Tb2YbTm3(CoSn6)2
_symmetry_space_group_name_H-M   'P 1'
_cell_length_a   8.41115123
_cell_length_b   8.41115199
_cell_length_c   13.11212806
_cell_angle_alpha   90.05519714
_cell_angle_beta   89.94481039
_cell_angle_gamma   148.41471413
_symmetry_Int_Tables_number   1
_chemical_formula_structural   Tb2YbTm3(CoSn6)2
_chemical_formula_sum   'Tb2 Yb1 Tm3 Co2 Sn12'
_cell_volume   485.87231012
_cell_formula_units_Z   1
loop_
 _symmetry_equiv_pos_site_id
 _symmetry_equiv_pos_as_xyz
  1  'x, y, z'
loop_
 _atom_site_type_symbol
 _atom_site_label
 _atom_site_symmetry_multiplicity
 _atom_site_fract_x
 _atom_site_fract_y
 _atom_site_fract_z
 _atom_site_occupancy
  Tb  Tb0  1  0.899067  0.100933  0.094378  1
  Tb  Tb1  1  0.100986  0.899014  0.595822  1
  Yb  Yb2  1  0.899885  0.100115  0.403282  1
  Tm  Tm3  1  0.901106  0.098894  0.752285  1
  Tm  Tm4  1  0.101181  0.898819  0.905219  1
  Tm  Tm5  1  0.099415  0.900585  0.248995  1
  Co  Co6  1  0.298332  0.701668  0.249901  1
  Co  Co7  1  0.700316  0.299684  0.750219  1
  Sn  Sn8  1  0.757841  0.242159  0.572227  1
  Sn  Sn9  1  0.427791  0.572209  0.577275  1
  Sn  Sn10  1  0.573641  0.426359  0.423504  1
  Sn  Sn11  1  0.732521  0.267479  0.249000  1
  Sn  Sn12  1  0.266741  0.733259  0.750491  1
  Sn  Sn13  1  0.242387  0.757613  0.071085  1
  Sn  Sn14  1  0.243278  0.756722  0.428686  1
  Sn  Sn15  1  0.573045  0.426955  0.074056  1
  Sn  Sn16  1  0.454887  0.545113  0.248221  1
  Sn  Sn17  1  0.545229  0.454771  0.752015  1
  Sn  Sn18  1  0.756284  0.243716  0.928200  1
  Sn  Sn19  1  0.426065  0.573935  0.925141  1
