# generated using pymatgen
data_CsAcSiS4
_symmetry_space_group_name_H-M   'P 1'
_cell_length_a   6.89050000
_cell_length_b   9.67896465
_cell_length_c   13.54937620
_cell_angle_alpha   72.09903420
_cell_angle_beta   90.00000000
_cell_angle_gamma   90.00000000
_symmetry_Int_Tables_number   1
_chemical_formula_structural   CsAcSiS4
_chemical_formula_sum   'Cs4 Ac4 Si4 S16'
_cell_volume   859.90100538
_cell_formula_units_Z   4
loop_
 _symmetry_equiv_pos_site_id
 _symmetry_equiv_pos_as_xyz
  1  'x, y, z'
loop_
 _atom_site_type_symbol
 _atom_site_label
 _atom_site_symmetry_multiplicity
 _atom_site_fract_x
 _atom_site_fract_y
 _atom_site_fract_z
 _atom_site_occupancy
  Cs  Cs0  1  0.256836  0.431992  0.391707  1
  Cs  Cs1  1  0.756836  0.568008  0.108293  1
  Cs  Cs2  1  0.743164  0.568008  0.608293  1
  Cs  Cs3  1  0.243164  0.431992  0.891707  1
  Ac  Ac4  1  0.213021  0.953420  0.367895  1
  Ac  Ac5  1  0.713021  0.046580  0.132105  1
  Ac  Ac6  1  0.786979  0.046580  0.632105  1
  Ac  Ac7  1  0.286979  0.953420  0.867895  1
  Si  Si8  1  0.745428  0.174961  0.350859  1
  Si  Si9  1  0.245428  0.825039  0.149141  1
  Si  Si10  1  0.254572  0.825039  0.649141  1
  Si  Si11  1  0.754572  0.174961  0.850859  1
  S  S12  1  0.014190  0.205058  0.759877  1
  S  S13  1  0.766052  0.949410  0.440301  1
  S  S14  1  0.523016  0.215323  0.740554  1
  S  S15  1  0.733948  0.949410  0.940301  1
  S  S16  1  0.755058  0.311587  0.446161  1
  S  S17  1  0.985810  0.794942  0.240123  1
  S  S18  1  0.255058  0.688413  0.053839  1
  S  S19  1  0.233948  0.050590  0.559699  1
  S  S20  1  0.744942  0.311587  0.946161  1
  S  S21  1  0.476984  0.784677  0.259446  1
  S  S22  1  0.023016  0.784677  0.759446  1
  S  S23  1  0.244942  0.688413  0.553839  1
  S  S24  1  0.485810  0.205058  0.259877  1
  S  S25  1  0.976984  0.215323  0.240554  1
  S  S26  1  0.514190  0.794942  0.740123  1
  S  S27  1  0.266052  0.050590  0.059699  1
