# generated using pymatgen
data_Zr10Au6S
_symmetry_space_group_name_H-M   'P 1'
_cell_length_a   8.54572800
_cell_length_b   8.54573026
_cell_length_c   5.50005000
_cell_angle_alpha   90.00000000
_cell_angle_beta   90.00000000
_cell_angle_gamma   120.00000672
_symmetry_Int_Tables_number   1
_chemical_formula_structural   Zr10Au6S
_chemical_formula_sum   'Zr10 Au6 S1'
_cell_volume   347.85278610
_cell_formula_units_Z   1
loop_
 _symmetry_equiv_pos_site_id
 _symmetry_equiv_pos_as_xyz
  1  'x, y, z'
loop_
 _atom_site_type_symbol
 _atom_site_label
 _atom_site_symmetry_multiplicity
 _atom_site_fract_x
 _atom_site_fract_y
 _atom_site_fract_z
 _atom_site_occupancy
  Zr  Zr0  1  0.000000  0.749542  0.245687  1
  Zr  Zr1  1  0.250458  0.250458  0.245687  1
  Zr  Zr2  1  0.749542  0.000000  0.245687  1
  Zr  Zr3  1  0.000000  0.250458  0.754313  1
  Zr  Zr4  1  0.749542  0.749542  0.754313  1
  Zr  Zr5  1  0.250458  0.000000  0.754313  1
  Zr  Zr6  1  0.333333  0.666667  0.500000  1
  Zr  Zr7  1  0.666667  0.333333  0.500000  1
  Zr  Zr8  1  0.666667  0.333333  0.000000  1
  Zr  Zr9  1  0.333333  0.666667  0.000000  1
  Au  Au10  1  0.000000  0.396207  0.251683  1
  Au  Au11  1  0.603793  0.603793  0.251683  1
  Au  Au12  1  0.396207  0.000000  0.251683  1
  Au  Au13  1  0.000000  0.603793  0.748317  1
  Au  Au14  1  0.396207  0.396207  0.748317  1
  Au  Au15  1  0.603793  0.000000  0.748317  1
  S  S16  1  0.000000  0.000000  0.500000  1
