# generated using pymatgen
data_Y4GaTc6Os
_symmetry_space_group_name_H-M   'P 1'
_cell_length_a   5.30029300
_cell_length_b   5.30029378
_cell_length_c   9.13286800
_cell_angle_alpha   90.00000000
_cell_angle_beta   90.00000000
_cell_angle_gamma   120.00000136
_symmetry_Int_Tables_number   1
_chemical_formula_structural   Y4GaTc6Os
_chemical_formula_sum   'Y4 Ga1 Tc6 Os1'
_cell_volume   222.19671126
_cell_formula_units_Z   1
loop_
 _symmetry_equiv_pos_site_id
 _symmetry_equiv_pos_as_xyz
  1  'x, y, z'
loop_
 _atom_site_type_symbol
 _atom_site_label
 _atom_site_symmetry_multiplicity
 _atom_site_fract_x
 _atom_site_fract_y
 _atom_site_fract_z
 _atom_site_occupancy
  Y  Y0  1  0.333333  0.666667  0.431683  1
  Y  Y1  1  0.666667  0.333333  0.568317  1
  Y  Y2  1  0.666667  0.333333  0.935349  1
  Y  Y3  1  0.333333  0.666667  0.064651  1
  Ga  Ga4  1  0.000000  0.000000  0.500000  1
  Tc  Tc5  1  0.829575  0.170425  0.250375  1
  Tc  Tc6  1  0.829575  0.659152  0.250375  1
  Tc  Tc7  1  0.340848  0.170425  0.250375  1
  Tc  Tc8  1  0.170425  0.829575  0.749625  1
  Tc  Tc9  1  0.170425  0.340848  0.749625  1
  Tc  Tc10  1  0.659152  0.829575  0.749625  1
  Os  Os11  1  0.000000  0.000000  0.000000  1
