# generated using pymatgen
data_DyHo3Al18CuIr5
_symmetry_space_group_name_H-M   'P 1'
_cell_length_a   7.56243178
_cell_length_b   7.56249187
_cell_length_c   9.44518430
_cell_angle_alpha   90.06888578
_cell_angle_beta   90.07108239
_cell_angle_gamma   119.68006603
_symmetry_Int_Tables_number   1
_chemical_formula_structural   DyHo3Al18CuIr5
_chemical_formula_sum   'Dy1 Ho3 Al18 Cu1 Ir5'
_cell_volume   469.30726257
_cell_formula_units_Z   1
loop_
 _symmetry_equiv_pos_site_id
 _symmetry_equiv_pos_as_xyz
  1  'x, y, z'
loop_
 _atom_site_type_symbol
 _atom_site_label
 _atom_site_symmetry_multiplicity
 _atom_site_fract_x
 _atom_site_fract_y
 _atom_site_fract_z
 _atom_site_occupancy
  Dy  Dy0  1  0.995368  0.669989  0.250267  1
  Ho  Ho1  1  0.004622  0.330007  0.749716  1
  Ho  Ho2  1  0.669982  0.995380  0.250287  1
  Ho  Ho3  1  0.330013  0.004623  0.749714  1
  Al  Al4  1  0.127502  0.127527  0.250501  1
  Al  Al5  1  0.872513  0.872515  0.749499  1
  Al  Al6  1  0.000699  0.337494  0.076881  1
  Al  Al7  1  0.999302  0.662471  0.923073  1
  Al  Al8  1  0.000041  0.666225  0.573953  1
  Al  Al9  1  0.333813  0.999995  0.426096  1
  Al  Al10  1  0.999961  0.333745  0.426093  1
  Al  Al11  1  0.666223  0.000041  0.573923  1
  Al  Al12  1  0.662475  0.999303  0.923101  1
  Al  Al13  1  0.337564  0.000731  0.076884  1
  Al  Al14  1  0.333200  0.333200  0.553259  1
  Al  Al15  1  0.666770  0.666800  0.446761  1
  Al  Al16  1  0.663865  0.663895  0.055955  1
  Al  Al17  1  0.336104  0.336105  0.944024  1
  Al  Al18  1  0.338407  0.547660  0.250392  1
  Al  Al19  1  0.661614  0.452327  0.749608  1
  Al  Al20  1  0.547630  0.338356  0.250391  1
  Al  Al21  1  0.452327  0.661615  0.749608  1
  Cu  Cu22  1  0.000000  0.000008  0.999995  1
  Ir  Ir23  1  0.671858  0.328107  0.999982  1
  Ir  Ir24  1  0.328143  0.671876  0.999983  1
  Ir  Ir25  1  0.328192  0.671823  0.500017  1
  Ir  Ir26  1  0.671808  0.328159  0.500020  1
  Ir  Ir27  1  0.000004  0.000023  0.500018  1
