# generated using pymatgen
data_Li2LaHo5Rh16
_symmetry_space_group_name_H-M   'P 1'
_cell_length_a   5.30756200
_cell_length_b   5.30756105
_cell_length_c   17.19227100
_cell_angle_alpha   90.00000000
_cell_angle_beta   90.00000000
_cell_angle_gamma   119.99999348
_symmetry_Int_Tables_number   1
_chemical_formula_structural   Li2LaHo5Rh16
_chemical_formula_sum   'Li2 La1 Ho5 Rh16'
_cell_volume   419.42468068
_cell_formula_units_Z   1
loop_
 _symmetry_equiv_pos_site_id
 _symmetry_equiv_pos_as_xyz
  1  'x, y, z'
loop_
 _atom_site_type_symbol
 _atom_site_label
 _atom_site_symmetry_multiplicity
 _atom_site_fract_x
 _atom_site_fract_y
 _atom_site_fract_z
 _atom_site_occupancy
  Li  Li0  1  0.000000  0.000000  0.250000  1
  Li  Li1  1  0.000000  0.000000  0.750000  1
  La  La2  1  0.666667  0.333333  0.250000  1
  Ho  Ho3  1  0.333333  0.666667  0.539917  1
  Ho  Ho4  1  0.666667  0.333333  0.037665  1
  Ho  Ho5  1  0.666667  0.333333  0.462335  1
  Ho  Ho6  1  0.333333  0.666667  0.960083  1
  Ho  Ho7  1  0.333333  0.666667  0.750000  1
  Rh  Rh8  1  0.167630  0.335260  0.123481  1
  Rh  Rh9  1  0.832455  0.664910  0.625734  1
  Rh  Rh10  1  0.664740  0.832370  0.123481  1
  Rh  Rh11  1  0.167630  0.832370  0.123481  1
  Rh  Rh12  1  0.832455  0.167545  0.625734  1
  Rh  Rh13  1  0.335090  0.167545  0.625734  1
  Rh  Rh14  1  0.832455  0.664910  0.874266  1
  Rh  Rh15  1  0.832455  0.167545  0.874266  1
  Rh  Rh16  1  0.335090  0.167545  0.874266  1
  Rh  Rh17  1  0.664740  0.832370  0.376519  1
  Rh  Rh18  1  0.167630  0.832370  0.376519  1
  Rh  Rh19  1  0.167630  0.335260  0.376519  1
  Rh  Rh20  1  0.333333  0.666667  0.250000  1
  Rh  Rh21  1  0.666667  0.333333  0.750000  1
  Rh  Rh22  1  0.000000  0.000000  0.998993  1
  Rh  Rh23  1  0.000000  0.000000  0.501007  1
