# generated using pymatgen
data_Rb2Zr(AsO4)2
_symmetry_space_group_name_H-M   'P 1'
_cell_length_a   5.49187700
_cell_length_b   5.49187812
_cell_length_c   9.65369100
_cell_angle_alpha   90.00000000
_cell_angle_beta   90.00000000
_cell_angle_gamma   119.99999928
_symmetry_Int_Tables_number   1
_chemical_formula_structural   Rb2Zr(AsO4)2
_chemical_formula_sum   'Rb2 Zr1 As2 O8'
_cell_volume   252.15391804
_cell_formula_units_Z   1
loop_
 _symmetry_equiv_pos_site_id
 _symmetry_equiv_pos_as_xyz
  1  'x, y, z'
loop_
 _atom_site_type_symbol
 _atom_site_label
 _atom_site_symmetry_multiplicity
 _atom_site_fract_x
 _atom_site_fract_y
 _atom_site_fract_z
 _atom_site_occupancy
  Rb  Rb0  1  0.666667  0.333334  0.352101  1
  Rb  Rb1  1  0.333333  0.666667  0.647899  1
  Zr  Zr2  1  0.000000  0.000000  0.000000  1
  As  As3  1  0.333333  0.666667  0.185275  1
  As  As4  1  0.666667  0.333334  0.814725  1
  O  O5  1  0.270079  0.342616  0.127395  1
  O  O6  1  0.072536  0.729922  0.127395  1
  O  O7  1  0.657385  0.927465  0.127395  1
  O  O8  1  0.333333  0.666667  0.360660  1
  O  O9  1  0.666667  0.333334  0.639340  1
  O  O10  1  0.342615  0.072536  0.872605  1
  O  O11  1  0.927464  0.270079  0.872605  1
  O  O12  1  0.729921  0.657385  0.872605  1
