# generated using pymatgen
data_BaZr4(AsO4)6
_symmetry_space_group_name_H-M   'P 1'
_cell_length_a   9.13509837
_cell_length_b   9.13509940
_cell_length_c   9.85275124
_cell_angle_alpha   62.38156616
_cell_angle_beta   62.38156196
_cell_angle_gamma   59.99999955
_symmetry_Int_Tables_number   1
_chemical_formula_structural   BaZr4(AsO4)6
_chemical_formula_sum   'Ba1 Zr4 As6 O24'
_cell_volume   601.44851369
_cell_formula_units_Z   1
loop_
 _symmetry_equiv_pos_site_id
 _symmetry_equiv_pos_as_xyz
  1  'x, y, z'
loop_
 _atom_site_type_symbol
 _atom_site_label
 _atom_site_symmetry_multiplicity
 _atom_site_fract_x
 _atom_site_fract_y
 _atom_site_fract_z
 _atom_site_occupancy
  Ba  Ba0  1  0.500000  0.500000  0.500000  1
  Zr  Zr1  1  0.145735  0.145735  0.562793  1
  Zr  Zr2  1  0.854265  0.854265  0.437207  1
  Zr  Zr3  1  0.648511  0.648511  0.054469  1
  Zr  Zr4  1  0.351489  0.351489  0.945531  1
  As  As5  1  0.963071  0.252270  0.255328  1
  As  As6  1  0.252270  0.529331  0.255328  1
  As  As7  1  0.529331  0.963071  0.255328  1
  As  As8  1  0.036929  0.747730  0.744672  1
  As  As9  1  0.747730  0.470669  0.744672  1
  As  As10  1  0.470669  0.036929  0.744672  1
  O  O11  1  0.979230  0.272944  0.411511  1
  O  O12  1  0.272944  0.336314  0.411511  1
  O  O13  1  0.336314  0.979230  0.411511  1
  O  O14  1  0.020770  0.727056  0.588489  1
  O  O15  1  0.727056  0.663686  0.588489  1
  O  O16  1  0.663686  0.020770  0.588489  1
  O  O17  1  0.498859  0.873374  0.919822  1
  O  O18  1  0.873374  0.707945  0.919822  1
  O  O19  1  0.707945  0.498859  0.919822  1
  O  O20  1  0.501141  0.126626  0.080178  1
  O  O21  1  0.126626  0.292055  0.080178  1
  O  O22  1  0.292055  0.501141  0.080178  1
  O  O23  1  0.033820  0.952391  0.701128  1
  O  O24  1  0.952391  0.312661  0.701128  1
  O  O25  1  0.312661  0.033820  0.701128  1
  O  O26  1  0.966180  0.047609  0.298872  1
  O  O27  1  0.047609  0.687339  0.298872  1
  O  O28  1  0.687339  0.966180  0.298872  1
  O  O29  1  0.598025  0.762408  0.229127  1
  O  O30  1  0.762408  0.410440  0.229127  1
  O  O31  1  0.410440  0.598025  0.229127  1
  O  O32  1  0.401975  0.237592  0.770873  1
  O  O33  1  0.237592  0.589560  0.770873  1
  O  O34  1  0.589560  0.401975  0.770873  1
