# generated using pymatgen
data_TmLu7Re3TcB24
_symmetry_space_group_name_H-M   'P 1'
_cell_length_a   3.62334400
_cell_length_b   9.06849888
_cell_length_c   11.42022000
_cell_angle_alpha   90.02396782
_cell_angle_beta   90.00000000
_cell_angle_gamma   90.00000000
_symmetry_Int_Tables_number   1
_chemical_formula_structural   TmLu7Re3TcB24
_chemical_formula_sum   'Tm1 Lu7 Re3 Tc1 B24'
_cell_volume   375.24887939
_cell_formula_units_Z   1
loop_
 _symmetry_equiv_pos_site_id
 _symmetry_equiv_pos_as_xyz
  1  'x, y, z'
loop_
 _atom_site_type_symbol
 _atom_site_label
 _atom_site_symmetry_multiplicity
 _atom_site_fract_x
 _atom_site_fract_y
 _atom_site_fract_z
 _atom_site_occupancy
  Tm  Tm0  1  0.000000  0.323476  0.413740  1
  Lu  Lu1  1  0.000000  0.676867  0.585913  1
  Lu  Lu2  1  0.000000  0.823075  0.086139  1
  Lu  Lu3  1  0.000000  0.177062  0.913946  1
  Lu  Lu4  1  0.000000  0.942321  0.370144  1
  Lu  Lu5  1  0.000000  0.056414  0.629420  1
  Lu  Lu6  1  0.000000  0.444030  0.130099  1
  Lu  Lu7  1  0.000000  0.556603  0.870753  1
  Re  Re8  1  0.000000  0.361009  0.679643  1
  Re  Re9  1  0.000000  0.138897  0.179288  1
  Re  Re10  1  0.000000  0.861030  0.820606  1
  Tc  Tc11  1  0.000000  0.639574  0.320254  1
  B  B12  1  0.500000  0.553522  0.433418  1
  B  B13  1  0.500000  0.447117  0.566481  1
  B  B14  1  0.500000  0.053087  0.066252  1
  B  B15  1  0.500000  0.947030  0.933656  1
  B  B16  1  0.500000  0.750232  0.419466  1
  B  B17  1  0.500000  0.249293  0.580694  1
  B  B18  1  0.500000  0.250719  0.080360  1
  B  B19  1  0.500000  0.749518  0.919652  1
  B  B20  1  0.500000  0.793092  0.264749  1
  B  B21  1  0.500000  0.206539  0.735191  1
  B  B22  1  0.500000  0.293317  0.235041  1
  B  B23  1  0.500000  0.706582  0.764905  1
  B  B24  1  0.500000  0.630824  0.184401  1
  B  B25  1  0.500000  0.369498  0.815771  1
  B  B26  1  0.500000  0.130085  0.315511  1
  B  B27  1  0.500000  0.869366  0.684278  1
  B  B28  1  0.500000  0.980635  0.211892  1
  B  B29  1  0.500000  0.019100  0.787939  1
  B  B30  1  0.500000  0.481560  0.287916  1
  B  B31  1  0.500000  0.519208  0.712199  1
  B  B32  1  0.500000  0.599544  0.027842  1
  B  B33  1  0.500000  0.400790  0.972556  1
  B  B34  1  0.500000  0.098582  0.472277  1
  B  B35  1  0.500000  0.900408  0.527610  1
