# generated using pymatgen
data_Zr12Zn12C3O
_symmetry_space_group_name_H-M   'P 1'
_cell_length_a   8.68758061
_cell_length_b   8.68758100
_cell_length_c   8.64911203
_cell_angle_alpha   59.85277260
_cell_angle_beta   59.85277232
_cell_angle_gamma   59.99999927
_symmetry_Int_Tables_number   1
_chemical_formula_structural   Zr12Zn12C3O
_chemical_formula_sum   'Zr12 Zn12 C3 O1'
_cell_volume   460.55784992
_cell_formula_units_Z   1
loop_
 _symmetry_equiv_pos_site_id
 _symmetry_equiv_pos_as_xyz
  1  'x, y, z'
loop_
 _atom_site_type_symbol
 _atom_site_label
 _atom_site_symmetry_multiplicity
 _atom_site_fract_x
 _atom_site_fract_y
 _atom_site_fract_z
 _atom_site_occupancy
  Zr  Zr0  1  0.939586  0.939586  0.561439  1
  Zr  Zr1  1  0.559390  0.939586  0.561439  1
  Zr  Zr2  1  0.939586  0.559390  0.561439  1
  Zr  Zr3  1  0.562074  0.562074  0.935104  1
  Zr  Zr4  1  0.940746  0.562074  0.935104  1
  Zr  Zr5  1  0.562074  0.940746  0.935104  1
  Zr  Zr6  1  0.310414  0.310414  0.688561  1
  Zr  Zr7  1  0.690610  0.310414  0.688561  1
  Zr  Zr8  1  0.310414  0.690610  0.688561  1
  Zr  Zr9  1  0.687926  0.687926  0.314896  1
  Zr  Zr10  1  0.309254  0.687926  0.314896  1
  Zr  Zr11  1  0.687926  0.309254  0.314896  1
  Zn  Zn12  1  0.331204  0.331204  0.006388  1
  Zn  Zn13  1  0.331993  0.007092  0.328922  1
  Zn  Zn14  1  0.007092  0.331993  0.328922  1
  Zn  Zn15  1  0.331993  0.331993  0.328922  1
  Zn  Zn16  1  0.918796  0.918796  0.243612  1
  Zn  Zn17  1  0.918007  0.242908  0.921078  1
  Zn  Zn18  1  0.242908  0.918007  0.921078  1
  Zn  Zn19  1  0.918007  0.918007  0.921078  1
  Zn  Zn20  1  0.125000  0.125000  0.625000  1
  Zn  Zn21  1  0.125000  0.625000  0.125000  1
  Zn  Zn22  1  0.625000  0.125000  0.125000  1
  Zn  Zn23  1  0.125000  0.125000  0.125000  1
  C  C24  1  0.625000  0.125000  0.625000  1
  C  C25  1  0.125000  0.625000  0.625000  1
  C  C26  1  0.625000  0.625000  0.625000  1
  O  O27  1  0.625000  0.625000  0.125000  1
