# generated using pymatgen
data_Er4Sc4Rh3Au
_symmetry_space_group_name_H-M   'P 1'
_cell_length_a   4.42126300
_cell_length_b   7.05478444
_cell_length_c   8.57134327
_cell_angle_alpha   89.82761223
_cell_angle_beta   90.00000000
_cell_angle_gamma   90.00000000
_symmetry_Int_Tables_number   1
_chemical_formula_structural   Er4Sc4Rh3Au
_chemical_formula_sum   'Er4 Sc4 Rh3 Au1'
_cell_volume   267.34804988
_cell_formula_units_Z   1
loop_
 _symmetry_equiv_pos_site_id
 _symmetry_equiv_pos_as_xyz
  1  'x, y, z'
loop_
 _atom_site_type_symbol
 _atom_site_label
 _atom_site_symmetry_multiplicity
 _atom_site_fract_x
 _atom_site_fract_y
 _atom_site_fract_z
 _atom_site_occupancy
  Er  Er0  1  0.250000  0.016934  0.329023  1
  Er  Er1  1  0.250000  0.527465  0.177908  1
  Er  Er2  1  0.750000  0.982018  0.670117  1
  Er  Er3  1  0.750000  0.483573  0.822113  1
  Sc  Sc4  1  0.250000  0.136403  0.922572  1
  Sc  Sc5  1  0.250000  0.640585  0.569346  1
  Sc  Sc6  1  0.750000  0.854049  0.064980  1
  Sc  Sc7  1  0.750000  0.360815  0.433298  1
  Rh  Rh8  1  0.250000  0.256495  0.601291  1
  Rh  Rh9  1  0.250000  0.751487  0.900867  1
  Rh  Rh10  1  0.750000  0.745671  0.398787  1
  Au  Au11  1  0.750000  0.244506  0.109696  1
