# generated using pymatgen
data_Eu6ZrO12
_symmetry_space_group_name_H-M   'P 1'
_cell_length_a   6.65776635
_cell_length_b   6.65776608
_cell_length_c   6.65776586
_cell_angle_alpha   98.96046446
_cell_angle_beta   98.96046607
_cell_angle_gamma   98.96045390
_symmetry_Int_Tables_number   1
_chemical_formula_structural   Eu6ZrO12
_chemical_formula_sum   'Eu6 Zr1 O12'
_cell_volume   283.00932686
_cell_formula_units_Z   1
loop_
 _symmetry_equiv_pos_site_id
 _symmetry_equiv_pos_as_xyz
  1  'x, y, z'
loop_
 _atom_site_type_symbol
 _atom_site_label
 _atom_site_symmetry_multiplicity
 _atom_site_fract_x
 _atom_site_fract_y
 _atom_site_fract_z
 _atom_site_occupancy
  Eu  Eu0  1  0.135878  0.296190  0.603518  1
  Eu  Eu1  1  0.396482  0.864122  0.703810  1
  Eu  Eu2  1  0.703810  0.396482  0.864122  1
  Eu  Eu3  1  0.296190  0.603518  0.135878  1
  Eu  Eu4  1  0.603518  0.135878  0.296190  1
  Eu  Eu5  1  0.864122  0.703810  0.396482  1
  Zr  Zr6  1  0.000000  0.000000  0.000000  1
  O  O7  1  0.068237  0.309568  0.949902  1
  O  O8  1  0.050098  0.931763  0.690432  1
  O  O9  1  0.409696  0.565433  0.822859  1
  O  O10  1  0.177141  0.590304  0.434567  1
  O  O11  1  0.690432  0.050098  0.931763  1
  O  O12  1  0.434567  0.177141  0.590304  1
  O  O13  1  0.565433  0.822859  0.409696  1
  O  O14  1  0.309568  0.949902  0.068237  1
  O  O15  1  0.822859  0.409696  0.565433  1
  O  O16  1  0.590304  0.434567  0.177141  1
  O  O17  1  0.949902  0.068237  0.309568  1
  O  O18  1  0.931763  0.690432  0.050098  1
