# generated using pymatgen
data_LaZnNiGeRh2
_symmetry_space_group_name_H-M   'P 1'
_cell_length_a   3.83110800
_cell_length_b   5.46896477
_cell_length_c   5.46871510
_cell_angle_alpha   63.29184837
_cell_angle_beta   90.00000000
_cell_angle_gamma   90.00000000
_symmetry_Int_Tables_number   1
_chemical_formula_structural   LaZnNiGeRh2
_chemical_formula_sum   'La1 Zn1 Ni1 Ge1 Rh2'
_cell_volume   102.35658263
_cell_formula_units_Z   1
loop_
 _symmetry_equiv_pos_site_id
 _symmetry_equiv_pos_as_xyz
  1  'x, y, z'
loop_
 _atom_site_type_symbol
 _atom_site_label
 _atom_site_symmetry_multiplicity
 _atom_site_fract_x
 _atom_site_fract_y
 _atom_site_fract_z
 _atom_site_occupancy
  La  La0  1  0.000000  0.999174  0.999200  1
  Zn  Zn1  1  0.000000  0.657158  0.657197  1
  Ni  Ni2  1  0.500000  0.499079  0.499135  1
  Ge  Ge3  1  0.000000  0.342366  0.342367  1
  Rh  Rh4  1  0.500000  0.499540  0.002624  1
  Rh  Rh5  1  0.500000  0.002583  0.499578  1
