# generated using pymatgen
data_Zr3Sc4TaOs8
_symmetry_space_group_name_H-M   'P 1'
_cell_length_a   6.46734700
_cell_length_b   4.58392600
_cell_length_c   9.18700800
_cell_angle_alpha   90.00000000
_cell_angle_beta   89.99991566
_cell_angle_gamma   90.00000000
_symmetry_Int_Tables_number   1
_chemical_formula_structural   Zr3Sc4TaOs8
_chemical_formula_sum   'Zr3 Sc4 Ta1 Os8'
_cell_volume   272.35656984
_cell_formula_units_Z   1
loop_
 _symmetry_equiv_pos_site_id
 _symmetry_equiv_pos_as_xyz
  1  'x, y, z'
loop_
 _atom_site_type_symbol
 _atom_site_label
 _atom_site_symmetry_multiplicity
 _atom_site_fract_x
 _atom_site_fract_y
 _atom_site_fract_z
 _atom_site_occupancy
  Zr  Zr0  1  0.250008  0.250000  0.124621  1
  Zr  Zr1  1  0.750011  0.749999  0.374996  1
  Zr  Zr2  1  0.249994  0.250000  0.625387  1
  Sc  Sc3  1  0.750009  0.250000  0.124154  1
  Sc  Sc4  1  0.250010  0.749999  0.374987  1
  Sc  Sc5  1  0.749988  0.250000  0.625859  1
  Sc  Sc6  1  0.249981  0.749999  0.875032  1
  Ta  Ta7  1  0.749992  0.749999  0.874976  1
  Os  Os8  1  0.503764  0.749999  0.119553  1
  Os  Os9  1  0.996249  0.749999  0.119551  1
  Os  Os10  1  0.500244  0.250000  0.374993  1
  Os  Os11  1  0.999771  0.250000  0.374995  1
  Os  Os12  1  0.996264  0.749999  0.630449  1
  Os  Os13  1  0.503728  0.749999  0.630451  1
  Os  Os14  1  0.991553  0.250000  0.874997  1
  Os  Os15  1  0.508438  0.250000  0.874999  1
