# generated using pymatgen
data_LiPr3Zn2Pb3
_symmetry_space_group_name_H-M   'P 1'
_cell_length_a   4.76943600
_cell_length_b   4.76943673
_cell_length_c   12.21749900
_cell_angle_alpha   90.00000000
_cell_angle_beta   90.00000000
_cell_angle_gamma   120.00000883
_symmetry_Int_Tables_number   1
_chemical_formula_structural   LiPr3Zn2Pb3
_chemical_formula_sum   'Li1 Pr3 Zn2 Pb3'
_cell_volume   240.68389016
_cell_formula_units_Z   1
loop_
 _symmetry_equiv_pos_site_id
 _symmetry_equiv_pos_as_xyz
  1  'x, y, z'
loop_
 _atom_site_type_symbol
 _atom_site_label
 _atom_site_symmetry_multiplicity
 _atom_site_fract_x
 _atom_site_fract_y
 _atom_site_fract_z
 _atom_site_occupancy
  Li  Li0  1  0.666666  0.333333  0.500000  1
  Pr  Pr1  1  0.333334  0.666668  0.000000  1
  Pr  Pr2  1  0.333334  0.666668  0.335773  1
  Pr  Pr3  1  0.333334  0.666668  0.664227  1
  Zn  Zn4  1  0.000000  0.000000  0.118498  1
  Zn  Zn5  1  0.000000  0.000000  0.881502  1
  Pb  Pb6  1  0.666666  0.333333  0.187322  1
  Pb  Pb7  1  0.000000  0.000000  0.500000  1
  Pb  Pb8  1  0.666666  0.333333  0.812678  1
