# generated using pymatgen
data_Hf5Zr3Ta4(VSi2)8
_symmetry_space_group_name_H-M   'P 1'
_cell_length_a   6.69892441
_cell_length_b   6.70041112
_cell_length_c   12.41389100
_cell_angle_alpha   90.02668793
_cell_angle_beta   89.97988339
_cell_angle_gamma   89.96310289
_symmetry_Int_Tables_number   1
_chemical_formula_structural   Hf5Zr3Ta4(VSi2)8
_chemical_formula_sum   'Hf5 Zr3 Ta4 V8 Si16'
_cell_volume   557.20408509
_cell_formula_units_Z   1
loop_
 _symmetry_equiv_pos_site_id
 _symmetry_equiv_pos_as_xyz
  1  'x, y, z'
loop_
 _atom_site_type_symbol
 _atom_site_label
 _atom_site_symmetry_multiplicity
 _atom_site_fract_x
 _atom_site_fract_y
 _atom_site_fract_z
 _atom_site_occupancy
  Hf  Hf0  1  0.004415  0.662282  0.029947  1
  Hf  Hf1  1  0.836750  0.504554  0.279563  1
  Hf  Hf2  1  0.163432  0.495702  0.779887  1
  Hf  Hf3  1  0.504595  0.836400  0.720407  1
  Hf  Hf4  1  0.495608  0.163239  0.219959  1
  Zr  Zr5  1  0.996139  0.337849  0.530186  1
  Zr  Zr6  1  0.662547  0.003624  0.970011  1
  Zr  Zr7  1  0.337990  0.996042  0.469717  1
  Ta  Ta8  1  0.334627  0.335306  0.000159  1
  Ta  Ta9  1  0.164166  0.835144  0.249647  1
  Ta  Ta10  1  0.835598  0.164255  0.750236  1
  Ta  Ta11  1  0.664931  0.665085  0.499919  1
  V  V12  1  0.004469  0.160723  0.127786  1
  V  V13  1  0.340808  0.505775  0.376642  1
  V  V14  1  0.659640  0.494908  0.877308  1
  V  V15  1  0.505788  0.340949  0.623321  1
  V  V16  1  0.494274  0.659104  0.122766  1
  V  V17  1  0.995304  0.838839  0.628183  1
  V  V18  1  0.160384  0.004607  0.872613  1
  V  V19  1  0.838950  0.995256  0.371848  1
  Si  Si20  1  0.291573  0.959120  0.062251  1
  Si  Si21  1  0.541047  0.792848  0.311130  1
  Si  Si22  1  0.459238  0.207132  0.811600  1
  Si  Si23  1  0.792718  0.540894  0.688676  1
  Si  Si24  1  0.206342  0.459407  0.188057  1
  Si  Si25  1  0.707907  0.040656  0.562287  1
  Si  Si26  1  0.959474  0.293212  0.938056  1
  Si  Si27  1  0.040660  0.707920  0.437728  1
  Si  Si28  1  0.710639  0.375987  0.074109  1
  Si  Si29  1  0.124203  0.211112  0.322961  1
  Si  Si30  1  0.876032  0.788544  0.823777  1
  Si  Si31  1  0.211135  0.124236  0.676997  1
  Si  Si32  1  0.789457  0.874921  0.176156  1
  Si  Si33  1  0.290020  0.624455  0.574059  1
  Si  Si34  1  0.374576  0.709991  0.926117  1
  Si  Si35  1  0.624567  0.289923  0.425935  1
