# generated using pymatgen
data_Yb4UZn3Ru4
_symmetry_space_group_name_H-M   'P 1'
_cell_length_a   5.67668364
_cell_length_b   5.29048913
_cell_length_c   8.95748000
_cell_angle_alpha   90.00000000
_cell_angle_beta   90.00000000
_cell_angle_gamma   122.20294822
_symmetry_Int_Tables_number   1
_chemical_formula_structural   Yb4UZn3Ru4
_chemical_formula_sum   'Yb4 U1 Zn3 Ru4'
_cell_volume   227.63120908
_cell_formula_units_Z   1
loop_
 _symmetry_equiv_pos_site_id
 _symmetry_equiv_pos_as_xyz
  1  'x, y, z'
loop_
 _atom_site_type_symbol
 _atom_site_label
 _atom_site_symmetry_multiplicity
 _atom_site_fract_x
 _atom_site_fract_y
 _atom_site_fract_z
 _atom_site_occupancy
  Yb  Yb0  1  0.674127  0.347002  0.553061  1
  Yb  Yb1  1  0.345165  0.689445  0.441260  1
  Yb  Yb2  1  0.345165  0.689445  0.058740  1
  Yb  Yb3  1  0.674127  0.347002  0.946939  1
  U  U4  1  0.138814  0.271232  0.750000  1
  Zn  Zn5  1  0.841001  0.683202  0.250000  1
  Zn  Zn6  1  0.860308  0.187973  0.250000  1
  Zn  Zn7  1  0.326623  0.186235  0.250000  1
  Ru  Ru8  1  0.011230  0.024588  0.507420  1
  Ru  Ru9  1  0.011230  0.024588  0.992580  1
  Ru  Ru10  1  0.155718  0.776367  0.750000  1
  Ru  Ru11  1  0.616493  0.772921  0.750000  1
