# generated using pymatgen
data_TbY7(AsI6)2
_symmetry_space_group_name_H-M   'P 1'
_cell_length_a   4.25247400
_cell_length_b   13.91970705
_cell_length_c   14.74813505
_cell_angle_alpha   90.00966502
_cell_angle_beta   90.00000000
_cell_angle_gamma   90.00000000
_symmetry_Int_Tables_number   1
_chemical_formula_structural   TbY7(AsI6)2
_chemical_formula_sum   'Tb1 Y7 As2 I12'
_cell_volume   872.98918204
_cell_formula_units_Z   1
loop_
 _symmetry_equiv_pos_site_id
 _symmetry_equiv_pos_as_xyz
  1  'x, y, z'
loop_
 _atom_site_type_symbol
 _atom_site_label
 _atom_site_symmetry_multiplicity
 _atom_site_fract_x
 _atom_site_fract_y
 _atom_site_fract_z
 _atom_site_occupancy
  Tb  Tb0  1  0.000000  0.389818  0.073137  1
  Y  Y1  1  0.500000  0.114695  0.347070  1
  Y  Y2  1  0.500000  0.885307  0.652920  1
  Y  Y3  1  0.500000  0.614664  0.152899  1
  Y  Y4  1  0.500000  0.385310  0.847119  1
  Y  Y5  1  0.000000  0.110115  0.573103  1
  Y  Y6  1  0.000000  0.889885  0.426897  1
  Y  Y7  1  0.000000  0.610116  0.926904  1
  As  As8  1  0.500000  0.000004  0.499999  1
  As  As9  1  0.500000  0.500124  0.999923  1
  I  I10  1  0.500000  0.245511  0.160399  1
  I  I11  1  0.500000  0.754413  0.839659  1
  I  I12  1  0.500000  0.745598  0.339671  1
  I  I13  1  0.500000  0.254401  0.660329  1
  I  I14  1  0.000000  0.258669  0.413918  1
  I  I15  1  0.000000  0.741330  0.586081  1
  I  I16  1  0.000000  0.758679  0.086079  1
  I  I17  1  0.000000  0.241314  0.913869  1
  I  I18  1  0.000000  0.999510  0.240702  1
  I  I19  1  0.000000  0.000490  0.759301  1
  I  I20  1  0.000000  0.499552  0.259333  1
  I  I21  1  0.000000  0.500494  0.740688  1
