# generated using pymatgen
data_DyPu3H11
_symmetry_space_group_name_H-M   'P 1'
_cell_length_a   6.45530811
_cell_length_b   6.45530782
_cell_length_c   6.45530852
_cell_angle_alpha   133.27464521
_cell_angle_beta   130.68437884
_cell_angle_gamma   70.28218599
_symmetry_Int_Tables_number   1
_chemical_formula_structural   DyPu3H11
_chemical_formula_sum   'Dy1 Pu3 H11'
_cell_volume   145.56761523
_cell_formula_units_Z   1
loop_
 _symmetry_equiv_pos_site_id
 _symmetry_equiv_pos_as_xyz
  1  'x, y, z'
loop_
 _atom_site_type_symbol
 _atom_site_label
 _atom_site_symmetry_multiplicity
 _atom_site_fract_x
 _atom_site_fract_y
 _atom_site_fract_z
 _atom_site_occupancy
  Dy  Dy0  1  0.000000  0.500000  0.500000  1
  Pu  Pu1  1  0.500000  0.000000  0.500000  1
  Pu  Pu2  1  0.263618  0.263618  0.000000  1
  Pu  Pu3  1  0.736382  0.736382  0.000000  1
  H  H4  1  0.652298  0.114857  0.005402  1
  H  H5  1  0.347702  0.353104  0.462557  1
  H  H6  1  0.109454  0.646896  0.994598  1
  H  H7  1  0.890546  0.885143  0.537443  1
  H  H8  1  0.890546  0.353104  0.005402  1
  H  H9  1  0.652298  0.646896  0.537443  1
  H  H10  1  0.347702  0.885143  0.994598  1
  H  H11  1  0.109454  0.114857  0.462557  1
  H  H12  1  0.742026  0.242026  0.500000  1
  H  H13  1  0.500000  0.500000  0.000000  1
  H  H14  1  0.257974  0.757974  0.500000  1
