# generated using pymatgen
data_Tb3Dy3Co17P12Os
_symmetry_space_group_name_H-M   'P 1'
_cell_length_a   3.70668900
_cell_length_b   10.51012302
_cell_length_c   12.22076702
_cell_angle_alpha   90.00728829
_cell_angle_beta   90.00000000
_cell_angle_gamma   90.00000000
_symmetry_Int_Tables_number   1
_chemical_formula_structural   Tb3Dy3Co17P12Os
_chemical_formula_sum   'Tb3 Dy3 Co17 P12 Os1'
_cell_volume   476.09367304
_cell_formula_units_Z   1
loop_
 _symmetry_equiv_pos_site_id
 _symmetry_equiv_pos_as_xyz
  1  'x, y, z'
loop_
 _atom_site_type_symbol
 _atom_site_label
 _atom_site_symmetry_multiplicity
 _atom_site_fract_x
 _atom_site_fract_y
 _atom_site_fract_z
 _atom_site_occupancy
  Tb  Tb0  1  0.000000  0.500024  0.524705  1
  Tb  Tb1  1  0.500000  0.999964  0.478329  1
  Tb  Tb2  1  0.000000  0.683178  0.794086  1
  Dy  Dy3  1  0.500000  0.817520  0.206972  1
  Dy  Dy4  1  0.500000  0.182498  0.206922  1
  Dy  Dy5  1  0.000000  0.316657  0.794183  1
  Co  Co6  1  0.000000  0.000078  0.840212  1
  Co  Co7  1  0.500000  0.499672  0.703834  1
  Co  Co8  1  0.000000  0.000029  0.295208  1
  Co  Co9  1  0.000000  0.499805  0.988243  1
  Co  Co10  1  0.500000  0.000191  0.014706  1
  Co  Co11  1  0.500000  0.332560  0.991432  1
  Co  Co12  1  0.500000  0.667272  0.991647  1
  Co  Co13  1  0.000000  0.166856  0.005755  1
  Co  Co14  1  0.000000  0.833296  0.005903  1
  Co  Co15  1  0.500000  0.297247  0.429920  1
  Co  Co16  1  0.500000  0.702717  0.429780  1
  Co  Co17  1  0.000000  0.203216  0.568882  1
  Co  Co18  1  0.000000  0.796832  0.568639  1
  Co  Co19  1  0.500000  0.879540  0.709349  1
  Co  Co20  1  0.500000  0.120831  0.709560  1
  Co  Co21  1  0.000000  0.620235  0.290518  1
  Co  Co22  1  0.000000  0.379789  0.290592  1
  P  P23  1  0.500000  0.499663  0.881482  1
  P  P24  1  0.000000  0.000085  0.116863  1
  P  P25  1  0.500000  0.499999  0.350213  1
  P  P26  1  0.000000  0.000002  0.656267  1
  P  P27  1  0.500000  0.310398  0.616388  1
  P  P28  1  0.500000  0.689572  0.615974  1
  P  P29  1  0.000000  0.188698  0.384033  1
  P  P30  1  0.000000  0.811362  0.383957  1
  P  P31  1  0.500000  0.849669  0.892528  1
  P  P32  1  0.500000  0.150638  0.892320  1
  P  P33  1  0.000000  0.655614  0.105962  1
  P  P34  1  0.000000  0.344369  0.106051  1
  Os  Os35  1  0.500000  0.499923  0.158587  1
