# generated using pymatgen
data_TiSnPb4W2O13
_symmetry_space_group_name_H-M   'P 1'
_cell_length_a   7.48582028
_cell_length_b   7.56294526
_cell_length_c   7.48582143
_cell_angle_alpha   119.75195286
_cell_angle_beta   119.48944421
_cell_angle_gamma   90.36171330
_symmetry_Int_Tables_number   1
_chemical_formula_structural   TiSnPb4W2O13
_chemical_formula_sum   'Ti1 Sn1 Pb4 W2 O13'
_cell_volume   302.15284522
_cell_formula_units_Z   1
loop_
 _symmetry_equiv_pos_site_id
 _symmetry_equiv_pos_as_xyz
  1  'x, y, z'
loop_
 _atom_site_type_symbol
 _atom_site_label
 _atom_site_symmetry_multiplicity
 _atom_site_fract_x
 _atom_site_fract_y
 _atom_site_fract_z
 _atom_site_occupancy
  Ti  Ti0  1  0.253939  0.512392  0.258454  1
  Sn  Sn1  1  0.248963  0.000698  0.751734  1
  Pb  Pb2  1  0.749118  0.001377  0.252258  1
  Pb  Pb3  1  0.750505  0.502471  0.751966  1
  Pb  Pb4  1  0.765033  0.016057  0.761038  1
  Pb  Pb5  1  0.255019  0.016057  0.251024  1
  W  W6  1  0.249804  0.499446  0.749136  1
  W  W7  1  0.750308  0.499446  0.249642  1
  O  O8  1  0.169841  0.177896  0.008055  1
  O  O9  1  0.574437  0.570088  0.995651  1
  O  O10  1  0.181339  0.556432  0.992837  1
  O  O11  1  0.582564  0.176335  0.003190  1
  O  O12  1  0.173146  0.176335  0.593771  1
  O  O13  1  0.563595  0.556432  0.375093  1
  O  O14  1  0.313258  0.801431  0.488173  1
  O  O15  1  0.927838  0.430535  0.502698  1
  O  O16  1  0.315139  0.436500  0.503264  1
  O  O17  1  0.917716  0.817803  0.494170  1
  O  O18  1  0.323633  0.817803  0.900086  1
  O  O19  1  0.933236  0.436500  0.121362  1
  O  O20  1  0.876574  0.872972  0.996399  1
