# generated using pymatgen
data_Dy2MoIr2Ru
_symmetry_space_group_name_H-M   'P 1'
_cell_length_a   5.23563863
_cell_length_b   5.14849337
_cell_length_c   5.23563980
_cell_angle_alpha   65.40824183
_cell_angle_beta   64.65473565
_cell_angle_gamma   65.40824335
_symmetry_Int_Tables_number   1
_chemical_formula_structural   Dy2MoIr2Ru
_chemical_formula_sum   'Dy2 Mo1 Ir2 Ru1'
_cell_volume   111.00582428
_cell_formula_units_Z   1
loop_
 _symmetry_equiv_pos_site_id
 _symmetry_equiv_pos_as_xyz
  1  'x, y, z'
loop_
 _atom_site_type_symbol
 _atom_site_label
 _atom_site_symmetry_multiplicity
 _atom_site_fract_x
 _atom_site_fract_y
 _atom_site_fract_z
 _atom_site_occupancy
  Dy  Dy0  1  0.753116  0.749462  0.753116  1
  Dy  Dy1  1  0.496884  0.500538  0.496884  1
  Mo  Mo2  1  0.125000  0.125000  0.125000  1
  Ir  Ir3  1  0.125000  0.125000  0.625000  1
  Ir  Ir4  1  0.625000  0.125000  0.125000  1
  Ru  Ru5  1  0.125000  0.625000  0.125000  1
