# generated using pymatgen
data_Pr2As4O9
_symmetry_space_group_name_H-M   'P 1'
_cell_length_a   7.02353784
_cell_length_b   7.83528915
_cell_length_c   9.99562826
_cell_angle_alpha   95.41484094
_cell_angle_beta   104.17623274
_cell_angle_gamma   104.66106667
_symmetry_Int_Tables_number   1
_chemical_formula_structural   Pr2As4O9
_chemical_formula_sum   'Pr4 As8 O18'
_cell_volume   508.73892696
_cell_formula_units_Z   2
loop_
 _symmetry_equiv_pos_site_id
 _symmetry_equiv_pos_as_xyz
  1  'x, y, z'
loop_
 _atom_site_type_symbol
 _atom_site_label
 _atom_site_symmetry_multiplicity
 _atom_site_fract_x
 _atom_site_fract_y
 _atom_site_fract_z
 _atom_site_occupancy
  Pr  Pr0  1  0.250811  0.941230  0.617339  1
  Pr  Pr1  1  0.749189  0.058770  0.382661  1
  Pr  Pr2  1  0.718351  0.532143  0.405174  1
  Pr  Pr3  1  0.281649  0.467857  0.594826  1
  As  As4  1  0.675395  0.780865  0.070720  1
  As  As5  1  0.324605  0.219135  0.929280  1
  As  As6  1  0.180290  0.756906  0.914262  1
  As  As7  1  0.819710  0.243094  0.085738  1
  As  As8  1  0.749301  0.919184  0.709062  1
  As  As9  1  0.250699  0.080816  0.290938  1
  As  As10  1  0.807490  0.346658  0.700758  1
  As  As11  1  0.192510  0.653342  0.299242  1
  O  O12  1  0.719466  0.753238  0.247721  1
  O  O13  1  0.280534  0.246762  0.752279  1
  O  O14  1  0.316636  0.979626  0.878452  1
  O  O15  1  0.683364  0.020374  0.121548  1
  O  O16  1  0.603745  0.312689  0.986258  1
  O  O17  1  0.396255  0.687311  0.013742  1
  O  O18  1  0.141078  0.656511  0.741690  1
  O  O19  1  0.858922  0.343489  0.258310  1
  O  O20  1  0.843826  0.870099  0.560940  1
  O  O21  1  0.156174  0.129901  0.439060  1
  O  O22  1  0.500178  0.774499  0.668391  1
  O  O23  1  0.499822  0.225501  0.331609  1
  O  O24  1  0.370751  0.543983  0.375525  1
  O  O25  1  0.629249  0.456017  0.624475  1
  O  O26  1  0.090787  0.666934  0.449392  1
  O  O27  1  0.909213  0.333066  0.550608  1
  O  O28  1  0.363075  0.898457  0.359727  1
  O  O29  1  0.636925  0.101543  0.640273  1
