# generated using pymatgen
data_Tb7YbCu3Si12Pd
_symmetry_space_group_name_H-M   'P 1'
_cell_length_a   8.08257800
_cell_length_b   8.04634734
_cell_length_c   8.17399033
_cell_angle_alpha   89.97157197
_cell_angle_beta   90.00000000
_cell_angle_gamma   120.14907000
_symmetry_Int_Tables_number   1
_chemical_formula_structural   Tb7YbCu3Si12Pd
_chemical_formula_sum   'Tb7 Yb1 Cu3 Si12 Pd1'
_cell_volume   459.68362406
_cell_formula_units_Z   1
loop_
 _symmetry_equiv_pos_site_id
 _symmetry_equiv_pos_as_xyz
  1  'x, y, z'
loop_
 _atom_site_type_symbol
 _atom_site_label
 _atom_site_symmetry_multiplicity
 _atom_site_fract_x
 _atom_site_fract_y
 _atom_site_fract_z
 _atom_site_occupancy
  Tb  Tb0  1  0.501065  0.002131  0.750072  1
  Tb  Tb1  1  0.998436  0.499310  0.250041  1
  Tb  Tb2  1  0.997655  0.499234  0.749855  1
  Tb  Tb3  1  0.500875  0.499310  0.250041  1
  Tb  Tb4  1  0.501578  0.499234  0.749855  1
  Tb  Tb5  1  0.999941  0.999882  0.249977  1
  Tb  Tb6  1  0.000065  0.000130  0.749886  1
  Yb  Yb7  1  0.500524  0.001047  0.250230  1
  Cu  Cu8  1  0.333981  0.667963  0.000261  1
  Cu  Cu9  1  0.665911  0.331820  0.000160  1
  Cu  Cu10  1  0.666086  0.332171  0.499527  1
  Si  Si11  1  0.169423  0.338846  0.998966  1
  Si  Si12  1  0.830856  0.661711  0.000142  1
  Si  Si13  1  0.662252  0.830296  0.999148  1
  Si  Si14  1  0.831294  0.662587  0.501334  1
  Si  Si15  1  0.337188  0.169558  0.000256  1
  Si  Si16  1  0.165762  0.331523  0.499893  1
  Si  Si17  1  0.168044  0.830296  0.999148  1
  Si  Si18  1  0.337007  0.169142  0.500232  1
  Si  Si19  1  0.832372  0.169558  0.000256  1
  Si  Si20  1  0.668502  0.833550  0.500036  1
  Si  Si21  1  0.832136  0.169142  0.500232  1
  Si  Si22  1  0.165049  0.833550  0.500036  1
  Pd  Pd23  1  0.334004  0.668009  0.500415  1
