# generated using pymatgen
data_Tm2Th3SnBi2C
_symmetry_space_group_name_H-M   'P 1'
_cell_length_a   9.26621702
_cell_length_b   9.26512062
_cell_length_c   6.45510000
_cell_angle_alpha   90.00000000
_cell_angle_beta   90.00000000
_cell_angle_gamma   119.99607759
_symmetry_Int_Tables_number   1
_chemical_formula_structural   Tm2Th3SnBi2C
_chemical_formula_sum   'Tm4 Th6 Sn2 Bi4 C2'
_cell_volume   479.95919390
_cell_formula_units_Z   2
loop_
 _symmetry_equiv_pos_site_id
 _symmetry_equiv_pos_as_xyz
  1  'x, y, z'
loop_
 _atom_site_type_symbol
 _atom_site_label
 _atom_site_symmetry_multiplicity
 _atom_site_fract_x
 _atom_site_fract_y
 _atom_site_fract_z
 _atom_site_occupancy
  Tm  Tm0  1  0.662958  0.330766  0.996113  1
  Tm  Tm1  1  0.337042  0.667808  0.996113  1
  Tm  Tm2  1  0.337042  0.667808  0.503887  1
  Tm  Tm3  1  0.662958  0.330766  0.503887  1
  Th  Th4  1  0.774664  0.777936  0.750000  1
  Th  Th5  1  0.225336  0.003271  0.750000  1
  Th  Th6  1  0.000000  0.220420  0.750000  1
  Th  Th7  1  0.223224  0.223557  0.250000  1
  Th  Th8  1  0.776776  0.000333  0.250000  1
  Th  Th9  1  0.000000  0.779164  0.250000  1
  Sn  Sn10  1  0.406548  0.406903  0.750000  1
  Sn  Sn11  1  0.593452  0.000355  0.750000  1
  Bi  Bi12  1  0.000000  0.593612  0.750000  1
  Bi  Bi13  1  0.591838  0.591598  0.250000  1
  Bi  Bi14  1  0.408162  0.999760  0.250000  1
  Bi  Bi15  1  0.000000  0.407731  0.250000  1
  C  C16  1  0.000000  0.999107  0.001176  1
  C  C17  1  0.000000  0.999107  0.498824  1
