# generated using pymatgen
data_B4Se3SBr4
_symmetry_space_group_name_H-M   'P 1'
_cell_length_a   4.97225623
_cell_length_b   15.28426344
_cell_length_c   19.17816736
_cell_angle_alpha   64.75861939
_cell_angle_beta   90.03191369
_cell_angle_gamma   90.02804662
_symmetry_Int_Tables_number   1
_chemical_formula_structural   B4Se3SBr4
_chemical_formula_sum   'B12 Se9 S3 Br12'
_cell_volume   1318.32617984
_cell_formula_units_Z   3
loop_
 _symmetry_equiv_pos_site_id
 _symmetry_equiv_pos_as_xyz
  1  'x, y, z'
loop_
 _atom_site_type_symbol
 _atom_site_label
 _atom_site_symmetry_multiplicity
 _atom_site_fract_x
 _atom_site_fract_y
 _atom_site_fract_z
 _atom_site_occupancy
  B  B0  1  0.744802  0.374462  0.166590  1
  B  B1  1  0.244852  0.625569  0.333426  1
  B  B2  1  0.255169  0.625474  0.833458  1
  B  B3  1  0.754115  0.373720  0.666613  1
  B  B4  1  0.982729  0.170869  0.270024  1
  B  B5  1  0.482732  0.829103  0.229977  1
  B  B6  1  0.017126  0.829015  0.730015  1
  B  B7  1  0.517692  0.169551  0.774787  1
  B  B8  1  0.974608  0.235590  0.100126  1
  B  B9  1  0.474643  0.764378  0.399939  1
  B  B10  1  0.025348  0.764318  0.899957  1
  B  B11  1  0.526021  0.238112  0.595132  1
  Se  Se12  1  0.684916  0.285527  0.773794  1
  Se  Se13  1  0.183350  0.715169  0.726972  1
  Se  Se14  1  0.316508  0.715190  0.226960  1
  Se  Se15  1  0.816626  0.284780  0.273057  1
  Se  Se16  1  0.690781  0.363744  0.570025  1
  Se  Se17  1  0.189459  0.637776  0.928881  1
  Se  Se18  1  0.310506  0.637817  0.428863  1
  Se  Se19  1  0.810495  0.362168  0.071174  1
  Se  Se20  1  0.422719  0.132392  0.692601  1
  S  S21  1  0.933141  0.860191  0.808125  1
  S  S22  1  0.566748  0.860224  0.308134  1
  S  S23  1  0.066704  0.139713  0.191916  1
  Br  Br24  1  0.580374  0.494473  0.153674  1
  Br  Br25  1  0.080432  0.505554  0.346283  1
  Br  Br26  1  0.419570  0.505517  0.846340  1
  Br  Br27  1  0.918925  0.493916  0.653757  1
  Br  Br28  1  0.074164  0.072117  0.370642  1
  Br  Br29  1  0.574132  0.927801  0.129350  1
  Br  Br30  1  0.925768  0.927774  0.629338  1
  Br  Br31  1  0.430791  0.072679  0.876459  1
  Br  Br32  1  0.054150  0.208102  0.013028  1
  Br  Br33  1  0.554155  0.791838  0.487085  1
  Br  Br34  1  0.945792  0.791871  0.987013  1
  Br  Br35  1  0.449957  0.213506  0.506482  1
