# generated using pymatgen
data_TbTm2Al12Os3Pt
_symmetry_space_group_name_H-M   'P 1'
_cell_length_a   8.83540411
_cell_length_b   8.83540545
_cell_length_c   9.54046325
_cell_angle_alpha   90.38067742
_cell_angle_beta   89.61932142
_cell_angle_gamma   119.98145342
_symmetry_Int_Tables_number   1
_chemical_formula_structural   TbTm2Al12Os3Pt
_chemical_formula_sum   'Tb2 Tm4 Al24 Os6 Pt2'
_cell_volume   645.09154087
_cell_formula_units_Z   2
loop_
 _symmetry_equiv_pos_site_id
 _symmetry_equiv_pos_as_xyz
  1  'x, y, z'
loop_
 _atom_site_type_symbol
 _atom_site_label
 _atom_site_symmetry_multiplicity
 _atom_site_fract_x
 _atom_site_fract_y
 _atom_site_fract_z
 _atom_site_occupancy
  Tb  Tb0  1  0.192997  0.807003  0.252934  1
  Tb  Tb1  1  0.807003  0.192997  0.747066  1
  Tm  Tm2  1  0.197664  0.390202  0.254369  1
  Tm  Tm3  1  0.802336  0.609798  0.745631  1
  Tm  Tm4  1  0.609798  0.802336  0.254369  1
  Tm  Tm5  1  0.390202  0.197664  0.745631  1
  Al  Al6  1  0.335754  0.664246  0.026858  1
  Al  Al7  1  0.664246  0.335754  0.973142  1
  Al  Al8  1  0.666860  0.333140  0.519181  1
  Al  Al9  1  0.333140  0.666860  0.480819  1
  Al  Al10  1  0.163571  0.326738  0.576842  1
  Al  Al11  1  0.836429  0.673262  0.423158  1
  Al  Al12  1  0.673262  0.836429  0.576842  1
  Al  Al13  1  0.832497  0.674895  0.076911  1
  Al  Al14  1  0.326738  0.163571  0.423158  1
  Al  Al15  1  0.167503  0.325105  0.923089  1
  Al  Al16  1  0.163168  0.836832  0.577683  1
  Al  Al17  1  0.325105  0.167503  0.076911  1
  Al  Al18  1  0.836832  0.163168  0.422317  1
  Al  Al19  1  0.674895  0.832497  0.923089  1
  Al  Al20  1  0.838545  0.161455  0.080659  1
  Al  Al21  1  0.161455  0.838545  0.919341  1
  Al  Al22  1  0.563498  0.124497  0.251538  1
  Al  Al23  1  0.436502  0.875503  0.748462  1
  Al  Al24  1  0.875503  0.436502  0.251538  1
  Al  Al25  1  0.124497  0.563498  0.748462  1
  Al  Al26  1  0.561319  0.438681  0.248434  1
  Al  Al27  1  0.438681  0.561319  0.751566  1
  Al  Al28  1  0.999691  0.000309  0.250283  1
  Al  Al29  1  0.000309  0.999691  0.749717  1
  Os  Os30  1  0.500000  0.000000  0.500000  1
  Os  Os31  1  0.500000  0.500000  0.000000  1
  Os  Os32  1  0.000000  0.500000  0.500000  1
  Os  Os33  1  0.500000  0.500000  0.500000  1
  Os  Os34  1  0.000000  0.000000  0.000000  1
  Os  Os35  1  0.000000  0.000000  0.500000  1
  Pt  Pt36  1  0.500000  0.000000  0.000000  1
  Pt  Pt37  1  0.000000  0.500000  0.000000  1
