# generated using pymatgen
data_CaTh(CuGe)2
_symmetry_space_group_name_H-M   'P 1'
_cell_length_a   4.28327100
_cell_length_b   4.28327169
_cell_length_c   7.88059000
_cell_angle_alpha   90.00000000
_cell_angle_beta   90.00000000
_cell_angle_gamma   120.00000243
_symmetry_Int_Tables_number   1
_chemical_formula_structural   CaTh(CuGe)2
_chemical_formula_sum   'Ca1 Th1 Cu2 Ge2'
_cell_volume   125.21043646
_cell_formula_units_Z   1
loop_
 _symmetry_equiv_pos_site_id
 _symmetry_equiv_pos_as_xyz
  1  'x, y, z'
loop_
 _atom_site_type_symbol
 _atom_site_label
 _atom_site_symmetry_multiplicity
 _atom_site_fract_x
 _atom_site_fract_y
 _atom_site_fract_z
 _atom_site_occupancy
  Ca  Ca0  1  0.000000  0.000000  0.500000  1
  Th  Th1  1  0.000000  0.000000  0.000000  1
  Cu  Cu2  1  0.666667  0.333333  0.251103  1
  Cu  Cu3  1  0.333333  0.666667  0.748897  1
  Ge  Ge4  1  0.333333  0.666667  0.238078  1
  Ge  Ge5  1  0.666667  0.333333  0.761922  1
