# generated using pymatgen
data_Nd6OsCl10
_symmetry_space_group_name_H-M   'P 1'
_cell_length_a   7.45614774
_cell_length_b   9.10336307
_cell_length_c   9.42424491
_cell_angle_alpha   109.10289467
_cell_angle_beta   96.72846916
_cell_angle_gamma   106.43630919
_symmetry_Int_Tables_number   1
_chemical_formula_structural   Nd6OsCl10
_chemical_formula_sum   'Nd6 Os1 Cl10'
_cell_volume   564.01180177
_cell_formula_units_Z   1
loop_
 _symmetry_equiv_pos_site_id
 _symmetry_equiv_pos_as_xyz
  1  'x, y, z'
loop_
 _atom_site_type_symbol
 _atom_site_label
 _atom_site_symmetry_multiplicity
 _atom_site_fract_x
 _atom_site_fract_y
 _atom_site_fract_z
 _atom_site_occupancy
  Nd  Nd0  1  0.535231  0.204731  0.407738  1
  Nd  Nd1  1  0.464769  0.795269  0.592262  1
  Nd  Nd2  1  0.122577  0.345684  0.299459  1
  Nd  Nd3  1  0.877423  0.654316  0.700541  1
  Nd  Nd4  1  0.643747  0.562664  0.251457  1
  Nd  Nd5  1  0.356253  0.437336  0.748543  1
  Os  Os6  1  0.500000  0.500000  0.500000  1
  Cl  Cl7  1  0.155023  0.042187  0.227281  1
  Cl  Cl8  1  0.844977  0.957813  0.772719  1
  Cl  Cl9  1  0.264652  0.421089  0.054336  1
  Cl  Cl10  1  0.735348  0.578911  0.945664  1
  Cl  Cl11  1  0.704236  0.254913  0.159386  1
  Cl  Cl12  1  0.295764  0.745087  0.840614  1
  Cl  Cl13  1  0.050779  0.666895  0.427900  1
  Cl  Cl14  1  0.949221  0.333105  0.572100  1
  Cl  Cl15  1  0.413657  0.129920  0.660854  1
  Cl  Cl16  1  0.586343  0.870080  0.339146  1
