# generated using pymatgen
data_Ho5ScFeTe2
_symmetry_space_group_name_H-M   'P 1'
_cell_length_a   8.10076571
_cell_length_b   8.24978442
_cell_length_c   3.93697800
_cell_angle_alpha   90.00000000
_cell_angle_beta   90.00000000
_cell_angle_gamma   120.61040688
_symmetry_Int_Tables_number   1
_chemical_formula_structural   Ho5ScFeTe2
_chemical_formula_sum   'Ho5 Sc1 Fe1 Te2'
_cell_volume   226.44253457
_cell_formula_units_Z   1
loop_
 _symmetry_equiv_pos_site_id
 _symmetry_equiv_pos_as_xyz
  1  'x, y, z'
loop_
 _atom_site_type_symbol
 _atom_site_label
 _atom_site_symmetry_multiplicity
 _atom_site_fract_x
 _atom_site_fract_y
 _atom_site_fract_z
 _atom_site_occupancy
  Ho  Ho0  1  0.230519  0.995897  0.500000  1
  Ho  Ho1  1  0.769481  0.765379  0.500000  1
  Ho  Ho2  1  0.617190  0.002166  0.000000  1
  Ho  Ho3  1  0.382810  0.384976  0.000000  1
  Ho  Ho4  1  0.000000  0.595031  0.000000  1
  Sc  Sc5  1  0.000000  0.232424  0.500000  1
  Fe  Fe6  1  0.000000  0.031195  0.000000  1
  Te  Te7  1  0.329413  0.661174  0.500000  1
  Te  Te8  1  0.670587  0.331760  0.500000  1
