# generated using pymatgen
data_GaFeNi2Ag4F14
_symmetry_space_group_name_H-M   'P 1'
_cell_length_a   7.50947502
_cell_length_b   7.51278411
_cell_length_c   7.51332207
_cell_angle_alpha   120.94867830
_cell_angle_beta   116.75627692
_cell_angle_gamma   92.05250650
_symmetry_Int_Tables_number   1
_chemical_formula_structural   GaFeNi2Ag4F14
_chemical_formula_sum   'Ga1 Fe1 Ni2 Ag4 F14'
_cell_volume   304.18573134
_cell_formula_units_Z   1
loop_
 _symmetry_equiv_pos_site_id
 _symmetry_equiv_pos_as_xyz
  1  'x, y, z'
loop_
 _atom_site_type_symbol
 _atom_site_label
 _atom_site_symmetry_multiplicity
 _atom_site_fract_x
 _atom_site_fract_y
 _atom_site_fract_z
 _atom_site_occupancy
  Ga  Ga0  1  0.000000  0.500000  0.500000  1
  Fe  Fe1  1  0.500000  0.000000  0.500000  1
  Ni  Ni2  1  0.500000  0.500000  0.500000  1
  Ni  Ni3  1  0.500000  0.000000  0.000000  1
  Ag  Ag4  1  0.000000  0.000000  0.500000  1
  Ag  Ag5  1  0.000000  0.000000  0.000000  1
  Ag  Ag6  1  0.000000  0.500000  0.000000  1
  Ag  Ag7  1  0.500000  0.500000  0.000000  1
  F  F8  1  0.401946  0.249517  0.152429  1
  F  F9  1  0.126074  0.409771  0.716302  1
  F  F10  1  0.185643  0.424960  0.382919  1
  F  F11  1  0.543090  0.307796  0.620023  1
  F  F12  1  0.811557  0.091986  0.719568  1
  F  F13  1  0.456911  0.076989  0.764742  1
  F  F14  1  0.185640  0.802731  0.760680  1
  F  F15  1  0.543089  0.923011  0.235258  1
  F  F16  1  0.598054  0.750483  0.847571  1
  F  F17  1  0.814360  0.197269  0.239320  1
  F  F18  1  0.873926  0.590229  0.283698  1
  F  F19  1  0.814357  0.575040  0.617081  1
  F  F20  1  0.456910  0.692204  0.379977  1
  F  F21  1  0.188443  0.908014  0.280432  1
