# generated using pymatgen
data_Zr4AlGa(BiPt2)2
_symmetry_space_group_name_H-M   'P 1'
_cell_length_a   7.82729113
_cell_length_b   7.82729024
_cell_length_c   6.40714400
_cell_angle_alpha   114.15976318
_cell_angle_beta   114.15976026
_cell_angle_gamma   109.26585640
_symmetry_Int_Tables_number   1
_chemical_formula_structural   Zr4AlGa(BiPt2)2
_chemical_formula_sum   'Zr4 Al1 Ga1 Bi2 Pt4'
_cell_volume   262.02536480
_cell_formula_units_Z   1
loop_
 _symmetry_equiv_pos_site_id
 _symmetry_equiv_pos_as_xyz
  1  'x, y, z'
loop_
 _atom_site_type_symbol
 _atom_site_label
 _atom_site_symmetry_multiplicity
 _atom_site_fract_x
 _atom_site_fract_y
 _atom_site_fract_z
 _atom_site_occupancy
  Zr  Zr0  1  0.755317  0.244683  0.000000  1
  Zr  Zr1  1  0.244684  0.755316  0.000000  1
  Zr  Zr2  1  0.495466  0.504536  0.500001  1
  Zr  Zr3  1  0.004536  0.995466  0.500001  1
  Al  Al4  1  0.250001  0.750001  0.500001  1
  Ga  Ga5  1  0.000000  0.000000  0.000000  1
  Bi  Bi6  1  0.500000  0.500000  0.000000  1
  Bi  Bi7  1  0.750002  0.250000  0.500001  1
  Pt  Pt8  1  0.895318  0.642060  0.022931  1
  Pt  Pt9  1  0.127613  0.380869  0.485553  1
  Pt  Pt10  1  0.619131  0.872387  0.514447  1
  Pt  Pt11  1  0.357940  0.104682  0.977069  1
