# generated using pymatgen
data_Tm12InFe2Co2Ag
_symmetry_space_group_name_H-M   'P 1'
_cell_length_a   8.23288571
_cell_length_b   8.23288649
_cell_length_c   8.23288602
_cell_angle_alpha   110.78044815
_cell_angle_beta   110.35537417
_cell_angle_gamma   107.29971870
_symmetry_Int_Tables_number   1
_chemical_formula_structural   Tm12InFe2Co2Ag
_chemical_formula_sum   'Tm12 In1 Fe2 Co2 Ag1'
_cell_volume   429.10371967
_cell_formula_units_Z   1
loop_
 _symmetry_equiv_pos_site_id
 _symmetry_equiv_pos_as_xyz
  1  'x, y, z'
loop_
 _atom_site_type_symbol
 _atom_site_label
 _atom_site_symmetry_multiplicity
 _atom_site_fract_x
 _atom_site_fract_y
 _atom_site_fract_z
 _atom_site_occupancy
  Tm  Tm0  1  0.187759  0.293094  0.480853  1
  Tm  Tm1  1  0.812241  0.706906  0.519147  1
  Tm  Tm2  1  0.187759  0.706906  0.894666  1
  Tm  Tm3  1  0.812241  0.293094  0.105334  1
  Tm  Tm4  1  0.313575  0.614617  0.301041  1
  Tm  Tm5  1  0.686425  0.385383  0.698959  1
  Tm  Tm6  1  0.313575  0.012534  0.698959  1
  Tm  Tm7  1  0.686425  0.987466  0.301041  1
  Tm  Tm8  1  0.430733  0.222074  0.208659  1
  Tm  Tm9  1  0.569267  0.777926  0.791341  1
  Tm  Tm10  1  0.013414  0.222074  0.791341  1
  Tm  Tm11  1  0.986586  0.777926  0.208659  1
  In  In12  1  0.500000  0.500000  0.000000  1
  Fe  Fe13  1  0.109401  0.609401  0.500000  1
  Fe  Fe14  1  0.890599  0.390599  0.500000  1
  Co  Co15  1  0.381206  0.000000  0.381206  1
  Co  Co16  1  0.618794  0.000000  0.618794  1
  Ag  Ag17  1  0.000000  0.000000  0.000000  1
