# generated using pymatgen
data_Ca3Tb3(Si3Os)8
_symmetry_space_group_name_H-M   'P 1'
_cell_length_a   10.17532721
_cell_length_b   10.17532715
_cell_length_c   8.17749312
_cell_angle_alpha   89.98372551
_cell_angle_beta   89.98372592
_cell_angle_gamma   132.61100785
_symmetry_Int_Tables_number   1
_chemical_formula_structural   Ca3Tb3(Si3Os)8
_chemical_formula_sum   'Ca3 Tb3 Si24 Os8'
_cell_volume   623.12503872
_cell_formula_units_Z   1
loop_
 _symmetry_equiv_pos_site_id
 _symmetry_equiv_pos_as_xyz
  1  'x, y, z'
loop_
 _atom_site_type_symbol
 _atom_site_label
 _atom_site_symmetry_multiplicity
 _atom_site_fract_x
 _atom_site_fract_y
 _atom_site_fract_z
 _atom_site_occupancy
  Ca  Ca0  1  0.500120  0.499880  0.500000  1
  Ca  Ca1  1  0.499471  0.999220  0.749827  1
  Ca  Ca2  1  0.000780  0.500529  0.250173  1
  Tb  Tb3  1  0.999999  0.000001  0.000000  1
  Tb  Tb4  1  0.499711  0.999741  0.250063  1
  Tb  Tb5  1  0.000259  0.500289  0.749937  1
  Si  Si6  1  0.795633  0.204367  0.500000  1
  Si  Si7  1  0.294658  0.705342  0.000000  1
  Si  Si8  1  0.205137  0.794863  0.500000  1
  Si  Si9  1  0.704601  0.295399  0.000000  1
  Si  Si10  1  0.330515  0.338946  0.830900  1
  Si  Si11  1  0.661054  0.669485  0.169100  1
  Si  Si12  1  0.171810  0.164315  0.333898  1
  Si  Si13  1  0.835685  0.828190  0.666102  1
  Si  Si14  1  0.122816  0.888628  0.728057  1
  Si  Si15  1  0.111372  0.877184  0.271943  1
  Si  Si16  1  0.609337  0.376366  0.229690  1
  Si  Si17  1  0.623634  0.390663  0.770310  1
  Si  Si18  1  0.875586  0.109652  0.271773  1
  Si  Si19  1  0.890348  0.124414  0.728227  1
  Si  Si20  1  0.388706  0.622071  0.770456  1
  Si  Si21  1  0.377929  0.611294  0.229544  1
  Si  Si22  1  0.346624  0.112862  0.505788  1
  Si  Si23  1  0.887138  0.653376  0.494212  1
  Si  Si24  1  0.388612  0.154925  0.006739  1
  Si  Si25  1  0.845075  0.611388  0.993261  1
  Si  Si26  1  0.653248  0.885857  0.492248  1
  Si  Si27  1  0.114143  0.346752  0.507752  1
  Si  Si28  1  0.610422  0.844856  0.996158  1
  Si  Si29  1  0.155144  0.389578  0.003842  1
  Os  Os30  1  0.671009  0.328991  0.500000  1
  Os  Os31  1  0.168959  0.831041  0.000000  1
  Os  Os32  1  0.330117  0.669883  0.500000  1
  Os  Os33  1  0.829810  0.170190  0.000000  1
  Os  Os34  1  0.124866  0.125811  0.627501  1
  Os  Os35  1  0.874189  0.875134  0.372499  1
  Os  Os36  1  0.372350  0.370865  0.124653  1
  Os  Os37  1  0.629135  0.627650  0.875347  1
