# generated using pymatgen
data_Yb(Fe2Tc)4
_symmetry_space_group_name_H-M   'P 1'
_cell_length_a   4.73976958
_cell_length_b   6.50504022
_cell_length_c   6.50503935
_cell_angle_alpha   82.37288147
_cell_angle_beta   68.63455940
_cell_angle_gamma   68.63455725
_symmetry_Int_Tables_number   1
_chemical_formula_structural   Yb(Fe2Tc)4
_chemical_formula_sum   'Yb1 Fe8 Tc4'
_cell_volume   173.94570437
_cell_formula_units_Z   1
loop_
 _symmetry_equiv_pos_site_id
 _symmetry_equiv_pos_as_xyz
  1  'x, y, z'
loop_
 _atom_site_type_symbol
 _atom_site_label
 _atom_site_symmetry_multiplicity
 _atom_site_fract_x
 _atom_site_fract_y
 _atom_site_fract_z
 _atom_site_occupancy
  Yb  Yb0  1  0.000000  0.000000  0.000000  1
  Fe  Fe1  1  0.000000  0.000000  0.500000  1
  Fe  Fe2  1  0.500000  0.000000  0.500000  1
  Fe  Fe3  1  0.500000  0.500000  0.000000  1
  Fe  Fe4  1  0.000000  0.500000  0.000000  1
  Fe  Fe5  1  0.500000  0.784190  0.215810  1
  Fe  Fe6  1  0.500000  0.215810  0.784190  1
  Fe  Fe7  1  0.715810  0.784190  0.784190  1
  Fe  Fe8  1  0.284190  0.215810  0.215810  1
  Tc  Tc9  1  0.000000  0.359513  0.640487  1
  Tc  Tc10  1  0.000000  0.640487  0.359513  1
  Tc  Tc11  1  0.640487  0.359513  0.359513  1
  Tc  Tc12  1  0.359513  0.640487  0.640487  1
