# generated using pymatgen
data_Pr8Nd12Si15Pt
_symmetry_space_group_name_H-M   'P 1'
_cell_length_a   7.71972202
_cell_length_b   7.99739575
_cell_length_c   15.33119900
_cell_angle_alpha   90.00000000
_cell_angle_beta   90.00000000
_cell_angle_gamma   90.53431057
_symmetry_Int_Tables_number   1
_chemical_formula_structural   Pr8Nd12Si15Pt
_chemical_formula_sum   'Pr8 Nd12 Si15 Pt1'
_cell_volume   946.47137924
_cell_formula_units_Z   1
loop_
 _symmetry_equiv_pos_site_id
 _symmetry_equiv_pos_as_xyz
  1  'x, y, z'
loop_
 _atom_site_type_symbol
 _atom_site_label
 _atom_site_symmetry_multiplicity
 _atom_site_fract_x
 _atom_site_fract_y
 _atom_site_fract_z
 _atom_site_occupancy
  Pr  Pr0  1  0.031111  0.186824  0.400641  1
  Pr  Pr1  1  0.530734  0.316142  0.399745  1
  Pr  Pr2  1  0.474422  0.677017  0.907329  1
  Pr  Pr3  1  0.474422  0.677017  0.592671  1
  Pr  Pr4  1  0.967190  0.817681  0.596056  1
  Pr  Pr5  1  0.967190  0.817681  0.903944  1
  Pr  Pr6  1  0.530734  0.316142  0.100255  1
  Pr  Pr7  1  0.031111  0.186824  0.099359  1
  Nd  Nd8  1  0.312603  0.181495  0.621232  1
  Nd  Nd9  1  0.684144  0.818235  0.377185  1
  Nd  Nd10  1  0.631149  0.975960  0.750000  1
  Nd  Nd11  1  0.181144  0.683654  0.377003  1
  Nd  Nd12  1  0.819989  0.317240  0.877446  1
  Nd  Nd13  1  0.819989  0.317240  0.622554  1
  Nd  Nd14  1  0.851830  0.487700  0.250000  1
  Nd  Nd15  1  0.353159  0.015534  0.250000  1
  Nd  Nd16  1  0.312603  0.181495  0.878768  1
  Nd  Nd17  1  0.181144  0.683654  0.122997  1
  Nd  Nd18  1  0.684144  0.818235  0.122815  1
  Nd  Nd19  1  0.159728  0.532903  0.750000  1
  Si  Si20  1  0.473156  0.601316  0.250000  1
  Si  Si21  1  0.020824  0.088854  0.750000  1
  Si  Si22  1  0.528613  0.394446  0.750000  1
  Si  Si23  1  0.140213  0.474047  0.538178  1
  Si  Si24  1  0.974167  0.902826  0.250000  1
  Si  Si25  1  0.741943  0.120516  0.250000  1
  Si  Si26  1  0.858867  0.526874  0.038915  1
  Si  Si27  1  0.361737  0.974229  0.040222  1
  Si  Si28  1  0.140213  0.474047  0.961822  1
  Si  Si29  1  0.638662  0.028854  0.538061  1
  Si  Si30  1  0.361737  0.974229  0.459778  1
  Si  Si31  1  0.858867  0.526874  0.461085  1
  Si  Si32  1  0.759395  0.616124  0.750000  1
  Si  Si33  1  0.241105  0.382345  0.250000  1
  Si  Si34  1  0.638662  0.028854  0.961939  1
  Pt  Pt35  1  0.263301  0.876890  0.750000  1
