# generated using pymatgen
data_Y12TlFe4Bi
_symmetry_space_group_name_H-M   'P 1'
_cell_length_a   8.47861775
_cell_length_b   8.47861774
_cell_length_c   8.47861700
_cell_angle_alpha   110.09366636
_cell_angle_beta   111.32476187
_cell_angle_gamma   107.02506761
_symmetry_Int_Tables_number   1
_chemical_formula_structural   Y12TlFe4Bi
_chemical_formula_sum   'Y12 Tl1 Fe4 Bi1'
_cell_volume   468.50032029
_cell_formula_units_Z   1
loop_
 _symmetry_equiv_pos_site_id
 _symmetry_equiv_pos_as_xyz
  1  'x, y, z'
loop_
 _atom_site_type_symbol
 _atom_site_label
 _atom_site_symmetry_multiplicity
 _atom_site_fract_x
 _atom_site_fract_y
 _atom_site_fract_z
 _atom_site_occupancy
  Y  Y0  1  0.287757  0.187296  0.475053  1
  Y  Y1  1  0.712243  0.812704  0.524947  1
  Y  Y2  1  0.287757  0.812704  0.100463  1
  Y  Y3  1  0.712243  0.187296  0.899537  1
  Y  Y4  1  0.613068  0.311420  0.301647  1
  Y  Y5  1  0.386932  0.688580  0.698353  1
  Y  Y6  1  0.009773  0.311420  0.698353  1
  Y  Y7  1  0.990227  0.688580  0.301647  1
  Y  Y8  1  0.224369  0.442714  0.218345  1
  Y  Y9  1  0.775631  0.557286  0.781655  1
  Y  Y10  1  0.224369  0.006023  0.781655  1
  Y  Y11  1  0.775631  0.993977  0.218345  1
  Tl  Tl12  1  0.000000  0.000000  0.000000  1
  Fe  Fe13  1  0.000000  0.389228  0.389228  1
  Fe  Fe14  1  0.000000  0.610772  0.610772  1
  Fe  Fe15  1  0.393200  0.893200  0.500000  1
  Fe  Fe16  1  0.606800  0.106800  0.500000  1
  Bi  Bi17  1  0.500000  0.500000  0.000000  1
