# generated using pymatgen
data_TbNdCo3P7Ru9
_symmetry_space_group_name_H-M   'P 1'
_cell_length_a   9.36659300
_cell_length_b   9.36659370
_cell_length_c   3.84850100
_cell_angle_alpha   90.00000000
_cell_angle_beta   90.00000000
_cell_angle_gamma   120.00000107
_symmetry_Int_Tables_number   1
_chemical_formula_structural   TbNdCo3P7Ru9
_chemical_formula_sum   'Tb1 Nd1 Co3 P7 Ru9'
_cell_volume   292.40551676
_cell_formula_units_Z   1
loop_
 _symmetry_equiv_pos_site_id
 _symmetry_equiv_pos_as_xyz
  1  'x, y, z'
loop_
 _atom_site_type_symbol
 _atom_site_label
 _atom_site_symmetry_multiplicity
 _atom_site_fract_x
 _atom_site_fract_y
 _atom_site_fract_z
 _atom_site_occupancy
  Tb  Tb0  1  0.333333  0.666667  0.500000  1
  Nd  Nd1  1  0.000000  0.000000  0.000000  1
  Co  Co2  1  0.824189  0.601306  0.000000  1
  Co  Co3  1  0.398694  0.222883  0.000000  1
  Co  Co4  1  0.777117  0.175811  0.000000  1
  P  P5  1  0.779263  0.730900  0.500000  1
  P  P6  1  0.269100  0.048365  0.500000  1
  P  P7  1  0.951635  0.220737  0.500000  1
  P  P8  1  0.666667  0.333333  0.000000  1
  P  P9  1  0.078061  0.635683  0.000000  1
  P  P10  1  0.364317  0.442378  0.000000  1
  P  P11  1  0.557622  0.921939  0.000000  1
  Ru  Ru12  1  0.091021  0.395368  0.000000  1
  Ru  Ru13  1  0.604632  0.695654  0.000000  1
  Ru  Ru14  1  0.304346  0.908979  0.000000  1
  Ru  Ru15  1  0.049714  0.765786  0.500000  1
  Ru  Ru16  1  0.234214  0.283927  0.500000  1
  Ru  Ru17  1  0.716073  0.950286  0.500000  1
  Ru  Ru18  1  0.871654  0.418495  0.500000  1
  Ru  Ru19  1  0.581505  0.453158  0.500000  1
  Ru  Ru20  1  0.546842  0.128346  0.500000  1
