# generated using pymatgen
data_Pr5Nd(Sb3Au2)2
_symmetry_space_group_name_H-M   'P 1'
_cell_length_a   4.66763500
_cell_length_b   4.66763570
_cell_length_c   24.39594900
_cell_angle_alpha   90.00000000
_cell_angle_beta   90.00000000
_cell_angle_gamma   120.00000216
_symmetry_Int_Tables_number   1
_chemical_formula_structural   Pr5Nd(Sb3Au2)2
_chemical_formula_sum   'Pr5 Nd1 Sb6 Au4'
_cell_volume   460.30127640
_cell_formula_units_Z   1
loop_
 _symmetry_equiv_pos_site_id
 _symmetry_equiv_pos_as_xyz
  1  'x, y, z'
loop_
 _atom_site_type_symbol
 _atom_site_label
 _atom_site_symmetry_multiplicity
 _atom_site_fract_x
 _atom_site_fract_y
 _atom_site_fract_z
 _atom_site_occupancy
  Pr  Pr0  1  0.666667  0.333333  0.925053  1
  Pr  Pr1  1  0.333333  0.666667  0.075865  1
  Pr  Pr2  1  0.333333  0.666667  0.424135  1
  Pr  Pr3  1  0.666667  0.333333  0.574947  1
  Pr  Pr4  1  0.666667  0.333333  0.750000  1
  Nd  Nd5  1  0.333333  0.666667  0.250000  1
  Sb  Sb6  1  0.333333  0.666667  0.653261  1
  Sb  Sb7  1  0.000000  0.000000  0.499551  1
  Sb  Sb8  1  0.666667  0.333333  0.345948  1
  Sb  Sb9  1  0.333333  0.666667  0.846739  1
  Sb  Sb10  1  0.666667  0.333333  0.154052  1
  Sb  Sb11  1  0.000000  0.000000  0.000449  1
  Au  Au12  1  0.000000  0.000000  0.813166  1
  Au  Au13  1  0.000000  0.000000  0.188218  1
  Au  Au14  1  0.000000  0.000000  0.311782  1
  Au  Au15  1  0.000000  0.000000  0.686834  1
