# generated using pymatgen
data_Ta3Nb2(NiP)4
_symmetry_space_group_name_H-M   'P 1'
_cell_length_a   7.26174486
_cell_length_b   7.26174453
_cell_length_c   7.28654214
_cell_angle_alpha   93.28903494
_cell_angle_beta   93.49126637
_cell_angle_gamma   151.80283818
_symmetry_Int_Tables_number   1
_chemical_formula_structural   Ta3Nb2(NiP)4
_chemical_formula_sum   'Ta3 Nb2 Ni4 P4'
_cell_volume   176.12507079
_cell_formula_units_Z   1
loop_
 _symmetry_equiv_pos_site_id
 _symmetry_equiv_pos_as_xyz
  1  'x, y, z'
loop_
 _atom_site_type_symbol
 _atom_site_label
 _atom_site_symmetry_multiplicity
 _atom_site_fract_x
 _atom_site_fract_y
 _atom_site_fract_z
 _atom_site_occupancy
  Ta  Ta0  1  0.195476  0.131118  0.326596  1
  Ta  Ta1  1  0.804524  0.868882  0.673404  1
  Ta  Ta2  1  0.500000  0.500000  0.000000  1
  Nb  Nb3  1  0.869070  0.194129  0.063199  1
  Nb  Nb4  1  0.130930  0.805871  0.936801  1
  Ni  Ni5  1  0.609345  0.084845  0.694190  1
  Ni  Ni6  1  0.390655  0.915155  0.305810  1
  Ni  Ni7  1  0.087131  0.389197  0.476327  1
  Ni  Ni8  1  0.912869  0.610803  0.523673  1
  P  P9  1  0.758907  0.444559  0.203466  1
  P  P10  1  0.241093  0.555441  0.796534  1
  P  P11  1  0.443959  0.241629  0.685588  1
  P  P12  1  0.556041  0.758371  0.314412  1
