# generated using pymatgen
data_Mg4Ge2AsP3Ir7
_symmetry_space_group_name_H-M   'P 1'
_cell_length_a   6.97550461
_cell_length_b   6.97550465
_cell_length_c   6.97490302
_cell_angle_alpha   109.26217948
_cell_angle_beta   108.47459438
_cell_angle_gamma   110.68808187
_symmetry_Int_Tables_number   1
_chemical_formula_structural   Mg4Ge2AsP3Ir7
_chemical_formula_sum   'Mg4 Ge2 As1 P3 Ir7'
_cell_volume   261.14535265
_cell_formula_units_Z   1
loop_
 _symmetry_equiv_pos_site_id
 _symmetry_equiv_pos_as_xyz
  1  'x, y, z'
loop_
 _atom_site_type_symbol
 _atom_site_label
 _atom_site_symmetry_multiplicity
 _atom_site_fract_x
 _atom_site_fract_y
 _atom_site_fract_z
 _atom_site_occupancy
  Mg  Mg0  1  0.998191  0.000822  0.506134  1
  Mg  Mg1  1  0.496147  0.000529  0.998791  1
  Mg  Mg2  1  0.998262  0.502642  0.998791  1
  Mg  Mg3  1  0.505312  0.507944  0.506134  1
  Ge  Ge4  1  0.999331  0.303135  0.302467  1
  Ge  Ge5  1  0.692056  0.000745  0.692801  1
  As  As6  1  0.314361  0.000157  0.314518  1
  P  P7  1  0.682804  0.682975  0.999370  1
  P  P8  1  0.316395  0.316566  0.999370  1
  P  P9  1  0.999856  0.676485  0.676340  1
  Ir  Ir10  1  0.000982  0.987613  0.988596  1
  Ir  Ir11  1  0.252023  0.503241  0.755264  1
  Ir  Ir12  1  0.753030  0.258311  0.504468  1
  Ir  Ir13  1  0.499573  0.258914  0.758488  1
  Ir  Ir14  1  0.499468  0.745529  0.244997  1
  Ir  Ir15  1  0.746051  0.502951  0.249002  1
  Ir  Ir16  1  0.246157  0.751439  0.504468  1
