# generated using pymatgen
data_TiSn(As2O7)2
_symmetry_space_group_name_H-M   'P 1'
_cell_length_a   5.39721676
_cell_length_b   5.44171032
_cell_length_c   9.68460948
_cell_angle_alpha   81.40662742
_cell_angle_beta   80.66924454
_cell_angle_gamma   98.75333093
_symmetry_Int_Tables_number   1
_chemical_formula_structural   TiSn(As2O7)2
_chemical_formula_sum   'Ti1 Sn1 As4 O14'
_cell_volume   272.94973731
_cell_formula_units_Z   1
loop_
 _symmetry_equiv_pos_site_id
 _symmetry_equiv_pos_as_xyz
  1  'x, y, z'
loop_
 _atom_site_type_symbol
 _atom_site_label
 _atom_site_symmetry_multiplicity
 _atom_site_fract_x
 _atom_site_fract_y
 _atom_site_fract_z
 _atom_site_occupancy
  Ti  Ti0  1  0.000000  0.000000  0.500000  1
  Sn  Sn1  1  0.000000  0.000000  0.000000  1
  As  As2  1  0.173503  0.439900  0.201729  1
  As  As3  1  0.441138  0.170875  0.695775  1
  As  As4  1  0.558862  0.829125  0.304225  1
  As  As5  1  0.826497  0.560100  0.798271  1
  O  O6  1  0.062085  0.703378  0.144308  1
  O  O7  1  0.754096  0.740855  0.923404  1
  O  O8  1  0.303018  0.961818  0.849917  1
  O  O9  1  0.023953  0.717056  0.644494  1
  O  O10  1  0.473298  0.531162  0.252457  1
  O  O11  1  0.714665  0.080305  0.625503  1
  O  O12  1  0.750297  0.772549  0.423538  1
  O  O13  1  0.249703  0.227451  0.576462  1
  O  O14  1  0.245904  0.259145  0.076596  1
  O  O15  1  0.696982  0.038182  0.150083  1
  O  O16  1  0.937915  0.296622  0.855692  1
  O  O17  1  0.976047  0.282944  0.355506  1
  O  O18  1  0.285335  0.919695  0.374497  1
  O  O19  1  0.526702  0.468838  0.747543  1
