# generated using pymatgen
data_Th14Tc3Pd2Pt
_symmetry_space_group_name_H-M   'P 1'
_cell_length_a   10.03987099
_cell_length_b   10.03987012
_cell_length_c   6.36120627
_cell_angle_alpha   90.08395480
_cell_angle_beta   89.91604321
_cell_angle_gamma   119.97271048
_symmetry_Int_Tables_number   1
_chemical_formula_structural   Th14Tc3Pd2Pt
_chemical_formula_sum   'Th14 Tc3 Pd2 Pt1'
_cell_volume   555.45013248
_cell_formula_units_Z   1
loop_
 _symmetry_equiv_pos_site_id
 _symmetry_equiv_pos_as_xyz
  1  'x, y, z'
loop_
 _atom_site_type_symbol
 _atom_site_label
 _atom_site_symmetry_multiplicity
 _atom_site_fract_x
 _atom_site_fract_y
 _atom_site_fract_z
 _atom_site_occupancy
  Th  Th0  1  0.667340  0.332660  0.602807  1
  Th  Th1  1  0.333293  0.666707  0.030316  1
  Th  Th2  1  0.877206  0.754391  0.756553  1
  Th  Th3  1  0.245609  0.122794  0.756553  1
  Th  Th4  1  0.876620  0.123380  0.754942  1
  Th  Th5  1  0.127287  0.256113  0.247121  1
  Th  Th6  1  0.743887  0.872713  0.247121  1
  Th  Th7  1  0.128269  0.871731  0.246471  1
  Th  Th8  1  0.457048  0.913252  0.542808  1
  Th  Th9  1  0.086748  0.542952  0.542808  1
  Th  Th10  1  0.456471  0.543529  0.542303  1
  Th  Th11  1  0.537430  0.073559  0.032881  1
  Th  Th12  1  0.926441  0.462570  0.032881  1
  Th  Th13  1  0.536285  0.463715  0.031230  1
  Tc  Tc14  1  0.182940  0.364766  0.798822  1
  Tc  Tc15  1  0.635234  0.817060  0.798822  1
  Tc  Tc16  1  0.181947  0.818053  0.799127  1
  Pd  Pd17  1  0.808708  0.617895  0.308123  1
  Pd  Pd18  1  0.382105  0.191292  0.308123  1
  Pt  Pt19  1  0.809134  0.190866  0.308284  1
