# generated using pymatgen
data_Y3Sc4Sn23Ir6
_symmetry_space_group_name_H-M   'P 1'
_cell_length_a   9.80398482
_cell_length_b   9.80431228
_cell_length_c   9.99864814
_cell_angle_alpha   90.00000136
_cell_angle_beta   90.04701374
_cell_angle_gamma   120.00110761
_symmetry_Int_Tables_number   1
_chemical_formula_structural   Y3Sc4Sn23Ir6
_chemical_formula_sum   'Y3 Sc4 Sn23 Ir6'
_cell_volume   832.31292772
_cell_formula_units_Z   1
loop_
 _symmetry_equiv_pos_site_id
 _symmetry_equiv_pos_as_xyz
  1  'x, y, z'
loop_
 _atom_site_type_symbol
 _atom_site_label
 _atom_site_symmetry_multiplicity
 _atom_site_fract_x
 _atom_site_fract_y
 _atom_site_fract_z
 _atom_site_occupancy
  Y  Y0  1  0.997656  0.998828  0.002517  1
  Y  Y1  1  0.517927  0.038054  0.689105  1
  Y  Y2  1  0.517927  0.479873  0.689105  1
  Sc  Sc3  1  0.031871  0.515936  0.308048  1
  Sc  Sc4  1  0.485217  0.969119  0.310381  1
  Sc  Sc5  1  0.485217  0.516098  0.310381  1
  Sc  Sc6  1  0.966280  0.483140  0.690428  1
  Sn  Sn7  1  0.998517  0.999259  0.498102  1
  Sn  Sn8  1  0.122655  0.878288  0.284896  1
  Sn  Sn9  1  0.755569  0.877784  0.285124  1
  Sn  Sn10  1  0.122655  0.244368  0.284896  1
  Sn  Sn11  1  0.881125  0.121850  0.714457  1
  Sn  Sn12  1  0.234647  0.117324  0.715366  1
  Sn  Sn13  1  0.881125  0.759275  0.714457  1
  Sn  Sn14  1  0.353250  0.999940  0.999764  1
  Sn  Sn15  1  0.645885  0.646479  0.001123  1
  Sn  Sn16  1  0.000201  0.353546  0.000833  1
  Sn  Sn17  1  0.353250  0.353310  0.999764  1
  Sn  Sn18  1  0.000201  0.646655  0.000833  1
  Sn  Sn19  1  0.645885  0.999407  0.001123  1
  Sn  Sn20  1  0.781040  0.555126  0.458134  1
  Sn  Sn21  1  0.781040  0.225914  0.458134  1
  Sn  Sn22  1  0.443683  0.221841  0.455803  1
  Sn  Sn23  1  0.217080  0.444767  0.538426  1
  Sn  Sn24  1  0.217080  0.772312  0.538426  1
  Sn  Sn25  1  0.553111  0.776556  0.536447  1
  Sn  Sn26  1  0.666285  0.333142  0.171080  1
  Sn  Sn27  1  0.333177  0.666589  0.833206  1
  Sn  Sn28  1  0.675219  0.337609  0.873657  1
  Sn  Sn29  1  0.336319  0.668160  0.136040  1
  Ir  Ir30  1  0.168522  0.827181  0.799358  1
  Ir  Ir31  1  0.661844  0.830921  0.799819  1
  Ir  Ir32  1  0.168522  0.341340  0.799358  1
  Ir  Ir33  1  0.830482  0.170082  0.201178  1
  Ir  Ir34  1  0.339053  0.169527  0.199054  1
  Ir  Ir35  1  0.830482  0.660401  0.201178  1
