# generated using pymatgen
data_Tb8Sc12Ga6Si9Ge
_symmetry_space_group_name_H-M   'P 1'
_cell_length_a   7.18919550
_cell_length_b   7.43925376
_cell_length_c   14.26064438
_cell_angle_alpha   89.98147158
_cell_angle_beta   89.85291600
_cell_angle_gamma   90.12525527
_symmetry_Int_Tables_number   1
_chemical_formula_structural   Tb8Sc12Ga6Si9Ge
_chemical_formula_sum   'Tb8 Sc12 Ga6 Si9 Ge1'
_cell_volume   762.68696620
_cell_formula_units_Z   1
loop_
 _symmetry_equiv_pos_site_id
 _symmetry_equiv_pos_as_xyz
  1  'x, y, z'
loop_
 _atom_site_type_symbol
 _atom_site_label
 _atom_site_symmetry_multiplicity
 _atom_site_fract_x
 _atom_site_fract_y
 _atom_site_fract_z
 _atom_site_occupancy
  Tb  Tb0  1  0.012817  0.173298  0.097997  1
  Tb  Tb1  1  0.987401  0.825410  0.902423  1
  Tb  Tb2  1  0.487730  0.677540  0.901550  1
  Tb  Tb3  1  0.989438  0.824406  0.599872  1
  Tb  Tb4  1  0.512294  0.322309  0.098636  1
  Tb  Tb5  1  0.010729  0.174322  0.399670  1
  Tb  Tb6  1  0.510826  0.325031  0.399461  1
  Tb  Tb7  1  0.489260  0.674853  0.600392  1
  Sc  Sc8  1  0.163694  0.502502  0.750077  1
  Sc  Sc9  1  0.836810  0.499468  0.249931  1
  Sc  Sc10  1  0.336000  0.001042  0.249323  1
  Sc  Sc11  1  0.661478  0.998062  0.750679  1
  Sc  Sc12  1  0.332184  0.173630  0.626293  1
  Sc  Sc13  1  0.669102  0.826493  0.373270  1
  Sc  Sc14  1  0.169756  0.673899  0.372948  1
  Sc  Sc15  1  0.668208  0.825186  0.125610  1
  Sc  Sc16  1  0.828956  0.327618  0.626206  1
  Sc  Sc17  1  0.333067  0.174980  0.874793  1
  Sc  Sc18  1  0.825004  0.325597  0.875912  1
  Sc  Sc19  1  0.173564  0.675892  0.124932  1
  Ga  Ga20  1  0.159797  0.462171  0.539709  1
  Ga  Ga21  1  0.840222  0.537811  0.460211  1
  Ga  Ga22  1  0.339833  0.961754  0.460519  1
  Ga  Ga23  1  0.840814  0.538892  0.039702  1
  Ga  Ga24  1  0.660334  0.038250  0.539471  1
  Ga  Ga25  1  0.159187  0.461101  0.960396  1
  Si  Si26  1  0.967467  0.883515  0.248610  1
  Si  Si27  1  0.467262  0.615537  0.249019  1
  Si  Si28  1  0.532772  0.384109  0.750995  1
  Si  Si29  1  0.288453  0.871975  0.751433  1
  Si  Si30  1  0.714866  0.124805  0.248560  1
  Si  Si31  1  0.213780  0.374301  0.248685  1
  Si  Si32  1  0.786745  0.625572  0.751300  1
  Si  Si33  1  0.653911  0.035922  0.961986  1
  Si  Si34  1  0.346363  0.964044  0.038045  1
  Ge  Ge35  1  0.029875  0.118703  0.751384  1
