# generated using pymatgen
data_Pr4Er4Re(B8Ru)3
_symmetry_space_group_name_H-M   'P 1'
_cell_length_a   3.72184200
_cell_length_b   9.22797791
_cell_length_c   11.67851626
_cell_angle_alpha   90.11838885
_cell_angle_beta   90.00000000
_cell_angle_gamma   90.00000000
_symmetry_Int_Tables_number   1
_chemical_formula_structural   Pr4Er4Re(B8Ru)3
_chemical_formula_sum   'Pr4 Er4 Re1 B24 Ru3'
_cell_volume   401.09866918
_cell_formula_units_Z   1
loop_
 _symmetry_equiv_pos_site_id
 _symmetry_equiv_pos_as_xyz
  1  'x, y, z'
loop_
 _atom_site_type_symbol
 _atom_site_label
 _atom_site_symmetry_multiplicity
 _atom_site_fract_x
 _atom_site_fract_y
 _atom_site_fract_z
 _atom_site_occupancy
  Pr  Pr0  1  0.000000  0.323269  0.415552  1
  Pr  Pr1  1  0.000000  0.678922  0.586500  1
  Pr  Pr2  1  0.000000  0.822673  0.083794  1
  Pr  Pr3  1  0.000000  0.176741  0.913923  1
  Er  Er4  1  0.000000  0.943266  0.370135  1
  Er  Er5  1  0.000000  0.055850  0.628788  1
  Er  Er6  1  0.000000  0.442831  0.129300  1
  Er  Er7  1  0.000000  0.556196  0.871593  1
  Re  Re8  1  0.000000  0.860387  0.818874  1
  B  B9  1  0.500000  0.557000  0.429763  1
  B  B10  1  0.500000  0.443077  0.570465  1
  B  B11  1  0.500000  0.056638  0.070712  1
  B  B12  1  0.500000  0.944387  0.929783  1
  B  B13  1  0.500000  0.750187  0.416102  1
  B  B14  1  0.500000  0.249892  0.583736  1
  B  B15  1  0.500000  0.250266  0.084198  1
  B  B16  1  0.500000  0.749598  0.915894  1
  B  B17  1  0.500000  0.789685  0.266099  1
  B  B18  1  0.500000  0.209627  0.733093  1
  B  B19  1  0.500000  0.290169  0.233926  1
  B  B20  1  0.500000  0.709002  0.766203  1
  B  B21  1  0.500000  0.629274  0.185307  1
  B  B22  1  0.500000  0.370261  0.814188  1
  B  B23  1  0.500000  0.130003  0.314861  1
  B  B24  1  0.500000  0.870319  0.685746  1
  B  B25  1  0.500000  0.985850  0.213903  1
  B  B26  1  0.500000  0.015651  0.786008  1
  B  B27  1  0.500000  0.485607  0.286508  1
  B  B28  1  0.500000  0.514518  0.714002  1
  B  B29  1  0.500000  0.599044  0.027770  1
  B  B30  1  0.500000  0.399468  0.973232  1
  B  B31  1  0.500000  0.100202  0.472206  1
  B  B32  1  0.500000  0.900202  0.526415  1
  Ru  Ru33  1  0.000000  0.640001  0.318596  1
  Ru  Ru34  1  0.000000  0.360160  0.681096  1
  Ru  Ru35  1  0.000000  0.139778  0.181728  1
