# generated using pymatgen
data_Ga(SiPd3)2
_symmetry_space_group_name_H-M   'P 1'
_cell_length_a   3.89616900
_cell_length_b   6.05688528
_cell_length_c   22.58541291
_cell_angle_alpha   90.06556376
_cell_angle_beta   90.00000000
_cell_angle_gamma   90.00000000
_symmetry_Int_Tables_number   1
_chemical_formula_structural   Ga(SiPd3)2
_chemical_formula_sum   'Ga4 Si8 Pd24'
_cell_volume   532.98487510
_cell_formula_units_Z   4
loop_
 _symmetry_equiv_pos_site_id
 _symmetry_equiv_pos_as_xyz
  1  'x, y, z'
loop_
 _atom_site_type_symbol
 _atom_site_label
 _atom_site_symmetry_multiplicity
 _atom_site_fract_x
 _atom_site_fract_y
 _atom_site_fract_z
 _atom_site_occupancy
  Ga  Ga0  1  0.750000  0.259165  0.292399  1
  Ga  Ga1  1  0.750000  0.257032  0.626381  1
  Ga  Ga2  1  0.750000  0.257752  0.958260  1
  Ga  Ga3  1  0.750000  0.759581  0.208276  1
  Si  Si4  1  0.750000  0.757504  0.541456  1
  Si  Si5  1  0.750000  0.756607  0.873334  1
  Si  Si6  1  0.250000  0.735875  0.037806  1
  Si  Si7  1  0.250000  0.734225  0.373055  1
  Si  Si8  1  0.250000  0.736001  0.705616  1
  Si  Si9  1  0.250000  0.233092  0.127582  1
  Si  Si10  1  0.250000  0.245539  0.461736  1
  Si  Si11  1  0.250000  0.244707  0.793627  1
  Pd  Pd12  1  0.750000  0.473416  0.056654  1
  Pd  Pd13  1  0.750000  0.469910  0.393414  1
  Pd  Pd14  1  0.750000  0.472307  0.725024  1
  Pd  Pd15  1  0.750000  0.967510  0.106620  1
  Pd  Pd16  1  0.750000  0.974556  0.447469  1
  Pd  Pd17  1  0.750000  0.971575  0.778283  1
  Pd  Pd18  1  0.250000  0.542347  0.275042  1
  Pd  Pd19  1  0.250000  0.542636  0.607633  1
  Pd  Pd20  1  0.250000  0.542355  0.939398  1
  Pd  Pd21  1  0.250000  0.042512  0.226022  1
  Pd  Pd22  1  0.250000  0.028968  0.556011  1
  Pd  Pd23  1  0.250000  0.029302  0.887577  1
  Pd  Pd24  1  0.750000  0.346283  0.183860  1
  Pd  Pd25  1  0.750000  0.360970  0.520444  1
  Pd  Pd26  1  0.750000  0.359347  0.851940  1
  Pd  Pd27  1  0.750000  0.847792  0.317085  1
  Pd  Pd28  1  0.750000  0.845042  0.645715  1
  Pd  Pd29  1  0.750000  0.844978  0.977259  1
  Pd  Pd30  1  0.250000  0.641715  0.140361  1
  Pd  Pd31  1  0.250000  0.650378  0.477173  1
  Pd  Pd32  1  0.250000  0.649682  0.809348  1
  Pd  Pd33  1  0.250000  0.139877  0.024627  1
  Pd  Pd34  1  0.250000  0.141356  0.360802  1
  Pd  Pd35  1  0.250000  0.138107  0.692711  1
