# generated using pymatgen
data_DyHo2Ag3SnGe2
_symmetry_space_group_name_H-M   'P 1'
_cell_length_a   7.26027108
_cell_length_b   7.26027248
_cell_length_c   4.29255200
_cell_angle_alpha   90.00000000
_cell_angle_beta   90.00000000
_cell_angle_gamma   120.05530212
_symmetry_Int_Tables_number   1
_chemical_formula_structural   DyHo2Ag3SnGe2
_chemical_formula_sum   'Dy1 Ho2 Ag3 Sn1 Ge2'
_cell_volume   195.84372840
_cell_formula_units_Z   1
loop_
 _symmetry_equiv_pos_site_id
 _symmetry_equiv_pos_as_xyz
  1  'x, y, z'
loop_
 _atom_site_type_symbol
 _atom_site_label
 _atom_site_symmetry_multiplicity
 _atom_site_fract_x
 _atom_site_fract_y
 _atom_site_fract_z
 _atom_site_occupancy
  Dy  Dy0  1  0.430478  0.430478  0.000000  1
  Ho  Ho1  1  0.000190  0.569661  0.000000  1
  Ho  Ho2  1  0.569661  0.000190  0.000000  1
  Ag  Ag3  1  0.740245  0.740245  0.500000  1
  Ag  Ag4  1  0.259940  0.999947  0.500000  1
  Ag  Ag5  1  0.999947  0.259940  0.500000  1
  Sn  Sn6  1  0.999293  0.999293  0.000000  1
  Ge  Ge7  1  0.667143  0.333105  0.500000  1
  Ge  Ge8  1  0.333105  0.667143  0.500000  1
