# generated using pymatgen
data_EuB2As2O7
_symmetry_space_group_name_H-M   'P 1'
_cell_length_a   7.78121872
_cell_length_b   7.78121870
_cell_length_c   7.78121865
_cell_angle_alpha   36.57620463
_cell_angle_beta   36.57620524
_cell_angle_gamma   36.57620079
_symmetry_Int_Tables_number   1
_chemical_formula_structural   EuB2As2O7
_chemical_formula_sum   'Eu1 B2 As2 O7'
_cell_volume   149.78341898
_cell_formula_units_Z   1
loop_
 _symmetry_equiv_pos_site_id
 _symmetry_equiv_pos_as_xyz
  1  'x, y, z'
loop_
 _atom_site_type_symbol
 _atom_site_label
 _atom_site_symmetry_multiplicity
 _atom_site_fract_x
 _atom_site_fract_y
 _atom_site_fract_z
 _atom_site_occupancy
  Eu  Eu0  1  0.500000  0.500000  0.500000  1
  B  B1  1  0.066018  0.066018  0.066018  1
  B  B2  1  0.933982  0.933982  0.933982  1
  As  As3  1  0.285047  0.285047  0.285047  1
  As  As4  1  0.714954  0.714954  0.714954  1
  O  O5  1  0.000000  0.000000  0.000000  1
  O  O6  1  0.406727  0.852054  0.020094  1
  O  O7  1  0.593273  0.979906  0.147947  1
  O  O8  1  0.852053  0.020094  0.406727  1
  O  O9  1  0.979906  0.147947  0.593273  1
  O  O10  1  0.020094  0.406727  0.852053  1
  O  O11  1  0.147946  0.593273  0.979906  1
