# generated using pymatgen
data_Al4Fe8Si3Mo
_symmetry_space_group_name_H-M   'P 1'
_cell_length_a   5.69042400
_cell_length_b   5.69042400
_cell_length_c   5.66150600
_cell_angle_alpha   90.00000000
_cell_angle_beta   90.00000000
_cell_angle_gamma   90.00000000
_symmetry_Int_Tables_number   1
_chemical_formula_structural   Al4Fe8Si3Mo
_chemical_formula_sum   'Al4 Fe8 Si3 Mo1'
_cell_volume   183.32480287
_cell_formula_units_Z   1
loop_
 _symmetry_equiv_pos_site_id
 _symmetry_equiv_pos_as_xyz
  1  'x, y, z'
loop_
 _atom_site_type_symbol
 _atom_site_label
 _atom_site_symmetry_multiplicity
 _atom_site_fract_x
 _atom_site_fract_y
 _atom_site_fract_z
 _atom_site_occupancy
  Al  Al0  1  0.000000  0.000000  0.000000  1
  Al  Al1  1  0.500000  0.000000  0.000000  1
  Al  Al2  1  0.000000  0.500000  0.000000  1
  Al  Al3  1  0.000000  0.000000  0.500000  1
  Fe  Fe4  1  0.253281  0.253281  0.262155  1
  Fe  Fe5  1  0.746719  0.253281  0.262155  1
  Fe  Fe6  1  0.253281  0.746719  0.262155  1
  Fe  Fe7  1  0.746719  0.746719  0.262155  1
  Fe  Fe8  1  0.253281  0.253281  0.737845  1
  Fe  Fe9  1  0.746719  0.253281  0.737845  1
  Fe  Fe10  1  0.253281  0.746719  0.737845  1
  Fe  Fe11  1  0.746719  0.746719  0.737845  1
  Si  Si12  1  0.500000  0.000000  0.500000  1
  Si  Si13  1  0.000000  0.500000  0.500000  1
  Si  Si14  1  0.500000  0.500000  0.500000  1
  Mo  Mo15  1  0.500000  0.500000  0.000000  1
