# generated using pymatgen
data_K7Rb(HfTe3)4
_symmetry_space_group_name_H-M   'P 1'
_cell_length_a   14.41552554
_cell_length_b   6.99448307
_cell_length_c   9.39828425
_cell_angle_alpha   73.12765336
_cell_angle_beta   89.65018800
_cell_angle_gamma   89.02090514
_symmetry_Int_Tables_number   1
_chemical_formula_structural   K7Rb(HfTe3)4
_chemical_formula_sum   'K7 Rb1 Hf4 Te12'
_cell_volume   906.69645165
_cell_formula_units_Z   1
loop_
 _symmetry_equiv_pos_site_id
 _symmetry_equiv_pos_as_xyz
  1  'x, y, z'
loop_
 _atom_site_type_symbol
 _atom_site_label
 _atom_site_symmetry_multiplicity
 _atom_site_fract_x
 _atom_site_fract_y
 _atom_site_fract_z
 _atom_site_occupancy
  K  K0  1  0.467293  0.838031  0.350088  1
  K  K1  1  0.041047  0.332581  0.340850  1
  K  K2  1  0.532992  0.159526  0.653638  1
  K  K3  1  0.859899  0.063929  0.898702  1
  K  K4  1  0.365977  0.435646  0.099178  1
  K  K5  1  0.137149  0.935225  0.097308  1
  K  K6  1  0.633215  0.564282  0.903413  1
  Rb  Rb7  1  0.955774  0.666746  0.663140  1
  Hf  Hf8  1  0.751127  0.690445  0.294637  1
  Hf  Hf9  1  0.247662  0.809584  0.705124  1
  Hf  Hf10  1  0.250013  0.310030  0.705241  1
  Hf  Hf11  1  0.752532  0.190954  0.292825  1
  Te  Te12  1  0.913949  0.921829  0.268498  1
  Te  Te13  1  0.412409  0.573773  0.722478  1
  Te  Te14  1  0.086340  0.083428  0.725142  1
  Te  Te15  1  0.588228  0.426306  0.279632  1
  Te  Te16  1  0.818056  0.323731  0.527068  1
  Te  Te17  1  0.311220  0.172194  0.466936  1
  Te  Te18  1  0.184205  0.674636  0.469983  1
  Te  Te19  1  0.690972  0.827204  0.534097  1
  Te  Te20  1  0.846501  0.499117  0.078595  1
  Te  Te21  1  0.347479  0.997976  0.915985  1
  Te  Te22  1  0.154758  0.501718  0.922179  1
  Te  Te23  1  0.651200  0.001107  0.085264  1
