# generated using pymatgen
data_LaYb11ZnRu3
_symmetry_space_group_name_H-M   'P 1'
_cell_length_a   6.37619490
_cell_length_b   7.66778816
_cell_length_c   9.49870500
_cell_angle_alpha   90.00000000
_cell_angle_beta   90.00000000
_cell_angle_gamma   90.17018262
_symmetry_Int_Tables_number   1
_chemical_formula_structural   LaYb11ZnRu3
_chemical_formula_sum   'La1 Yb11 Zn1 Ru3'
_cell_volume   464.40209873
_cell_formula_units_Z   1
loop_
 _symmetry_equiv_pos_site_id
 _symmetry_equiv_pos_as_xyz
  1  'x, y, z'
loop_
 _atom_site_type_symbol
 _atom_site_label
 _atom_site_symmetry_multiplicity
 _atom_site_fract_x
 _atom_site_fract_y
 _atom_site_fract_z
 _atom_site_occupancy
  La  La0  1  0.350260  0.946872  0.750000  1
  Yb  Yb1  1  0.352777  0.653047  0.062125  1
  Yb  Yb2  1  0.159138  0.187054  0.440359  1
  Yb  Yb3  1  0.659684  0.331411  0.569866  1
  Yb  Yb4  1  0.837267  0.832485  0.926345  1
  Yb  Yb5  1  0.659684  0.331411  0.930134  1
  Yb  Yb6  1  0.837267  0.832485  0.573655  1
  Yb  Yb7  1  0.352777  0.653047  0.437875  1
  Yb  Yb8  1  0.159138  0.187054  0.059641  1
  Yb  Yb9  1  0.857934  0.523427  0.250000  1
  Yb  Yb10  1  0.612276  0.047998  0.250000  1
  Yb  Yb11  1  0.134623  0.461515  0.750000  1
  Zn  Zn12  1  0.055556  0.880468  0.250000  1
  Ru  Ru13  1  0.456433  0.375802  0.250000  1
  Ru  Ru14  1  0.996481  0.112558  0.750000  1
  Ru  Ru15  1  0.518704  0.643366  0.750000  1
