# generated using pymatgen
data_Lu2Fe7Si4Tc
_symmetry_space_group_name_H-M   'P 1'
_cell_length_a   6.68281943
_cell_length_b   7.36990712
_cell_length_c   3.84888400
_cell_angle_alpha   90.00000000
_cell_angle_beta   90.00000000
_cell_angle_gamma   90.17989855
_symmetry_Int_Tables_number   1
_chemical_formula_structural   Lu2Fe7Si4Tc
_chemical_formula_sum   'Lu2 Fe7 Si4 Tc1'
_cell_volume   189.56337082
_cell_formula_units_Z   1
loop_
 _symmetry_equiv_pos_site_id
 _symmetry_equiv_pos_as_xyz
  1  'x, y, z'
loop_
 _atom_site_type_symbol
 _atom_site_label
 _atom_site_symmetry_multiplicity
 _atom_site_fract_x
 _atom_site_fract_y
 _atom_site_fract_z
 _atom_site_occupancy
  Lu  Lu0  1  0.498383  0.496480  0.500000  1
  Lu  Lu1  1  0.000855  0.999505  0.000000  1
  Fe  Fe2  1  0.341168  0.106417  0.500000  1
  Fe  Fe3  1  0.146286  0.602552  0.000000  1
  Fe  Fe4  1  0.853789  0.394091  0.000000  1
  Fe  Fe5  1  0.927915  0.653749  0.500000  1
  Fe  Fe6  1  0.078487  0.350144  0.500000  1
  Fe  Fe7  1  0.574323  0.158966  0.000000  1
  Fe  Fe8  1  0.424751  0.843421  0.000000  1
  Si  Si9  1  0.771465  0.206293  0.500000  1
  Si  Si10  1  0.235635  0.799003  0.500000  1
  Si  Si11  1  0.263454  0.300373  0.000000  1
  Si  Si12  1  0.739574  0.690211  0.000000  1
  Tc  Tc13  1  0.643917  0.898795  0.500000  1
