# generated using pymatgen
data_RbAs3Pd5
_symmetry_space_group_name_H-M   'P 1'
_cell_length_a   7.02684934
_cell_length_b   7.02684854
_cell_length_c   13.32621800
_cell_angle_alpha   90.00000000
_cell_angle_beta   90.00000000
_cell_angle_gamma   147.06904071
_symmetry_Int_Tables_number   1
_chemical_formula_structural   RbAs3Pd5
_chemical_formula_sum   'Rb2 As6 Pd10'
_cell_volume   357.70911532
_cell_formula_units_Z   2
loop_
 _symmetry_equiv_pos_site_id
 _symmetry_equiv_pos_as_xyz
  1  'x, y, z'
loop_
 _atom_site_type_symbol
 _atom_site_label
 _atom_site_symmetry_multiplicity
 _atom_site_fract_x
 _atom_site_fract_y
 _atom_site_fract_z
 _atom_site_occupancy
  Rb  Rb0  1  0.153201  0.846799  0.250000  1
  Rb  Rb1  1  0.846799  0.153201  0.750000  1
  As  As2  1  0.876850  0.123150  0.250000  1
  As  As3  1  0.123150  0.876850  0.750000  1
  As  As4  1  0.381910  0.618090  0.962884  1
  As  As5  1  0.618090  0.381910  0.037116  1
  As  As6  1  0.618090  0.381910  0.462884  1
  As  As7  1  0.381910  0.618090  0.537116  1
  Pd  Pd8  1  0.435056  0.564944  0.355679  1
  Pd  Pd9  1  0.435056  0.564944  0.144321  1
  Pd  Pd10  1  0.799709  0.200291  0.062219  1
  Pd  Pd11  1  0.200291  0.799709  0.937781  1
  Pd  Pd12  1  0.200291  0.799709  0.562219  1
  Pd  Pd13  1  0.799709  0.200291  0.437781  1
  Pd  Pd14  1  0.000000  0.000000  0.500000  1
  Pd  Pd15  1  0.000000  0.000000  0.000000  1
  Pd  Pd16  1  0.564944  0.435056  0.855679  1
  Pd  Pd17  1  0.564944  0.435056  0.644321  1
