# generated using pymatgen
data_TmLu2Th(Al3Rh)6
_symmetry_space_group_name_H-M   'P 1'
_cell_length_a   7.56105500
_cell_length_b   7.57825598
_cell_length_c   9.44913400
_cell_angle_alpha   90.00000000
_cell_angle_beta   90.00000000
_cell_angle_gamma   119.36035142
_symmetry_Int_Tables_number   1
_chemical_formula_structural   TmLu2Th(Al3Rh)6
_chemical_formula_sum   'Tm1 Lu2 Th1 Al18 Rh6'
_cell_volume   471.88658523
_cell_formula_units_Z   1
loop_
 _symmetry_equiv_pos_site_id
 _symmetry_equiv_pos_as_xyz
  1  'x, y, z'
loop_
 _atom_site_type_symbol
 _atom_site_label
 _atom_site_symmetry_multiplicity
 _atom_site_fract_x
 _atom_site_fract_y
 _atom_site_fract_z
 _atom_site_occupancy
  Tm  Tm0  1  0.672645  0.994390  0.250000  1
  Lu  Lu1  1  0.004147  0.327367  0.750000  1
  Lu  Lu2  1  0.327357  0.005326  0.750000  1
  Th  Th3  1  0.994324  0.671458  0.250000  1
  Al  Al4  1  0.131019  0.132818  0.250000  1
  Al  Al5  1  0.872802  0.875400  0.750000  1
  Al  Al6  1  0.000989  0.330870  0.072304  1
  Al  Al7  1  0.000016  0.664003  0.916759  1
  Al  Al8  1  0.000016  0.664003  0.583241  1
  Al  Al9  1  0.340671  0.005055  0.427594  1
  Al  Al10  1  0.000989  0.330870  0.427696  1
  Al  Al11  1  0.664266  0.001337  0.577075  1
  Al  Al12  1  0.664266  0.001337  0.922925  1
  Al  Al13  1  0.340671  0.005055  0.072406  1
  Al  Al14  1  0.331615  0.331774  0.556110  1
  Al  Al15  1  0.663222  0.666845  0.456465  1
  Al  Al16  1  0.663222  0.666845  0.043535  1
  Al  Al17  1  0.331615  0.331774  0.943890  1
  Al  Al18  1  0.344892  0.549292  0.250000  1
  Al  Al19  1  0.657939  0.446945  0.750000  1
  Al  Al20  1  0.545105  0.335980  0.250000  1
  Al  Al21  1  0.447891  0.661032  0.750000  1
  Rh  Rh22  1  0.673049  0.328761  0.999827  1
  Rh  Rh23  1  0.326635  0.671886  0.999915  1
  Rh  Rh24  1  0.326635  0.671886  0.500085  1
  Rh  Rh25  1  0.673049  0.328761  0.500173  1
  Rh  Rh26  1  0.000479  0.999467  0.999813  1
  Rh  Rh27  1  0.000479  0.999467  0.500187  1
