# generated using pymatgen
data_Th14(TcAu)3
_symmetry_space_group_name_H-M   'P 1'
_cell_length_a   10.11872000
_cell_length_b   10.11872000
_cell_length_c   6.41513400
_cell_angle_alpha   90.00000000
_cell_angle_beta   90.00000000
_cell_angle_gamma   120.00000653
_symmetry_Int_Tables_number   1
_chemical_formula_structural   Th14(TcAu)3
_chemical_formula_sum   'Th14 Tc3 Au3'
_cell_volume   568.83654856
_cell_formula_units_Z   1
loop_
 _symmetry_equiv_pos_site_id
 _symmetry_equiv_pos_as_xyz
  1  'x, y, z'
loop_
 _atom_site_type_symbol
 _atom_site_label
 _atom_site_symmetry_multiplicity
 _atom_site_fract_x
 _atom_site_fract_y
 _atom_site_fract_z
 _atom_site_occupancy
  Th  Th0  1  0.666667  0.333333  0.607055  1
  Th  Th1  1  0.333333  0.666667  0.028112  1
  Th  Th2  1  0.878124  0.756247  0.759734  1
  Th  Th3  1  0.243753  0.121876  0.759734  1
  Th  Th4  1  0.878124  0.121876  0.759734  1
  Th  Th5  1  0.131483  0.262967  0.245574  1
  Th  Th6  1  0.737033  0.868517  0.245574  1
  Th  Th7  1  0.131483  0.868517  0.245574  1
  Th  Th8  1  0.455201  0.910403  0.540225  1
  Th  Th9  1  0.089597  0.544799  0.540225  1
  Th  Th10  1  0.455201  0.544799  0.540225  1
  Th  Th11  1  0.535063  0.070124  0.021433  1
  Th  Th12  1  0.929876  0.464937  0.021433  1
  Th  Th13  1  0.535063  0.464937  0.021433  1
  Tc  Tc14  1  0.180789  0.361578  0.803091  1
  Tc  Tc15  1  0.638422  0.819211  0.803091  1
  Tc  Tc16  1  0.180789  0.819211  0.803091  1
  Au  Au17  1  0.807064  0.614129  0.314252  1
  Au  Au18  1  0.385871  0.192936  0.314252  1
  Au  Au19  1  0.807064  0.192936  0.314252  1
