# generated using pymatgen
data_KPrBeF6
_symmetry_space_group_name_H-M   'P 1'
_cell_length_a   6.09624200
_cell_length_b   6.57615602
_cell_length_c   7.36438762
_cell_angle_alpha   67.37565471
_cell_angle_beta   90.00000000
_cell_angle_gamma   90.00000000
_symmetry_Int_Tables_number   1
_chemical_formula_structural   KPrBeF6
_chemical_formula_sum   'K2 Pr2 Be2 F12'
_cell_volume   272.51768309
_cell_formula_units_Z   2
loop_
 _symmetry_equiv_pos_site_id
 _symmetry_equiv_pos_as_xyz
  1  'x, y, z'
loop_
 _atom_site_type_symbol
 _atom_site_label
 _atom_site_symmetry_multiplicity
 _atom_site_fract_x
 _atom_site_fract_y
 _atom_site_fract_z
 _atom_site_occupancy
  K  K0  1  0.250000  0.069875  0.798439  1
  K  K1  1  0.750000  0.930125  0.201561  1
  Pr  Pr2  1  0.250000  0.385857  0.184831  1
  Pr  Pr3  1  0.750000  0.614143  0.815169  1
  Be  Be4  1  0.250000  0.769173  0.463608  1
  Be  Be5  1  0.750000  0.230827  0.536392  1
  F  F6  1  0.457498  0.770601  0.588532  1
  F  F7  1  0.542502  0.229399  0.411468  1
  F  F8  1  0.957498  0.229399  0.411468  1
  F  F9  1  0.042502  0.770601  0.588532  1
  F  F10  1  0.250000  0.561233  0.413584  1
  F  F11  1  0.750000  0.438767  0.586416  1
  F  F12  1  0.498508  0.686423  0.033555  1
  F  F13  1  0.501492  0.313577  0.966445  1
  F  F14  1  0.998508  0.313577  0.966445  1
  F  F15  1  0.001492  0.686423  0.033555  1
  F  F16  1  0.250000  0.982194  0.268433  1
  F  F17  1  0.750000  0.017806  0.731567  1
