# generated using pymatgen
data_Li4YbUS6
_symmetry_space_group_name_H-M   'P 1'
_cell_length_a   6.57703371
_cell_length_b   6.57703445
_cell_length_c   6.37154600
_cell_angle_alpha   100.05122128
_cell_angle_beta   100.05123126
_cell_angle_gamma   120.00915765
_symmetry_Int_Tables_number   1
_chemical_formula_structural   Li4YbUS6
_chemical_formula_sum   'Li4 Yb1 U1 S6'
_cell_volume   223.65252808
_cell_formula_units_Z   1
loop_
 _symmetry_equiv_pos_site_id
 _symmetry_equiv_pos_as_xyz
  1  'x, y, z'
loop_
 _atom_site_type_symbol
 _atom_site_label
 _atom_site_symmetry_multiplicity
 _atom_site_fract_x
 _atom_site_fract_y
 _atom_site_fract_z
 _atom_site_occupancy
  Li  Li0  1  0.498955  0.501046  0.000000  1
  Li  Li1  1  0.008085  0.991914  0.499998  1
  Li  Li2  1  0.666187  0.333813  0.500001  1
  Li  Li3  1  0.324658  0.675342  0.500001  1
  Yb  Yb4  1  0.834932  0.165068  0.000000  1
  U  U5  1  0.166938  0.833062  0.000000  1
  S  S6  1  0.926594  0.602281  0.243205  1
  S  S7  1  0.562627  0.909378  0.253862  1
  S  S8  1  0.257946  0.235264  0.253772  1
  S  S9  1  0.764738  0.742057  0.746231  1
  S  S10  1  0.090624  0.437376  0.746141  1
  S  S11  1  0.397722  0.073409  0.756796  1
