# generated using pymatgen
data_PuPa5(Ni3Sb4)2
_symmetry_space_group_name_H-M   'P 1'
_cell_length_a   8.17338841
_cell_length_b   8.17338831
_cell_length_c   8.17338900
_cell_angle_alpha   109.50248325
_cell_angle_beta   109.40869609
_cell_angle_gamma   109.50249869
_symmetry_Int_Tables_number   1
_chemical_formula_structural   PuPa5(Ni3Sb4)2
_chemical_formula_sum   'Pu1 Pa5 Ni6 Sb8'
_cell_volume   420.32398295
_cell_formula_units_Z   1
loop_
 _symmetry_equiv_pos_site_id
 _symmetry_equiv_pos_as_xyz
  1  'x, y, z'
loop_
 _atom_site_type_symbol
 _atom_site_label
 _atom_site_symmetry_multiplicity
 _atom_site_fract_x
 _atom_site_fract_y
 _atom_site_fract_z
 _atom_site_occupancy
  Pu  Pu0  1  0.875000  0.250000  0.125000  1
  Pa  Pa1  1  0.625000  0.750000  0.375000  1
  Pa  Pa2  1  0.249228  0.124182  0.876074  1
  Pa  Pa3  1  0.751891  0.375818  0.625046  1
  Pa  Pa4  1  0.123926  0.873154  0.248109  1
  Pa  Pa5  1  0.374954  0.626846  0.750772  1
  Ni  Ni6  1  0.375000  0.250000  0.625000  1
  Ni  Ni7  1  0.125000  0.750000  0.875000  1
  Ni  Ni8  1  0.263191  0.635079  0.382276  1
  Ni  Ni9  1  0.747197  0.864921  0.128112  1
  Ni  Ni10  1  0.617724  0.380914  0.252803  1
  Ni  Ni11  1  0.871888  0.119086  0.736809  1
  Sb  Sb12  1  0.665740  0.498026  0.998408  1
  Sb  Sb13  1  0.500383  0.001974  0.667714  1
  Sb  Sb14  1  0.999244  0.663642  0.497439  1
  Sb  Sb15  1  0.833797  0.836358  0.835602  1
  Sb  Sb16  1  0.502561  0.001804  0.166203  1
  Sb  Sb17  1  0.164398  0.498196  0.000756  1
  Sb  Sb18  1  0.001592  0.167332  0.499617  1
  Sb  Sb19  1  0.332286  0.332668  0.334260  1
