# generated using pymatgen
data_Hf10InCuSiSb5
_symmetry_space_group_name_H-M   'P 1'
_cell_length_a   8.59282114
_cell_length_b   8.59282115
_cell_length_c   5.77969471
_cell_angle_alpha   90.06968964
_cell_angle_beta   90.06968574
_cell_angle_gamma   120.21401954
_symmetry_Int_Tables_number   1
_chemical_formula_structural   Hf10InCuSiSb5
_chemical_formula_sum   'Hf10 In1 Cu1 Si1 Sb5'
_cell_volume   368.77811134
_cell_formula_units_Z   1
loop_
 _symmetry_equiv_pos_site_id
 _symmetry_equiv_pos_as_xyz
  1  'x, y, z'
loop_
 _atom_site_type_symbol
 _atom_site_label
 _atom_site_symmetry_multiplicity
 _atom_site_fract_x
 _atom_site_fract_y
 _atom_site_fract_z
 _atom_site_occupancy
  Hf  Hf0  1  0.668047  0.332560  0.997711  1
  Hf  Hf1  1  0.332560  0.668047  0.997711  1
  Hf  Hf2  1  0.333010  0.667613  0.501886  1
  Hf  Hf3  1  0.667613  0.333010  0.501886  1
  Hf  Hf4  1  0.730783  0.730783  0.748965  1
  Hf  Hf5  1  0.270910  0.999128  0.750573  1
  Hf  Hf6  1  0.999128  0.270910  0.750573  1
  Hf  Hf7  1  0.252914  0.252914  0.251537  1
  Hf  Hf8  1  0.744394  0.999808  0.252456  1
  Hf  Hf9  1  0.999808  0.744394  0.252456  1
  In  In10  1  0.383594  0.383594  0.752180  1
  Cu  Cu11  1  0.003323  0.003323  0.974620  1
  Si  Si12  1  0.001218  0.001218  0.521165  1
  Sb  Sb13  1  0.614742  0.000071  0.752248  1
  Sb  Sb14  1  0.000071  0.614742  0.752248  1
  Sb  Sb15  1  0.603265  0.603265  0.245988  1
  Sb  Sb16  1  0.393808  0.000812  0.247900  1
  Sb  Sb17  1  0.000812  0.393808  0.247900  1
