# generated using pymatgen
data_BaIn3Ag2Pd
_symmetry_space_group_name_H-M   'P 1'
_cell_length_a   4.69825300
_cell_length_b   7.76850400
_cell_length_c   9.39364300
_cell_angle_alpha   90.00000000
_cell_angle_beta   90.00000000
_cell_angle_gamma   90.00000000
_symmetry_Int_Tables_number   1
_chemical_formula_structural   BaIn3Ag2Pd
_chemical_formula_sum   'Ba2 In6 Ag4 Pd2'
_cell_volume   342.85291359
_cell_formula_units_Z   2
loop_
 _symmetry_equiv_pos_site_id
 _symmetry_equiv_pos_as_xyz
  1  'x, y, z'
loop_
 _atom_site_type_symbol
 _atom_site_label
 _atom_site_symmetry_multiplicity
 _atom_site_fract_x
 _atom_site_fract_y
 _atom_site_fract_z
 _atom_site_occupancy
  Ba  Ba0  1  0.500000  0.000000  0.744418  1
  Ba  Ba1  1  0.000000  0.500000  0.255582  1
  In  In2  1  0.000000  0.304803  0.890637  1
  In  In3  1  0.500000  0.195197  0.109363  1
  In  In4  1  0.000000  0.695197  0.890637  1
  In  In5  1  0.000000  0.000000  0.351426  1
  In  In6  1  0.500000  0.804803  0.109363  1
  In  In7  1  0.500000  0.500000  0.648574  1
  Ag  Ag8  1  0.000000  0.718037  0.582650  1
  Ag  Ag9  1  0.500000  0.781963  0.417350  1
  Ag  Ag10  1  0.500000  0.218037  0.417350  1
  Ag  Ag11  1  0.000000  0.281963  0.582650  1
  Pd  Pd12  1  0.500000  0.500000  0.948564  1
  Pd  Pd13  1  0.000000  0.000000  0.051436  1
