# generated using pymatgen
data_Nd12Cu3Si8Ni
_symmetry_space_group_name_H-M   'P 1'
_cell_length_a   4.26713200
_cell_length_b   11.64846210
_cell_length_c   11.74202524
_cell_angle_alpha   89.93402528
_cell_angle_beta   90.00000000
_cell_angle_gamma   90.00000000
_symmetry_Int_Tables_number   1
_chemical_formula_structural   Nd12Cu3Si8Ni
_chemical_formula_sum   'Nd12 Cu3 Si8 Ni1'
_cell_volume   583.64314640
_cell_formula_units_Z   1
loop_
 _symmetry_equiv_pos_site_id
 _symmetry_equiv_pos_as_xyz
  1  'x, y, z'
loop_
 _atom_site_type_symbol
 _atom_site_label
 _atom_site_symmetry_multiplicity
 _atom_site_fract_x
 _atom_site_fract_y
 _atom_site_fract_z
 _atom_site_occupancy
  Nd  Nd0  1  0.250000  0.059289  0.878895  1
  Nd  Nd1  1  0.250000  0.437286  0.379473  1
  Nd  Nd2  1  0.750000  0.936458  0.116399  1
  Nd  Nd3  1  0.750000  0.561080  0.619913  1
  Nd  Nd4  1  0.250000  0.118261  0.559994  1
  Nd  Nd5  1  0.250000  0.381935  0.059797  1
  Nd  Nd6  1  0.750000  0.880092  0.439400  1
  Nd  Nd7  1  0.750000  0.624892  0.938334  1
  Nd  Nd8  1  0.250000  0.803511  0.710243  1
  Nd  Nd9  1  0.250000  0.698491  0.205985  1
  Nd  Nd10  1  0.750000  0.196994  0.293848  1
  Nd  Nd11  1  0.750000  0.301430  0.794876  1
  Cu  Cu12  1  0.250000  0.362976  0.631352  1
  Cu  Cu13  1  0.250000  0.136058  0.130366  1
  Cu  Cu14  1  0.750000  0.636509  0.368919  1
  Si  Si15  1  0.250000  0.816476  0.969354  1
  Si  Si16  1  0.250000  0.684622  0.471730  1
  Si  Si17  1  0.750000  0.186561  0.030032  1
  Si  Si18  1  0.750000  0.313982  0.529108  1
  Si  Si19  1  0.250000  0.491371  0.804535  1
  Si  Si20  1  0.250000  0.007726  0.302182  1
  Si  Si21  1  0.750000  0.508667  0.196761  1
  Si  Si22  1  0.750000  0.989248  0.698183  1
  Ni  Ni23  1  0.750000  0.866081  0.870321  1
