# generated using pymatgen
data_Ho12GaCo5
_symmetry_space_group_name_H-M   'P 1'
_cell_length_a   8.14954074
_cell_length_b   8.14925587
_cell_length_c   8.14954151
_cell_angle_alpha   110.89262024
_cell_angle_beta   110.80549754
_cell_angle_gamma   106.75070741
_symmetry_Int_Tables_number   1
_chemical_formula_structural   Ho12GaCo5
_chemical_formula_sum   'Ho12 Ga1 Co5'
_cell_volume   415.93358638
_cell_formula_units_Z   1
loop_
 _symmetry_equiv_pos_site_id
 _symmetry_equiv_pos_as_xyz
  1  'x, y, z'
loop_
 _atom_site_type_symbol
 _atom_site_label
 _atom_site_symmetry_multiplicity
 _atom_site_fract_x
 _atom_site_fract_y
 _atom_site_fract_z
 _atom_site_occupancy
  Ho  Ho0  1  0.813831  0.710549  0.524383  1
  Ho  Ho1  1  0.186169  0.289451  0.475617  1
  Ho  Ho2  1  0.186167  0.710549  0.896718  1
  Ho  Ho3  1  0.813833  0.289451  0.103282  1
  Ho  Ho4  1  0.684321  0.381913  0.697593  1
  Ho  Ho5  1  0.315679  0.618087  0.302407  1
  Ho  Ho6  1  0.684322  0.986726  0.302404  1
  Ho  Ho7  1  0.315678  0.013274  0.697596  1
  Ho  Ho8  1  0.593298  0.784688  0.808609  1
  Ho  Ho9  1  0.406702  0.215312  0.191391  1
  Ho  Ho10  1  0.976079  0.784688  0.191390  1
  Ho  Ho11  1  0.023921  0.215312  0.808610  1
  Ga  Ga12  1  0.500000  0.500000  0.000000  1
  Co  Co13  1  0.624023  0.000000  0.624023  1
  Co  Co14  1  0.375977  0.000000  0.375977  1
  Co  Co15  1  0.113710  0.613711  0.500001  1
  Co  Co16  1  0.886290  0.386289  0.499999  1
  Co  Co17  1  0.000000  0.000000  0.000000  1
