# generated using pymatgen
data_VIn3(SO4)6
_symmetry_space_group_name_H-M   'P 1'
_cell_length_a   8.53233747
_cell_length_b   8.53233714
_cell_length_c   9.18930214
_cell_angle_alpha   117.66194682
_cell_angle_beta   62.33805487
_cell_angle_gamma   120.00000013
_symmetry_Int_Tables_number   1
_chemical_formula_structural   VIn3(SO4)6
_chemical_formula_sum   'V1 In3 S6 O24'
_cell_volume   489.07959901
_cell_formula_units_Z   1
loop_
 _symmetry_equiv_pos_site_id
 _symmetry_equiv_pos_as_xyz
  1  'x, y, z'
loop_
 _atom_site_type_symbol
 _atom_site_label
 _atom_site_symmetry_multiplicity
 _atom_site_fract_x
 _atom_site_fract_y
 _atom_site_fract_z
 _atom_site_occupancy
  V  V0  1  0.652932  0.347069  0.041205  1
  In  In1  1  0.855884  0.144117  0.432349  1
  In  In2  1  0.145149  0.854852  0.564553  1
  In  In3  1  0.348125  0.651876  0.955627  1
  S  S4  1  0.257871  0.048506  0.247372  1
  S  S5  1  0.951493  0.456738  0.247372  1
  S  S6  1  0.543262  0.742128  0.247372  1
  S  S7  1  0.457456  0.247587  0.753669  1
  S  S8  1  0.036461  0.542544  0.753669  1
  S  S9  1  0.752413  0.963539  0.753669  1
  O  O10  1  0.142460  0.472054  0.118592  1
  O  O11  1  0.527945  0.788998  0.118592  1
  O  O12  1  0.211002  0.857539  0.118592  1
  O  O13  1  0.460365  0.168053  0.187221  1
  O  O14  1  0.831947  0.479533  0.187221  1
  O  O15  1  0.520467  0.539635  0.187221  1
  O  O16  1  0.135842  0.140391  0.270335  1
  O  O17  1  0.859608  0.265786  0.270335  1
  O  O18  1  0.734214  0.864158  0.270335  1
  O  O19  1  0.224096  0.032581  0.414616  1
  O  O20  1  0.967420  0.606132  0.414616  1
  O  O21  1  0.393868  0.775904  0.414616  1
  O  O22  1  0.594964  0.196771  0.582860  1
  O  O23  1  0.018948  0.405036  0.582860  1
  O  O24  1  0.803228  0.981051  0.582860  1
  O  O25  1  0.262109  0.125420  0.742403  1
  O  O26  1  0.120907  0.737891  0.742403  1
  O  O27  1  0.874582  0.879093  0.742403  1
  O  O28  1  0.486998  0.449415  0.799074  1
  O  O29  1  0.163343  0.513002  0.799074  1
  O  O30  1  0.550584  0.836655  0.799074  1
  O  O31  1  0.783966  0.153755  0.885945  1
  O  O32  1  0.483844  0.216034  0.885945  1
  O  O33  1  0.846245  0.516157  0.885945  1
