# generated using pymatgen
data_Ba2Zn23Cu3
_symmetry_space_group_name_H-M   'P 1'
_cell_length_a   8.67663379
_cell_length_b   8.70195308
_cell_length_c   8.69449423
_cell_angle_alpha   60.10142120
_cell_angle_beta   60.12422404
_cell_angle_gamma   60.03881328
_symmetry_Int_Tables_number   1
_chemical_formula_structural   Ba2Zn23Cu3
_chemical_formula_sum   'Ba2 Zn23 Cu3'
_cell_volume   465.11834202
_cell_formula_units_Z   1
loop_
 _symmetry_equiv_pos_site_id
 _symmetry_equiv_pos_as_xyz
  1  'x, y, z'
loop_
 _atom_site_type_symbol
 _atom_site_label
 _atom_site_symmetry_multiplicity
 _atom_site_fract_x
 _atom_site_fract_y
 _atom_site_fract_z
 _atom_site_occupancy
  Ba  Ba0  1  0.250334  0.250225  0.250068  1
  Ba  Ba1  1  0.750627  0.749931  0.749775  1
  Zn  Zn2  1  0.941337  0.704481  0.295519  1
  Zn  Zn3  1  0.437086  0.206609  0.558813  1
  Zn  Zn4  1  0.202509  0.441187  0.793391  1
  Zn  Zn5  1  0.795071  0.204097  0.442251  1
  Zn  Zn6  1  0.441419  0.557749  0.795903  1
  Zn  Zn7  1  0.199846  0.554596  0.445404  1
  Zn  Zn8  1  0.802382  0.440311  0.559689  1
  Zn  Zn9  1  0.293600  0.944677  0.702934  1
  Zn  Zn10  1  0.710607  0.296251  0.936995  1
  Zn  Zn11  1  0.943853  0.063005  0.703749  1
  Zn  Zn12  1  0.941211  0.297067  0.055323  1
  Zn  Zn13  1  0.703314  0.057956  0.297053  1
  Zn  Zn14  1  0.057729  0.941802  0.296241  1
  Zn  Zn15  1  0.058323  0.702946  0.942043  1
  Zn  Zn16  1  0.295772  0.703760  0.058198  1
  Zn  Zn17  1  0.557781  0.441959  0.203928  1
  Zn  Zn18  1  0.558142  0.795546  0.442266  1
  Zn  Zn19  1  0.440363  0.795925  0.204075  1
  Zn  Zn20  1  0.559072  0.204106  0.795894  1
  Zn  Zn21  1  0.795954  0.557734  0.204454  1
  Zn  Zn22  1  0.203669  0.796071  0.558041  1
  Zn  Zn23  1  0.703191  0.941643  0.058357  1
  Zn  Zn24  1  0.293632  0.060194  0.939806  1
  Cu  Cu25  1  0.999618  0.999466  0.000534  1
  Cu  Cu26  1  0.501139  0.500100  0.499900  1
  Cu  Cu27  1  0.062419  0.290605  0.709395  1
