# generated using pymatgen
data_La6Nd2Co3Si12Pd
_symmetry_space_group_name_H-M   'P 1'
_cell_length_a   8.18098000
_cell_length_b   8.18098129
_cell_length_c   8.59735200
_cell_angle_alpha   90.00000000
_cell_angle_beta   90.00000000
_cell_angle_gamma   119.99999477
_symmetry_Int_Tables_number   1
_chemical_formula_structural   La6Nd2Co3Si12Pd
_chemical_formula_sum   'La6 Nd2 Co3 Si12 Pd1'
_cell_volume   498.31744760
_cell_formula_units_Z   1
loop_
 _symmetry_equiv_pos_site_id
 _symmetry_equiv_pos_as_xyz
  1  'x, y, z'
loop_
 _atom_site_type_symbol
 _atom_site_label
 _atom_site_symmetry_multiplicity
 _atom_site_fract_x
 _atom_site_fract_y
 _atom_site_fract_z
 _atom_site_occupancy
  La  La0  1  0.497229  0.502771  0.753375  1
  La  La1  1  0.498736  0.501264  0.247373  1
  La  La2  1  0.005542  0.502771  0.753375  1
  La  La3  1  0.002528  0.501264  0.247373  1
  La  La4  1  0.497229  0.994458  0.753375  1
  La  La5  1  0.498736  0.997472  0.247373  1
  Nd  Nd6  1  0.000000  0.000000  0.750694  1
  Nd  Nd7  1  0.000000  0.000000  0.248721  1
  Co  Co8  1  0.666667  0.333333  0.994892  1
  Co  Co9  1  0.333333  0.666667  0.004883  1
  Co  Co10  1  0.333333  0.666667  0.493574  1
  Si  Si11  1  0.829445  0.170555  0.000735  1
  Si  Si12  1  0.169152  0.830848  0.999314  1
  Si  Si13  1  0.341110  0.170555  0.000735  1
  Si  Si14  1  0.170927  0.829073  0.501384  1
  Si  Si15  1  0.661697  0.830848  0.999314  1
  Si  Si16  1  0.837495  0.162505  0.498197  1
  Si  Si17  1  0.829445  0.658890  0.000735  1
  Si  Si18  1  0.658147  0.829073  0.501384  1
  Si  Si19  1  0.169152  0.338303  0.999314  1
  Si  Si20  1  0.325009  0.162505  0.498197  1
  Si  Si21  1  0.170927  0.341853  0.501384  1
  Si  Si22  1  0.837495  0.674991  0.498197  1
  Pd  Pd23  1  0.666667  0.333333  0.506101  1
