# generated using pymatgen
data_Ho5Er5(Si3O)2
_symmetry_space_group_name_H-M   'P 1'
_cell_length_a   8.34476000
_cell_length_b   8.34476117
_cell_length_c   6.15881100
_cell_angle_alpha   90.00000000
_cell_angle_beta   90.00000000
_cell_angle_gamma   119.99711160
_symmetry_Int_Tables_number   1
_chemical_formula_structural   Ho5Er5(Si3O)2
_chemical_formula_sum   'Ho5 Er5 Si6 O2'
_cell_volume   371.42224484
_cell_formula_units_Z   1
loop_
 _symmetry_equiv_pos_site_id
 _symmetry_equiv_pos_as_xyz
  1  'x, y, z'
loop_
 _atom_site_type_symbol
 _atom_site_label
 _atom_site_symmetry_multiplicity
 _atom_site_fract_x
 _atom_site_fract_y
 _atom_site_fract_z
 _atom_site_occupancy
  Ho  Ho0  1  0.232063  0.000037  0.250000  1
  Ho  Ho1  1  0.767965  0.000009  0.750000  1
  Ho  Ho2  1  0.000037  0.232063  0.250000  1
  Ho  Ho3  1  0.000009  0.767965  0.750000  1
  Ho  Ho4  1  0.767944  0.767944  0.250000  1
  Er  Er5  1  0.231935  0.231935  0.750000  1
  Er  Er6  1  0.333322  0.666633  0.999988  1
  Er  Er7  1  0.666633  0.333322  0.999988  1
  Er  Er8  1  0.666633  0.333322  0.500012  1
  Er  Er9  1  0.333322  0.666633  0.500012  1
  Si  Si10  1  0.601550  0.999999  0.250000  1
  Si  Si11  1  0.398377  0.000077  0.750000  1
  Si  Si12  1  0.999999  0.601550  0.250000  1
  Si  Si13  1  0.000077  0.398377  0.750000  1
  Si  Si14  1  0.398431  0.398431  0.250000  1
  Si  Si15  1  0.601488  0.601488  0.750000  1
  O  O16  1  0.000108  0.000108  0.999868  1
  O  O17  1  0.000108  0.000108  0.500132  1
