# generated using pymatgen
data_Th2V3Si7Ir9
_symmetry_space_group_name_H-M   'P 1'
_cell_length_a   9.83268500
_cell_length_b   9.83268475
_cell_length_c   3.88845100
_cell_angle_alpha   90.00000000
_cell_angle_beta   90.00000000
_cell_angle_gamma   119.99999747
_symmetry_Int_Tables_number   1
_chemical_formula_structural   Th2V3Si7Ir9
_chemical_formula_sum   'Th2 V3 Si7 Ir9'
_cell_volume   325.57534922
_cell_formula_units_Z   1
loop_
 _symmetry_equiv_pos_site_id
 _symmetry_equiv_pos_as_xyz
  1  'x, y, z'
loop_
 _atom_site_type_symbol
 _atom_site_label
 _atom_site_symmetry_multiplicity
 _atom_site_fract_x
 _atom_site_fract_y
 _atom_site_fract_z
 _atom_site_occupancy
  Th  Th0  1  0.333333  0.666667  0.000000  1
  Th  Th1  1  0.000000  0.000000  0.500000  1
  V  V2  1  0.775504  0.229478  0.500000  1
  V  V3  1  0.770522  0.546027  0.500000  1
  V  V4  1  0.453973  0.224496  0.500000  1
  Si  Si5  1  0.776046  0.034941  0.000000  1
  Si  Si6  1  0.965059  0.741105  0.000000  1
  Si  Si7  1  0.258895  0.223954  0.000000  1
  Si  Si8  1  0.377345  0.937313  0.500000  1
  Si  Si9  1  0.062687  0.440033  0.500000  1
  Si  Si10  1  0.559967  0.622655  0.500000  1
  Si  Si11  1  0.666667  0.333333  0.000000  1
  Ir  Ir12  1  0.031530  0.263769  0.000000  1
  Ir  Ir13  1  0.736231  0.767761  0.000000  1
  Ir  Ir14  1  0.232239  0.968470  0.000000  1
  Ir  Ir15  1  0.547522  0.061072  0.000000  1
  Ir  Ir16  1  0.938928  0.486450  0.000000  1
  Ir  Ir17  1  0.513550  0.452478  0.000000  1
  Ir  Ir18  1  0.609590  0.891300  0.500000  1
  Ir  Ir19  1  0.108700  0.718288  0.500000  1
  Ir  Ir20  1  0.281712  0.390410  0.500000  1
