# generated using pymatgen
data_HoTm11Pb10
_symmetry_space_group_name_H-M   'P 1'
_cell_length_a   6.55636601
_cell_length_b   9.37166752
_cell_length_c   11.64247849
_cell_angle_alpha   113.83216420
_cell_angle_beta   106.35397998
_cell_angle_gamma   90.00000172
_symmetry_Int_Tables_number   1
_chemical_formula_structural   HoTm11Pb10
_chemical_formula_sum   'Ho1 Tm11 Pb10'
_cell_volume   622.59226546
_cell_formula_units_Z   1
loop_
 _symmetry_equiv_pos_site_id
 _symmetry_equiv_pos_as_xyz
  1  'x, y, z'
loop_
 _atom_site_type_symbol
 _atom_site_label
 _atom_site_symmetry_multiplicity
 _atom_site_fract_x
 _atom_site_fract_y
 _atom_site_fract_z
 _atom_site_occupancy
  Ho  Ho0  1  0.360181  0.973396  0.720361  1
  Tm  Tm1  1  0.555972  0.305864  0.611775  1
  Tm  Tm2  1  0.444017  0.694134  0.388044  1
  Tm  Tm3  1  0.944026  0.694134  0.388044  1
  Tm  Tm4  1  0.055804  0.305864  0.611775  1
  Tm  Tm5  1  0.439224  0.676178  0.878448  1
  Tm  Tm6  1  0.560874  0.323575  0.121747  1
  Tm  Tm7  1  0.939189  0.202016  0.878378  1
  Tm  Tm8  1  0.060889  0.798177  0.121777  1
  Tm  Tm9  1  0.139679  0.253164  0.279359  1
  Tm  Tm10  1  0.860384  0.746905  0.720768  1
  Tm  Tm11  1  0.639700  0.026329  0.279400  1
  Pb  Pb12  1  0.292196  0.596655  0.584394  1
  Pb  Pb13  1  0.707808  0.403144  0.415616  1
  Pb  Pb14  1  0.792168  0.987852  0.584335  1
  Pb  Pb15  1  0.207760  0.012264  0.415520  1
  Pb  Pb16  1  0.249872  0.999957  0.000138  1
  Pb  Pb17  1  0.750266  0.999957  0.000138  1
  Pb  Pb18  1  0.073260  0.475319  0.146521  1
  Pb  Pb19  1  0.926695  0.524717  0.853390  1
  Pb  Pb20  1  0.573314  0.671380  0.146630  1
  Pb  Pb21  1  0.426723  0.329020  0.853444  1
