# generated using pymatgen
data_Nd5Sn2BiN
_symmetry_space_group_name_H-M   'P 1'
_cell_length_a   9.31958257
_cell_length_b   9.32895920
_cell_length_c   6.63467700
_cell_angle_alpha   90.00000000
_cell_angle_beta   90.00000000
_cell_angle_gamma   120.03328044
_symmetry_Int_Tables_number   1
_chemical_formula_structural   Nd5Sn2BiN
_chemical_formula_sum   'Nd10 Sn4 Bi2 N2'
_cell_volume   499.38366186
_cell_formula_units_Z   2
loop_
 _symmetry_equiv_pos_site_id
 _symmetry_equiv_pos_as_xyz
  1  'x, y, z'
loop_
 _atom_site_type_symbol
 _atom_site_label
 _atom_site_symmetry_multiplicity
 _atom_site_fract_x
 _atom_site_fract_y
 _atom_site_fract_z
 _atom_site_occupancy
  Nd  Nd0  1  0.670447  0.336161  0.004541  1
  Nd  Nd1  1  0.329553  0.665716  0.004541  1
  Nd  Nd2  1  0.329553  0.665716  0.495459  1
  Nd  Nd3  1  0.670447  0.336161  0.495459  1
  Nd  Nd4  1  0.787677  0.784223  0.750000  1
  Nd  Nd5  1  0.212323  0.996546  0.750000  1
  Nd  Nd6  1  0.000000  0.215470  0.750000  1
  Nd  Nd7  1  0.213744  0.213365  0.250000  1
  Nd  Nd8  1  0.786256  0.999621  0.250000  1
  Nd  Nd9  1  0.000000  0.784684  0.250000  1
  Sn  Sn10  1  0.000000  0.597306  0.750000  1
  Sn  Sn11  1  0.598301  0.598739  0.250000  1
  Sn  Sn12  1  0.401699  0.000438  0.250000  1
  Sn  Sn13  1  0.000000  0.401774  0.250000  1
  Bi  Bi14  1  0.402139  0.402157  0.750000  1
  Bi  Bi15  1  0.597861  0.000018  0.750000  1
  N  N16  1  0.000000  0.000952  0.998098  1
  N  N17  1  0.000000  0.000952  0.501902  1
