# generated using pymatgen
data_YLu3Co9Si5
_symmetry_space_group_name_H-M   'P 1'
_cell_length_a   11.26090779
_cell_length_b   11.26090781
_cell_length_c   11.26090836
_cell_angle_alpha   26.37686385
_cell_angle_beta   26.37686415
_cell_angle_gamma   26.37686361
_symmetry_Int_Tables_number   1
_chemical_formula_structural   YLu3Co9Si5
_chemical_formula_sum   'Y1 Lu3 Co9 Si5'
_cell_volume   248.39813216
_cell_formula_units_Z   1
loop_
 _symmetry_equiv_pos_site_id
 _symmetry_equiv_pos_as_xyz
  1  'x, y, z'
loop_
 _atom_site_type_symbol
 _atom_site_label
 _atom_site_symmetry_multiplicity
 _atom_site_fract_x
 _atom_site_fract_y
 _atom_site_fract_z
 _atom_site_occupancy
  Y  Y0  1  0.050679  0.050679  0.050679  1
  Lu  Lu1  1  0.949250  0.949250  0.949250  1
  Lu  Lu2  1  0.851840  0.851840  0.851840  1
  Lu  Lu3  1  0.148567  0.148567  0.148567  1
  Co  Co4  1  0.609702  0.609702  0.107279  1
  Co  Co5  1  0.892684  0.390719  0.390719  1
  Co  Co6  1  0.499691  0.999774  0.499691  1
  Co  Co7  1  0.390719  0.892684  0.390719  1
  Co  Co8  1  0.499691  0.499691  0.999774  1
  Co  Co9  1  0.107279  0.609702  0.609702  1
  Co  Co10  1  0.999774  0.499691  0.499691  1
  Co  Co11  1  0.390719  0.390719  0.892684  1
  Co  Co12  1  0.609702  0.107279  0.609702  1
  Si  Si13  1  0.278619  0.278619  0.278619  1
  Si  Si14  1  0.500094  0.500094  0.500094  1
  Si  Si15  1  0.387874  0.387874  0.387874  1
  Si  Si16  1  0.721183  0.721183  0.721183  1
  Si  Si17  1  0.611933  0.611933  0.611933  1
