# generated using pymatgen
data_TmAlFeB6
_symmetry_space_group_name_H-M   'P 1'
_cell_length_a   3.32668600
_cell_length_b   8.71323600
_cell_length_c   11.09103100
_cell_angle_alpha   90.00000000
_cell_angle_beta   90.00000000
_cell_angle_gamma   90.00000000
_symmetry_Int_Tables_number   1
_chemical_formula_structural   TmAlFeB6
_chemical_formula_sum   'Tm4 Al4 Fe4 B24'
_cell_volume   321.48684517
_cell_formula_units_Z   4
loop_
 _symmetry_equiv_pos_site_id
 _symmetry_equiv_pos_as_xyz
  1  'x, y, z'
loop_
 _atom_site_type_symbol
 _atom_site_label
 _atom_site_symmetry_multiplicity
 _atom_site_fract_x
 _atom_site_fract_y
 _atom_site_fract_z
 _atom_site_occupancy
  Tm  Tm0  1  0.000000  0.822087  0.084605  1
  Tm  Tm1  1  0.000000  0.177913  0.915395  1
  Tm  Tm2  1  0.000000  0.322087  0.415395  1
  Tm  Tm3  1  0.000000  0.677913  0.584605  1
  Al  Al4  1  0.000000  0.445620  0.125957  1
  Al  Al5  1  0.000000  0.554380  0.874043  1
  Al  Al6  1  0.000000  0.945620  0.374043  1
  Al  Al7  1  0.000000  0.054380  0.625957  1
  Fe  Fe8  1  0.000000  0.142148  0.183417  1
  Fe  Fe9  1  0.000000  0.857852  0.816583  1
  Fe  Fe10  1  0.000000  0.642148  0.316583  1
  Fe  Fe11  1  0.000000  0.357852  0.683417  1
  B  B12  1  0.500000  0.056960  0.068688  1
  B  B13  1  0.500000  0.943040  0.931312  1
  B  B14  1  0.500000  0.556960  0.431312  1
  B  B15  1  0.500000  0.443040  0.568688  1
  B  B16  1  0.500000  0.255181  0.083105  1
  B  B17  1  0.500000  0.744819  0.916895  1
  B  B18  1  0.500000  0.755181  0.416895  1
  B  B19  1  0.500000  0.244819  0.583105  1
  B  B20  1  0.500000  0.294139  0.236071  1
  B  B21  1  0.500000  0.705861  0.763929  1
  B  B22  1  0.500000  0.794139  0.263929  1
  B  B23  1  0.500000  0.205861  0.736071  1
  B  B24  1  0.500000  0.127191  0.318242  1
  B  B25  1  0.500000  0.872809  0.681758  1
  B  B26  1  0.500000  0.627191  0.181758  1
  B  B27  1  0.500000  0.372809  0.818242  1
  B  B28  1  0.500000  0.482661  0.285871  1
  B  B29  1  0.500000  0.517339  0.714129  1
  B  B30  1  0.500000  0.982661  0.214129  1
  B  B31  1  0.500000  0.017339  0.785871  1
  B  B32  1  0.500000  0.097430  0.474209  1
  B  B33  1  0.500000  0.902570  0.525791  1
  B  B34  1  0.500000  0.597430  0.025791  1
  B  B35  1  0.500000  0.402570  0.974209  1
