# generated using pymatgen
data_PrSc(SiTc2)4
_symmetry_space_group_name_H-M   'P 1'
_cell_length_a   7.35462577
_cell_length_b   7.35462577
_cell_length_c   4.14626100
_cell_angle_alpha   90.00000000
_cell_angle_beta   90.00000000
_cell_angle_gamma   87.46132382
_symmetry_Int_Tables_number   1
_chemical_formula_structural   PrSc(SiTc2)4
_chemical_formula_sum   'Pr1 Sc1 Si4 Tc8'
_cell_volume   224.05330132
_cell_formula_units_Z   1
loop_
 _symmetry_equiv_pos_site_id
 _symmetry_equiv_pos_as_xyz
  1  'x, y, z'
loop_
 _atom_site_type_symbol
 _atom_site_label
 _atom_site_symmetry_multiplicity
 _atom_site_fract_x
 _atom_site_fract_y
 _atom_site_fract_z
 _atom_site_occupancy
  Pr  Pr0  1  0.500000  0.500000  0.000000  1
  Sc  Sc1  1  0.000000  0.000000  0.500000  1
  Si  Si2  1  0.717538  0.717538  0.500000  1
  Si  Si3  1  0.282462  0.282462  0.500000  1
  Si  Si4  1  0.197559  0.802441  0.000000  1
  Si  Si5  1  0.802441  0.197559  0.000000  1
  Tc  Tc6  1  0.604041  0.148118  0.500000  1
  Tc  Tc7  1  0.395959  0.851882  0.500000  1
  Tc  Tc8  1  0.085824  0.338591  0.000000  1
  Tc  Tc9  1  0.914176  0.661409  0.000000  1
  Tc  Tc10  1  0.148118  0.604041  0.500000  1
  Tc  Tc11  1  0.851882  0.395959  0.500000  1
  Tc  Tc12  1  0.338591  0.085824  0.000000  1
  Tc  Tc13  1  0.661409  0.914176  0.000000  1
