# generated using pymatgen
data_Pr2Ho2ScBi3
_symmetry_space_group_name_H-M   'P 1'
_cell_length_a   8.32508800
_cell_length_b   9.65223700
_cell_length_c   12.28052000
_cell_angle_alpha   90.00000000
_cell_angle_beta   90.00000000
_cell_angle_gamma   90.00000000
_symmetry_Int_Tables_number   1
_chemical_formula_structural   Pr2Ho2ScBi3
_chemical_formula_sum   'Pr8 Ho8 Sc4 Bi12'
_cell_volume   986.81005632
_cell_formula_units_Z   4
loop_
 _symmetry_equiv_pos_site_id
 _symmetry_equiv_pos_as_xyz
  1  'x, y, z'
loop_
 _atom_site_type_symbol
 _atom_site_label
 _atom_site_symmetry_multiplicity
 _atom_site_fract_x
 _atom_site_fract_y
 _atom_site_fract_z
 _atom_site_occupancy
  Pr  Pr0  1  0.183498  0.750000  0.722278  1
  Pr  Pr1  1  0.683498  0.750000  0.777722  1
  Pr  Pr2  1  0.816502  0.250000  0.277722  1
  Pr  Pr3  1  0.316502  0.250000  0.222278  1
  Pr  Pr4  1  0.353038  0.750000  0.216909  1
  Pr  Pr5  1  0.853038  0.750000  0.283091  1
  Pr  Pr6  1  0.646962  0.250000  0.783091  1
  Pr  Pr7  1  0.146962  0.250000  0.716909  1
  Ho  Ho8  1  0.304880  0.435982  0.943771  1
  Ho  Ho9  1  0.804880  0.064018  0.556229  1
  Ho  Ho10  1  0.695120  0.935982  0.056229  1
  Ho  Ho11  1  0.195120  0.564018  0.443771  1
  Ho  Ho12  1  0.695120  0.564018  0.056229  1
  Ho  Ho13  1  0.195120  0.935982  0.443771  1
  Ho  Ho14  1  0.304880  0.064018  0.943771  1
  Ho  Ho15  1  0.804880  0.435982  0.556229  1
  Sc  Sc16  1  0.024450  0.750000  0.988513  1
  Sc  Sc17  1  0.524450  0.750000  0.511487  1
  Sc  Sc18  1  0.975550  0.250000  0.011487  1
  Sc  Sc19  1  0.475550  0.250000  0.488513  1
  Bi  Bi20  1  0.436216  0.003954  0.662460  1
  Bi  Bi21  1  0.936216  0.496046  0.837540  1
  Bi  Bi22  1  0.563784  0.503954  0.337540  1
  Bi  Bi23  1  0.063784  0.996046  0.162460  1
  Bi  Bi24  1  0.563784  0.996046  0.337540  1
  Bi  Bi25  1  0.063784  0.503954  0.162460  1
  Bi  Bi26  1  0.436216  0.496046  0.662460  1
  Bi  Bi27  1  0.936216  0.003954  0.837540  1
  Bi  Bi28  1  0.402603  0.750000  0.957861  1
  Bi  Bi29  1  0.902603  0.750000  0.542139  1
  Bi  Bi30  1  0.597397  0.250000  0.042139  1
  Bi  Bi31  1  0.097397  0.250000  0.457861  1
