# generated using pymatgen
data_Pr10Ga3TcSn2
_symmetry_space_group_name_H-M   'P 1'
_cell_length_a   8.18263237
_cell_length_b   8.18263237
_cell_length_c   14.15746600
_cell_angle_alpha   90.00000000
_cell_angle_beta   90.00000000
_cell_angle_gamma   90.47861035
_symmetry_Int_Tables_number   1
_chemical_formula_structural   Pr10Ga3TcSn2
_chemical_formula_sum   'Pr20 Ga6 Tc2 Sn4'
_cell_volume   947.88675387
_cell_formula_units_Z   2
loop_
 _symmetry_equiv_pos_site_id
 _symmetry_equiv_pos_as_xyz
  1  'x, y, z'
loop_
 _atom_site_type_symbol
 _atom_site_label
 _atom_site_symmetry_multiplicity
 _atom_site_fract_x
 _atom_site_fract_y
 _atom_site_fract_z
 _atom_site_occupancy
  Pr  Pr0  1  0.842051  0.840452  0.605979  1
  Pr  Pr1  1  0.170018  0.830291  0.104978  1
  Pr  Pr2  1  0.169709  0.829982  0.395022  1
  Pr  Pr3  1  0.007166  0.509528  0.743150  1
  Pr  Pr4  1  0.822711  0.183462  0.390172  1
  Pr  Pr5  1  0.663290  0.654530  0.392310  1
  Pr  Pr6  1  0.669709  0.329982  0.604978  1
  Pr  Pr7  1  0.322711  0.683462  0.609828  1
  Pr  Pr8  1  0.990472  0.492834  0.243150  1
  Pr  Pr9  1  0.659548  0.657949  0.105979  1
  Pr  Pr10  1  0.670018  0.330291  0.895022  1
  Pr  Pr11  1  0.845470  0.836710  0.892310  1
  Pr  Pr12  1  0.342051  0.340452  0.394021  1
  Pr  Pr13  1  0.163290  0.154530  0.607690  1
  Pr  Pr14  1  0.816538  0.177289  0.109828  1
  Pr  Pr15  1  0.316538  0.677289  0.890172  1
  Pr  Pr16  1  0.345470  0.336710  0.107690  1
  Pr  Pr17  1  0.507166  0.009528  0.256850  1
  Pr  Pr18  1  0.159548  0.157949  0.894021  1
  Pr  Pr19  1  0.490472  0.992834  0.756850  1
  Ga  Ga20  1  0.380941  0.372225  0.749178  1
  Ga  Ga21  1  0.375795  0.624205  0.250000  1
  Ga  Ga22  1  0.880941  0.872225  0.250822  1
  Ga  Ga23  1  0.627775  0.619059  0.750822  1
  Ga  Ga24  1  0.875795  0.124205  0.750000  1
  Ga  Ga25  1  0.127775  0.119059  0.249178  1
  Tc  Tc26  1  0.624431  0.375569  0.250000  1
  Tc  Tc27  1  0.124431  0.875569  0.750000  1
  Sn  Sn28  1  0.003418  0.499333  0.498831  1
  Sn  Sn29  1  0.503418  0.999333  0.501169  1
  Sn  Sn30  1  0.500667  0.996582  0.001169  1
  Sn  Sn31  1  0.000667  0.496582  0.998831  1
