# generated using pymatgen
data_Tb3Cd2HgPtAu2
_symmetry_space_group_name_H-M   'P 1'
_cell_length_a   7.92216644
_cell_length_b   7.88641269
_cell_length_c   3.81734700
_cell_angle_alpha   90.00000000
_cell_angle_beta   90.00000000
_cell_angle_gamma   120.06047058
_symmetry_Int_Tables_number   1
_chemical_formula_structural   Tb3Cd2HgPtAu2
_chemical_formula_sum   'Tb3 Cd2 Hg1 Pt1 Au2'
_cell_volume   206.41952615
_cell_formula_units_Z   1
loop_
 _symmetry_equiv_pos_site_id
 _symmetry_equiv_pos_as_xyz
  1  'x, y, z'
loop_
 _atom_site_type_symbol
 _atom_site_label
 _atom_site_symmetry_multiplicity
 _atom_site_fract_x
 _atom_site_fract_y
 _atom_site_fract_z
 _atom_site_occupancy
  Tb  Tb0  1  0.584337  0.982827  0.000000  1
  Tb  Tb1  1  0.020098  0.610118  0.000000  1
  Tb  Tb2  1  0.392208  0.406667  0.000000  1
  Cd  Cd3  1  0.995852  0.265762  0.500000  1
  Cd  Cd4  1  0.732997  0.731494  0.500000  1
  Hg  Hg5  1  0.272795  0.002832  0.500000  1
  Pt  Pt6  1  0.334330  0.660653  0.500000  1
  Au  Au7  1  0.673933  0.339684  0.500000  1
  Au  Au8  1  0.993450  0.999963  0.000000  1
