# generated using pymatgen
data_HfZrTaB2Ru5
_symmetry_space_group_name_H-M   'P 1'
_cell_length_a   9.49114005
_cell_length_b   9.49114005
_cell_length_c   3.10813200
_cell_angle_alpha   90.00000000
_cell_angle_beta   90.00000000
_cell_angle_gamma   90.16674757
_symmetry_Int_Tables_number   1
_chemical_formula_structural   HfZrTaB2Ru5
_chemical_formula_sum   'Hf2 Zr2 Ta2 B4 Ru10'
_cell_volume   279.98475120
_cell_formula_units_Z   2
loop_
 _symmetry_equiv_pos_site_id
 _symmetry_equiv_pos_as_xyz
  1  'x, y, z'
loop_
 _atom_site_type_symbol
 _atom_site_label
 _atom_site_symmetry_multiplicity
 _atom_site_fract_x
 _atom_site_fract_y
 _atom_site_fract_z
 _atom_site_occupancy
  Hf  Hf0  1  0.324271  0.824271  0.000000  1
  Hf  Hf1  1  0.675729  0.175729  0.000000  1
  Zr  Zr2  1  0.824005  0.675995  0.000000  1
  Zr  Zr3  1  0.175995  0.324005  0.000000  1
  Ta  Ta4  1  0.500000  0.500000  0.000000  1
  Ta  Ta5  1  0.000000  0.000000  0.000000  1
  B  B6  1  0.620878  0.879122  0.000000  1
  B  B7  1  0.379122  0.120878  0.000000  1
  B  B8  1  0.121541  0.621541  0.000000  1
  B  B9  1  0.878459  0.378459  0.000000  1
  Ru  Ru10  1  0.569495  0.718538  0.500000  1
  Ru  Ru11  1  0.430505  0.281462  0.500000  1
  Ru  Ru12  1  0.071607  0.782122  0.500000  1
  Ru  Ru13  1  0.928393  0.217878  0.500000  1
  Ru  Ru14  1  0.282122  0.571607  0.500000  1
  Ru  Ru15  1  0.717878  0.428393  0.500000  1
  Ru  Ru16  1  0.218538  0.069495  0.500000  1
  Ru  Ru17  1  0.781462  0.930505  0.500000  1
  Ru  Ru18  1  0.500000  0.000000  0.500000  1
  Ru  Ru19  1  0.000000  0.500000  0.500000  1
