# generated using pymatgen
data_TbGdReB6
_symmetry_space_group_name_H-M   'P 1'
_cell_length_a   3.70876300
_cell_length_b   9.21743200
_cell_length_c   11.61648300
_cell_angle_alpha   90.00000000
_cell_angle_beta   90.00000000
_cell_angle_gamma   90.00000000
_symmetry_Int_Tables_number   1
_chemical_formula_structural   TbGdReB6
_chemical_formula_sum   'Tb4 Gd4 Re4 B24'
_cell_volume   397.11261659
_cell_formula_units_Z   4
loop_
 _symmetry_equiv_pos_site_id
 _symmetry_equiv_pos_as_xyz
  1  'x, y, z'
loop_
 _atom_site_type_symbol
 _atom_site_label
 _atom_site_symmetry_multiplicity
 _atom_site_fract_x
 _atom_site_fract_y
 _atom_site_fract_z
 _atom_site_occupancy
  Tb  Tb0  1  0.000000  0.942906  0.369781  1
  Tb  Tb1  1  0.000000  0.057094  0.630219  1
  Tb  Tb2  1  0.000000  0.442906  0.130219  1
  Tb  Tb3  1  0.000000  0.557094  0.869781  1
  Gd  Gd4  1  0.000000  0.323288  0.413825  1
  Gd  Gd5  1  0.000000  0.676712  0.586175  1
  Gd  Gd6  1  0.000000  0.823288  0.086175  1
  Gd  Gd7  1  0.000000  0.176712  0.913825  1
  Re  Re8  1  0.000000  0.638742  0.320619  1
  Re  Re9  1  0.000000  0.361258  0.679381  1
  Re  Re10  1  0.000000  0.138742  0.179381  1
  Re  Re11  1  0.000000  0.861258  0.820619  1
  B  B12  1  0.500000  0.553545  0.432413  1
  B  B13  1  0.500000  0.446455  0.567587  1
  B  B14  1  0.500000  0.053545  0.067587  1
  B  B15  1  0.500000  0.946455  0.932413  1
  B  B16  1  0.500000  0.748293  0.418012  1
  B  B17  1  0.500000  0.251707  0.581988  1
  B  B18  1  0.500000  0.248293  0.081988  1
  B  B19  1  0.500000  0.751707  0.918012  1
  B  B20  1  0.500000  0.791499  0.265688  1
  B  B21  1  0.500000  0.208501  0.734312  1
  B  B22  1  0.500000  0.291499  0.234312  1
  B  B23  1  0.500000  0.708501  0.765688  1
  B  B24  1  0.500000  0.631112  0.186130  1
  B  B25  1  0.500000  0.368888  0.813870  1
  B  B26  1  0.500000  0.131112  0.313870  1
  B  B27  1  0.500000  0.868888  0.686130  1
  B  B28  1  0.500000  0.983393  0.211860  1
  B  B29  1  0.500000  0.016607  0.788140  1
  B  B30  1  0.500000  0.483393  0.288140  1
  B  B31  1  0.500000  0.516607  0.711860  1
  B  B32  1  0.500000  0.599961  0.027921  1
  B  B33  1  0.500000  0.400039  0.972079  1
  B  B34  1  0.500000  0.099961  0.472079  1
  B  B35  1  0.500000  0.900039  0.527921  1
