# generated using pymatgen
data_Sc11(TcHg)2
_symmetry_space_group_name_H-M   'P 1'
_cell_length_a   9.72306725
_cell_length_b   9.72306842
_cell_length_c   9.89060200
_cell_angle_alpha   59.42836296
_cell_angle_beta   59.42835888
_cell_angle_gamma   61.14327687
_symmetry_Int_Tables_number   1
_chemical_formula_structural   Sc11(TcHg)2
_chemical_formula_sum   'Sc22 Tc4 Hg4'
_cell_volume   660.77234221
_cell_formula_units_Z   2
loop_
 _symmetry_equiv_pos_site_id
 _symmetry_equiv_pos_as_xyz
  1  'x, y, z'
loop_
 _atom_site_type_symbol
 _atom_site_label
 _atom_site_symmetry_multiplicity
 _atom_site_fract_x
 _atom_site_fract_y
 _atom_site_fract_z
 _atom_site_occupancy
  Sc  Sc0  1  0.808587  0.808587  0.191413  1
  Sc  Sc1  1  0.195483  0.804517  0.195483  1
  Sc  Sc2  1  0.804517  0.195483  0.195483  1
  Sc  Sc3  1  0.191413  0.191413  0.808587  1
  Sc  Sc4  1  0.804517  0.195483  0.804517  1
  Sc  Sc5  1  0.195483  0.804517  0.804517  1
  Sc  Sc6  1  0.611368  0.611368  0.156585  1
  Sc  Sc7  1  0.620677  0.156585  0.611368  1
  Sc  Sc8  1  0.156585  0.620677  0.611368  1
  Sc  Sc9  1  0.611368  0.611368  0.620677  1
  Sc  Sc10  1  0.388632  0.388632  0.843415  1
  Sc  Sc11  1  0.379323  0.843415  0.388632  1
  Sc  Sc12  1  0.843415  0.379323  0.388632  1
  Sc  Sc13  1  0.388632  0.388632  0.379323  1
  Sc  Sc14  1  0.852086  0.852086  0.474134  1
  Sc  Sc15  1  0.821693  0.474134  0.852086  1
  Sc  Sc16  1  0.474134  0.821693  0.852086  1
  Sc  Sc17  1  0.852086  0.852086  0.821693  1
  Sc  Sc18  1  0.147914  0.147914  0.525866  1
  Sc  Sc19  1  0.178307  0.525866  0.147914  1
  Sc  Sc20  1  0.525866  0.178307  0.147914  1
  Sc  Sc21  1  0.147914  0.147914  0.178307  1
  Tc  Tc22  1  0.000000  0.000000  0.000000  1
  Tc  Tc23  1  0.500000  0.500000  0.500000  1
  Tc  Tc24  1  0.000000  0.000000  0.500000  1
  Tc  Tc25  1  0.500000  0.500000  0.000000  1
  Hg  Hg26  1  0.500000  0.000000  0.500000  1
  Hg  Hg27  1  0.000000  0.500000  0.500000  1
  Hg  Hg28  1  0.000000  0.500000  0.000000  1
  Hg  Hg29  1  0.500000  0.000000  0.000000  1
