# generated using pymatgen
data_YPa3Ge4(IrPt)2
_symmetry_space_group_name_H-M   'P 1'
_cell_length_a   4.37010100
_cell_length_b   7.03830952
_cell_length_c   7.65159025
_cell_angle_alpha   89.74626375
_cell_angle_beta   90.00000000
_cell_angle_gamma   90.00000000
_symmetry_Int_Tables_number   1
_chemical_formula_structural   YPa3Ge4(IrPt)2
_chemical_formula_sum   'Y1 Pa3 Ge4 Ir2 Pt2'
_cell_volume   235.34625004
_cell_formula_units_Z   1
loop_
 _symmetry_equiv_pos_site_id
 _symmetry_equiv_pos_as_xyz
  1  'x, y, z'
loop_
 _atom_site_type_symbol
 _atom_site_label
 _atom_site_symmetry_multiplicity
 _atom_site_fract_x
 _atom_site_fract_y
 _atom_site_fract_z
 _atom_site_occupancy
  Y  Y0  1  0.750000  0.506410  0.794670  1
  Pa  Pa1  1  0.250000  0.997992  0.300641  1
  Pa  Pa2  1  0.250000  0.492875  0.212075  1
  Pa  Pa3  1  0.750000  0.001985  0.698752  1
  Ge  Ge4  1  0.250000  0.315838  0.589782  1
  Ge  Ge5  1  0.250000  0.806327  0.909178  1
  Ge  Ge6  1  0.750000  0.677352  0.416133  1
  Ge  Ge7  1  0.750000  0.190377  0.085109  1
  Ir  Ir8  1  0.250000  0.735033  0.575585  1
  Ir  Ir9  1  0.750000  0.269615  0.412005  1
  Pt  Pt10  1  0.250000  0.215968  0.916368  1
  Pt  Pt11  1  0.750000  0.790228  0.089703  1
