# generated using pymatgen
data_SnBi3SbI3
_symmetry_space_group_name_H-M   'P 1'
_cell_length_a   23.46971182
_cell_length_b   23.46971292
_cell_length_c   6.92605930
_cell_angle_alpha   79.61058387
_cell_angle_beta   79.61058334
_cell_angle_gamma   14.48439245
_symmetry_Int_Tables_number   1
_chemical_formula_structural   SnBi3SbI3
_chemical_formula_sum   'Sn3 Bi9 Sb3 I9'
_cell_volume   938.31014554
_cell_formula_units_Z   3
loop_
 _symmetry_equiv_pos_site_id
 _symmetry_equiv_pos_as_xyz
  1  'x, y, z'
loop_
 _atom_site_type_symbol
 _atom_site_label
 _atom_site_symmetry_multiplicity
 _atom_site_fract_x
 _atom_site_fract_y
 _atom_site_fract_z
 _atom_site_occupancy
  Sn  Sn0  1  0.933019  0.933019  0.171956  1
  Sn  Sn1  1  0.470677  0.470677  0.648292  1
  Sn  Sn2  1  0.608303  0.608303  0.493751  1
  Bi  Bi3  1  0.092489  0.092489  0.025389  1
  Bi  Bi4  1  0.740285  0.740285  0.995345  1
  Bi  Bi5  1  0.239566  0.239566  0.507502  1
  Bi  Bi6  1  0.238606  0.238606  0.993312  1
  Bi  Bi7  1  0.740176  0.740176  0.515641  1
  Bi  Bi8  1  0.873773  0.873773  0.960022  1
  Bi  Bi9  1  0.300273  0.300273  0.174463  1
  Bi  Bi10  1  0.177754  0.177754  0.292008  1
  Bi  Bi11  1  0.675532  0.675532  0.791875  1
  Sb  Sb12  1  0.801020  0.801020  0.162558  1
  Sb  Sb13  1  0.175432  0.175432  0.806014  1
  Sb  Sb14  1  0.674007  0.674007  0.301423  1
  I  I15  1  0.101736  0.101736  0.508303  1
  I  I16  1  0.594046  0.594046  0.039578  1
  I  I17  1  0.878476  0.878476  0.475006  1
  I  I18  1  0.373388  0.373388  0.948810  1
  I  I19  1  0.440323  0.440323  0.170483  1
  I  I20  1  0.966953  0.966953  0.643934  1
  I  I21  1  0.531306  0.531306  0.653212  1
  I  I22  1  0.030087  0.030087  0.100367  1
  I  I23  1  0.310858  0.310858  0.620758  1
