# generated using pymatgen
data_Tb3Tl2Ag2IrPb
_symmetry_space_group_name_H-M   'P 1'
_cell_length_a   8.24392695
_cell_length_b   8.14185581
_cell_length_c   3.71122900
_cell_angle_alpha   90.00000000
_cell_angle_beta   90.00000000
_cell_angle_gamma   120.12316617
_symmetry_Int_Tables_number   1
_chemical_formula_structural   Tb3Tl2Ag2IrPb
_chemical_formula_sum   'Tb3 Tl2 Ag2 Ir1 Pb1'
_cell_volume   215.45946782
_cell_formula_units_Z   1
loop_
 _symmetry_equiv_pos_site_id
 _symmetry_equiv_pos_as_xyz
  1  'x, y, z'
loop_
 _atom_site_type_symbol
 _atom_site_label
 _atom_site_symmetry_multiplicity
 _atom_site_fract_x
 _atom_site_fract_y
 _atom_site_fract_z
 _atom_site_occupancy
  Tb  Tb0  1  0.418396  0.384318  0.000000  1
  Tb  Tb1  1  0.626837  0.036507  0.000000  1
  Tb  Tb2  1  0.958518  0.578105  0.000000  1
  Tl  Tl3  1  0.013687  0.284387  0.500000  1
  Tl  Tl4  1  0.715670  0.732038  0.500000  1
  Ag  Ag5  1  0.997019  0.000338  0.000000  1
  Ag  Ag6  1  0.333761  0.664878  0.500000  1
  Ir  Ir7  1  0.666333  0.334357  0.500000  1
  Pb  Pb8  1  0.269779  0.985074  0.500000  1
