# generated using pymatgen
data_Er8Tl3Co
_symmetry_space_group_name_H-M   'P 1'
_cell_length_a   10.24720300
_cell_length_b   10.24720365
_cell_length_c   6.99309700
_cell_angle_alpha   90.00000000
_cell_angle_beta   90.00000000
_cell_angle_gamma   120.00000759
_symmetry_Int_Tables_number   1
_chemical_formula_structural   Er8Tl3Co
_chemical_formula_sum   'Er16 Tl6 Co2'
_cell_volume   635.93226174
_cell_formula_units_Z   2
loop_
 _symmetry_equiv_pos_site_id
 _symmetry_equiv_pos_as_xyz
  1  'x, y, z'
loop_
 _atom_site_type_symbol
 _atom_site_label
 _atom_site_symmetry_multiplicity
 _atom_site_fract_x
 _atom_site_fract_y
 _atom_site_fract_z
 _atom_site_occupancy
  Er  Er0  1  0.536377  0.072754  0.793077  1
  Er  Er1  1  0.927246  0.463623  0.793077  1
  Er  Er2  1  0.536377  0.463623  0.793077  1
  Er  Er3  1  0.463623  0.927246  0.293077  1
  Er  Er4  1  0.072754  0.536377  0.293077  1
  Er  Er5  1  0.463623  0.536377  0.293077  1
  Er  Er6  1  0.821712  0.643424  0.496143  1
  Er  Er7  1  0.356576  0.178288  0.496143  1
  Er  Er8  1  0.821712  0.178288  0.496143  1
  Er  Er9  1  0.178288  0.356576  0.996143  1
  Er  Er10  1  0.643424  0.821712  0.996143  1
  Er  Er11  1  0.178288  0.821712  0.996143  1
  Er  Er12  1  0.666667  0.333333  0.182929  1
  Er  Er13  1  0.333333  0.666667  0.682929  1
  Er  Er14  1  0.000000  0.000000  0.778223  1
  Er  Er15  1  0.000000  0.000000  0.278223  1
  Tl  Tl16  1  0.836928  0.673858  0.040762  1
  Tl  Tl17  1  0.326142  0.163072  0.040762  1
  Tl  Tl18  1  0.836928  0.163072  0.040762  1
  Tl  Tl19  1  0.163072  0.326142  0.540762  1
  Tl  Tl20  1  0.673858  0.836928  0.540762  1
  Tl  Tl21  1  0.163072  0.836928  0.540762  1
  Co  Co22  1  0.666667  0.333333  0.566854  1
  Co  Co23  1  0.333333  0.666667  0.066854  1
