# generated using pymatgen
data_Y20IrOs3Pd8
_symmetry_space_group_name_H-M   'P 1'
_cell_length_a   11.14909000
_cell_length_b   11.14909000
_cell_length_c   6.39178800
_cell_angle_alpha   90.00000000
_cell_angle_beta   90.00000000
_cell_angle_gamma   90.00000000
_symmetry_Int_Tables_number   1
_chemical_formula_structural   Y20IrOs3Pd8
_chemical_formula_sum   'Y20 Ir1 Os3 Pd8'
_cell_volume   794.51336037
_cell_formula_units_Z   1
loop_
 _symmetry_equiv_pos_site_id
 _symmetry_equiv_pos_as_xyz
  1  'x, y, z'
loop_
 _atom_site_type_symbol
 _atom_site_label
 _atom_site_symmetry_multiplicity
 _atom_site_fract_x
 _atom_site_fract_y
 _atom_site_fract_z
 _atom_site_occupancy
  Y  Y0  1  0.298293  0.084713  0.362016  1
  Y  Y1  1  0.298492  0.915744  0.862309  1
  Y  Y2  1  0.701508  0.084256  0.862309  1
  Y  Y3  1  0.701707  0.915287  0.362016  1
  Y  Y4  1  0.584256  0.798492  0.862309  1
  Y  Y5  1  0.584713  0.201707  0.362016  1
  Y  Y6  1  0.415287  0.798293  0.362016  1
  Y  Y7  1  0.415744  0.201508  0.862309  1
  Y  Y8  1  0.203286  0.414094  0.640816  1
  Y  Y9  1  0.202453  0.585839  0.137031  1
  Y  Y10  1  0.797547  0.414161  0.137031  1
  Y  Y11  1  0.796714  0.585906  0.640816  1
  Y  Y12  1  0.914161  0.702453  0.137031  1
  Y  Y13  1  0.914094  0.296714  0.640816  1
  Y  Y14  1  0.085906  0.703286  0.640816  1
  Y  Y15  1  0.085839  0.297547  0.137031  1
  Y  Y16  1  0.000000  0.000000  0.498375  1
  Y  Y17  1  0.000000  0.000000  0.998466  1
  Y  Y18  1  0.500000  0.500000  0.998466  1
  Y  Y19  1  0.500000  0.500000  0.498375  1
  Ir  Ir20  1  0.000000  0.500000  0.389325  1
  Os  Os21  1  0.500000  0.000000  0.113389  1
  Os  Os22  1  0.500000  0.000000  0.612845  1
  Os  Os23  1  0.000000  0.500000  0.886551  1
  Pd  Pd24  1  0.847022  0.154927  0.249035  1
  Pd  Pd25  1  0.846287  0.845785  0.749846  1
  Pd  Pd26  1  0.153713  0.154215  0.749846  1
  Pd  Pd27  1  0.152978  0.845073  0.249035  1
  Pd  Pd28  1  0.654215  0.346287  0.749846  1
  Pd  Pd29  1  0.654927  0.652978  0.249035  1
  Pd  Pd30  1  0.345073  0.347022  0.249035  1
  Pd  Pd31  1  0.345785  0.653713  0.749846  1
