# generated using pymatgen
data_Li2ScPaPt2
_symmetry_space_group_name_H-M   'P 1'
_cell_length_a   5.23908477
_cell_length_b   5.23908337
_cell_length_c   5.33274300
_cell_angle_alpha   90.00000000
_cell_angle_beta   90.00000000
_cell_angle_gamma   129.80119576
_symmetry_Int_Tables_number   1
_chemical_formula_structural   Li2ScPaPt2
_chemical_formula_sum   'Li2 Sc1 Pa1 Pt2'
_cell_volume   112.45411644
_cell_formula_units_Z   1
loop_
 _symmetry_equiv_pos_site_id
 _symmetry_equiv_pos_as_xyz
  1  'x, y, z'
loop_
 _atom_site_type_symbol
 _atom_site_label
 _atom_site_symmetry_multiplicity
 _atom_site_fract_x
 _atom_site_fract_y
 _atom_site_fract_z
 _atom_site_occupancy
  Li  Li0  1  0.998060  0.001940  0.510354  1
  Li  Li1  1  0.998060  0.001940  0.989646  1
  Sc  Sc2  1  0.297975  0.702025  0.750000  1
  Pa  Pa3  1  0.696226  0.303774  0.250000  1
  Pt  Pt4  1  0.392780  0.607220  0.250000  1
  Pt  Pt5  1  0.616898  0.383102  0.750000  1
