# generated using pymatgen
data_Dy11Y5(CoAg)4
_symmetry_space_group_name_H-M   'P 1'
_cell_length_a   9.41697594
_cell_length_b   9.43161991
_cell_length_c   9.43116746
_cell_angle_alpha   60.10546129
_cell_angle_beta   60.04750906
_cell_angle_gamma   60.04915142
_symmetry_Int_Tables_number   1
_chemical_formula_structural   Dy11Y5(CoAg)4
_chemical_formula_sum   'Dy11 Y5 Co4 Ag4'
_cell_volume   593.21282860
_cell_formula_units_Z   1
loop_
 _symmetry_equiv_pos_site_id
 _symmetry_equiv_pos_as_xyz
  1  'x, y, z'
loop_
 _atom_site_type_symbol
 _atom_site_label
 _atom_site_symmetry_multiplicity
 _atom_site_fract_x
 _atom_site_fract_y
 _atom_site_fract_z
 _atom_site_occupancy
  Dy  Dy0  1  0.346562  0.347933  0.348015  1
  Dy  Dy1  1  0.347304  0.348499  0.956997  1
  Dy  Dy2  1  0.347260  0.957042  0.348542  1
  Dy  Dy3  1  0.957441  0.347983  0.348063  1
  Dy  Dy4  1  0.812400  0.187541  0.187542  1
  Dy  Dy5  1  0.188371  0.811679  0.811575  1
  Dy  Dy6  1  0.188252  0.811396  0.187519  1
  Dy  Dy7  1  0.812830  0.187514  0.811403  1
  Dy  Dy8  1  0.188256  0.187520  0.811343  1
  Dy  Dy9  1  0.812782  0.811457  0.187513  1
  Dy  Dy10  1  0.938000  0.561991  0.562008  1
  Y  Y11  1  0.562402  0.937593  0.937594  1
  Y  Y12  1  0.562711  0.937287  0.562296  1
  Y  Y13  1  0.937722  0.562287  0.937300  1
  Y  Y14  1  0.562686  0.562297  0.937298  1
  Y  Y15  1  0.937711  0.937290  0.562285  1
  Co  Co16  1  0.140670  0.141652  0.141654  1
  Co  Co17  1  0.140897  0.142114  0.576095  1
  Co  Co18  1  0.140895  0.576095  0.142117  1
  Co  Co19  1  0.576025  0.141654  0.141655  1
  Ag  Ag20  1  0.581355  0.581114  0.581111  1
  Ag  Ag21  1  0.580520  0.580828  0.258131  1
  Ag  Ag22  1  0.580522  0.258120  0.580831  1
  Ag  Ag23  1  0.256427  0.581115  0.581115  1
