# generated using pymatgen
data_La2Nd2Ga5Cl2
_symmetry_space_group_name_H-M   'P 1'
_cell_length_a   11.49023700
_cell_length_b   11.49023711
_cell_length_c   4.22204900
_cell_angle_alpha   90.00000000
_cell_angle_beta   90.00000000
_cell_angle_gamma   93.55973065
_symmetry_Int_Tables_number   1
_chemical_formula_structural   La2Nd2Ga5Cl2
_chemical_formula_sum   'La4 Nd4 Ga10 Cl4'
_cell_volume   556.34285565
_cell_formula_units_Z   2
loop_
 _symmetry_equiv_pos_site_id
 _symmetry_equiv_pos_as_xyz
  1  'x, y, z'
loop_
 _atom_site_type_symbol
 _atom_site_label
 _atom_site_symmetry_multiplicity
 _atom_site_fract_x
 _atom_site_fract_y
 _atom_site_fract_z
 _atom_site_occupancy
  La  La0  1  0.040709  0.682155  0.500000  1
  La  La1  1  0.959291  0.317845  0.500000  1
  La  La2  1  0.682155  0.040709  0.500000  1
  La  La3  1  0.317845  0.959291  0.500000  1
  Nd  Nd4  1  0.731579  0.731579  0.000000  1
  Nd  Nd5  1  0.366938  0.633062  0.000000  1
  Nd  Nd6  1  0.268421  0.268421  0.000000  1
  Nd  Nd7  1  0.633062  0.366938  0.000000  1
  Ga  Ga8  1  0.579750  0.579750  0.500000  1
  Ga  Ga9  1  0.420250  0.420250  0.500000  1
  Ga  Ga10  1  0.217726  0.487379  0.500000  1
  Ga  Ga11  1  0.782274  0.512621  0.500000  1
  Ga  Ga12  1  0.535589  0.899210  0.000000  1
  Ga  Ga13  1  0.512621  0.782274  0.500000  1
  Ga  Ga14  1  0.464411  0.100790  0.000000  1
  Ga  Ga15  1  0.100790  0.464411  0.000000  1
  Ga  Ga16  1  0.487379  0.217726  0.500000  1
  Ga  Ga17  1  0.899210  0.535589  0.000000  1
  Cl  Cl18  1  0.868800  0.868800  0.500000  1
  Cl  Cl19  1  0.176876  0.823124  0.000000  1
  Cl  Cl20  1  0.131200  0.131200  0.500000  1
  Cl  Cl21  1  0.823124  0.176876  0.000000  1
