# generated using pymatgen
data_Nd5Y3(ErSb)12
_symmetry_space_group_name_H-M   'P 1'
_cell_length_a   8.11339821
_cell_length_b   9.26835900
_cell_length_c   11.89027400
_cell_angle_alpha   90.00000000
_cell_angle_beta   89.96873003
_cell_angle_gamma   90.00000000
_symmetry_Int_Tables_number   1
_chemical_formula_structural   Nd5Y3(ErSb)12
_chemical_formula_sum   'Nd5 Y3 Er12 Sb12'
_cell_volume   894.12335111
_cell_formula_units_Z   1
loop_
 _symmetry_equiv_pos_site_id
 _symmetry_equiv_pos_as_xyz
  1  'x, y, z'
loop_
 _atom_site_type_symbol
 _atom_site_label
 _atom_site_symmetry_multiplicity
 _atom_site_fract_x
 _atom_site_fract_y
 _atom_site_fract_z
 _atom_site_occupancy
  Nd  Nd0  1  0.182847  0.750000  0.719981  1
  Nd  Nd1  1  0.684104  0.750000  0.777674  1
  Nd  Nd2  1  0.817678  0.250000  0.279175  1
  Nd  Nd3  1  0.317275  0.250000  0.221290  1
  Nd  Nd4  1  0.354259  0.750000  0.214820  1
  Y  Y5  1  0.851386  0.750000  0.284487  1
  Y  Y6  1  0.647249  0.250000  0.785038  1
  Y  Y7  1  0.147015  0.250000  0.715778  1
  Er  Er8  1  0.026802  0.750000  0.987509  1
  Er  Er9  1  0.527645  0.750000  0.513744  1
  Er  Er10  1  0.972225  0.250000  0.011387  1
  Er  Er11  1  0.473386  0.250000  0.489194  1
  Er  Er12  1  0.306971  0.439351  0.939119  1
  Er  Er13  1  0.807693  0.060515  0.561560  1
  Er  Er14  1  0.691949  0.939062  0.059538  1
  Er  Er15  1  0.192836  0.560270  0.439551  1
  Er  Er16  1  0.691949  0.560938  0.059538  1
  Er  Er17  1  0.192836  0.939730  0.439551  1
  Er  Er18  1  0.306971  0.060649  0.939119  1
  Er  Er19  1  0.807693  0.439485  0.561560  1
  Sb  Sb20  1  0.434031  0.008440  0.670842  1
  Sb  Sb21  1  0.934066  0.491818  0.829416  1
  Sb  Sb22  1  0.568762  0.505834  0.332985  1
  Sb  Sb23  1  0.063406  0.993246  0.169604  1
  Sb  Sb24  1  0.568762  0.994166  0.332985  1
  Sb  Sb25  1  0.063406  0.506754  0.169604  1
  Sb  Sb26  1  0.434031  0.491560  0.670842  1
  Sb  Sb27  1  0.934066  0.008182  0.829416  1
  Sb  Sb28  1  0.408909  0.750000  0.958191  1
  Sb  Sb29  1  0.909758  0.750000  0.535797  1
  Sb  Sb30  1  0.589726  0.250000  0.036605  1
  Sb  Sb31  1  0.090309  0.250000  0.464107  1
