# generated using pymatgen
data_Tm8MoOsI8
_symmetry_space_group_name_H-M   'P 1'
_cell_length_a   11.28787126
_cell_length_b   11.28787236
_cell_length_c   6.13611703
_cell_angle_alpha   89.23868204
_cell_angle_beta   89.23868703
_cell_angle_gamma   88.65415385
_symmetry_Int_Tables_number   1
_chemical_formula_structural   Tm8MoOsI8
_chemical_formula_sum   'Tm8 Mo1 Os1 I8'
_cell_volume   781.48927427
_cell_formula_units_Z   1
loop_
 _symmetry_equiv_pos_site_id
 _symmetry_equiv_pos_as_xyz
  1  'x, y, z'
loop_
 _atom_site_type_symbol
 _atom_site_label
 _atom_site_symmetry_multiplicity
 _atom_site_fract_x
 _atom_site_fract_y
 _atom_site_fract_z
 _atom_site_occupancy
  Tm  Tm0  1  0.196526  0.917113  0.995691  1
  Tm  Tm1  1  0.803467  0.082892  0.004299  1
  Tm  Tm2  1  0.082887  0.803474  0.504309  1
  Tm  Tm3  1  0.917108  0.196533  0.495701  1
  Tm  Tm4  1  0.805216  0.921978  0.507277  1
  Tm  Tm5  1  0.194795  0.078038  0.492723  1
  Tm  Tm6  1  0.078022  0.194784  0.992723  1
  Tm  Tm7  1  0.921962  0.805205  0.007277  1
  Mo  Mo8  1  0.000235  0.999765  0.250000  1
  Os  Os9  1  0.999765  0.000235  0.750000  1
  I  I10  1  0.357243  0.848231  0.513194  1
  I  I11  1  0.642756  0.151757  0.486918  1
  I  I12  1  0.151769  0.642757  0.986806  1
  I  I13  1  0.848243  0.357244  0.013082  1
  I  I14  1  0.352065  0.145398  0.995487  1
  I  I15  1  0.647937  0.854600  0.004408  1
  I  I16  1  0.854602  0.647935  0.504513  1
  I  I17  1  0.145400  0.352063  0.495592  1
