# generated using pymatgen
data_Er3Sc7Zn3Tc
_symmetry_space_group_name_H-M   'P 1'
_cell_length_a   8.93392900
_cell_length_b   8.93392884
_cell_length_c   9.14205600
_cell_angle_alpha   90.00000000
_cell_angle_beta   90.00000000
_cell_angle_gamma   120.00000428
_symmetry_Int_Tables_number   1
_chemical_formula_structural   Er3Sc7Zn3Tc
_chemical_formula_sum   'Er6 Sc14 Zn6 Tc2'
_cell_volume   631.91618078
_cell_formula_units_Z   2
loop_
 _symmetry_equiv_pos_site_id
 _symmetry_equiv_pos_as_xyz
  1  'x, y, z'
loop_
 _atom_site_type_symbol
 _atom_site_label
 _atom_site_symmetry_multiplicity
 _atom_site_fract_x
 _atom_site_fract_y
 _atom_site_fract_z
 _atom_site_occupancy
  Er  Er0  1  0.538845  0.461155  0.250000  1
  Er  Er1  1  0.538845  0.077690  0.250000  1
  Er  Er2  1  0.922310  0.461155  0.250000  1
  Er  Er3  1  0.461155  0.538845  0.750000  1
  Er  Er4  1  0.461155  0.922310  0.750000  1
  Er  Er5  1  0.077690  0.538845  0.750000  1
  Sc  Sc6  1  0.000000  0.000000  0.500000  1
  Sc  Sc7  1  0.000000  0.000000  0.000000  1
  Sc  Sc8  1  0.207546  0.792454  0.443336  1
  Sc  Sc9  1  0.207546  0.415091  0.443336  1
  Sc  Sc10  1  0.584909  0.792454  0.443336  1
  Sc  Sc11  1  0.792454  0.207546  0.556664  1
  Sc  Sc12  1  0.792454  0.584909  0.556664  1
  Sc  Sc13  1  0.415091  0.207546  0.556664  1
  Sc  Sc14  1  0.792454  0.207546  0.943336  1
  Sc  Sc15  1  0.792454  0.584909  0.943336  1
  Sc  Sc16  1  0.415091  0.207546  0.943336  1
  Sc  Sc17  1  0.207546  0.792454  0.056664  1
  Sc  Sc18  1  0.207546  0.415091  0.056664  1
  Sc  Sc19  1  0.584909  0.792454  0.056664  1
  Zn  Zn20  1  0.890131  0.109869  0.250000  1
  Zn  Zn21  1  0.890131  0.780262  0.250000  1
  Zn  Zn22  1  0.219738  0.109869  0.250000  1
  Zn  Zn23  1  0.109869  0.890131  0.750000  1
  Zn  Zn24  1  0.109869  0.219738  0.750000  1
  Zn  Zn25  1  0.780262  0.890131  0.750000  1
  Tc  Tc26  1  0.333333  0.666667  0.250000  1
  Tc  Tc27  1  0.666667  0.333333  0.750000  1
