# generated using pymatgen
data_Yb3ScSb3
_symmetry_space_group_name_H-M   'P 1'
_cell_length_a   7.98625725
_cell_length_b   7.98625703
_cell_length_c   8.04233774
_cell_angle_alpha   70.61239445
_cell_angle_beta   70.61239228
_cell_angle_gamma   109.01776647
_symmetry_Int_Tables_number   1
_chemical_formula_structural   Yb3ScSb3
_chemical_formula_sum   'Yb6 Sc2 Sb6'
_cell_volume   397.85528133
_cell_formula_units_Z   2
loop_
 _symmetry_equiv_pos_site_id
 _symmetry_equiv_pos_as_xyz
  1  'x, y, z'
loop_
 _atom_site_type_symbol
 _atom_site_label
 _atom_site_symmetry_multiplicity
 _atom_site_fract_x
 _atom_site_fract_y
 _atom_site_fract_z
 _atom_site_occupancy
  Yb  Yb0  1  0.000232  0.357692  0.496268  1
  Yb  Yb1  1  0.496016  0.497263  0.149857  1
  Yb  Yb2  1  0.646351  0.149439  0.354668  1
  Yb  Yb3  1  0.357692  0.000232  0.996268  1
  Yb  Yb4  1  0.497263  0.496016  0.649857  1
  Yb  Yb5  1  0.149439  0.646351  0.854668  1
  Sc  Sc6  1  0.857513  0.001498  0.998047  1
  Sc  Sc7  1  0.001498  0.857513  0.498047  1
  Sb  Sb8  1  0.644514  0.874970  0.747159  1
  Sb  Sb9  1  0.874970  0.644514  0.247159  1
  Sb  Sb10  1  0.227142  0.110642  0.633730  1
  Sb  Sb11  1  0.758846  0.377882  0.870270  1
  Sb  Sb12  1  0.377882  0.758846  0.370270  1
  Sb  Sb13  1  0.110642  0.227142  0.133730  1
