# generated using pymatgen
data_Ta4SiNiH2
_symmetry_space_group_name_H-M   'P 1'
_cell_length_a   5.11926402
_cell_length_b   5.11926434
_cell_length_c   5.11926563
_cell_angle_alpha   104.46991298
_cell_angle_beta   104.46991421
_cell_angle_gamma   120.01699916
_symmetry_Int_Tables_number   1
_chemical_formula_structural   Ta4SiNiH2
_chemical_formula_sum   'Ta4 Si1 Ni1 H2'
_cell_volume   100.61129888
_cell_formula_units_Z   1
loop_
 _symmetry_equiv_pos_site_id
 _symmetry_equiv_pos_as_xyz
  1  'x, y, z'
loop_
 _atom_site_type_symbol
 _atom_site_label
 _atom_site_symmetry_multiplicity
 _atom_site_fract_x
 _atom_site_fract_y
 _atom_site_fract_z
 _atom_site_occupancy
  Ta  Ta0  1  0.166589  0.666589  0.833178  1
  Ta  Ta1  1  0.833411  0.333411  0.166822  1
  Ta  Ta2  1  0.333411  0.166589  0.500000  1
  Ta  Ta3  1  0.666589  0.833411  0.500000  1
  Si  Si4  1  0.750000  0.750000  0.000000  1
  Ni  Ni5  1  0.250000  0.250000  0.000000  1
  H  H6  1  0.750000  0.250000  0.500000  1
  H  H7  1  0.250000  0.750000  0.500000  1
