# generated using pymatgen
data_DyY3(Si5Os3)2
_symmetry_space_group_name_H-M   'P 1'
_cell_length_a   8.14323294
_cell_length_b   8.14390013
_cell_length_c   5.81000301
_cell_angle_alpha   70.51621065
_cell_angle_beta   70.46832773
_cell_angle_gamma   93.94251620
_symmetry_Int_Tables_number   1
_chemical_formula_structural   DyY3(Si5Os3)2
_chemical_formula_sum   'Dy1 Y3 Si10 Os6'
_cell_volume   335.21931530
_cell_formula_units_Z   1
loop_
 _symmetry_equiv_pos_site_id
 _symmetry_equiv_pos_as_xyz
  1  'x, y, z'
loop_
 _atom_site_type_symbol
 _atom_site_label
 _atom_site_symmetry_multiplicity
 _atom_site_fract_x
 _atom_site_fract_y
 _atom_site_fract_z
 _atom_site_occupancy
  Dy  Dy0  1  0.600459  0.869113  0.255317  1
  Y  Y1  1  0.869222  0.602093  0.751994  1
  Y  Y2  1  0.398170  0.132193  0.745747  1
  Y  Y3  1  0.132257  0.397512  0.246740  1
  Si  Si4  1  0.067177  0.261170  0.834425  1
  Si  Si5  1  0.737602  0.932573  0.667665  1
  Si  Si6  1  0.931301  0.739382  0.165219  1
  Si  Si7  1  0.262198  0.066474  0.333606  1
  Si  Si8  1  0.207088  0.793693  0.748166  1
  Si  Si9  1  0.793415  0.206364  0.251019  1
  Si  Si10  1  0.513490  0.487465  0.750345  1
  Si  Si11  1  0.487580  0.512701  0.249330  1
  Si  Si12  1  0.773908  0.225761  0.749326  1
  Si  Si13  1  0.226080  0.774474  0.250492  1
  Os  Os14  1  0.256371  0.542921  0.631737  1
  Os  Os15  1  0.455627  0.743636  0.869918  1
  Os  Os16  1  0.744290  0.456920  0.367733  1
  Os  Os17  1  0.544348  0.255991  0.130729  1
  Os  Os18  1  0.002265  0.997699  0.749722  1
  Os  Os19  1  0.997156  0.001864  0.250767  1
