# generated using pymatgen
data_Eu10Zn2Ni3Ru
_symmetry_space_group_name_H-M   'P 1'
_cell_length_a   9.13097592
_cell_length_b   9.13097609
_cell_length_c   9.08644300
_cell_angle_alpha   129.08960063
_cell_angle_beta   129.08960130
_cell_angle_gamma   75.23117526
_symmetry_Int_Tables_number   1
_chemical_formula_structural   Eu10Zn2Ni3Ru
_chemical_formula_sum   'Eu10 Zn2 Ni3 Ru1'
_cell_volume   443.40507490
_cell_formula_units_Z   1
loop_
 _symmetry_equiv_pos_site_id
 _symmetry_equiv_pos_as_xyz
  1  'x, y, z'
loop_
 _atom_site_type_symbol
 _atom_site_label
 _atom_site_symmetry_multiplicity
 _atom_site_fract_x
 _atom_site_fract_y
 _atom_site_fract_z
 _atom_site_occupancy
  Eu  Eu0  1  0.497680  0.500657  0.998338  1
  Eu  Eu1  1  0.000657  0.997680  0.998338  1
  Eu  Eu2  1  0.533897  0.033897  0.840227  1
  Eu  Eu3  1  0.190114  0.690114  0.151921  1
  Eu  Eu4  1  0.034167  0.196025  0.503524  1
  Eu  Eu5  1  0.696025  0.534167  0.503524  1
  Eu  Eu6  1  0.461807  0.961807  0.151921  1
  Eu  Eu7  1  0.806330  0.306330  0.840227  1
  Eu  Eu8  1  0.969357  0.807499  0.503524  1
  Eu  Eu9  1  0.307499  0.469357  0.503524  1
  Zn  Zn10  1  0.250550  0.250550  0.001100  1
  Zn  Zn11  1  0.750550  0.750550  0.001100  1
  Ni  Ni12  1  0.882772  0.382772  0.265545  1
  Ni  Ni13  1  0.610828  0.890505  0.501333  1
  Ni  Ni14  1  0.390505  0.110828  0.501333  1
  Ru  Ru15  1  0.117260  0.617260  0.734519  1
