# generated using pymatgen
data_Tm4MgBiRu2
_symmetry_space_group_name_H-M   'P 1'
_cell_length_a   9.07439375
_cell_length_b   9.07439310
_cell_length_c   9.07439278
_cell_angle_alpha   132.76250113
_cell_angle_beta   132.76249785
_cell_angle_gamma   69.02737341
_symmetry_Int_Tables_number   1
_chemical_formula_structural   Tm4MgBiRu2
_chemical_formula_sum   'Tm8 Mg2 Bi2 Ru4'
_cell_volume   395.33299836
_cell_formula_units_Z   2
loop_
 _symmetry_equiv_pos_site_id
 _symmetry_equiv_pos_as_xyz
  1  'x, y, z'
loop_
 _atom_site_type_symbol
 _atom_site_label
 _atom_site_symmetry_multiplicity
 _atom_site_fract_x
 _atom_site_fract_y
 _atom_site_fract_z
 _atom_site_occupancy
  Tm  Tm0  1  0.794664  0.294664  0.840721  1
  Tm  Tm1  1  0.205336  0.705336  0.159279  1
  Tm  Tm2  1  0.453944  0.953944  0.159279  1
  Tm  Tm3  1  0.294664  0.453944  0.500000  1
  Tm  Tm4  1  0.046056  0.205336  0.500000  1
  Tm  Tm5  1  0.546056  0.046056  0.840721  1
  Tm  Tm6  1  0.705336  0.546056  0.500000  1
  Tm  Tm7  1  0.953944  0.794664  0.500000  1
  Mg  Mg8  1  0.000000  0.000000  0.000000  1
  Mg  Mg9  1  0.500000  0.500000  0.000000  1
  Bi  Bi10  1  0.250000  0.250000  0.000000  1
  Bi  Bi11  1  0.750000  0.750000  0.000000  1
  Ru  Ru12  1  0.131439  0.631439  0.762878  1
  Ru  Ru13  1  0.868561  0.368561  0.237122  1
  Ru  Ru14  1  0.631439  0.868561  0.500000  1
  Ru  Ru15  1  0.368561  0.131439  0.500000  1
