# generated using pymatgen
data_Dy2Er18Cd3Ag3Ru2
_symmetry_space_group_name_H-M   'P 1'
_cell_length_a   9.50696808
_cell_length_b   9.50660548
_cell_length_c   9.61110100
_cell_angle_alpha   90.00352941
_cell_angle_beta   89.99762061
_cell_angle_gamma   119.98981881
_symmetry_Int_Tables_number   1
_chemical_formula_structural   Dy2Er18Cd3Ag3Ru2
_chemical_formula_sum   'Dy2 Er18 Cd3 Ag3 Ru2'
_cell_volume   752.34289772
_cell_formula_units_Z   1
loop_
 _symmetry_equiv_pos_site_id
 _symmetry_equiv_pos_as_xyz
  1  'x, y, z'
loop_
 _atom_site_type_symbol
 _atom_site_label
 _atom_site_symmetry_multiplicity
 _atom_site_fract_x
 _atom_site_fract_y
 _atom_site_fract_z
 _atom_site_occupancy
  Dy  Dy0  1  0.000021  0.999976  0.476675  1
  Dy  Dy1  1  0.540734  0.459271  0.250223  1
  Er  Er2  1  0.000017  0.999984  0.022115  1
  Er  Er3  1  0.210192  0.789799  0.441342  1
  Er  Er4  1  0.209952  0.420229  0.441417  1
  Er  Er5  1  0.579757  0.790041  0.441428  1
  Er  Er6  1  0.790978  0.208999  0.559261  1
  Er  Er7  1  0.791124  0.582073  0.559310  1
  Er  Er8  1  0.417939  0.208878  0.559285  1
  Er  Er9  1  0.791068  0.208909  0.940570  1
  Er  Er10  1  0.791186  0.582161  0.940551  1
  Er  Er11  1  0.417855  0.208820  0.940568  1
  Er  Er12  1  0.210211  0.789797  0.059024  1
  Er  Er13  1  0.209958  0.420290  0.058929  1
  Er  Er14  1  0.579711  0.790047  0.058924  1
  Er  Er15  1  0.540750  0.081360  0.250255  1
  Er  Er16  1  0.918637  0.459248  0.250250  1
  Er  Er17  1  0.459014  0.540996  0.749768  1
  Er  Er18  1  0.459027  0.918012  0.749784  1
  Er  Er19  1  0.081972  0.540970  0.749781  1
  Cd  Cd20  1  0.111499  0.888494  0.750177  1
  Cd  Cd21  1  0.111521  0.223100  0.750180  1
  Cd  Cd22  1  0.776903  0.888484  0.750179  1
  Ag  Ag23  1  0.876227  0.123778  0.249962  1
  Ag  Ag24  1  0.876355  0.752606  0.249954  1
  Ag  Ag25  1  0.247388  0.123645  0.249944  1
  Ru  Ru26  1  0.333347  0.666659  0.250084  1
  Ru  Ru27  1  0.666657  0.333372  0.750060  1
