# generated using pymatgen
data_Th3AlIn2Ir2Pd
_symmetry_space_group_name_H-M   'P 1'
_cell_length_a   7.64838234
_cell_length_b   7.64838103
_cell_length_c   4.03907300
_cell_angle_alpha   90.00000000
_cell_angle_beta   90.00000000
_cell_angle_gamma   120.66123938
_symmetry_Int_Tables_number   1
_chemical_formula_structural   Th3AlIn2Ir2Pd
_chemical_formula_sum   'Th3 Al1 In2 Ir2 Pd1'
_cell_volume   203.24457505
_cell_formula_units_Z   1
loop_
 _symmetry_equiv_pos_site_id
 _symmetry_equiv_pos_as_xyz
  1  'x, y, z'
loop_
 _atom_site_type_symbol
 _atom_site_label
 _atom_site_symmetry_multiplicity
 _atom_site_fract_x
 _atom_site_fract_y
 _atom_site_fract_z
 _atom_site_occupancy
  Th  Th0  1  0.418003  0.006022  0.500000  1
  Th  Th1  1  0.006022  0.418003  0.500000  1
  Th  Th2  1  0.573247  0.573247  0.500000  1
  Al  Al3  1  0.249064  0.249064  0.000000  1
  In  In4  1  0.753564  0.997945  0.000000  1
  In  In5  1  0.997945  0.753564  0.000000  1
  Ir  Ir6  1  0.326606  0.646229  0.000000  1
  Ir  Ir7  1  0.646229  0.326606  0.000000  1
  Pd  Pd8  1  0.029320  0.029320  0.500000  1
