# generated using pymatgen
data_LiPr4(Nd2Rh3)2
_symmetry_space_group_name_H-M   'P 1'
_cell_length_a   7.61966998
_cell_length_b   7.61889114
_cell_length_c   7.61781827
_cell_angle_alpha   70.40028492
_cell_angle_beta   70.43531107
_cell_angle_gamma   70.42249209
_symmetry_Int_Tables_number   1
_chemical_formula_structural   LiPr4(Nd2Rh3)2
_chemical_formula_sum   'Li1 Pr4 Nd4 Rh6'
_cell_volume   380.00210252
_cell_formula_units_Z   1
loop_
 _symmetry_equiv_pos_site_id
 _symmetry_equiv_pos_as_xyz
  1  'x, y, z'
loop_
 _atom_site_type_symbol
 _atom_site_label
 _atom_site_symmetry_multiplicity
 _atom_site_fract_x
 _atom_site_fract_y
 _atom_site_fract_z
 _atom_site_occupancy
  Li  Li0  1  0.999965  0.000123  0.999998  1
  Pr  Pr1  1  0.384573  0.673854  0.149782  1
  Pr  Pr2  1  0.850433  0.615367  0.326023  1
  Pr  Pr3  1  0.325953  0.850624  0.615324  1
  Pr  Pr4  1  0.615491  0.325821  0.850326  1
  Nd  Nd5  1  0.810786  0.810736  0.810514  1
  Nd  Nd6  1  0.189175  0.189369  0.189287  1
  Nd  Nd7  1  0.149498  0.384270  0.674512  1
  Nd  Nd8  1  0.674424  0.149467  0.384426  1
  Rh  Rh9  1  0.949746  0.177745  0.576438  1
  Rh  Rh10  1  0.576632  0.950014  0.177786  1
  Rh  Rh11  1  0.177528  0.576330  0.949540  1
  Rh  Rh12  1  0.050023  0.822397  0.423651  1
  Rh  Rh13  1  0.423351  0.050770  0.821931  1
  Rh  Rh14  1  0.822422  0.423113  0.050464  1
