# generated using pymatgen
data_Tb4Dy4Sc12Si15Ag
_symmetry_space_group_name_H-M   'P 1'
_cell_length_a   7.14781405
_cell_length_b   7.38955655
_cell_length_c   14.10117405
_cell_angle_alpha   89.90860729
_cell_angle_beta   89.62239540
_cell_angle_gamma   90.18866010
_symmetry_Int_Tables_number   1
_chemical_formula_structural   Tb4Dy4Sc12Si15Ag
_chemical_formula_sum   'Tb4 Dy4 Sc12 Si15 Ag1'
_cell_volume   744.79121001
_cell_formula_units_Z   1
loop_
 _symmetry_equiv_pos_site_id
 _symmetry_equiv_pos_as_xyz
  1  'x, y, z'
loop_
 _atom_site_type_symbol
 _atom_site_label
 _atom_site_symmetry_multiplicity
 _atom_site_fract_x
 _atom_site_fract_y
 _atom_site_fract_z
 _atom_site_occupancy
  Tb  Tb0  1  0.012378  0.175177  0.097788  1
  Tb  Tb1  1  0.987459  0.826058  0.903767  1
  Tb  Tb2  1  0.487155  0.676279  0.903610  1
  Tb  Tb3  1  0.988412  0.830807  0.597650  1
  Dy  Dy4  1  0.512213  0.324062  0.096877  1
  Dy  Dy5  1  0.009148  0.171777  0.398910  1
  Dy  Dy6  1  0.512487  0.323199  0.400006  1
  Dy  Dy7  1  0.493557  0.677923  0.599910  1
  Sc  Sc8  1  0.162996  0.501302  0.752978  1
  Sc  Sc9  1  0.837927  0.498644  0.250920  1
  Sc  Sc10  1  0.338013  0.000263  0.248917  1
  Sc  Sc11  1  0.664603  0.996460  0.751296  1
  Sc  Sc12  1  0.341255  0.173063  0.626707  1
  Sc  Sc13  1  0.665565  0.823400  0.373971  1
  Sc  Sc14  1  0.167483  0.675185  0.372112  1
  Sc  Sc15  1  0.670164  0.824404  0.124678  1
  Sc  Sc16  1  0.825874  0.325367  0.625194  1
  Sc  Sc17  1  0.328706  0.175110  0.876159  1
  Sc  Sc18  1  0.829995  0.322683  0.876011  1
  Sc  Sc19  1  0.169269  0.676353  0.125084  1
  Si  Si20  1  0.035912  0.121343  0.750030  1
  Si  Si21  1  0.965421  0.882785  0.249000  1
  Si  Si22  1  0.466604  0.616212  0.248332  1
  Si  Si23  1  0.534432  0.384982  0.751992  1
  Si  Si24  1  0.285054  0.874210  0.750743  1
  Si  Si25  1  0.712676  0.127059  0.248622  1
  Si  Si26  1  0.214693  0.371705  0.248796  1
  Si  Si27  1  0.787911  0.626820  0.752145  1
  Si  Si28  1  0.835194  0.537673  0.459135  1
  Si  Si29  1  0.338668  0.962277  0.460716  1
  Si  Si30  1  0.843612  0.535383  0.039142  1
  Si  Si31  1  0.658499  0.036208  0.537876  1
  Si  Si32  1  0.155135  0.464424  0.961734  1
  Si  Si33  1  0.656588  0.035341  0.960685  1
  Si  Si34  1  0.343113  0.964609  0.039861  1
  Ag  Ag35  1  0.161832  0.461454  0.538643  1
