# generated using pymatgen
data_Pa6Al24Fe5Tc3
_symmetry_space_group_name_H-M   'P 1'
_cell_length_a   8.83345800
_cell_length_b   8.83345797
_cell_length_c   9.29626000
_cell_angle_alpha   90.00000000
_cell_angle_beta   90.00000000
_cell_angle_gamma   120.00000010
_symmetry_Int_Tables_number   1
_chemical_formula_structural   Pa6Al24Fe5Tc3
_chemical_formula_sum   'Pa6 Al24 Fe5 Tc3'
_cell_volume   628.20355323
_cell_formula_units_Z   1
loop_
 _symmetry_equiv_pos_site_id
 _symmetry_equiv_pos_as_xyz
  1  'x, y, z'
loop_
 _atom_site_type_symbol
 _atom_site_label
 _atom_site_symmetry_multiplicity
 _atom_site_fract_x
 _atom_site_fract_y
 _atom_site_fract_z
 _atom_site_occupancy
  Pa  Pa0  1  0.800780  0.199220  0.752500  1
  Pa  Pa1  1  0.199220  0.800780  0.247500  1
  Pa  Pa2  1  0.398442  0.199220  0.752500  1
  Pa  Pa3  1  0.601558  0.800780  0.247500  1
  Pa  Pa4  1  0.800780  0.601558  0.752500  1
  Pa  Pa5  1  0.199220  0.398442  0.247500  1
  Al  Al6  1  0.666667  0.333333  0.995634  1
  Al  Al7  1  0.333333  0.666667  0.004366  1
  Al  Al8  1  0.333333  0.666667  0.487493  1
  Al  Al9  1  0.666667  0.333333  0.512507  1
  Al  Al10  1  0.840731  0.159269  0.423548  1
  Al  Al11  1  0.159269  0.840731  0.576452  1
  Al  Al12  1  0.318540  0.159269  0.423548  1
  Al  Al13  1  0.157987  0.842013  0.917175  1
  Al  Al14  1  0.681460  0.840731  0.576452  1
  Al  Al15  1  0.842013  0.157987  0.082825  1
  Al  Al16  1  0.840731  0.681460  0.423548  1
  Al  Al17  1  0.684025  0.842013  0.917175  1
  Al  Al18  1  0.159269  0.318540  0.576452  1
  Al  Al19  1  0.315975  0.157987  0.082825  1
  Al  Al20  1  0.157987  0.315975  0.917175  1
  Al  Al21  1  0.842013  0.684025  0.082825  1
  Al  Al22  1  0.438727  0.561273  0.742105  1
  Al  Al23  1  0.561273  0.438727  0.257895  1
  Al  Al24  1  0.122547  0.561273  0.742105  1
  Al  Al25  1  0.877453  0.438727  0.257895  1
  Al  Al26  1  0.438727  0.877453  0.742105  1
  Al  Al27  1  0.561273  0.122547  0.257895  1
  Al  Al28  1  0.000000  0.000000  0.749560  1
  Al  Al29  1  0.000000  0.000000  0.250440  1
  Fe  Fe30  1  0.500000  0.500000  0.500000  1
  Fe  Fe31  1  0.000000  0.500000  0.500000  1
  Fe  Fe32  1  0.500000  0.000000  0.500000  1
  Fe  Fe33  1  0.000000  0.000000  0.000000  1
  Fe  Fe34  1  0.000000  0.000000  0.500000  1
  Tc  Tc35  1  0.500000  0.500000  0.000000  1
  Tc  Tc36  1  0.000000  0.500000  0.000000  1
  Tc  Tc37  1  0.500000  0.000000  0.000000  1
