# generated using pymatgen
data_V9Si6TcH2
_symmetry_space_group_name_H-M   'P 1'
_cell_length_a   4.84504200
_cell_length_b   7.11839704
_cell_length_c   7.10711632
_cell_angle_alpha   120.05468670
_cell_angle_beta   90.00015976
_cell_angle_gamma   89.99969894
_symmetry_Int_Tables_number   1
_chemical_formula_structural   V9Si6TcH2
_chemical_formula_sum   'V9 Si6 Tc1 H2'
_cell_volume   212.16035003
_cell_formula_units_Z   1
loop_
 _symmetry_equiv_pos_site_id
 _symmetry_equiv_pos_as_xyz
  1  'x, y, z'
loop_
 _atom_site_type_symbol
 _atom_site_label
 _atom_site_symmetry_multiplicity
 _atom_site_fract_x
 _atom_site_fract_y
 _atom_site_fract_z
 _atom_site_occupancy
  V  V0  1  0.499236  0.335213  0.664962  1
  V  V1  1  0.499201  0.670373  0.335042  1
  V  V2  1  0.000796  0.670364  0.335041  1
  V  V3  1  0.000773  0.335207  0.664972  1
  V  V4  1  0.749960  0.757329  0.757636  1
  V  V5  1  0.749942  0.999661  0.242229  1
  V  V6  1  0.250058  0.761522  0.000018  1
  V  V7  1  0.250020  0.238264  0.240876  1
  V  V8  1  0.250012  0.997421  0.759270  1
  Si  Si9  1  0.750044  0.601716  0.999874  1
  Si  Si10  1  0.750024  0.399183  0.397472  1
  Si  Si11  1  0.750005  0.001825  0.602530  1
  Si  Si12  1  0.250021  0.399839  0.999950  1
  Si  Si13  1  0.249963  0.600304  0.599283  1
  Si  Si14  1  0.249958  0.001093  0.400774  1
  Tc  Tc15  1  0.749995  0.244346  0.000051  1
  H  H16  1  0.493976  0.993170  0.000011  1
  H  H17  1  0.006018  0.993170  0.000009  1
