# generated using pymatgen
data_Ho5Hf2Sc(Co4P3)4
_symmetry_space_group_name_H-M   'P 1'
_cell_length_a   12.23239849
_cell_length_b   12.23239673
_cell_length_c   3.69585600
_cell_angle_alpha   90.00000000
_cell_angle_beta   90.00000000
_cell_angle_gamma   120.09823553
_symmetry_Int_Tables_number   1
_chemical_formula_structural   Ho5Hf2Sc(Co4P3)4
_chemical_formula_sum   'Ho5 Hf2 Sc1 Co16 P12'
_cell_volume   478.45169578
_cell_formula_units_Z   1
loop_
 _symmetry_equiv_pos_site_id
 _symmetry_equiv_pos_as_xyz
  1  'x, y, z'
loop_
 _atom_site_type_symbol
 _atom_site_label
 _atom_site_symmetry_multiplicity
 _atom_site_fract_x
 _atom_site_fract_y
 _atom_site_fract_z
 _atom_site_occupancy
  Ho  Ho0  1  0.666137  0.332872  0.000000  1
  Ho  Ho1  1  0.332872  0.666137  0.000000  1
  Ho  Ho2  1  0.816532  0.816532  0.500000  1
  Ho  Ho3  1  0.182509  0.999417  0.500000  1
  Ho  Ho4  1  0.999417  0.182509  0.500000  1
  Hf  Hf5  1  0.558783  0.999573  0.000000  1
  Hf  Hf6  1  0.999573  0.558783  0.000000  1
  Sc  Sc7  1  0.440749  0.440749  0.000000  1
  Co  Co8  1  0.875057  0.356389  0.500000  1
  Co  Co9  1  0.644564  0.519948  0.500000  1
  Co  Co10  1  0.479762  0.123911  0.500000  1
  Co  Co11  1  0.356389  0.875057  0.500000  1
  Co  Co12  1  0.519948  0.644564  0.500000  1
  Co  Co13  1  0.123911  0.479762  0.500000  1
  Co  Co14  1  0.804891  0.178320  0.000000  1
  Co  Co15  1  0.821958  0.626926  0.000000  1
  Co  Co16  1  0.374076  0.195347  0.000000  1
  Co  Co17  1  0.178320  0.804891  0.000000  1
  Co  Co18  1  0.626926  0.821958  0.000000  1
  Co  Co19  1  0.195347  0.374076  0.000000  1
  Co  Co20  1  0.278503  0.278503  0.500000  1
  Co  Co21  1  0.721935  0.000557  0.500000  1
  Co  Co22  1  0.000557  0.721935  0.500000  1
  Co  Co23  1  0.000792  0.000792  0.000000  1
  P  P24  1  0.692277  0.171536  0.500000  1
  P  P25  1  0.828032  0.521120  0.500000  1
  P  P26  1  0.479185  0.308191  0.500000  1
  P  P27  1  0.171536  0.692277  0.500000  1
  P  P28  1  0.521120  0.828032  0.500000  1
  P  P29  1  0.308191  0.479185  0.500000  1
  P  P30  1  0.179202  0.179202  0.000000  1
  P  P31  1  0.822100  0.999835  0.000000  1
  P  P32  1  0.999835  0.822100  0.000000  1
  P  P33  1  0.646000  0.646000  0.000000  1
  P  P34  1  0.352308  0.000705  0.000000  1
  P  P35  1  0.000705  0.352308  0.000000  1
