# generated using pymatgen
data_NaSm6PtCl12
_symmetry_space_group_name_H-M   'P 1'
_cell_length_a   9.16958833
_cell_length_b   9.16650955
_cell_length_c   9.14887424
_cell_angle_alpha   107.27319632
_cell_angle_beta   107.59935609
_cell_angle_gamma   107.43927395
_symmetry_Int_Tables_number   1
_chemical_formula_structural   NaSm6PtCl12
_chemical_formula_sum   'Na1 Sm6 Pt1 Cl12'
_cell_volume   632.62480505
_cell_formula_units_Z   1
loop_
 _symmetry_equiv_pos_site_id
 _symmetry_equiv_pos_as_xyz
  1  'x, y, z'
loop_
 _atom_site_type_symbol
 _atom_site_label
 _atom_site_symmetry_multiplicity
 _atom_site_fract_x
 _atom_site_fract_y
 _atom_site_fract_z
 _atom_site_occupancy
  Na  Na0  1  0.500000  0.500000  0.500000  1
  Sm  Sm1  1  0.122132  0.329332  0.024389  1
  Sm  Sm2  1  0.330012  0.025785  0.121332  1
  Sm  Sm3  1  0.025050  0.118861  0.326180  1
  Sm  Sm4  1  0.974951  0.881139  0.673821  1
  Sm  Sm5  1  0.669988  0.974216  0.878668  1
  Sm  Sm6  1  0.877868  0.670668  0.975611  1
  Pt  Pt7  1  0.000000  0.000000  0.000000  1
  Cl  Cl8  1  0.207613  0.682456  0.073418  1
  Cl  Cl9  1  0.450953  0.361222  0.160638  1
  Cl  Cl10  1  0.682730  0.074416  0.206994  1
  Cl  Cl11  1  0.929576  0.792061  0.319864  1
  Cl  Cl12  1  0.160919  0.447078  0.358880  1
  Cl  Cl13  1  0.360883  0.158763  0.448832  1
  Cl  Cl14  1  0.639117  0.841237  0.551169  1
  Cl  Cl15  1  0.839082  0.552922  0.641120  1
  Cl  Cl16  1  0.070425  0.207939  0.680137  1
  Cl  Cl17  1  0.317271  0.925585  0.793006  1
  Cl  Cl18  1  0.549047  0.638778  0.839363  1
  Cl  Cl19  1  0.792387  0.317544  0.926582  1
