# generated using pymatgen
data_Dy11YTc3Ir
_symmetry_space_group_name_H-M   'P 1'
_cell_length_a   6.29473186
_cell_length_b   7.41921671
_cell_length_c   9.15554500
_cell_angle_alpha   90.00000000
_cell_angle_beta   90.00000000
_cell_angle_gamma   89.92115117
_symmetry_Int_Tables_number   1
_chemical_formula_structural   Dy11YTc3Ir
_chemical_formula_sum   'Dy11 Y1 Tc3 Ir1'
_cell_volume   427.58167252
_cell_formula_units_Z   1
loop_
 _symmetry_equiv_pos_site_id
 _symmetry_equiv_pos_as_xyz
  1  'x, y, z'
loop_
 _atom_site_type_symbol
 _atom_site_label
 _atom_site_symmetry_multiplicity
 _atom_site_fract_x
 _atom_site_fract_y
 _atom_site_fract_z
 _atom_site_occupancy
  Dy  Dy0  1  0.333488  0.675898  0.064812  1
  Dy  Dy1  1  0.162808  0.175669  0.436324  1
  Dy  Dy2  1  0.664659  0.323014  0.561703  1
  Dy  Dy3  1  0.835805  0.825389  0.937965  1
  Dy  Dy4  1  0.664659  0.323014  0.938297  1
  Dy  Dy5  1  0.835805  0.825389  0.562035  1
  Dy  Dy6  1  0.333488  0.675898  0.435188  1
  Dy  Dy7  1  0.162808  0.175669  0.063676  1
  Dy  Dy8  1  0.874148  0.541863  0.250000  1
  Dy  Dy9  1  0.625119  0.039426  0.250000  1
  Dy  Dy10  1  0.370745  0.959053  0.750000  1
  Y  Y11  1  0.131095  0.457722  0.750000  1
  Tc  Tc12  1  0.039321  0.884071  0.250000  1
  Tc  Tc13  1  0.462994  0.386622  0.250000  1
  Tc  Tc14  1  0.959503  0.115185  0.750000  1
  Ir  Ir15  1  0.543557  0.616117  0.750000  1
