# generated using pymatgen
data_CePr4Nd11(CdPt)4
_symmetry_space_group_name_H-M   'P 1'
_cell_length_a   10.06892179
_cell_length_b   10.06203829
_cell_length_c   10.06203783
_cell_angle_alpha   59.72515250
_cell_angle_beta   59.69888677
_cell_angle_gamma   59.69888601
_symmetry_Int_Tables_number   1
_chemical_formula_structural   CePr4Nd11(CdPt)4
_chemical_formula_sum   'Ce1 Pr4 Nd11 Cd4 Pt4'
_cell_volume   716.05476122
_cell_formula_units_Z   1
loop_
 _symmetry_equiv_pos_site_id
 _symmetry_equiv_pos_as_xyz
  1  'x, y, z'
loop_
 _atom_site_type_symbol
 _atom_site_label
 _atom_site_symmetry_multiplicity
 _atom_site_fract_x
 _atom_site_fract_y
 _atom_site_fract_z
 _atom_site_occupancy
  Ce  Ce0  1  0.347912  0.348104  0.348104  1
  Pr  Pr1  1  0.351676  0.352113  0.945666  1
  Pr  Pr2  1  0.351676  0.945666  0.352113  1
  Pr  Pr3  1  0.946497  0.351467  0.351467  1
  Pr  Pr4  1  0.808911  0.191910  0.191910  1
  Nd  Nd5  1  0.189687  0.809324  0.809324  1
  Nd  Nd6  1  0.192123  0.808818  0.192019  1
  Nd  Nd7  1  0.808988  0.190314  0.808791  1
  Nd  Nd8  1  0.192123  0.192019  0.808818  1
  Nd  Nd9  1  0.808988  0.808791  0.190314  1
  Nd  Nd10  1  0.942614  0.562667  0.562667  1
  Nd  Nd11  1  0.562077  0.934699  0.934699  1
  Nd  Nd12  1  0.562106  0.941748  0.563488  1
  Nd  Nd13  1  0.934403  0.563073  0.933837  1
  Nd  Nd14  1  0.562106  0.563488  0.941748  1
  Nd  Nd15  1  0.934403  0.933837  0.563073  1
  Cd  Cd16  1  0.581730  0.581447  0.581447  1
  Cd  Cd17  1  0.577965  0.578364  0.259176  1
  Cd  Cd18  1  0.577965  0.259176  0.578364  1
  Cd  Cd19  1  0.259027  0.578095  0.578095  1
  Pt  Pt20  1  0.145126  0.142509  0.142509  1
  Pt  Pt21  1  0.146346  0.146473  0.570080  1
  Pt  Pt22  1  0.146346  0.570080  0.146473  1
  Pt  Pt23  1  0.569206  0.145822  0.145822  1
