# generated using pymatgen
data_Eu6CuNi13B4
_symmetry_space_group_name_H-M   'P 1'
_cell_length_a   5.18194600
_cell_length_b   5.18194574
_cell_length_c   14.46463800
_cell_angle_alpha   90.00000000
_cell_angle_beta   90.00000000
_cell_angle_gamma   120.00001442
_symmetry_Int_Tables_number   1
_chemical_formula_structural   Eu6CuNi13B4
_chemical_formula_sum   'Eu6 Cu1 Ni13 B4'
_cell_volume   336.37513263
_cell_formula_units_Z   1
loop_
 _symmetry_equiv_pos_site_id
 _symmetry_equiv_pos_as_xyz
  1  'x, y, z'
loop_
 _atom_site_type_symbol
 _atom_site_label
 _atom_site_symmetry_multiplicity
 _atom_site_fract_x
 _atom_site_fract_y
 _atom_site_fract_z
 _atom_site_occupancy
  Eu  Eu0  1  0.666667  0.333333  0.532141  1
  Eu  Eu1  1  0.333333  0.666667  0.467859  1
  Eu  Eu2  1  0.333333  0.666667  0.035711  1
  Eu  Eu3  1  0.666667  0.333333  0.748569  1
  Eu  Eu4  1  0.666667  0.333333  0.964289  1
  Eu  Eu5  1  0.333333  0.666667  0.251431  1
  Cu  Cu6  1  0.000000  0.000000  0.000000  1
  Ni  Ni7  1  0.164322  0.328645  0.653422  1
  Ni  Ni8  1  0.328645  0.164322  0.346578  1
  Ni  Ni9  1  0.331216  0.165608  0.153867  1
  Ni  Ni10  1  0.165608  0.834392  0.846133  1
  Ni  Ni11  1  0.835678  0.671355  0.346578  1
  Ni  Ni12  1  0.834392  0.165608  0.153867  1
  Ni  Ni13  1  0.671355  0.835678  0.653422  1
  Ni  Ni14  1  0.668784  0.834392  0.846133  1
  Ni  Ni15  1  0.164322  0.835678  0.653422  1
  Ni  Ni16  1  0.834392  0.668784  0.153867  1
  Ni  Ni17  1  0.165608  0.331216  0.846133  1
  Ni  Ni18  1  0.835678  0.164322  0.346578  1
  Ni  Ni19  1  0.000000  0.000000  0.500000  1
  B  B20  1  0.666667  0.333333  0.250360  1
  B  B21  1  0.000000  0.000000  0.750167  1
  B  B22  1  0.333333  0.666667  0.749640  1
  B  B23  1  0.000000  0.000000  0.249833  1
