# generated using pymatgen
data_Ho3Er5(TmRh)4
_symmetry_space_group_name_H-M   'P 1'
_cell_length_a   6.26633112
_cell_length_b   7.12990100
_cell_length_c   9.30673301
_cell_angle_alpha   89.99703771
_cell_angle_beta   89.99604854
_cell_angle_gamma   89.98963496
_symmetry_Int_Tables_number   1
_chemical_formula_structural   Ho3Er5(TmRh)4
_chemical_formula_sum   'Ho3 Er5 Tm4 Rh4'
_cell_volume   415.80919201
_cell_formula_units_Z   1
loop_
 _symmetry_equiv_pos_site_id
 _symmetry_equiv_pos_as_xyz
  1  'x, y, z'
loop_
 _atom_site_type_symbol
 _atom_site_label
 _atom_site_symmetry_multiplicity
 _atom_site_fract_x
 _atom_site_fract_y
 _atom_site_fract_z
 _atom_site_occupancy
  Ho  Ho0  1  0.867156  0.966177  0.749974  1
  Ho  Ho1  1  0.366942  0.534002  0.250023  1
  Ho  Ho2  1  0.632655  0.466062  0.750021  1
  Er  Er3  1  0.327379  0.821884  0.937100  1
  Er  Er4  1  0.827672  0.678300  0.063148  1
  Er  Er5  1  0.172337  0.321548  0.562962  1
  Er  Er6  1  0.672764  0.178223  0.436803  1
  Er  Er7  1  0.133182  0.034155  0.249967  1
  Tm  Tm8  1  0.672716  0.178269  0.063207  1
  Tm  Tm9  1  0.172312  0.321502  0.937031  1
  Tm  Tm10  1  0.827657  0.678341  0.436875  1
  Tm  Tm11  1  0.327403  0.821851  0.562906  1
  Rh  Rh12  1  0.053936  0.615915  0.749923  1
  Rh  Rh13  1  0.553196  0.884344  0.250095  1
  Rh  Rh14  1  0.446090  0.115929  0.750075  1
  Rh  Rh15  1  0.946602  0.383501  0.249891  1
