# generated using pymatgen
data_Ca6PrNdBi6
_symmetry_space_group_name_H-M   'P 1'
_cell_length_a   8.39567161
_cell_length_b   8.45365049
_cell_length_c   8.39933709
_cell_angle_alpha   109.48055907
_cell_angle_beta   109.19956840
_cell_angle_gamma   109.48389559
_symmetry_Int_Tables_number   1
_chemical_formula_structural   Ca6PrNdBi6
_chemical_formula_sum   'Ca6 Pr1 Nd1 Bi6'
_cell_volume   460.31066604
_cell_formula_units_Z   1
loop_
 _symmetry_equiv_pos_site_id
 _symmetry_equiv_pos_as_xyz
  1  'x, y, z'
loop_
 _atom_site_type_symbol
 _atom_site_label
 _atom_site_symmetry_multiplicity
 _atom_site_fract_x
 _atom_site_fract_y
 _atom_site_fract_z
 _atom_site_occupancy
  Ca  Ca0  1  0.501541  0.001395  0.142668  1
  Ca  Ca1  1  0.642755  0.501728  0.001780  1
  Ca  Ca2  1  0.998580  0.642373  0.500110  1
  Ca  Ca3  1  0.857951  0.856007  0.857747  1
  Ca  Ca4  1  0.000287  0.142735  0.498967  1
  Ca  Ca5  1  0.357481  0.356082  0.357572  1
  Pr  Pr6  1  0.500460  0.999990  0.641093  1
  Nd  Nd7  1  0.140444  0.499843  0.000339  1
  Bi  Bi8  1  0.622593  0.747415  0.373845  1
  Bi  Bi9  1  0.752249  0.375979  0.626766  1
  Bi  Bi10  1  0.250460  0.127077  0.874985  1
  Bi  Bi11  1  0.374332  0.626231  0.751311  1
  Bi  Bi12  1  0.125245  0.874081  0.249743  1
  Bi  Bi13  1  0.875620  0.249060  0.123072  1
