# generated using pymatgen
data_Gd2Dy3YTa2O14
_symmetry_space_group_name_H-M   'P 1'
_cell_length_a   6.47781902
_cell_length_b   6.49101818
_cell_length_c   7.55098400
_cell_angle_alpha   90.00000000
_cell_angle_beta   90.00000000
_cell_angle_gamma   109.28215180
_symmetry_Int_Tables_number   1
_chemical_formula_structural   Gd2Dy3YTa2O14
_chemical_formula_sum   'Gd2 Dy3 Y1 Ta2 O14'
_cell_volume   299.69048187
_cell_formula_units_Z   1
loop_
 _symmetry_equiv_pos_site_id
 _symmetry_equiv_pos_as_xyz
  1  'x, y, z'
loop_
 _atom_site_type_symbol
 _atom_site_label
 _atom_site_symmetry_multiplicity
 _atom_site_fract_x
 _atom_site_fract_y
 _atom_site_fract_z
 _atom_site_occupancy
  Gd  Gd0  1  0.500110  0.500093  0.500109  1
  Gd  Gd1  1  0.500110  0.500093  0.999891  1
  Dy  Dy2  1  0.534398  0.000473  0.750000  1
  Dy  Dy3  1  0.000400  0.534284  0.250000  1
  Dy  Dy4  1  0.465768  0.999590  0.250000  1
  Y  Y5  1  0.999827  0.466172  0.750000  1
  Ta  Ta6  1  0.999995  0.000041  0.499859  1
  Ta  Ta7  1  0.999995  0.000041  0.000141  1
  O  O8  1  0.679076  0.930131  0.467579  1
  O  O9  1  0.929474  0.679293  0.531700  1
  O  O10  1  0.679076  0.930131  0.032421  1
  O  O11  1  0.929474  0.679293  0.968300  1
  O  O12  1  0.320843  0.069869  0.532544  1
  O  O13  1  0.070253  0.320662  0.467239  1
  O  O14  1  0.320843  0.069869  0.967456  1
  O  O15  1  0.070253  0.320662  0.032761  1
  O  O16  1  0.934426  0.064635  0.750000  1
  O  O17  1  0.065824  0.934747  0.250000  1
  O  O18  1  0.368863  0.631441  0.750000  1
  O  O19  1  0.631256  0.368526  0.250000  1
  O  O20  1  0.638921  0.360503  0.750000  1
  O  O21  1  0.360815  0.639454  0.250000  1
