# generated using pymatgen
data_Th2Zn19Au3
_symmetry_space_group_name_H-M   'P 1'
_cell_length_a   8.36343490
_cell_length_b   8.35381403
_cell_length_c   8.36461970
_cell_angle_alpha   99.85731019
_cell_angle_beta   100.11255687
_cell_angle_gamma   130.71576282
_symmetry_Int_Tables_number   1
_chemical_formula_structural   Th2Zn19Au3
_chemical_formula_sum   'Th2 Zn19 Au3'
_cell_volume   402.83581040
_cell_formula_units_Z   1
loop_
 _symmetry_equiv_pos_site_id
 _symmetry_equiv_pos_as_xyz
  1  'x, y, z'
loop_
 _atom_site_type_symbol
 _atom_site_label
 _atom_site_symmetry_multiplicity
 _atom_site_fract_x
 _atom_site_fract_y
 _atom_site_fract_z
 _atom_site_occupancy
  Th  Th0  1  0.501779  0.496068  0.000727  1
  Th  Th1  1  0.746704  0.251957  0.500296  1
  Zn  Zn2  1  0.996146  0.325070  0.912242  1
  Zn  Zn3  1  0.252605  0.670880  0.826717  1
  Zn  Zn4  1  0.848165  0.435452  0.172171  1
  Zn  Zn5  1  0.923725  0.597394  0.916460  1
  Zn  Zn6  1  0.674777  0.001468  0.085450  1
  Zn  Zn7  1  0.329091  0.745120  0.173934  1
  Zn  Zn8  1  0.571256  0.158687  0.824892  1
  Zn  Zn9  1  0.847277  0.674676  0.417205  1
  Zn  Zn10  1  0.253854  0.424730  0.587902  1
  Zn  Zn11  1  0.998863  0.080989  0.673019  1
  Zn  Zn12  1  0.410378  0.324450  0.335342  1
  Zn  Zn13  1  0.325793  0.151769  0.583723  1
  Zn  Zn14  1  0.575877  0.747068  0.412484  1
  Zn  Zn15  1  0.918616  0.001435  0.326728  1
  Zn  Zn16  1  0.678820  0.588798  0.672399  1
  Zn  Zn17  1  0.249501  0.750676  0.500421  1
  Zn  Zn18  1  0.999714  0.998878  0.998844  1
  Zn  Zn19  1  0.120837  0.870594  0.744782  1
  Zn  Zn20  1  0.122161  0.874341  0.251085  1
  Au  Au21  1  0.403007  0.081808  0.083418  1
  Au  Au22  1  0.124688  0.373744  0.250039  1
  Au  Au23  1  0.626365  0.873947  0.749717  1
