# generated using pymatgen
data_NdHo5(Ni3P2)6
_symmetry_space_group_name_H-M   'P 1'
_cell_length_a   3.78052400
_cell_length_b   10.45544100
_cell_length_c   12.31392700
_cell_angle_alpha   90.00000000
_cell_angle_beta   90.00000000
_cell_angle_gamma   90.00000000
_symmetry_Int_Tables_number   1
_chemical_formula_structural   NdHo5(Ni3P2)6
_chemical_formula_sum   'Nd1 Ho5 Ni18 P12'
_cell_volume   486.73315443
_cell_formula_units_Z   1
loop_
 _symmetry_equiv_pos_site_id
 _symmetry_equiv_pos_as_xyz
  1  'x, y, z'
loop_
 _atom_site_type_symbol
 _atom_site_label
 _atom_site_symmetry_multiplicity
 _atom_site_fract_x
 _atom_site_fract_y
 _atom_site_fract_z
 _atom_site_occupancy
  Nd  Nd0  1  0.000000  0.500000  0.520595  1
  Ho  Ho1  1  0.500000  0.000000  0.479438  1
  Ho  Ho2  1  0.500000  0.817023  0.205559  1
  Ho  Ho3  1  0.500000  0.182977  0.205559  1
  Ho  Ho4  1  0.000000  0.684370  0.795215  1
  Ho  Ho5  1  0.000000  0.315630  0.795215  1
  Ni  Ni6  1  0.500000  0.500000  0.155659  1
  Ni  Ni7  1  0.000000  0.000000  0.842018  1
  Ni  Ni8  1  0.500000  0.500000  0.702014  1
  Ni  Ni9  1  0.000000  0.000000  0.300716  1
  Ni  Ni10  1  0.000000  0.500000  0.983547  1
  Ni  Ni11  1  0.500000  0.000000  0.017572  1
  Ni  Ni12  1  0.500000  0.331877  0.995576  1
  Ni  Ni13  1  0.500000  0.668123  0.995576  1
  Ni  Ni14  1  0.000000  0.166459  0.003959  1
  Ni  Ni15  1  0.000000  0.833541  0.003959  1
  Ni  Ni16  1  0.500000  0.297504  0.427331  1
  Ni  Ni17  1  0.500000  0.702496  0.427331  1
  Ni  Ni18  1  0.000000  0.197047  0.572404  1
  Ni  Ni19  1  0.000000  0.802953  0.572404  1
  Ni  Ni20  1  0.500000  0.880108  0.712208  1
  Ni  Ni21  1  0.500000  0.119892  0.712208  1
  Ni  Ni22  1  0.000000  0.621415  0.286774  1
  Ni  Ni23  1  0.000000  0.378585  0.286774  1
  P  P24  1  0.500000  0.500000  0.877347  1
  P  P25  1  0.000000  0.000000  0.124269  1
  P  P26  1  0.500000  0.500000  0.339147  1
  P  P27  1  0.000000  0.000000  0.656545  1
  P  P28  1  0.500000  0.310042  0.616162  1
  P  P29  1  0.500000  0.689958  0.616162  1
  P  P30  1  0.000000  0.186506  0.386029  1
  P  P31  1  0.000000  0.813494  0.386029  1
  P  P32  1  0.500000  0.848540  0.893083  1
  P  P33  1  0.500000  0.151460  0.893083  1
  P  P34  1  0.000000  0.653198  0.106266  1
  P  P35  1  0.000000  0.346802  0.106266  1
