# generated using pymatgen
data_Er8Ti11NbSi15Ge
_symmetry_space_group_name_H-M   'P 1'
_cell_length_a   7.03120118
_cell_length_b   7.02455063
_cell_length_c   12.91349934
_cell_angle_alpha   89.95833653
_cell_angle_beta   89.96739808
_cell_angle_gamma   89.98460557
_symmetry_Int_Tables_number   1
_chemical_formula_structural   Er8Ti11NbSi15Ge
_chemical_formula_sum   'Er8 Ti11 Nb1 Si15 Ge1'
_cell_volume   637.81072077
_cell_formula_units_Z   1
loop_
 _symmetry_equiv_pos_site_id
 _symmetry_equiv_pos_as_xyz
  1  'x, y, z'
loop_
 _atom_site_type_symbol
 _atom_site_label
 _atom_site_symmetry_multiplicity
 _atom_site_fract_x
 _atom_site_fract_y
 _atom_site_fract_z
 _atom_site_occupancy
  Er  Er0  1  0.341628  0.001678  0.465969  1
  Er  Er1  1  0.499022  0.839626  0.717046  1
  Er  Er2  1  0.501496  0.158813  0.216441  1
  Er  Er3  1  0.840359  0.497897  0.283146  1
  Er  Er4  1  0.158655  0.502600  0.783988  1
  Er  Er5  1  0.658440  0.998261  0.966826  1
  Er  Er6  1  0.000768  0.342365  0.532313  1
  Er  Er7  1  0.998532  0.658087  0.033443  1
  Ti  Ti8  1  0.173423  0.826890  0.250228  1
  Ti  Ti9  1  0.824095  0.173651  0.750375  1
  Ti  Ti10  1  0.673065  0.673019  0.499964  1
  Ti  Ti11  1  0.152868  0.008474  0.877134  1
  Ti  Ti12  1  0.491950  0.650608  0.124949  1
  Ti  Ti13  1  0.509735  0.350197  0.625505  1
  Ti  Ti14  1  0.651092  0.492257  0.875176  1
  Ti  Ti15  1  0.348842  0.507902  0.374451  1
  Ti  Ti16  1  0.848255  0.992600  0.375648  1
  Ti  Ti17  1  0.008745  0.152759  0.124030  1
  Ti  Ti18  1  0.990386  0.845423  0.623632  1
  Nb  Nb19  1  0.326635  0.326937  0.000112  1
  Si  Si20  1  0.368819  0.704096  0.933388  1
  Si  Si21  1  0.631212  0.297160  0.433689  1
  Si  Si22  1  0.703927  0.368925  0.066746  1
  Si  Si23  1  0.297271  0.631276  0.566316  1
  Si  Si24  1  0.797102  0.868902  0.183892  1
  Si  Si25  1  0.131087  0.202847  0.316579  1
  Si  Si26  1  0.868993  0.797473  0.816236  1
  Si  Si27  1  0.291466  0.951767  0.065195  1
  Si  Si28  1  0.546927  0.791590  0.314693  1
  Si  Si29  1  0.456906  0.207910  0.814580  1
  Si  Si30  1  0.792071  0.546674  0.685289  1
  Si  Si31  1  0.207608  0.454180  0.186869  1
  Si  Si32  1  0.708659  0.046755  0.564647  1
  Si  Si33  1  0.951955  0.291320  0.934979  1
  Si  Si34  1  0.046826  0.708832  0.435324  1
  Ge  Ge35  1  0.201182  0.130252  0.681201  1
