# generated using pymatgen
data_Er4PS4
_symmetry_space_group_name_H-M   'P 1'
_cell_length_a   3.93224570
_cell_length_b   9.71035446
_cell_length_c   8.74406200
_cell_angle_alpha   43.21452855
_cell_angle_beta   103.01459829
_cell_angle_gamma   89.88362878
_symmetry_Int_Tables_number   1
_chemical_formula_structural   Er4PS4
_chemical_formula_sum   'Er4 P1 S4'
_cell_volume   215.72614139
_cell_formula_units_Z   1
loop_
 _symmetry_equiv_pos_site_id
 _symmetry_equiv_pos_as_xyz
  1  'x, y, z'
loop_
 _atom_site_type_symbol
 _atom_site_label
 _atom_site_symmetry_multiplicity
 _atom_site_fract_x
 _atom_site_fract_y
 _atom_site_fract_z
 _atom_site_occupancy
  Er  Er0  1  0.937684  0.962697  0.848713  1
  Er  Er1  1  0.136297  0.364196  0.251187  1
  Er  Er2  1  0.550413  0.144619  0.075342  1
  Er  Er3  1  0.749251  0.546185  0.477755  1
  P  P4  1  0.343419  0.254457  0.663224  1
  S  S5  1  0.733263  0.081235  0.443343  1
  S  S6  1  0.545417  0.658270  0.066259  1
  S  S7  1  0.953451  0.427551  0.883199  1
  S  S8  1  0.141405  0.850599  0.260188  1
