# generated using pymatgen
data_HoVCo(PRh)3
_symmetry_space_group_name_H-M   'P 1'
_cell_length_a   3.80758500
_cell_length_b   10.75555400
_cell_length_c   12.41420200
_cell_angle_alpha   90.00000000
_cell_angle_beta   90.00000000
_cell_angle_gamma   90.00000000
_symmetry_Int_Tables_number   1
_chemical_formula_structural   HoVCo(PRh)3
_chemical_formula_sum   'Ho4 V4 Co4 P12 Rh12'
_cell_volume   508.39491740
_cell_formula_units_Z   4
loop_
 _symmetry_equiv_pos_site_id
 _symmetry_equiv_pos_as_xyz
  1  'x, y, z'
loop_
 _atom_site_type_symbol
 _atom_site_label
 _atom_site_symmetry_multiplicity
 _atom_site_fract_x
 _atom_site_fract_y
 _atom_site_fract_z
 _atom_site_occupancy
  Ho  Ho0  1  0.250000  0.582911  0.708228  1
  Ho  Ho1  1  0.250000  0.917089  0.208228  1
  Ho  Ho2  1  0.750000  0.417089  0.291772  1
  Ho  Ho3  1  0.750000  0.082911  0.791772  1
  V  V4  1  0.250000  0.704456  0.986913  1
  V  V5  1  0.250000  0.795544  0.486913  1
  V  V6  1  0.750000  0.295544  0.013087  1
  V  V7  1  0.750000  0.204456  0.513087  1
  Co  Co8  1  0.250000  0.465864  0.937230  1
  Co  Co9  1  0.250000  0.034136  0.437230  1
  Co  Co10  1  0.750000  0.534136  0.062770  1
  Co  Co11  1  0.750000  0.965864  0.562770  1
  P  P12  1  0.250000  0.420902  0.107697  1
  P  P13  1  0.250000  0.079098  0.607697  1
  P  P14  1  0.750000  0.579098  0.892303  1
  P  P15  1  0.750000  0.920902  0.392303  1
  P  P16  1  0.250000  0.270234  0.873315  1
  P  P17  1  0.250000  0.229766  0.373315  1
  P  P18  1  0.750000  0.729766  0.126685  1
  P  P19  1  0.750000  0.770234  0.626685  1
  P  P20  1  0.250000  0.601159  0.391162  1
  P  P21  1  0.250000  0.898841  0.891162  1
  P  P22  1  0.750000  0.398841  0.608838  1
  P  P23  1  0.750000  0.101159  0.108838  1
  Rh  Rh24  1  0.250000  0.404461  0.485426  1
  Rh  Rh25  1  0.250000  0.095539  0.985426  1
  Rh  Rh26  1  0.750000  0.595539  0.514574  1
  Rh  Rh27  1  0.750000  0.904461  0.014574  1
  Rh  Rh28  1  0.250000  0.227778  0.180054  1
  Rh  Rh29  1  0.250000  0.272222  0.680054  1
  Rh  Rh30  1  0.750000  0.772222  0.819946  1
  Rh  Rh31  1  0.750000  0.727778  0.319946  1
  Rh  Rh32  1  0.250000  0.890349  0.697086  1
  Rh  Rh33  1  0.250000  0.609651  0.197086  1
  Rh  Rh34  1  0.750000  0.109651  0.302914  1
  Rh  Rh35  1  0.750000  0.390349  0.802914  1
