# generated using pymatgen
data_Ho6Zr4Al12Os7
_symmetry_space_group_name_H-M   'P 1'
_cell_length_a   9.15068359
_cell_length_b   9.15067046
_cell_length_c   9.15064000
_cell_angle_alpha   60.00074808
_cell_angle_beta   59.99903011
_cell_angle_gamma   60.00021300
_symmetry_Int_Tables_number   1
_chemical_formula_structural   Ho6Zr4Al12Os7
_chemical_formula_sum   'Ho6 Zr4 Al12 Os7'
_cell_volume   541.80486104
_cell_formula_units_Z   1
loop_
 _symmetry_equiv_pos_site_id
 _symmetry_equiv_pos_as_xyz
  1  'x, y, z'
loop_
 _atom_site_type_symbol
 _atom_site_label
 _atom_site_symmetry_multiplicity
 _atom_site_fract_x
 _atom_site_fract_y
 _atom_site_fract_z
 _atom_site_occupancy
  Ho  Ho0  1  0.704961  0.704966  0.295037  1
  Ho  Ho1  1  0.295031  0.704970  0.295031  1
  Ho  Ho2  1  0.704961  0.295036  0.295040  1
  Ho  Ho3  1  0.295038  0.295033  0.704964  1
  Ho  Ho4  1  0.704969  0.295029  0.704970  1
  Ho  Ho5  1  0.295039  0.704965  0.704959  1
  Zr  Zr6  1  0.880108  0.880099  0.359689  1
  Zr  Zr7  1  0.880101  0.359691  0.880095  1
  Zr  Zr8  1  0.359694  0.880101  0.880109  1
  Zr  Zr9  1  0.880095  0.880116  0.880100  1
  Al  Al10  1  0.120384  0.120402  0.638817  1
  Al  Al11  1  0.120398  0.638820  0.120404  1
  Al  Al12  1  0.638817  0.120395  0.120384  1
  Al  Al13  1  0.120406  0.120378  0.120399  1
  Al  Al14  1  0.667800  0.667832  0.996549  1
  Al  Al15  1  0.667820  0.996548  0.667828  1
  Al  Al16  1  0.996548  0.667824  0.667800  1
  Al  Al17  1  0.667827  0.667806  0.667820  1
  Al  Al18  1  0.330870  0.330828  0.007459  1
  Al  Al19  1  0.330844  0.007457  0.330834  1
  Al  Al20  1  0.007459  0.330838  0.330870  1
  Al  Al21  1  0.330834  0.330862  0.330845  1
  Os  Os22  1  0.000000  0.999999  0.999999  1
  Os  Os23  1  0.000517  0.000516  0.499483  1
  Os  Os24  1  0.499478  0.000522  0.499478  1
  Os  Os25  1  0.000518  0.499483  0.499481  1
  Os  Os26  1  0.499481  0.499484  0.000518  1
  Os  Os27  1  0.000519  0.499482  0.000520  1
  Os  Os28  1  0.499483  0.000518  0.000517  1
