# generated using pymatgen
data_Tm3TlZnIn3Ir
_symmetry_space_group_name_H-M   'P 1'
_cell_length_a   7.90663500
_cell_length_b   7.90663545
_cell_length_c   3.83404100
_cell_angle_alpha   90.00000000
_cell_angle_beta   90.00000000
_cell_angle_gamma   120.00000230
_symmetry_Int_Tables_number   1
_chemical_formula_structural   Tm3TlZnIn3Ir
_chemical_formula_sum   'Tm3 Tl1 Zn1 In3 Ir1'
_cell_volume   207.57296092
_cell_formula_units_Z   1
loop_
 _symmetry_equiv_pos_site_id
 _symmetry_equiv_pos_as_xyz
  1  'x, y, z'
loop_
 _atom_site_type_symbol
 _atom_site_label
 _atom_site_symmetry_multiplicity
 _atom_site_fract_x
 _atom_site_fract_y
 _atom_site_fract_z
 _atom_site_occupancy
  Tm  Tm0  1  0.039512  0.420919  0.500000  1
  Tm  Tm1  1  0.579081  0.618593  0.500000  1
  Tm  Tm2  1  0.381407  0.960488  0.500000  1
  Tl  Tl3  1  0.666667  0.333333  0.000000  1
  Zn  Zn4  1  0.000000  0.000000  0.500000  1
  In  In5  1  0.255897  0.260913  0.000000  1
  In  In6  1  0.005015  0.744103  0.000000  1
  In  In7  1  0.739087  0.994985  0.000000  1
  Ir  Ir8  1  0.333333  0.666667  0.000000  1
