# generated using pymatgen
data_Tb3In3GePd2
_symmetry_space_group_name_H-M   'P 1'
_cell_length_a   7.52436300
_cell_length_b   7.52436368
_cell_length_c   4.13862400
_cell_angle_alpha   90.00000000
_cell_angle_beta   90.00000000
_cell_angle_gamma   120.00000141
_symmetry_Int_Tables_number   1
_chemical_formula_structural   Tb3In3GePd2
_chemical_formula_sum   'Tb3 In3 Ge1 Pd2'
_cell_volume   202.92058932
_cell_formula_units_Z   1
loop_
 _symmetry_equiv_pos_site_id
 _symmetry_equiv_pos_as_xyz
  1  'x, y, z'
loop_
 _atom_site_type_symbol
 _atom_site_label
 _atom_site_symmetry_multiplicity
 _atom_site_fract_x
 _atom_site_fract_y
 _atom_site_fract_z
 _atom_site_occupancy
  Tb  Tb0  1  0.587781  0.995416  0.500000  1
  Tb  Tb1  1  0.407635  0.412219  0.500000  1
  Tb  Tb2  1  0.004584  0.592365  0.500000  1
  In  In3  1  0.742234  0.753334  0.000000  1
  In  In4  1  0.246666  0.988900  0.000000  1
  In  In5  1  0.011100  0.257766  0.000000  1
  Ge  Ge6  1  0.666667  0.333333  0.000000  1
  Pd  Pd7  1  0.000000  0.000000  0.500000  1
  Pd  Pd8  1  0.333333  0.666667  0.000000  1
