# generated using pymatgen
data_Ac12HgPd11
_symmetry_space_group_name_H-M   'P 1'
_cell_length_a   6.19301156
_cell_length_b   4.74064900
_cell_length_c   23.99831799
_cell_angle_alpha   90.00000000
_cell_angle_beta   97.16242192
_cell_angle_gamma   90.00000000
_symmetry_Int_Tables_number   1
_chemical_formula_structural   Ac12HgPd11
_chemical_formula_sum   'Ac12 Hg1 Pd11'
_cell_volume   699.06614296
_cell_formula_units_Z   1
loop_
 _symmetry_equiv_pos_site_id
 _symmetry_equiv_pos_as_xyz
  1  'x, y, z'
loop_
 _atom_site_type_symbol
 _atom_site_label
 _atom_site_symmetry_multiplicity
 _atom_site_fract_x
 _atom_site_fract_y
 _atom_site_fract_z
 _atom_site_occupancy
  Ac  Ac0  1  0.673767  0.250001  0.064739  1
  Ac  Ac1  1  0.168388  0.750000  0.114065  1
  Ac  Ac2  1  0.511796  0.250001  0.231001  1
  Ac  Ac3  1  0.033933  0.750000  0.275152  1
  Ac  Ac4  1  0.805332  0.250001  0.396138  1
  Ac  Ac5  1  0.327755  0.750000  0.439311  1
  Ac  Ac6  1  0.672419  0.250001  0.560635  1
  Ac  Ac7  1  0.194973  0.750000  0.604186  1
  Ac  Ac8  1  0.965275  0.250001  0.725308  1
  Ac  Ac9  1  0.487584  0.750000  0.769263  1
  Ac  Ac10  1  0.829371  0.250001  0.889431  1
  Ac  Ac11  1  0.341979  0.750000  0.931942  1
  Hg  Hg12  1  0.148409  0.250001  0.013154  1
  Pd  Pd13  1  0.680373  0.750000  0.155338  1
  Pd  Pd14  1  0.992081  0.250001  0.184719  1
  Pd  Pd15  1  0.562463  0.750000  0.320679  1
  Pd  Pd16  1  0.277826  0.250001  0.349627  1
  Pd  Pd17  1  0.846408  0.750000  0.485911  1
  Pd  Pd18  1  0.153485  0.250001  0.514388  1
  Pd  Pd19  1  0.722385  0.750000  0.650561  1
  Pd  Pd20  1  0.437617  0.250001  0.679185  1
  Pd  Pd21  1  0.004315  0.750000  0.816226  1
  Pd  Pd22  1  0.317883  0.250001  0.844104  1
  Pd  Pd23  1  0.844186  0.750000  0.984936  1
