# generated using pymatgen
data_Pr8Zr12Si15Sn
_symmetry_space_group_name_H-M   'P 1'
_cell_length_a   7.30348124
_cell_length_b   7.52237831
_cell_length_c   14.21581800
_cell_angle_alpha   90.00000000
_cell_angle_beta   90.00000000
_cell_angle_gamma   90.10773926
_symmetry_Int_Tables_number   1
_chemical_formula_structural   Pr8Zr12Si15Sn
_chemical_formula_sum   'Pr8 Zr12 Si15 Sn1'
_cell_volume   781.00924717
_cell_formula_units_Z   1
loop_
 _symmetry_equiv_pos_site_id
 _symmetry_equiv_pos_as_xyz
  1  'x, y, z'
loop_
 _atom_site_type_symbol
 _atom_site_label
 _atom_site_symmetry_multiplicity
 _atom_site_fract_x
 _atom_site_fract_y
 _atom_site_fract_z
 _atom_site_occupancy
  Pr  Pr0  1  0.015325  0.173758  0.402177  1
  Pr  Pr1  1  0.514504  0.325788  0.400846  1
  Pr  Pr2  1  0.493498  0.664705  0.909513  1
  Pr  Pr3  1  0.493498  0.664705  0.590487  1
  Pr  Pr4  1  0.979320  0.827839  0.593667  1
  Pr  Pr5  1  0.979320  0.827839  0.906333  1
  Pr  Pr6  1  0.514504  0.325788  0.099154  1
  Pr  Pr7  1  0.015325  0.173758  0.097823  1
  Zr  Zr8  1  0.329850  0.183912  0.622970  1
  Zr  Zr9  1  0.671544  0.825156  0.374197  1
  Zr  Zr10  1  0.665392  0.009192  0.750000  1
  Zr  Zr11  1  0.171938  0.676403  0.374466  1
  Zr  Zr12  1  0.826067  0.325288  0.876263  1
  Zr  Zr13  1  0.826067  0.325288  0.623737  1
  Zr  Zr14  1  0.843928  0.506024  0.250000  1
  Zr  Zr15  1  0.343686  0.993612  0.250000  1
  Zr  Zr16  1  0.329850  0.183912  0.877030  1
  Zr  Zr17  1  0.171938  0.676403  0.125534  1
  Zr  Zr18  1  0.671544  0.825156  0.125803  1
  Zr  Zr19  1  0.153571  0.485967  0.750000  1
  Si  Si20  1  0.467710  0.626748  0.250000  1
  Si  Si21  1  0.028195  0.132989  0.750000  1
  Si  Si22  1  0.533083  0.374463  0.750000  1
  Si  Si23  1  0.148157  0.467770  0.541073  1
  Si  Si24  1  0.968110  0.874088  0.250000  1
  Si  Si25  1  0.716947  0.116127  0.250000  1
  Si  Si26  1  0.849836  0.534473  0.043742  1
  Si  Si27  1  0.349289  0.964959  0.041726  1
  Si  Si28  1  0.148157  0.467770  0.958927  1
  Si  Si29  1  0.646657  0.035577  0.541464  1
  Si  Si30  1  0.349289  0.964959  0.458274  1
  Si  Si31  1  0.849836  0.534473  0.456258  1
  Si  Si32  1  0.784224  0.616890  0.750000  1
  Si  Si33  1  0.216270  0.384411  0.250000  1
  Si  Si34  1  0.646657  0.035577  0.958536  1
  Sn  Sn35  1  0.286913  0.868231  0.750000  1
