# generated using pymatgen
data_DyLu2Al2Ga3Ni
_symmetry_space_group_name_H-M   'P 1'
_cell_length_a   6.79338010
_cell_length_b   6.83173248
_cell_length_c   4.21604600
_cell_angle_alpha   90.00000000
_cell_angle_beta   90.00000000
_cell_angle_gamma   119.52622110
_symmetry_Int_Tables_number   1
_chemical_formula_structural   DyLu2Al2Ga3Ni
_chemical_formula_sum   'Dy1 Lu2 Al2 Ga3 Ni1'
_cell_volume   170.25754764
_cell_formula_units_Z   1
loop_
 _symmetry_equiv_pos_site_id
 _symmetry_equiv_pos_as_xyz
  1  'x, y, z'
loop_
 _atom_site_type_symbol
 _atom_site_label
 _atom_site_symmetry_multiplicity
 _atom_site_fract_x
 _atom_site_fract_y
 _atom_site_fract_z
 _atom_site_occupancy
  Dy  Dy0  1  0.589537  0.998457  0.500000  1
  Lu  Lu1  1  0.407098  0.407704  0.500000  1
  Lu  Lu2  1  0.997853  0.593086  0.500000  1
  Al  Al3  1  0.231832  0.000796  0.000000  1
  Al  Al4  1  0.001793  0.232458  0.000000  1
  Ga  Ga5  1  0.668254  0.334891  0.000000  1
  Ga  Ga6  1  0.328270  0.662866  0.000000  1
  Ga  Ga7  1  0.763804  0.763397  0.000000  1
  Ni  Ni8  1  0.011558  0.006345  0.500000  1
