# generated using pymatgen
data_HoTiReB6
_symmetry_space_group_name_H-M   'P 1'
_cell_length_a   3.53089400
_cell_length_b   8.86850400
_cell_length_c   11.24972800
_cell_angle_alpha   90.00000000
_cell_angle_beta   90.00000000
_cell_angle_gamma   90.00000000
_symmetry_Int_Tables_number   1
_chemical_formula_structural   HoTiReB6
_chemical_formula_sum   'Ho4 Ti4 Re4 B24'
_cell_volume   352.27114274
_cell_formula_units_Z   4
loop_
 _symmetry_equiv_pos_site_id
 _symmetry_equiv_pos_as_xyz
  1  'x, y, z'
loop_
 _atom_site_type_symbol
 _atom_site_label
 _atom_site_symmetry_multiplicity
 _atom_site_fract_x
 _atom_site_fract_y
 _atom_site_fract_z
 _atom_site_occupancy
  Ho  Ho0  1  0.000000  0.319714  0.413697  1
  Ho  Ho1  1  0.000000  0.680286  0.586303  1
  Ho  Ho2  1  0.000000  0.819714  0.086303  1
  Ho  Ho3  1  0.000000  0.180286  0.913697  1
  Ti  Ti4  1  0.000000  0.945308  0.373899  1
  Ti  Ti5  1  0.000000  0.054692  0.626101  1
  Ti  Ti6  1  0.000000  0.445308  0.126101  1
  Ti  Ti7  1  0.000000  0.554692  0.873899  1
  Re  Re8  1  0.000000  0.642434  0.316514  1
  Re  Re9  1  0.000000  0.357566  0.683486  1
  Re  Re10  1  0.000000  0.142434  0.183486  1
  Re  Re11  1  0.000000  0.857566  0.816514  1
  B  B12  1  0.500000  0.554252  0.433259  1
  B  B13  1  0.500000  0.445748  0.566741  1
  B  B14  1  0.500000  0.054252  0.066741  1
  B  B15  1  0.500000  0.945748  0.933259  1
  B  B16  1  0.500000  0.756595  0.418449  1
  B  B17  1  0.500000  0.243405  0.581551  1
  B  B18  1  0.500000  0.256595  0.081551  1
  B  B19  1  0.500000  0.743405  0.918449  1
  B  B20  1  0.500000  0.796772  0.264657  1
  B  B21  1  0.500000  0.203228  0.735343  1
  B  B22  1  0.500000  0.296772  0.235343  1
  B  B23  1  0.500000  0.703228  0.764657  1
  B  B24  1  0.500000  0.627934  0.181253  1
  B  B25  1  0.500000  0.372066  0.818747  1
  B  B26  1  0.500000  0.127934  0.318747  1
  B  B27  1  0.500000  0.872066  0.681253  1
  B  B28  1  0.500000  0.980693  0.214319  1
  B  B29  1  0.500000  0.019307  0.785681  1
  B  B30  1  0.500000  0.480693  0.285681  1
  B  B31  1  0.500000  0.519307  0.714319  1
  B  B32  1  0.500000  0.596381  0.025904  1
  B  B33  1  0.500000  0.403619  0.974096  1
  B  B34  1  0.500000  0.096381  0.474096  1
  B  B35  1  0.500000  0.903619  0.525904  1
