# generated using pymatgen
data_Pr6Al24CuOs6Au
_symmetry_space_group_name_H-M   'P 1'
_cell_length_a   8.96575779
_cell_length_b   9.01237886
_cell_length_c   9.69049871
_cell_angle_alpha   90.00000142
_cell_angle_beta   90.05904031
_cell_angle_gamma   120.17216313
_symmetry_Int_Tables_number   1
_chemical_formula_structural   Pr6Al24CuOs6Au
_chemical_formula_sum   'Pr6 Al24 Cu1 Os6 Au1'
_cell_volume   676.93481387
_cell_formula_units_Z   1
loop_
 _symmetry_equiv_pos_site_id
 _symmetry_equiv_pos_as_xyz
  1  'x, y, z'
loop_
 _atom_site_type_symbol
 _atom_site_label
 _atom_site_symmetry_multiplicity
 _atom_site_fract_x
 _atom_site_fract_y
 _atom_site_fract_z
 _atom_site_occupancy
  Pr  Pr0  1  0.193706  0.381018  0.251186  1
  Pr  Pr1  1  0.806294  0.618982  0.748814  1
  Pr  Pr2  1  0.614233  0.807117  0.251089  1
  Pr  Pr3  1  0.385767  0.192883  0.748911  1
  Pr  Pr4  1  0.193706  0.812687  0.251186  1
  Pr  Pr5  1  0.806294  0.187313  0.748814  1
  Al  Al6  1  0.343697  0.671850  0.016737  1
  Al  Al7  1  0.656303  0.328150  0.983263  1
  Al  Al8  1  0.662269  0.331133  0.516614  1
  Al  Al9  1  0.337731  0.668867  0.483386  1
  Al  Al10  1  0.169119  0.323999  0.575660  1
  Al  Al11  1  0.830881  0.676001  0.424340  1
  Al  Al12  1  0.670404  0.835201  0.575110  1
  Al  Al13  1  0.828568  0.677451  0.075904  1
  Al  Al14  1  0.329596  0.164799  0.424890  1
  Al  Al15  1  0.171432  0.322549  0.924096  1
  Al  Al16  1  0.169119  0.845118  0.575660  1
  Al  Al17  1  0.328296  0.164149  0.075906  1
  Al  Al18  1  0.830881  0.154882  0.424340  1
  Al  Al19  1  0.671704  0.835851  0.924094  1
  Al  Al20  1  0.828568  0.151119  0.075904  1
  Al  Al21  1  0.171432  0.848881  0.924096  1
  Al  Al22  1  0.561658  0.124223  0.250255  1
  Al  Al23  1  0.438342  0.875777  0.749745  1
  Al  Al24  1  0.870921  0.435461  0.256558  1
  Al  Al25  1  0.129079  0.564539  0.743442  1
  Al  Al26  1  0.561658  0.437436  0.250255  1
  Al  Al27  1  0.438342  0.562564  0.749745  1
  Al  Al28  1  0.004215  0.002108  0.250059  1
  Al  Al29  1  0.995785  0.997892  0.749941  1
  Cu  Cu30  1  0.000000  0.500000  0.500000  1
  Os  Os31  1  0.500000  0.000000  0.000000  1
  Os  Os32  1  0.500000  0.000000  0.500000  1
  Os  Os33  1  0.500000  0.500000  0.000000  1
  Os  Os34  1  0.500000  0.500000  0.500000  1
  Os  Os35  1  0.000000  0.000000  0.000000  1
  Os  Os36  1  0.000000  0.000000  0.500000  1
  Au  Au37  1  0.000000  0.500000  0.000000  1
