# generated using pymatgen
data_Tl4P2PdSe8
_symmetry_space_group_name_H-M   'P 1'
_cell_length_a   6.76987270
_cell_length_b   7.32233926
_cell_length_c   9.54197500
_cell_angle_alpha   87.87795564
_cell_angle_beta   82.32542745
_cell_angle_gamma   84.56120968
_symmetry_Int_Tables_number   1
_chemical_formula_structural   Tl4P2PdSe8
_chemical_formula_sum   'Tl4 P2 Pd1 Se8'
_cell_volume   466.51841698
_cell_formula_units_Z   1
loop_
 _symmetry_equiv_pos_site_id
 _symmetry_equiv_pos_as_xyz
  1  'x, y, z'
loop_
 _atom_site_type_symbol
 _atom_site_label
 _atom_site_symmetry_multiplicity
 _atom_site_fract_x
 _atom_site_fract_y
 _atom_site_fract_z
 _atom_site_occupancy
  Tl  Tl0  1  0.261488  0.350620  0.125221  1
  Tl  Tl1  1  0.744941  0.218154  0.470581  1
  Tl  Tl2  1  0.255059  0.781846  0.529419  1
  Tl  Tl3  1  0.738512  0.649380  0.874778  1
  P  P4  1  0.829546  0.730779  0.263459  1
  P  P5  1  0.170454  0.269221  0.736541  1
  Pd  Pd6  1  0.000000  0.000000  0.000000  1
  Se  Se7  1  0.673026  0.963982  0.145872  1
  Se  Se8  1  0.779407  0.462704  0.178289  1
  Se  Se9  1  0.145043  0.804592  0.185908  1
  Se  Se10  1  0.754184  0.739778  0.493840  1
  Se  Se11  1  0.245816  0.260222  0.506161  1
  Se  Se12  1  0.854955  0.195408  0.814092  1
  Se  Se13  1  0.220593  0.537296  0.821711  1
  Se  Se14  1  0.326974  0.036018  0.854127  1
