# generated using pymatgen
data_NaLi4Sm3Si7Ge
_symmetry_space_group_name_H-M   'P 1'
_cell_length_a   3.83391500
_cell_length_b   7.83010161
_cell_length_c   10.48884747
_cell_angle_alpha   89.50262858
_cell_angle_beta   90.00000000
_cell_angle_gamma   90.00000000
_symmetry_Int_Tables_number   1
_chemical_formula_structural   NaLi4Sm3Si7Ge
_chemical_formula_sum   'Na1 Li4 Sm3 Si7 Ge1'
_cell_volume   314.86275013
_cell_formula_units_Z   1
loop_
 _symmetry_equiv_pos_site_id
 _symmetry_equiv_pos_as_xyz
  1  'x, y, z'
loop_
 _atom_site_type_symbol
 _atom_site_label
 _atom_site_symmetry_multiplicity
 _atom_site_fract_x
 _atom_site_fract_y
 _atom_site_fract_z
 _atom_site_occupancy
  Na  Na0  1  0.250000  0.137216  0.634619  1
  Li  Li1  1  0.250000  0.489439  0.392437  1
  Li  Li2  1  0.250000  0.993505  0.107839  1
  Li  Li3  1  0.750000  0.499096  0.603744  1
  Li  Li4  1  0.750000  0.009974  0.887380  1
  Sm  Sm5  1  0.250000  0.637934  0.867914  1
  Sm  Sm6  1  0.750000  0.867115  0.367609  1
  Sm  Sm7  1  0.750000  0.368140  0.137304  1
  Si  Si8  1  0.250000  0.238801  0.937966  1
  Si  Si9  1  0.250000  0.725847  0.570616  1
  Si  Si10  1  0.750000  0.769101  0.070004  1
  Si  Si11  1  0.750000  0.259424  0.428025  1
  Si  Si12  1  0.250000  0.162076  0.315572  1
  Si  Si13  1  0.250000  0.664455  0.181710  1
  Si  Si14  1  0.750000  0.832530  0.676311  1
  Ge  Ge15  1  0.750000  0.345347  0.820951  1
