# generated using pymatgen
data_Tm4Zr3PtF28
_symmetry_space_group_name_H-M   'P 1'
_cell_length_a   5.65108758
_cell_length_b   8.95517563
_cell_length_c   12.06006284
_cell_angle_alpha   62.57760417
_cell_angle_beta   90.07021891
_cell_angle_gamma   90.02031890
_symmetry_Int_Tables_number   1
_chemical_formula_structural   Tm4Zr3PtF28
_chemical_formula_sum   'Tm4 Zr3 Pt1 F28'
_cell_volume   541.73888411
_cell_formula_units_Z   1
loop_
 _symmetry_equiv_pos_site_id
 _symmetry_equiv_pos_as_xyz
  1  'x, y, z'
loop_
 _atom_site_type_symbol
 _atom_site_label
 _atom_site_symmetry_multiplicity
 _atom_site_fract_x
 _atom_site_fract_y
 _atom_site_fract_z
 _atom_site_occupancy
  Tm  Tm0  1  0.258005  0.817215  0.268185  1
  Tm  Tm1  1  0.744323  0.184838  0.732563  1
  Tm  Tm2  1  0.757735  0.181473  0.235189  1
  Tm  Tm3  1  0.241489  0.818007  0.760382  1
  Zr  Zr4  1  0.756440  0.726479  0.043789  1
  Zr  Zr5  1  0.244708  0.275490  0.954153  1
  Zr  Zr6  1  0.256445  0.275243  0.455515  1
  Pt  Pt7  1  0.739470  0.727683  0.544539  1
  F  F8  1  0.940677  0.704660  0.419965  1
  F  F9  1  0.036593  0.289485  0.582845  1
  F  F10  1  0.465825  0.290469  0.081753  1
  F  F11  1  0.533239  0.710710  0.917281  1
  F  F12  1  0.482222  0.733757  0.151267  1
  F  F13  1  0.520866  0.267225  0.849017  1
  F  F14  1  0.977818  0.265489  0.351523  1
  F  F15  1  0.022838  0.728639  0.639638  1
  F  F16  1  0.969882  0.749144  0.174004  1
  F  F17  1  0.035264  0.250424  0.824868  1
  F  F18  1  0.468521  0.253150  0.325271  1
  F  F19  1  0.543548  0.742721  0.675255  1
  F  F20  1  0.776103  0.471512  0.141650  1
  F  F21  1  0.222372  0.530262  0.855433  1
  F  F22  1  0.267247  0.530844  0.359397  1
  F  F23  1  0.730083  0.480408  0.643290  1
  F  F24  1  0.945120  0.273650  0.051518  1
  F  F25  1  0.054419  0.726986  0.946188  1
  F  F26  1  0.447730  0.719436  0.456415  1
  F  F27  1  0.556857  0.279963  0.549273  1
  F  F28  1  0.741203  0.975369  0.449979  1
  F  F29  1  0.260603  0.020622  0.557519  1
  F  F30  1  0.243150  0.021329  0.061370  1
  F  F31  1  0.758024  0.980721  0.939295  1
  F  F32  1  0.572184  0.971705  0.237440  1
  F  F33  1  0.428600  0.026180  0.762790  1
  F  F34  1  0.072831  0.025012  0.269517  1
  F  F35  1  0.927570  0.973699  0.731923  1
