# generated using pymatgen
data_EuBeB2O5
_symmetry_space_group_name_H-M   'P 1'
_cell_length_a   3.90941000
_cell_length_b   5.25346600
_cell_length_c   17.83907855
_cell_angle_alpha   80.57230634
_cell_angle_beta   90.00000000
_cell_angle_gamma   90.00000000
_symmetry_Int_Tables_number   1
_chemical_formula_structural   EuBeB2O5
_chemical_formula_sum   'Eu4 Be4 B8 O20'
_cell_volume   361.42951624
_cell_formula_units_Z   4
loop_
 _symmetry_equiv_pos_site_id
 _symmetry_equiv_pos_as_xyz
  1  'x, y, z'
loop_
 _atom_site_type_symbol
 _atom_site_label
 _atom_site_symmetry_multiplicity
 _atom_site_fract_x
 _atom_site_fract_y
 _atom_site_fract_z
 _atom_site_occupancy
  Eu  Eu0  1  0.880159  0.717948  0.572998  1
  Eu  Eu1  1  0.119841  0.282052  0.427002  1
  Eu  Eu2  1  0.380159  0.282052  0.927002  1
  Eu  Eu3  1  0.619841  0.717948  0.072998  1
  Be  Be4  1  0.767598  0.607504  0.786446  1
  Be  Be5  1  0.267598  0.392496  0.713554  1
  Be  Be6  1  0.732402  0.607504  0.286446  1
  Be  Be7  1  0.232402  0.392496  0.213554  1
  B  B8  1  0.752399  0.097471  0.785218  1
  B  B9  1  0.009369  0.797290  0.901144  1
  B  B10  1  0.252399  0.902529  0.714782  1
  B  B11  1  0.247601  0.902529  0.214782  1
  B  B12  1  0.990631  0.202710  0.098856  1
  B  B13  1  0.509369  0.202710  0.598856  1
  B  B14  1  0.490631  0.797290  0.401144  1
  B  B15  1  0.747601  0.097471  0.285218  1
  O  O16  1  0.397053  0.958170  0.635773  1
  O  O17  1  0.409854  0.420235  0.627330  1
  O  O18  1  0.031253  0.125173  0.726884  1
  O  O19  1  0.714276  0.215112  0.536375  1
  O  O20  1  0.102947  0.958170  0.135773  1
  O  O21  1  0.285724  0.784888  0.463625  1
  O  O22  1  0.064143  0.658422  0.721058  1
  O  O23  1  0.785724  0.215112  0.036375  1
  O  O24  1  0.531253  0.874827  0.773116  1
  O  O25  1  0.935857  0.341578  0.278942  1
  O  O26  1  0.090146  0.420235  0.127330  1
  O  O27  1  0.590146  0.579765  0.372670  1
  O  O28  1  0.214276  0.784888  0.963625  1
  O  O29  1  0.968747  0.874827  0.273116  1
  O  O30  1  0.897053  0.041830  0.864227  1
  O  O31  1  0.435857  0.658422  0.221058  1
  O  O32  1  0.602947  0.041830  0.364227  1
  O  O33  1  0.468747  0.125173  0.226884  1
  O  O34  1  0.564143  0.341578  0.778942  1
  O  O35  1  0.909854  0.579765  0.872670  1
