# generated using pymatgen
data_Hf2Nb3Fe3(Co4P3)4
_symmetry_space_group_name_H-M   'P 1'
_cell_length_a   11.73048200
_cell_length_b   11.73048301
_cell_length_c   3.59291900
_cell_angle_alpha   90.00000000
_cell_angle_beta   90.00000000
_cell_angle_gamma   120.00000279
_symmetry_Int_Tables_number   1
_chemical_formula_structural   Hf2Nb3Fe3(Co4P3)4
_chemical_formula_sum   'Hf2 Nb3 Fe3 Co16 P12'
_cell_volume   428.16365411
_cell_formula_units_Z   1
loop_
 _symmetry_equiv_pos_site_id
 _symmetry_equiv_pos_as_xyz
  1  'x, y, z'
loop_
 _atom_site_type_symbol
 _atom_site_label
 _atom_site_symmetry_multiplicity
 _atom_site_fract_x
 _atom_site_fract_y
 _atom_site_fract_z
 _atom_site_occupancy
  Hf  Hf0  1  0.333333  0.666667  0.000000  1
  Hf  Hf1  1  0.666667  0.333333  0.000000  1
  Nb  Nb2  1  0.817929  0.000000  0.500000  1
  Nb  Nb3  1  0.000000  0.817929  0.500000  1
  Nb  Nb4  1  0.182071  0.182071  0.500000  1
  Fe  Fe5  1  0.450922  0.000000  0.000000  1
  Fe  Fe6  1  0.000000  0.450922  0.000000  1
  Fe  Fe7  1  0.549078  0.549078  0.000000  1
  Co  Co8  1  0.280567  0.000000  0.500000  1
  Co  Co9  1  0.000000  0.280567  0.500000  1
  Co  Co10  1  0.719433  0.719433  0.500000  1
  Co  Co11  1  0.625794  0.804776  0.000000  1
  Co  Co12  1  0.195224  0.821018  0.000000  1
  Co  Co13  1  0.178982  0.374206  0.000000  1
  Co  Co14  1  0.374206  0.178982  0.000000  1
  Co  Co15  1  0.804776  0.625794  0.000000  1
  Co  Co16  1  0.821018  0.195224  0.000000  1
  Co  Co17  1  0.516461  0.871222  0.500000  1
  Co  Co18  1  0.128778  0.645240  0.500000  1
  Co  Co19  1  0.354760  0.483539  0.500000  1
  Co  Co20  1  0.483539  0.354760  0.500000  1
  Co  Co21  1  0.871222  0.516461  0.500000  1
  Co  Co22  1  0.645240  0.128778  0.500000  1
  Co  Co23  1  0.000000  0.000000  0.000000  1
  P  P24  1  0.175774  0.000000  0.000000  1
  P  P25  1  0.000000  0.175774  0.000000  1
  P  P26  1  0.824226  0.824226  0.000000  1
  P  P27  1  0.518279  0.683217  0.500000  1
  P  P28  1  0.316783  0.835062  0.500000  1
  P  P29  1  0.164938  0.481721  0.500000  1
  P  P30  1  0.481721  0.164938  0.500000  1
  P  P31  1  0.683217  0.518279  0.500000  1
  P  P32  1  0.835062  0.316783  0.500000  1
  P  P33  1  0.639617  0.000000  0.000000  1
  P  P34  1  0.000000  0.639617  0.000000  1
  P  P35  1  0.360383  0.360383  0.000000  1
