# generated using pymatgen
data_Ti6Ga6PdRu11
_symmetry_space_group_name_H-M   'P 1'
_cell_length_a   4.30975376
_cell_length_b   6.16534052
_cell_length_c   12.92822328
_cell_angle_alpha   90.00660308
_cell_angle_beta   89.94930938
_cell_angle_gamma   90.04609422
_symmetry_Int_Tables_number   1
_chemical_formula_structural   Ti6Ga6PdRu11
_chemical_formula_sum   'Ti6 Ga6 Pd1 Ru11'
_cell_volume   343.51685949
_cell_formula_units_Z   1
loop_
 _symmetry_equiv_pos_site_id
 _symmetry_equiv_pos_as_xyz
  1  'x, y, z'
loop_
 _atom_site_type_symbol
 _atom_site_label
 _atom_site_symmetry_multiplicity
 _atom_site_fract_x
 _atom_site_fract_y
 _atom_site_fract_z
 _atom_site_occupancy
  Ti  Ti0  1  0.000050  0.006456  0.005786  1
  Ti  Ti1  1  0.499938  0.501331  0.166950  1
  Ti  Ti2  1  0.000262  0.995701  0.333370  1
  Ti  Ti3  1  0.499930  0.501365  0.499664  1
  Ti  Ti4  1  0.999935  0.006531  0.660942  1
  Ti  Ti5  1  0.500073  0.487154  0.833341  1
  Ga  Ga6  1  0.999920  0.497991  0.001915  1
  Ga  Ga7  1  0.500077  0.999868  0.166633  1
  Ga  Ga8  1  0.000257  0.500979  0.333386  1
  Ga  Ga9  1  0.500044  0.999834  0.499981  1
  Ga  Ga10  1  0.999710  0.498059  0.664790  1
  Ga  Ga11  1  0.499855  0.002927  0.833340  1
  Pd  Pd12  1  0.999973  0.750214  0.833336  1
  Ru  Ru13  1  0.499573  0.249303  0.998991  1
  Ru  Ru14  1  0.500304  0.751025  0.998744  1
  Ru  Ru15  1  0.000705  0.250790  0.167388  1
  Ru  Ru16  1  0.999337  0.748808  0.165837  1
  Ru  Ru17  1  0.499573  0.249114  0.333271  1
  Ru  Ru18  1  0.500867  0.750697  0.333228  1
  Ru  Ru19  1  0.000649  0.250919  0.499301  1
  Ru  Ru20  1  0.999289  0.748826  0.500907  1
  Ru  Ru21  1  0.499420  0.249393  0.667663  1
  Ru  Ru22  1  0.500194  0.751007  0.667933  1
  Ru  Ru23  1  0.000074  0.251709  0.833305  1
