# generated using pymatgen
data_Ti8Al13Ga2Ir2Pt3Rh2
_symmetry_space_group_name_H-M   'P 1'
_cell_length_a   8.68443249
_cell_length_b   8.66482182
_cell_length_c   8.68443200
_cell_angle_alpha   119.96222787
_cell_angle_beta   119.95506873
_cell_angle_gamma   90.13657050
_symmetry_Int_Tables_number   1
_chemical_formula_structural   Ti8Al13Ga2Ir2Pt3Rh2
_chemical_formula_sum   'Ti8 Al13 Ga2 Ir2 Pt3 Rh2'
_cell_volume   462.11641945
_cell_formula_units_Z   1
loop_
 _symmetry_equiv_pos_site_id
 _symmetry_equiv_pos_as_xyz
  1  'x, y, z'
loop_
 _atom_site_type_symbol
 _atom_site_label
 _atom_site_symmetry_multiplicity
 _atom_site_fract_x
 _atom_site_fract_y
 _atom_site_fract_z
 _atom_site_occupancy
  Ti  Ti0  1  0.792856  0.292553  0.077870  1
  Ti  Ti1  1  0.214678  0.292544  0.499695  1
  Ti  Ti2  1  0.208556  0.706720  0.498152  1
  Ti  Ti3  1  0.211662  0.712213  0.919695  1
  Ti  Ti4  1  0.792555  0.712212  0.500560  1
  Ti  Ti5  1  0.786803  0.288544  0.501767  1
  Ti  Ti6  1  0.380356  0.121654  0.741297  1
  Ti  Ti7  1  0.375355  0.634373  0.259011  1
  Al  Al8  1  0.155255  0.970530  0.815296  1
  Al  Al9  1  0.152569  0.344623  0.808755  1
  Al  Al10  1  0.535896  0.344629  0.192086  1
  Al  Al11  1  0.844584  0.656731  0.812053  1
  Al  Al12  1  0.846602  0.034571  0.187938  1
  Al  Al13  1  0.843477  0.655284  0.184385  1
  Al  Al14  1  0.470891  0.655293  0.811770  1
  Al  Al15  1  0.377058  0.122480  0.261341  1
  Al  Al16  1  0.861180  0.122484  0.745486  1
  Al  Al17  1  0.619379  0.879303  0.259904  1
  Al  Al18  1  0.622673  0.362885  0.740180  1
  Al  Al19  1  0.624484  0.877096  0.740432  1
  Al  Al20  1  0.136603  0.877082  0.252594  1
  Ga  Ga21  1  0.996935  0.496774  0.499880  1
  Ga  Ga22  1  0.152530  0.344856  0.192321  1
  Ir  Ir23  1  0.501444  0.500476  0.500397  1
  Ir  Ir24  1  0.000069  0.500481  0.999030  1
  Pt  Pt25  1  0.999073  0.998820  0.498923  1
  Pt  Pt26  1  0.499894  0.998807  0.999743  1
  Pt  Pt27  1  0.499037  0.500108  0.001077  1
  Rh  Rh28  1  0.999616  0.997927  0.998349  1
  Rh  Rh29  1  0.497931  0.997945  0.500012  1
