# generated using pymatgen
data_Sc4ReOsRu6
_symmetry_space_group_name_H-M   'P 1'
_cell_length_a   5.22829277
_cell_length_b   5.09882792
_cell_length_c   8.71108500
_cell_angle_alpha   90.00000000
_cell_angle_beta   90.00000000
_cell_angle_gamma   120.16554384
_symmetry_Int_Tables_number   1
_chemical_formula_structural   Sc4ReOsRu6
_chemical_formula_sum   'Sc4 Re1 Os1 Ru6'
_cell_volume   200.77343907
_cell_formula_units_Z   1
loop_
 _symmetry_equiv_pos_site_id
 _symmetry_equiv_pos_as_xyz
  1  'x, y, z'
loop_
 _atom_site_type_symbol
 _atom_site_label
 _atom_site_symmetry_multiplicity
 _atom_site_fract_x
 _atom_site_fract_y
 _atom_site_fract_z
 _atom_site_occupancy
  Sc  Sc0  1  0.332019  0.667646  0.432474  1
  Sc  Sc1  1  0.669717  0.339219  0.566553  1
  Sc  Sc2  1  0.669717  0.339219  0.933447  1
  Sc  Sc3  1  0.332019  0.667646  0.067526  1
  Re  Re4  1  0.165058  0.329504  0.750000  1
  Os  Os5  1  0.832192  0.163536  0.250000  1
  Ru  Ru6  1  0.166982  0.817001  0.750000  1
  Ru  Ru7  1  0.344145  0.164084  0.250000  1
  Ru  Ru8  1  0.828323  0.648785  0.250000  1
  Ru  Ru9  1  0.651021  0.817368  0.750000  1
  Ru  Ru10  1  0.004403  0.022996  0.000583  1
  Ru  Ru11  1  0.004403  0.022996  0.499417  1
