# generated using pymatgen
data_Li4Ac3SmPd4
_symmetry_space_group_name_H-M   'P 1'
_cell_length_a   4.23676000
_cell_length_b   7.52253557
_cell_length_c   8.86110200
_cell_angle_alpha   90.23554252
_cell_angle_beta   90.00000000
_cell_angle_gamma   90.00000000
_symmetry_Int_Tables_number   1
_chemical_formula_structural   Li4Ac3SmPd4
_chemical_formula_sum   'Li4 Ac3 Sm1 Pd4'
_cell_volume   282.41137079
_cell_formula_units_Z   1
loop_
 _symmetry_equiv_pos_site_id
 _symmetry_equiv_pos_as_xyz
  1  'x, y, z'
loop_
 _atom_site_type_symbol
 _atom_site_label
 _atom_site_symmetry_multiplicity
 _atom_site_fract_x
 _atom_site_fract_y
 _atom_site_fract_z
 _atom_site_occupancy
  Li  Li0  1  0.250000  0.879358  0.953838  1
  Li  Li1  1  0.750000  0.119108  0.061217  1
  Li  Li2  1  0.750000  0.636335  0.442755  1
  Li  Li3  1  0.250000  0.370378  0.550249  1
  Ac  Ac4  1  0.250000  0.457784  0.192111  1
  Ac  Ac5  1  0.750000  0.546332  0.812269  1
  Ac  Ac6  1  0.750000  0.042502  0.681998  1
  Sm  Sm7  1  0.250000  0.953011  0.314996  1
  Pd  Pd8  1  0.250000  0.749400  0.604449  1
  Pd  Pd9  1  0.750000  0.237652  0.376223  1
  Pd  Pd10  1  0.750000  0.759077  0.126957  1
  Pd  Pd11  1  0.250000  0.249063  0.882941  1
