# generated using pymatgen
data_Tm4Lu8In2Tc3
_symmetry_space_group_name_H-M   'P 1'
_cell_length_a   8.32523257
_cell_length_b   8.32523240
_cell_length_c   8.32523333
_cell_angle_alpha   108.76093691
_cell_angle_beta   108.76094171
_cell_angle_gamma   110.90131820
_symmetry_Int_Tables_number   1
_chemical_formula_structural   Tm4Lu8In2Tc3
_chemical_formula_sum   'Tm4 Lu8 In2 Tc3'
_cell_volume   443.98031852
_cell_formula_units_Z   1
loop_
 _symmetry_equiv_pos_site_id
 _symmetry_equiv_pos_as_xyz
  1  'x, y, z'
loop_
 _atom_site_type_symbol
 _atom_site_label
 _atom_site_symmetry_multiplicity
 _atom_site_fract_x
 _atom_site_fract_y
 _atom_site_fract_z
 _atom_site_occupancy
  Tm  Tm0  1  0.304842  0.304842  0.609684  1
  Tm  Tm1  1  0.695158  0.695158  0.390316  1
  Tm  Tm2  1  0.695158  0.304842  0.000000  1
  Tm  Tm3  1  0.304842  0.695158  0.000000  1
  Lu  Lu4  1  0.189329  0.427958  0.238629  1
  Lu  Lu5  1  0.810671  0.572042  0.761371  1
  Lu  Lu6  1  0.189329  0.950700  0.761371  1
  Lu  Lu7  1  0.950700  0.189329  0.761371  1
  Lu  Lu8  1  0.810671  0.049300  0.238629  1
  Lu  Lu9  1  0.049300  0.810671  0.238629  1
  Lu  Lu10  1  0.427958  0.189329  0.238629  1
  Lu  Lu11  1  0.572042  0.810671  0.761371  1
  In  In12  1  0.000000  0.500000  0.500000  1
  In  In13  1  0.500000  0.000000  0.500000  1
  Tc  Tc14  1  0.370974  0.370974  0.000000  1
  Tc  Tc15  1  0.629026  0.629026  0.000000  1
  Tc  Tc16  1  0.000000  0.000000  0.000000  1
