# generated using pymatgen
data_NdHoCr3O12
_symmetry_space_group_name_H-M   'P 1'
_cell_length_a   10.18594093
_cell_length_b   10.18594217
_cell_length_c   10.18594256
_cell_angle_alpha   57.95430847
_cell_angle_beta   57.95430210
_cell_angle_gamma   57.95430973
_symmetry_Int_Tables_number   1
_chemical_formula_structural   NdHoCr3O12
_chemical_formula_sum   'Nd2 Ho2 Cr6 O24'
_cell_volume   712.21319108
_cell_formula_units_Z   2
loop_
 _symmetry_equiv_pos_site_id
 _symmetry_equiv_pos_as_xyz
  1  'x, y, z'
loop_
 _atom_site_type_symbol
 _atom_site_label
 _atom_site_symmetry_multiplicity
 _atom_site_fract_x
 _atom_site_fract_y
 _atom_site_fract_z
 _atom_site_occupancy
  Nd  Nd0  1  0.640580  0.640580  0.640580  1
  Nd  Nd1  1  0.359420  0.359420  0.359420  1
  Ho  Ho2  1  0.142680  0.142680  0.142680  1
  Ho  Ho3  1  0.857320  0.857320  0.857320  1
  Cr  Cr4  1  0.759169  0.029010  0.466296  1
  Cr  Cr5  1  0.970989  0.533705  0.240831  1
  Cr  Cr6  1  0.533705  0.240831  0.970990  1
  Cr  Cr7  1  0.466295  0.759169  0.029011  1
  Cr  Cr8  1  0.029011  0.466295  0.759169  1
  Cr  Cr9  1  0.240831  0.970989  0.533705  1
  O  O10  1  0.922117  0.064040  0.298964  1
  O  O11  1  0.784339  0.994438  0.631406  1
  O  O12  1  0.005562  0.368594  0.215661  1
  O  O13  1  0.701036  0.077883  0.935960  1
  O  O14  1  0.589810  0.192966  0.443474  1
  O  O15  1  0.865244  0.491694  0.738285  1
  O  O16  1  0.508306  0.261715  0.134756  1
  O  O17  1  0.807034  0.556526  0.410190  1
  O  O18  1  0.935960  0.701036  0.077883  1
  O  O19  1  0.556526  0.410190  0.807034  1
  O  O20  1  0.368594  0.215661  0.005562  1
  O  O21  1  0.261715  0.134756  0.508306  1
  O  O22  1  0.738285  0.865244  0.491694  1
  O  O23  1  0.631406  0.784339  0.994438  1
  O  O24  1  0.443474  0.589810  0.192966  1
  O  O25  1  0.064040  0.298964  0.922117  1
  O  O26  1  0.192966  0.443474  0.589810  1
  O  O27  1  0.491694  0.738285  0.865244  1
  O  O28  1  0.134756  0.508306  0.261715  1
  O  O29  1  0.410190  0.807034  0.556526  1
  O  O30  1  0.298964  0.922117  0.064040  1
  O  O31  1  0.994438  0.631406  0.784339  1
  O  O32  1  0.215661  0.005562  0.368594  1
  O  O33  1  0.077883  0.935960  0.701036  1
