# generated using pymatgen
data_KRb3CrO4
_symmetry_space_group_name_H-M   'P 1'
_cell_length_a   10.95616601
_cell_length_b   6.81028700
_cell_length_c   11.17081741
_cell_angle_alpha   90.00000000
_cell_angle_beta   112.07567408
_cell_angle_gamma   90.00000000
_symmetry_Int_Tables_number   1
_chemical_formula_structural   KRb3CrO4
_chemical_formula_sum   'K4 Rb12 Cr4 O16'
_cell_volume   772.40067011
_cell_formula_units_Z   4
loop_
 _symmetry_equiv_pos_site_id
 _symmetry_equiv_pos_as_xyz
  1  'x, y, z'
loop_
 _atom_site_type_symbol
 _atom_site_label
 _atom_site_symmetry_multiplicity
 _atom_site_fract_x
 _atom_site_fract_y
 _atom_site_fract_z
 _atom_site_occupancy
  K  K0  1  0.138221  0.628555  0.109587  1
  K  K1  1  0.861779  0.128555  0.390413  1
  K  K2  1  0.138221  0.871445  0.609587  1
  K  K3  1  0.861779  0.371445  0.890413  1
  Rb  Rb4  1  0.668870  0.385145  0.101928  1
  Rb  Rb5  1  0.052263  0.157448  0.180347  1
  Rb  Rb6  1  0.545114  0.892487  0.186326  1
  Rb  Rb7  1  0.454886  0.392487  0.313674  1
  Rb  Rb8  1  0.947738  0.657448  0.319653  1
  Rb  Rb9  1  0.331130  0.885145  0.398072  1
  Rb  Rb10  1  0.668870  0.114855  0.601928  1
  Rb  Rb11  1  0.052263  0.342552  0.680347  1
  Rb  Rb12  1  0.545114  0.607513  0.686326  1
  Rb  Rb13  1  0.454886  0.107513  0.813674  1
  Rb  Rb14  1  0.947738  0.842552  0.819653  1
  Rb  Rb15  1  0.331130  0.614855  0.898072  1
  Cr  Cr16  1  0.749937  0.862876  0.007089  1
  Cr  Cr17  1  0.250062  0.362876  0.492911  1
  Cr  Cr18  1  0.749937  0.637124  0.507089  1
  Cr  Cr19  1  0.250062  0.137124  0.992911  1
  O  O20  1  0.878532  0.676861  0.038745  1
  O  O21  1  0.410332  0.255793  0.039381  1
  O  O22  1  0.254786  0.969554  0.121861  1
  O  O23  1  0.785654  0.997406  0.157180  1
  O  O24  1  0.214346  0.497406  0.342820  1
  O  O25  1  0.745214  0.469554  0.378139  1
  O  O26  1  0.589668  0.755793  0.460619  1
  O  O27  1  0.121468  0.176861  0.461255  1
  O  O28  1  0.878532  0.823139  0.538745  1
  O  O29  1  0.410332  0.244207  0.539381  1
  O  O30  1  0.254786  0.530447  0.621861  1
  O  O31  1  0.785654  0.502594  0.657180  1
  O  O32  1  0.214346  0.002594  0.842820  1
  O  O33  1  0.745214  0.030447  0.878139  1
  O  O34  1  0.589667  0.744207  0.960618  1
  O  O35  1  0.121468  0.323139  0.961255  1
