# generated using pymatgen
data_LuZr2ScAl13Ga5Ir6
_symmetry_space_group_name_H-M   'P 1'
_cell_length_a   7.49237500
_cell_length_b   7.48604236
_cell_length_c   9.31091000
_cell_angle_alpha   90.00000000
_cell_angle_beta   90.00000000
_cell_angle_gamma   119.75971731
_symmetry_Int_Tables_number   1
_chemical_formula_structural   LuZr2ScAl13Ga5Ir6
_chemical_formula_sum   'Lu1 Zr2 Sc1 Al13 Ga5 Ir6'
_cell_volume   453.35770116
_cell_formula_units_Z   1
loop_
 _symmetry_equiv_pos_site_id
 _symmetry_equiv_pos_as_xyz
  1  'x, y, z'
loop_
 _atom_site_type_symbol
 _atom_site_label
 _atom_site_symmetry_multiplicity
 _atom_site_fract_x
 _atom_site_fract_y
 _atom_site_fract_z
 _atom_site_occupancy
  Lu  Lu0  1  0.329129  0.005270  0.750000  1
  Zr  Zr1  1  0.997392  0.673179  0.250000  1
  Zr  Zr2  1  0.005468  0.328283  0.750000  1
  Sc  Sc3  1  0.670439  0.993567  0.250000  1
  Al  Al4  1  0.996883  0.334201  0.078311  1
  Al  Al5  1  0.999137  0.663217  0.925582  1
  Al  Al6  1  0.999137  0.663217  0.574418  1
  Al  Al7  1  0.335505  0.999126  0.420012  1
  Al  Al8  1  0.996883  0.334201  0.421689  1
  Al  Al9  1  0.666983  0.000721  0.574024  1
  Al  Al10  1  0.666983  0.000721  0.925976  1
  Al  Al11  1  0.335505  0.999126  0.079988  1
  Al  Al12  1  0.332362  0.334163  0.558012  1
  Al  Al13  1  0.669017  0.668997  0.435151  1
  Al  Al14  1  0.669017  0.668997  0.064849  1
  Al  Al15  1  0.332362  0.334163  0.941988  1
  Al  Al16  1  0.557034  0.340551  0.250000  1
  Ga  Ga17  1  0.126102  0.126854  0.250000  1
  Ga  Ga18  1  0.870971  0.872403  0.750000  1
  Ga  Ga19  1  0.337855  0.550087  0.250000  1
  Ga  Ga20  1  0.662560  0.451267  0.750000  1
  Ga  Ga21  1  0.447022  0.657468  0.750000  1
  Ir  Ir22  1  0.671119  0.327589  0.001416  1
  Ir  Ir23  1  0.326780  0.672731  0.000215  1
  Ir  Ir24  1  0.326780  0.672731  0.499785  1
  Ir  Ir25  1  0.671119  0.327589  0.498584  1
  Ir  Ir26  1  0.000229  0.999792  0.999573  1
  Ir  Ir27  1  0.000229  0.999792  0.500427  1
