# generated using pymatgen
data_Tm4Pa(MnB3)2
_symmetry_space_group_name_H-M   'P 1'
_cell_length_a   5.39754977
_cell_length_b   5.39754942
_cell_length_c   7.95844345
_cell_angle_alpha   70.17743456
_cell_angle_beta   70.17743621
_cell_angle_gamma   60.00001235
_symmetry_Int_Tables_number   1
_chemical_formula_structural   Tm4Pa(MnB3)2
_chemical_formula_sum   'Tm4 Pa1 Mn2 B6'
_cell_volume   184.76095529
_cell_formula_units_Z   1
loop_
 _symmetry_equiv_pos_site_id
 _symmetry_equiv_pos_as_xyz
  1  'x, y, z'
loop_
 _atom_site_type_symbol
 _atom_site_label
 _atom_site_symmetry_multiplicity
 _atom_site_fract_x
 _atom_site_fract_y
 _atom_site_fract_z
 _atom_site_occupancy
  Tm  Tm0  1  0.252155  0.252155  0.243534  1
  Tm  Tm1  1  0.747845  0.747845  0.756466  1
  Tm  Tm2  1  0.414775  0.414775  0.755675  1
  Tm  Tm3  1  0.585225  0.585225  0.244325  1
  Pa  Pa4  1  0.000000  0.000000  0.000000  1
  Mn  Mn5  1  0.107565  0.107565  0.677305  1
  Mn  Mn6  1  0.892435  0.892435  0.322695  1
  B  B7  1  0.167087  0.832913  0.500000  1
  B  B8  1  0.832913  0.500000  0.500000  1
  B  B9  1  0.500000  0.167087  0.500000  1
  B  B10  1  0.167087  0.500000  0.500000  1
  B  B11  1  0.500000  0.832913  0.500000  1
  B  B12  1  0.832913  0.167087  0.500000  1
