# generated using pymatgen
data_TbTm11Co4BiIr
_symmetry_space_group_name_H-M   'P 1'
_cell_length_a   8.23467788
_cell_length_b   8.23467778
_cell_length_c   8.23054656
_cell_angle_alpha   110.82116095
_cell_angle_beta   111.27363900
_cell_angle_gamma   106.38472042
_symmetry_Int_Tables_number   1
_chemical_formula_structural   TbTm11Co4BiIr
_chemical_formula_sum   'Tb1 Tm11 Co4 Bi1 Ir1'
_cell_volume   428.57906083
_cell_formula_units_Z   1
loop_
 _symmetry_equiv_pos_site_id
 _symmetry_equiv_pos_as_xyz
  1  'x, y, z'
loop_
 _atom_site_type_symbol
 _atom_site_label
 _atom_site_symmetry_multiplicity
 _atom_site_fract_x
 _atom_site_fract_y
 _atom_site_fract_z
 _atom_site_occupancy
  Tb  Tb0  1  0.284451  0.183232  0.467682  1
  Tm  Tm1  1  0.716138  0.817831  0.533970  1
  Tm  Tm2  1  0.283868  0.816761  0.100628  1
  Tm  Tm3  1  0.716351  0.182517  0.898869  1
  Tm  Tm4  1  0.620927  0.311711  0.308730  1
  Tm  Tm5  1  0.379645  0.689234  0.691198  1
  Tm  Tm6  1  0.001965  0.311553  0.691198  1
  Tm  Tm7  1  0.997018  0.687803  0.308730  1
  Tm  Tm8  1  0.213068  0.411938  0.197505  1
  Tm  Tm9  1  0.787262  0.588893  0.802260  1
  Tm  Tm10  1  0.213368  0.014998  0.802260  1
  Tm  Tm11  1  0.785566  0.984437  0.197505  1
  Co  Co12  1  0.999731  0.376446  0.376177  1
  Co  Co13  1  0.999903  0.623810  0.623713  1
  Co  Co14  1  0.389191  0.887950  0.500281  1
  Co  Co15  1  0.612331  0.111090  0.500281  1
  Bi  Bi16  1  0.500022  0.500051  0.000074  1
  Ir  Ir17  1  0.999195  0.999745  0.998940  1
