# generated using pymatgen
data_Li2Zr6Co16(SiP3)3
_symmetry_space_group_name_H-M   'P 1'
_cell_length_a   11.96758218
_cell_length_b   12.05505812
_cell_length_c   3.66122100
_cell_angle_alpha   90.00000000
_cell_angle_beta   90.00000000
_cell_angle_gamma   120.24208028
_symmetry_Int_Tables_number   1
_chemical_formula_structural   Li2Zr6Co16(SiP3)3
_chemical_formula_sum   'Li2 Zr6 Co16 Si3 P9'
_cell_volume   456.31813127
_cell_formula_units_Z   1
loop_
 _symmetry_equiv_pos_site_id
 _symmetry_equiv_pos_as_xyz
  1  'x, y, z'
loop_
 _atom_site_type_symbol
 _atom_site_label
 _atom_site_symmetry_multiplicity
 _atom_site_fract_x
 _atom_site_fract_y
 _atom_site_fract_z
 _atom_site_occupancy
  Li  Li0  1  0.440444  0.438736  0.000000  1
  Li  Li1  1  0.559556  0.998291  0.000000  1
  Zr  Zr2  1  0.000000  0.558854  0.000000  1
  Zr  Zr3  1  0.666880  0.332627  0.000000  1
  Zr  Zr4  1  0.333120  0.665747  0.000000  1
  Zr  Zr5  1  0.815063  0.813050  0.500000  1
  Zr  Zr6  1  0.184937  0.997986  0.500000  1
  Zr  Zr7  1  0.000000  0.177008  0.500000  1
  Co  Co8  1  0.203227  0.375121  0.000000  1
  Co  Co9  1  0.179896  0.808479  0.000000  1
  Co  Co10  1  0.820104  0.628584  0.000000  1
  Co  Co11  1  0.796773  0.171893  0.000000  1
  Co  Co12  1  0.377412  0.201903  0.000000  1
  Co  Co13  1  0.128105  0.480529  0.500000  1
  Co  Co14  1  0.359795  0.874110  0.500000  1
  Co  Co15  1  0.514639  0.645224  0.500000  1
  Co  Co16  1  0.640205  0.514315  0.500000  1
  Co  Co17  1  0.871895  0.352423  0.500000  1
  Co  Co18  1  0.485361  0.130585  0.500000  1
  Co  Co19  1  0.000000  0.004267  0.000000  1
  Co  Co20  1  0.716434  0.999149  0.500000  1
  Co  Co21  1  0.000000  0.724894  0.500000  1
  Co  Co22  1  0.622588  0.824491  0.000000  1
  Co  Co23  1  0.283566  0.282715  0.500000  1
  Si  Si24  1  0.632895  0.638525  0.000000  1
  Si  Si25  1  0.367105  0.005631  0.000000  1
  Si  Si26  1  0.000000  0.345848  0.000000  1
  P  P27  1  0.482937  0.312423  0.500000  1
  P  P28  1  0.686067  0.168393  0.500000  1
  P  P29  1  0.823434  0.517708  0.500000  1
  P  P30  1  0.517063  0.829487  0.500000  1
  P  P31  1  0.176566  0.694275  0.500000  1
  P  P32  1  0.818695  0.998029  0.000000  1
  P  P33  1  0.000000  0.827037  0.000000  1
  P  P34  1  0.313933  0.482326  0.500000  1
  P  P35  1  0.181305  0.179334  0.000000  1
