# generated using pymatgen
data_Th3Ge4IrRh3
_symmetry_space_group_name_H-M   'P 1'
_cell_length_a   4.00650956
_cell_length_b   4.35921048
_cell_length_c   13.01140976
_cell_angle_alpha   99.64335385
_cell_angle_beta   98.85656758
_cell_angle_gamma   89.99999934
_symmetry_Int_Tables_number   1
_chemical_formula_structural   Th3Ge4IrRh3
_chemical_formula_sum   'Th3 Ge4 Ir1 Rh3'
_cell_volume   221.28720021
_cell_formula_units_Z   1
loop_
 _symmetry_equiv_pos_site_id
 _symmetry_equiv_pos_as_xyz
  1  'x, y, z'
loop_
 _atom_site_type_symbol
 _atom_site_label
 _atom_site_symmetry_multiplicity
 _atom_site_fract_x
 _atom_site_fract_y
 _atom_site_fract_z
 _atom_site_occupancy
  Th  Th0  1  0.000719  0.000719  0.001438  1
  Th  Th1  1  0.146495  0.646496  0.292992  1
  Th  Th2  1  0.852739  0.352740  0.705479  1
  Ge  Ge3  1  0.549032  0.549034  0.098066  1
  Ge  Ge4  1  0.695347  0.195348  0.390695  1
  Ge  Ge5  1  0.305146  0.805146  0.610292  1
  Ge  Ge6  1  0.450147  0.450147  0.900293  1
  Ir  Ir7  1  0.595856  0.095857  0.191712  1
  Rh  Rh8  1  0.252237  0.252237  0.504476  1
  Rh  Rh9  1  0.748141  0.748142  0.496283  1
  Rh  Rh10  1  0.404137  0.904138  0.808275  1
