# generated using pymatgen
data_Li2TbYbSi4
_symmetry_space_group_name_H-M   'P 1'
_cell_length_a   3.79340800
_cell_length_b   7.77503673
_cell_length_c   10.41657754
_cell_angle_alpha   90.52454200
_cell_angle_beta   90.00000000
_cell_angle_gamma   90.00000000
_symmetry_Int_Tables_number   1
_chemical_formula_structural   Li2TbYbSi4
_chemical_formula_sum   'Li4 Tb2 Yb2 Si8'
_cell_volume   307.21248102
_cell_formula_units_Z   2
loop_
 _symmetry_equiv_pos_site_id
 _symmetry_equiv_pos_as_xyz
  1  'x, y, z'
loop_
 _atom_site_type_symbol
 _atom_site_label
 _atom_site_symmetry_multiplicity
 _atom_site_fract_x
 _atom_site_fract_y
 _atom_site_fract_z
 _atom_site_occupancy
  Li  Li0  1  0.250000  0.992063  0.389254  1
  Li  Li1  1  0.750000  0.007937  0.610746  1
  Li  Li2  1  0.250000  0.497953  0.109476  1
  Li  Li3  1  0.750000  0.502047  0.890524  1
  Tb  Tb4  1  0.250000  0.630752  0.635250  1
  Tb  Tb5  1  0.750000  0.369248  0.364750  1
  Yb  Yb6  1  0.250000  0.136485  0.865617  1
  Yb  Yb7  1  0.750000  0.863515  0.134383  1
  Si  Si8  1  0.750000  0.271199  0.071497  1
  Si  Si9  1  0.250000  0.728801  0.928503  1
  Si  Si10  1  0.750000  0.763271  0.436465  1
  Si  Si11  1  0.250000  0.236729  0.563535  1
  Si  Si12  1  0.750000  0.834015  0.818470  1
  Si  Si13  1  0.250000  0.165985  0.181530  1
  Si  Si14  1  0.750000  0.341635  0.674881  1
  Si  Si15  1  0.250000  0.658365  0.325119  1
