# generated using pymatgen
data_Th3AlIn2Pd2Pt
_symmetry_space_group_name_H-M   'P 1'
_cell_length_a   7.54851530
_cell_length_b   7.46356215
_cell_length_c   4.20616900
_cell_angle_alpha   90.00000000
_cell_angle_beta   90.00000000
_cell_angle_gamma   119.38300663
_symmetry_Int_Tables_number   1
_chemical_formula_structural   Th3AlIn2Pd2Pt
_chemical_formula_sum   'Th3 Al1 In2 Pd2 Pt1'
_cell_volume   206.48652581
_cell_formula_units_Z   1
loop_
 _symmetry_equiv_pos_site_id
 _symmetry_equiv_pos_as_xyz
  1  'x, y, z'
loop_
 _atom_site_type_symbol
 _atom_site_label
 _atom_site_symmetry_multiplicity
 _atom_site_fract_x
 _atom_site_fract_y
 _atom_site_fract_z
 _atom_site_occupancy
  Th  Th0  1  0.413213  0.416512  0.500000  1
  Th  Th1  1  0.588884  0.007292  0.500000  1
  Th  Th2  1  0.997816  0.573094  0.500000  1
  Al  Al3  1  0.000514  0.241653  0.000000  1
  In  In4  1  0.755572  0.757244  0.000000  1
  In  In5  1  0.242369  0.998086  0.000000  1
  Pd  Pd6  1  0.322067  0.650393  0.000000  1
  Pd  Pd7  1  0.000188  0.027682  0.500000  1
  Pt  Pt8  1  0.679378  0.328043  0.000000  1
