# generated using pymatgen
data_NdTh2(MgPt)3
_symmetry_space_group_name_H-M   'P 1'
_cell_length_a   7.67907434
_cell_length_b   7.61235231
_cell_length_c   4.06939200
_cell_angle_alpha   90.00000000
_cell_angle_beta   90.00000000
_cell_angle_gamma   119.71300025
_symmetry_Int_Tables_number   1
_chemical_formula_structural   NdTh2(MgPt)3
_chemical_formula_sum   'Nd1 Th2 Mg3 Pt3'
_cell_volume   206.60300775
_cell_formula_units_Z   1
loop_
 _symmetry_equiv_pos_site_id
 _symmetry_equiv_pos_as_xyz
  1  'x, y, z'
loop_
 _atom_site_type_symbol
 _atom_site_label
 _atom_site_symmetry_multiplicity
 _atom_site_fract_x
 _atom_site_fract_y
 _atom_site_fract_z
 _atom_site_occupancy
  Nd  Nd0  1  0.000000  0.587928  0.000000  1
  Th  Th1  1  0.416553  0.415541  0.000000  1
  Th  Th2  1  0.583447  0.998987  0.000000  1
  Mg  Mg3  1  0.000000  0.244852  0.500000  1
  Mg  Mg4  1  0.765072  0.761067  0.500000  1
  Mg  Mg5  1  0.234928  0.995995  0.500000  1
  Pt  Pt6  1  0.650289  0.319361  0.500000  1
  Pt  Pt7  1  0.000000  0.007196  0.000000  1
  Pt  Pt8  1  0.349711  0.669073  0.500000  1
