# generated using pymatgen
data_YbSmNi2(B4Os3)2
_symmetry_space_group_name_H-M   'P 1'
_cell_length_a   7.53309850
_cell_length_b   7.30394508
_cell_length_c   3.99894100
_cell_angle_alpha   90.00000000
_cell_angle_beta   90.00000000
_cell_angle_gamma   87.76691653
_symmetry_Int_Tables_number   1
_chemical_formula_structural   YbSmNi2(B4Os3)2
_chemical_formula_sum   'Yb1 Sm1 Ni2 B8 Os6'
_cell_volume   219.85999136
_cell_formula_units_Z   1
loop_
 _symmetry_equiv_pos_site_id
 _symmetry_equiv_pos_as_xyz
  1  'x, y, z'
loop_
 _atom_site_type_symbol
 _atom_site_label
 _atom_site_symmetry_multiplicity
 _atom_site_fract_x
 _atom_site_fract_y
 _atom_site_fract_z
 _atom_site_occupancy
  Yb  Yb0  1  0.500000  0.500000  0.593883  1
  Sm  Sm1  1  0.000000  0.000000  0.020062  1
  Ni  Ni2  1  0.137504  0.385923  0.879451  1
  Ni  Ni3  1  0.862496  0.614077  0.879451  1
  B  B4  1  0.672371  0.780403  0.106846  1
  B  B5  1  0.327629  0.219597  0.106846  1
  B  B6  1  0.283427  0.835614  0.603166  1
  B  B7  1  0.716573  0.164386  0.603166  1
  B  B8  1  0.843921  0.689817  0.382929  1
  B  B9  1  0.156079  0.310183  0.382929  1
  B  B10  1  0.208964  0.669249  0.881515  1
  B  B11  1  0.791036  0.330751  0.881515  1
  Os  Os12  1  0.879125  0.368479  0.376254  1
  Os  Os13  1  0.120875  0.631521  0.376254  1
  Os  Os14  1  0.346835  0.116524  0.607450  1
  Os  Os15  1  0.653165  0.883476  0.607450  1
  Os  Os16  1  0.605657  0.149569  0.105417  1
  Os  Os17  1  0.394343  0.850431  0.105417  1
