# generated using pymatgen
data_Ho3Er5Lu8(Ga3Co)2
_symmetry_space_group_name_H-M   'P 1'
_cell_length_a   9.85051701
_cell_length_b   9.85244963
_cell_length_c   6.88419600
_cell_angle_alpha   90.00419478
_cell_angle_beta   89.99715180
_cell_angle_gamma   119.98998646
_symmetry_Int_Tables_number   1
_chemical_formula_structural   Ho3Er5Lu8(Ga3Co)2
_chemical_formula_sum   'Ho3 Er5 Lu8 Ga6 Co2'
_cell_volume   578.66993449
_cell_formula_units_Z   1
loop_
 _symmetry_equiv_pos_site_id
 _symmetry_equiv_pos_as_xyz
  1  'x, y, z'
loop_
 _atom_site_type_symbol
 _atom_site_label
 _atom_site_symmetry_multiplicity
 _atom_site_fract_x
 _atom_site_fract_y
 _atom_site_fract_z
 _atom_site_occupancy
  Ho  Ho0  1  0.535582  0.071212  0.707990  1
  Ho  Ho1  1  0.000067  0.000063  0.230862  1
  Ho  Ho2  1  0.999953  0.999985  0.730973  1
  Er  Er3  1  0.464223  0.535736  0.207905  1
  Er  Er4  1  0.071469  0.535705  0.207907  1
  Er  Er5  1  0.464188  0.928393  0.207956  1
  Er  Er6  1  0.535743  0.464388  0.707882  1
  Er  Er7  1  0.928631  0.464406  0.707891  1
  Lu  Lu8  1  0.173786  0.825887  0.511378  1
  Lu  Lu9  1  0.652084  0.825853  0.511409  1
  Lu  Lu10  1  0.174024  0.347992  0.511557  1
  Lu  Lu11  1  0.826209  0.174060  0.011788  1
  Lu  Lu12  1  0.347879  0.174035  0.011726  1
  Lu  Lu13  1  0.826001  0.651994  0.011546  1
  Lu  Lu14  1  0.333277  0.666515  0.826721  1
  Lu  Lu15  1  0.666775  0.333490  0.326499  1
  Ga  Ga16  1  0.163630  0.836347  0.958612  1
  Ga  Ga17  1  0.672678  0.836322  0.958571  1
  Ga  Ga18  1  0.163651  0.327297  0.958478  1
  Ga  Ga19  1  0.836482  0.163702  0.458375  1
  Ga  Ga20  1  0.327202  0.163685  0.458313  1
  Ga  Ga21  1  0.836337  0.672689  0.458466  1
  Co  Co22  1  0.333321  0.666640  0.445522  1
  Co  Co23  1  0.666805  0.333605  0.945709  1
