# generated using pymatgen
data_Zr5In(B2Ru5)2
_symmetry_space_group_name_H-M   'P 1'
_cell_length_a   9.53655200
_cell_length_b   9.53655200
_cell_length_c   3.15536100
_cell_angle_alpha   90.00000000
_cell_angle_beta   90.00000000
_cell_angle_gamma   90.00000000
_symmetry_Int_Tables_number   1
_chemical_formula_structural   Zr5In(B2Ru5)2
_chemical_formula_sum   'Zr5 In1 B4 Ru10'
_cell_volume   286.96690632
_cell_formula_units_Z   1
loop_
 _symmetry_equiv_pos_site_id
 _symmetry_equiv_pos_as_xyz
  1  'x, y, z'
loop_
 _atom_site_type_symbol
 _atom_site_label
 _atom_site_symmetry_multiplicity
 _atom_site_fract_x
 _atom_site_fract_y
 _atom_site_fract_z
 _atom_site_occupancy
  Zr  Zr0  1  0.823835  0.674516  0.000000  1
  Zr  Zr1  1  0.176165  0.325484  0.000000  1
  Zr  Zr2  1  0.325484  0.823835  0.000000  1
  Zr  Zr3  1  0.674516  0.176165  0.000000  1
  Zr  Zr4  1  0.000000  0.000000  0.000000  1
  In  In5  1  0.500000  0.500000  0.000000  1
  B  B6  1  0.621422  0.877214  0.000000  1
  B  B7  1  0.378578  0.122786  0.000000  1
  B  B8  1  0.122786  0.621422  0.000000  1
  B  B9  1  0.877214  0.378578  0.000000  1
  Ru  Ru10  1  0.572013  0.723808  0.500000  1
  Ru  Ru11  1  0.427987  0.276192  0.500000  1
  Ru  Ru12  1  0.070245  0.778285  0.500000  1
  Ru  Ru13  1  0.929755  0.221715  0.500000  1
  Ru  Ru14  1  0.276192  0.572013  0.500000  1
  Ru  Ru15  1  0.723808  0.427987  0.500000  1
  Ru  Ru16  1  0.221715  0.070245  0.500000  1
  Ru  Ru17  1  0.778285  0.929755  0.500000  1
  Ru  Ru18  1  0.500000  0.000000  0.500000  1
  Ru  Ru19  1  0.000000  0.500000  0.500000  1
