# generated using pymatgen
data_Pr16Ho4(Ir3Rh)3
_symmetry_space_group_name_H-M   'P 1'
_cell_length_a   11.23438900
_cell_length_b   11.23438900
_cell_length_c   6.59539200
_cell_angle_alpha   90.00000000
_cell_angle_beta   90.00000000
_cell_angle_gamma   90.00000000
_symmetry_Int_Tables_number   1
_chemical_formula_structural   Pr16Ho4(Ir3Rh)3
_chemical_formula_sum   'Pr16 Ho4 Ir9 Rh3'
_cell_volume   832.41429237
_cell_formula_units_Z   1
loop_
 _symmetry_equiv_pos_site_id
 _symmetry_equiv_pos_as_xyz
  1  'x, y, z'
loop_
 _atom_site_type_symbol
 _atom_site_label
 _atom_site_symmetry_multiplicity
 _atom_site_fract_x
 _atom_site_fract_y
 _atom_site_fract_z
 _atom_site_occupancy
  Pr  Pr0  1  0.288225  0.087744  0.383377  1
  Pr  Pr1  1  0.288092  0.911736  0.883308  1
  Pr  Pr2  1  0.711908  0.088264  0.883308  1
  Pr  Pr3  1  0.711775  0.912256  0.383377  1
  Pr  Pr4  1  0.588264  0.788092  0.883308  1
  Pr  Pr5  1  0.587744  0.211775  0.383377  1
  Pr  Pr6  1  0.412256  0.788225  0.383377  1
  Pr  Pr7  1  0.411736  0.211908  0.883308  1
  Pr  Pr8  1  0.211170  0.412097  0.616062  1
  Pr  Pr9  1  0.211657  0.588118  0.118094  1
  Pr  Pr10  1  0.788343  0.411882  0.118094  1
  Pr  Pr11  1  0.788830  0.587903  0.616062  1
  Pr  Pr12  1  0.911882  0.711657  0.118094  1
  Pr  Pr13  1  0.912097  0.288830  0.616062  1
  Pr  Pr14  1  0.087903  0.711170  0.616062  1
  Pr  Pr15  1  0.088118  0.288343  0.118094  1
  Ho  Ho16  1  0.000000  0.000000  0.500052  1
  Ho  Ho17  1  0.000000  0.000000  0.999846  1
  Ho  Ho18  1  0.500000  0.500000  0.999846  1
  Ho  Ho19  1  0.500000  0.500000  0.500052  1
  Ir  Ir20  1  0.851507  0.147506  0.249782  1
  Ir  Ir21  1  0.851806  0.852094  0.749432  1
  Ir  Ir22  1  0.148194  0.147906  0.749432  1
  Ir  Ir23  1  0.148493  0.852494  0.249782  1
  Ir  Ir24  1  0.647906  0.351806  0.749432  1
  Ir  Ir25  1  0.647506  0.648493  0.249782  1
  Ir  Ir26  1  0.352494  0.351507  0.249782  1
  Ir  Ir27  1  0.352094  0.648194  0.749432  1
  Ir  Ir28  1  0.000000  0.500000  0.381266  1
  Rh  Rh29  1  0.500000  0.000000  0.117823  1
  Rh  Rh30  1  0.500000  0.000000  0.617706  1
  Rh  Rh31  1  0.000000  0.500000  0.883190  1
