# generated using pymatgen
data_Sc8Ta11Si16Mo
_symmetry_space_group_name_H-M   'P 1'
_cell_length_a   6.87950233
_cell_length_b   6.87950240
_cell_length_c   12.69553100
_cell_angle_alpha   89.72311037
_cell_angle_beta   90.27688964
_cell_angle_gamma   89.95687287
_symmetry_Int_Tables_number   1
_chemical_formula_structural   Sc8Ta11Si16Mo
_chemical_formula_sum   'Sc8 Ta11 Si16 Mo1'
_cell_volume   600.83420102
_cell_formula_units_Z   1
loop_
 _symmetry_equiv_pos_site_id
 _symmetry_equiv_pos_as_xyz
  1  'x, y, z'
loop_
 _atom_site_type_symbol
 _atom_site_label
 _atom_site_symmetry_multiplicity
 _atom_site_fract_x
 _atom_site_fract_y
 _atom_site_fract_z
 _atom_site_occupancy
  Sc  Sc0  1  0.000538  0.659822  0.030345  1
  Sc  Sc1  1  0.998799  0.341098  0.530546  1
  Sc  Sc2  1  0.659822  0.000538  0.969655  1
  Sc  Sc3  1  0.158879  0.500301  0.779810  1
  Sc  Sc4  1  0.841217  0.499869  0.281231  1
  Sc  Sc5  1  0.500301  0.158879  0.220190  1
  Sc  Sc6  1  0.499869  0.841217  0.718769  1
  Sc  Sc7  1  0.341098  0.998799  0.469454  1
  Ta  Ta8  1  0.347336  0.506045  0.377728  1
  Ta  Ta9  1  0.850204  0.995423  0.373521  1
  Ta  Ta10  1  0.006911  0.150492  0.126445  1
  Ta  Ta11  1  0.995423  0.850204  0.626479  1
  Ta  Ta12  1  0.650579  0.494964  0.875880  1
  Ta  Ta13  1  0.506045  0.347336  0.622272  1
  Ta  Ta14  1  0.494964  0.650579  0.124120  1
  Ta  Ta15  1  0.150492  0.006911  0.873555  1
  Ta  Ta16  1  0.827891  0.171473  0.748846  1
  Ta  Ta17  1  0.171473  0.827891  0.251154  1
  Ta  Ta18  1  0.329090  0.329090  0.000000  1
  Si  Si19  1  0.041055  0.698198  0.437230  1
  Si  Si20  1  0.956206  0.302645  0.935865  1
  Si  Si21  1  0.698198  0.041055  0.562770  1
  Si  Si22  1  0.198485  0.456211  0.186391  1
  Si  Si23  1  0.799263  0.546146  0.684688  1
  Si  Si24  1  0.456211  0.198485  0.813609  1
  Si  Si25  1  0.546146  0.799263  0.315312  1
  Si  Si26  1  0.302645  0.956206  0.064135  1
  Si  Si27  1  0.860683  0.794997  0.821556  1
  Si  Si28  1  0.139061  0.205608  0.322092  1
  Si  Si29  1  0.794997  0.860683  0.178444  1
  Si  Si30  1  0.295015  0.638744  0.572659  1
  Si  Si31  1  0.705737  0.360722  0.071973  1
  Si  Si32  1  0.638744  0.295015  0.427341  1
  Si  Si33  1  0.360722  0.705737  0.928027  1
  Si  Si34  1  0.205608  0.139061  0.677908  1
  Mo  Mo35  1  0.670292  0.670292  0.500000  1
