# generated using pymatgen
data_Ho7Tm(MoO6)4
_symmetry_space_group_name_H-M   'P 1'
_cell_length_a   5.35830715
_cell_length_b   7.67509789
_cell_length_c   11.40496426
_cell_angle_alpha   75.40942178
_cell_angle_beta   89.99609465
_cell_angle_gamma   89.92871518
_symmetry_Int_Tables_number   1
_chemical_formula_structural   Ho7Tm(MoO6)4
_chemical_formula_sum   'Ho7 Tm1 Mo4 O24'
_cell_volume   453.90875481
_cell_formula_units_Z   1
loop_
 _symmetry_equiv_pos_site_id
 _symmetry_equiv_pos_as_xyz
  1  'x, y, z'
loop_
 _atom_site_type_symbol
 _atom_site_label
 _atom_site_symmetry_multiplicity
 _atom_site_fract_x
 _atom_site_fract_y
 _atom_site_fract_z
 _atom_site_occupancy
  Ho  Ho0  1  0.739031  0.000166  0.749254  1
  Ho  Ho1  1  0.260806  0.000494  0.250972  1
  Ho  Ho2  1  0.181819  0.797428  0.578643  1
  Ho  Ho3  1  0.817212  0.797266  0.078814  1
  Ho  Ho4  1  0.681504  0.499665  0.749711  1
  Ho  Ho5  1  0.319158  0.499541  0.250701  1
  Ho  Ho6  1  0.183391  0.202515  0.921127  1
  Tm  Tm7  1  0.818024  0.203885  0.420671  1
  Mo  Mo8  1  0.255574  0.721375  0.886564  1
  Mo  Mo9  1  0.744201  0.721338  0.386544  1
  Mo  Mo10  1  0.255832  0.278474  0.612584  1
  Mo  Mo11  1  0.745102  0.278220  0.114005  1
  O  O12  1  0.037685  0.938498  0.896729  1
  O  O13  1  0.529042  0.848473  0.929947  1
  O  O14  1  0.958233  0.940317  0.396989  1
  O  O15  1  0.464712  0.787804  0.725226  1
  O  O16  1  0.468305  0.846425  0.430124  1
  O  O17  1  0.983027  0.711290  0.770024  1
  O  O18  1  0.534851  0.787361  0.225610  1
  O  O19  1  0.845384  0.633325  0.548907  1
  O  O20  1  0.358006  0.490016  0.885906  1
  O  O21  1  0.017297  0.712149  0.270454  1
  O  O22  1  0.357272  0.509634  0.613214  1
  O  O23  1  0.845994  0.366309  0.951538  1
  O  O24  1  0.154427  0.632976  0.048909  1
  O  O25  1  0.644812  0.489058  0.386113  1
  O  O26  1  0.983897  0.288580  0.729804  1
  O  O27  1  0.642722  0.509605  0.114251  1
  O  O28  1  0.152274  0.366453  0.450538  1
  O  O29  1  0.465285  0.211953  0.773978  1
  O  O30  1  0.016537  0.288075  0.231388  1
  O  O31  1  0.531421  0.153266  0.568253  1
  O  O32  1  0.536872  0.211710  0.276158  1
  O  O33  1  0.037721  0.062479  0.601954  1
  O  O34  1  0.470205  0.152413  0.070957  1
  O  O35  1  0.962372  0.061466  0.103442  1
