# generated using pymatgen
data_Ho2Be2TlRh5
_symmetry_space_group_name_H-M   'P 1'
_cell_length_a   9.71973900
_cell_length_b   9.71973900
_cell_length_c   3.29971800
_cell_angle_alpha   90.00000000
_cell_angle_beta   90.00000000
_cell_angle_gamma   90.00000000
_symmetry_Int_Tables_number   1
_chemical_formula_structural   Ho2Be2TlRh5
_chemical_formula_sum   'Ho4 Be4 Tl2 Rh10'
_cell_volume   311.73533507
_cell_formula_units_Z   2
loop_
 _symmetry_equiv_pos_site_id
 _symmetry_equiv_pos_as_xyz
  1  'x, y, z'
loop_
 _atom_site_type_symbol
 _atom_site_label
 _atom_site_symmetry_multiplicity
 _atom_site_fract_x
 _atom_site_fract_y
 _atom_site_fract_z
 _atom_site_occupancy
  Ho  Ho0  1  0.823454  0.323454  0.000000  1
  Ho  Ho1  1  0.323454  0.176546  0.000000  1
  Ho  Ho2  1  0.676546  0.823454  0.000000  1
  Ho  Ho3  1  0.176546  0.676546  0.000000  1
  Be  Be4  1  0.619494  0.119494  0.000000  1
  Be  Be5  1  0.119494  0.380506  0.000000  1
  Be  Be6  1  0.880506  0.619494  0.000000  1
  Be  Be7  1  0.380506  0.880506  0.000000  1
  Tl  Tl8  1  0.000000  0.000000  0.000000  1
  Tl  Tl9  1  0.500000  0.500000  0.000000  1
  Rh  Rh10  1  0.069798  0.221706  0.500000  1
  Rh  Rh11  1  0.221706  0.930202  0.500000  1
  Rh  Rh12  1  0.778294  0.069798  0.500000  1
  Rh  Rh13  1  0.930202  0.778294  0.500000  1
  Rh  Rh14  1  0.430202  0.721706  0.500000  1
  Rh  Rh15  1  0.569798  0.278294  0.500000  1
  Rh  Rh16  1  0.721706  0.569798  0.500000  1
  Rh  Rh17  1  0.278294  0.430202  0.500000  1
  Rh  Rh18  1  0.500000  0.000000  0.500000  1
  Rh  Rh19  1  0.000000  0.500000  0.500000  1
