# generated using pymatgen
data_LaZnCdPt3
_symmetry_space_group_name_H-M   'P 1'
_cell_length_a   5.31200410
_cell_length_b   5.57947569
_cell_length_c   5.57947700
_cell_angle_alpha   59.99999813
_cell_angle_beta   58.31989594
_cell_angle_gamma   58.31991408
_symmetry_Int_Tables_number   1
_chemical_formula_structural   LaZnCdPt3
_chemical_formula_sum   'La1 Zn1 Cd1 Pt3'
_cell_volume   113.87320140
_cell_formula_units_Z   1
loop_
 _symmetry_equiv_pos_site_id
 _symmetry_equiv_pos_as_xyz
  1  'x, y, z'
loop_
 _atom_site_type_symbol
 _atom_site_label
 _atom_site_symmetry_multiplicity
 _atom_site_fract_x
 _atom_site_fract_y
 _atom_site_fract_z
 _atom_site_occupancy
  La  La0  1  0.743090  0.752303  0.752303  1
  Zn  Zn1  1  0.879849  0.373384  0.373384  1
  Cd  Cd2  1  0.988967  0.003678  0.003678  1
  Pt  Pt3  1  0.379364  0.372285  0.876064  1
  Pt  Pt4  1  0.379364  0.876064  0.372285  1
  Pt  Pt5  1  0.379364  0.372285  0.372285  1
