# generated using pymatgen
data_Sm2EuY4RuI12
_symmetry_space_group_name_H-M   'P 1'
_cell_length_a   9.85452439
_cell_length_b   9.91146933
_cell_length_c   9.86095912
_cell_angle_alpha   106.69525269
_cell_angle_beta   106.53106244
_cell_angle_gamma   106.47255174
_symmetry_Int_Tables_number   1
_chemical_formula_structural   Sm2EuY4RuI12
_chemical_formula_sum   'Sm2 Eu1 Y4 Ru1 I12'
_cell_volume   811.41898794
_cell_formula_units_Z   1
loop_
 _symmetry_equiv_pos_site_id
 _symmetry_equiv_pos_as_xyz
  1  'x, y, z'
loop_
 _atom_site_type_symbol
 _atom_site_label
 _atom_site_symmetry_multiplicity
 _atom_site_fract_x
 _atom_site_fract_y
 _atom_site_fract_z
 _atom_site_occupancy
  Sm  Sm0  1  0.021944  0.094151  0.294819  1
  Sm  Sm1  1  0.294627  0.021795  0.093693  1
  Eu  Eu2  1  0.499992  0.500280  0.499780  1
  Y  Y3  1  0.901484  0.695512  0.976657  1
  Y  Y4  1  0.976925  0.907003  0.708438  1
  Y  Y5  1  0.708683  0.976909  0.905345  1
  Y  Y6  1  0.096246  0.303233  0.021677  1
  Ru  Ru7  1  0.000410  0.999692  0.000797  1
  I  I8  1  0.628943  0.859341  0.550523  1
  I  I9  1  0.549108  0.629778  0.859536  1
  I  I10  1  0.860220  0.551076  0.629152  1
  I  I11  1  0.375660  0.143733  0.455203  1
  I  I12  1  0.451066  0.374120  0.140538  1
  I  I13  1  0.141697  0.453755  0.370805  1
  I  I14  1  0.679038  0.074071  0.220704  1
  I  I15  1  0.221911  0.675502  0.073985  1
  I  I16  1  0.073988  0.222732  0.681676  1
  I  I17  1  0.317821  0.924053  0.771842  1
  I  I18  1  0.775544  0.320274  0.924761  1
  I  I19  1  0.924692  0.772990  0.320065  1
