# generated using pymatgen
data_TbYNi7
_symmetry_space_group_name_H-M   'P 1'
_cell_length_a   12.51198264
_cell_length_b   12.51198288
_cell_length_c   12.51198406
_cell_angle_alpha   22.74431998
_cell_angle_beta   22.74431966
_cell_angle_gamma   22.74431869
_symmetry_Int_Tables_number   1
_chemical_formula_structural   TbYNi7
_chemical_formula_sum   'Tb2 Y2 Ni14'
_cell_volume   256.88569105
_cell_formula_units_Z   2
loop_
 _symmetry_equiv_pos_site_id
 _symmetry_equiv_pos_as_xyz
  1  'x, y, z'
loop_
 _atom_site_type_symbol
 _atom_site_label
 _atom_site_symmetry_multiplicity
 _atom_site_fract_x
 _atom_site_fract_y
 _atom_site_fract_z
 _atom_site_occupancy
  Tb  Tb0  1  0.949496  0.949496  0.949496  1
  Tb  Tb1  1  0.147017  0.147017  0.147017  1
  Y  Y2  1  0.050503  0.050503  0.050503  1
  Y  Y3  1  0.852785  0.852785  0.852785  1
  Ni  Ni4  1  0.721870  0.721870  0.721870  1
  Ni  Ni5  1  0.388309  0.388309  0.388309  1
  Ni  Ni6  1  0.390365  0.891247  0.390365  1
  Ni  Ni7  1  0.611715  0.611715  0.611715  1
  Ni  Ni8  1  0.000086  0.499971  0.499971  1
  Ni  Ni9  1  0.609584  0.609584  0.108968  1
  Ni  Ni10  1  0.500026  0.500026  0.500026  1
  Ni  Ni11  1  0.390365  0.390365  0.891247  1
  Ni  Ni12  1  0.278138  0.278138  0.278138  1
  Ni  Ni13  1  0.609584  0.108968  0.609584  1
  Ni  Ni14  1  0.891247  0.390365  0.390365  1
  Ni  Ni15  1  0.499971  0.000086  0.499971  1
  Ni  Ni16  1  0.499971  0.499971  0.000086  1
  Ni  Ni17  1  0.108968  0.609584  0.609584  1
