# generated using pymatgen
data_Tm8TaW3C8
_symmetry_space_group_name_H-M   'P 1'
_cell_length_a   5.72953112
_cell_length_b   5.72953120
_cell_length_c   9.72242300
_cell_angle_alpha   90.00000000
_cell_angle_beta   90.00000000
_cell_angle_gamma   90.48449932
_symmetry_Int_Tables_number   1
_chemical_formula_structural   Tm8TaW3C8
_chemical_formula_sum   'Tm8 Ta1 W3 C8'
_cell_volume   319.15169566
_cell_formula_units_Z   1
loop_
 _symmetry_equiv_pos_site_id
 _symmetry_equiv_pos_as_xyz
  1  'x, y, z'
loop_
 _atom_site_type_symbol
 _atom_site_label
 _atom_site_symmetry_multiplicity
 _atom_site_fract_x
 _atom_site_fract_y
 _atom_site_fract_z
 _atom_site_occupancy
  Tm  Tm0  1  0.199707  0.199707  0.342964  1
  Tm  Tm1  1  0.798816  0.798816  0.656661  1
  Tm  Tm2  1  0.297626  0.702075  0.840712  1
  Tm  Tm3  1  0.798816  0.798816  0.343339  1
  Tm  Tm4  1  0.199707  0.199707  0.657036  1
  Tm  Tm5  1  0.702075  0.297626  0.159288  1
  Tm  Tm6  1  0.702075  0.297626  0.840712  1
  Tm  Tm7  1  0.297626  0.702075  0.159288  1
  Ta  Ta8  1  0.183514  0.183514  0.000000  1
  W  W9  1  0.824487  0.824487  0.000000  1
  W  W10  1  0.321252  0.677620  0.500000  1
  W  W11  1  0.677620  0.321252  0.500000  1
  C  C12  1  0.998860  0.998860  0.158189  1
  C  C13  1  0.500152  0.500152  0.342601  1
  C  C14  1  0.500152  0.500152  0.657399  1
  C  C15  1  0.505884  0.992401  0.000000  1
  C  C16  1  0.992401  0.505884  0.000000  1
  C  C17  1  0.998860  0.998860  0.841811  1
  C  C18  1  0.500472  0.999897  0.500000  1
  C  C19  1  0.999897  0.500472  0.500000  1
