# generated using pymatgen
data_CeHo11Tc4
_symmetry_space_group_name_H-M   'P 1'
_cell_length_a   6.26762934
_cell_length_b   7.34885182
_cell_length_c   9.20947300
_cell_angle_alpha   90.00000000
_cell_angle_beta   90.00000000
_cell_angle_gamma   91.17844264
_symmetry_Int_Tables_number   1
_chemical_formula_structural   CeHo11Tc4
_chemical_formula_sum   'Ce1 Ho11 Tc4'
_cell_volume   424.09749543
_cell_formula_units_Z   1
loop_
 _symmetry_equiv_pos_site_id
 _symmetry_equiv_pos_as_xyz
  1  'x, y, z'
loop_
 _atom_site_type_symbol
 _atom_site_label
 _atom_site_symmetry_multiplicity
 _atom_site_fract_x
 _atom_site_fract_y
 _atom_site_fract_z
 _atom_site_occupancy
  Ce  Ce0  1  0.357541  0.560676  0.250000  1
  Ho  Ho1  1  0.662515  0.177424  0.061508  1
  Ho  Ho2  1  0.123478  0.041655  0.250000  1
  Ho  Ho3  1  0.835840  0.674426  0.439639  1
  Ho  Ho4  1  0.333723  0.824582  0.932883  1
  Ho  Ho5  1  0.166740  0.323603  0.565840  1
  Ho  Ho6  1  0.662515  0.177424  0.438492  1
  Ho  Ho7  1  0.166740  0.323603  0.934160  1
  Ho  Ho8  1  0.333723  0.824582  0.567117  1
  Ho  Ho9  1  0.872986  0.958484  0.750000  1
  Ho  Ho10  1  0.626804  0.459702  0.750000  1
  Ho  Ho11  1  0.835840  0.674426  0.060361  1
  Tc  Tc12  1  0.005221  0.392523  0.250000  1
  Tc  Tc13  1  0.465835  0.113583  0.750000  1
  Tc  Tc14  1  0.516889  0.860828  0.250000  1
  Tc  Tc15  1  0.033607  0.612479  0.750000  1
