# generated using pymatgen
data_Er12Co8Si7Rh
_symmetry_space_group_name_H-M   'P 1'
_cell_length_a   5.44173825
_cell_length_b   7.53870627
_cell_length_c   12.56942200
_cell_angle_alpha   90.00000000
_cell_angle_beta   90.00000000
_cell_angle_gamma   90.68196317
_symmetry_Int_Tables_number   1
_chemical_formula_structural   Er12Co8Si7Rh
_chemical_formula_sum   'Er12 Co8 Si7 Rh1'
_cell_volume   515.60724894
_cell_formula_units_Z   1
loop_
 _symmetry_equiv_pos_site_id
 _symmetry_equiv_pos_as_xyz
  1  'x, y, z'
loop_
 _atom_site_type_symbol
 _atom_site_label
 _atom_site_symmetry_multiplicity
 _atom_site_fract_x
 _atom_site_fract_y
 _atom_site_fract_z
 _atom_site_occupancy
  Er  Er0  1  0.633577  0.245418  0.250000  1
  Er  Er1  1  0.371969  0.749783  0.750000  1
  Er  Er2  1  0.365129  0.759584  0.250000  1
  Er  Er3  1  0.632151  0.244421  0.750000  1
  Er  Er4  1  0.140681  0.391993  0.103800  1
  Er  Er5  1  0.862532  0.603700  0.899789  1
  Er  Er6  1  0.862532  0.603700  0.600211  1
  Er  Er7  1  0.857249  0.899645  0.398608  1
  Er  Er8  1  0.140681  0.391993  0.396200  1
  Er  Er9  1  0.139895  0.105909  0.601434  1
  Er  Er10  1  0.139895  0.105909  0.898566  1
  Er  Er11  1  0.857249  0.899645  0.101392  1
  Co  Co12  1  0.368997  0.025575  0.080362  1
  Co  Co13  1  0.641730  0.972616  0.910009  1
  Co  Co14  1  0.641730  0.972616  0.589991  1
  Co  Co15  1  0.630127  0.528676  0.412414  1
  Co  Co16  1  0.368997  0.025575  0.419638  1
  Co  Co17  1  0.365214  0.471621  0.588242  1
  Co  Co18  1  0.365214  0.471621  0.911758  1
  Co  Co19  1  0.630127  0.528676  0.087586  1
  Si  Si20  1  0.853065  0.896872  0.750000  1
  Si  Si21  1  0.840284  0.599920  0.250000  1
  Si  Si22  1  0.154948  0.399440  0.750000  1
  Si  Si23  1  0.611188  0.252910  0.997351  1
  Si  Si24  1  0.388976  0.748541  0.997780  1
  Si  Si25  1  0.388976  0.748541  0.502220  1
  Si  Si26  1  0.611188  0.252910  0.502649  1
  Rh  Rh27  1  0.135695  0.102189  0.250000  1
