# generated using pymatgen
data_NdDyAl8SiIr3
_symmetry_space_group_name_H-M   'P 1'
_cell_length_a   7.57074700
_cell_length_b   7.57903252
_cell_length_c   9.41564000
_cell_angle_alpha   90.00000000
_cell_angle_beta   90.00000000
_cell_angle_gamma   119.65890419
_symmetry_Int_Tables_number   1
_chemical_formula_structural   NdDyAl8SiIr3
_chemical_formula_sum   'Nd2 Dy2 Al16 Si2 Ir6'
_cell_volume   469.47823101
_cell_formula_units_Z   2
loop_
 _symmetry_equiv_pos_site_id
 _symmetry_equiv_pos_as_xyz
  1  'x, y, z'
loop_
 _atom_site_type_symbol
 _atom_site_label
 _atom_site_symmetry_multiplicity
 _atom_site_fract_x
 _atom_site_fract_y
 _atom_site_fract_z
 _atom_site_occupancy
  Nd  Nd0  1  0.994929  0.674254  0.750000  1
  Nd  Nd1  1  0.005071  0.325746  0.250000  1
  Dy  Dy2  1  0.674540  0.994859  0.750000  1
  Dy  Dy3  1  0.325460  0.005141  0.250000  1
  Al  Al4  1  0.001336  0.334828  0.576619  1
  Al  Al5  1  0.998664  0.665172  0.423381  1
  Al  Al6  1  0.998664  0.665172  0.076619  1
  Al  Al7  1  0.337898  0.002747  0.925038  1
  Al  Al8  1  0.001336  0.334828  0.923381  1
  Al  Al9  1  0.662102  0.997253  0.074962  1
  Al  Al10  1  0.662102  0.997253  0.425038  1
  Al  Al11  1  0.337898  0.002747  0.574962  1
  Al  Al12  1  0.337030  0.335618  0.055526  1
  Al  Al13  1  0.662970  0.664382  0.944474  1
  Al  Al14  1  0.662970  0.664382  0.555526  1
  Al  Al15  1  0.337030  0.335618  0.444474  1
  Al  Al16  1  0.337211  0.548600  0.750000  1
  Al  Al17  1  0.662789  0.451400  0.250000  1
  Al  Al18  1  0.546649  0.333758  0.750000  1
  Al  Al19  1  0.453351  0.666242  0.250000  1
  Si  Si20  1  0.129216  0.130177  0.750000  1
  Si  Si21  1  0.870784  0.869823  0.250000  1
  Ir  Ir22  1  0.670371  0.327910  0.499908  1
  Ir  Ir23  1  0.329629  0.672090  0.500092  1
  Ir  Ir24  1  0.329629  0.672090  0.999908  1
  Ir  Ir25  1  0.670371  0.327910  0.000092  1
  Ir  Ir26  1  0.000000  0.000000  0.500000  1
  Ir  Ir27  1  0.000000  0.000000  0.000000  1
