# generated using pymatgen
data_Ce4Zn2AsRh10
_symmetry_space_group_name_H-M   'P 1'
_cell_length_a   7.19417711
_cell_length_b   7.33576851
_cell_length_c   7.33576808
_cell_angle_alpha   107.13581253
_cell_angle_beta   111.07699730
_cell_angle_gamma   111.07700559
_symmetry_Int_Tables_number   1
_chemical_formula_structural   Ce4Zn2AsRh10
_chemical_formula_sum   'Ce4 Zn2 As1 Rh10'
_cell_volume   294.41322703
_cell_formula_units_Z   1
loop_
 _symmetry_equiv_pos_site_id
 _symmetry_equiv_pos_as_xyz
  1  'x, y, z'
loop_
 _atom_site_type_symbol
 _atom_site_label
 _atom_site_symmetry_multiplicity
 _atom_site_fract_x
 _atom_site_fract_y
 _atom_site_fract_z
 _atom_site_occupancy
  Ce  Ce0  1  0.026686  0.013343  0.513343  1
  Ce  Ce1  1  0.026686  0.513343  0.013343  1
  Ce  Ce2  1  0.477266  0.968376  0.968376  1
  Ce  Ce3  1  0.477266  0.508889  0.508889  1
  Zn  Zn4  1  0.752413  0.254269  0.498144  1
  Zn  Zn5  1  0.752413  0.498144  0.254269  1
  As  As6  1  0.994418  0.997209  0.997209  1
  Rh  Rh7  1  0.516725  0.258362  0.758362  1
  Rh  Rh8  1  0.232962  0.488774  0.744188  1
  Rh  Rh9  1  0.232962  0.744188  0.488774  1
  Rh  Rh10  1  0.516725  0.758362  0.258362  1
  Rh  Rh11  1  0.727798  0.710684  0.017114  1
  Rh  Rh12  1  0.303009  0.015312  0.287697  1
  Rh  Rh13  1  0.965931  0.262707  0.262707  1
  Rh  Rh14  1  0.303009  0.287697  0.015312  1
  Rh  Rh15  1  0.727798  0.017114  0.710684  1
  Rh  Rh16  1  0.965931  0.703226  0.703226  1
