# generated using pymatgen
data_LaY2RuO7
_symmetry_space_group_name_H-M   'P 1'
_cell_length_a   6.49052941
_cell_length_b   6.49052861
_cell_length_c   7.56170200
_cell_angle_alpha   90.00000000
_cell_angle_beta   90.00000000
_cell_angle_gamma   110.03306391
_symmetry_Int_Tables_number   1
_chemical_formula_structural   LaY2RuO7
_chemical_formula_sum   'La2 Y4 Ru2 O14'
_cell_volume   299.27763614
_cell_formula_units_Z   2
loop_
 _symmetry_equiv_pos_site_id
 _symmetry_equiv_pos_as_xyz
  1  'x, y, z'
loop_
 _atom_site_type_symbol
 _atom_site_label
 _atom_site_symmetry_multiplicity
 _atom_site_fract_x
 _atom_site_fract_y
 _atom_site_fract_z
 _atom_site_occupancy
  La  La0  1  0.000000  0.000000  0.500000  1
  La  La1  1  0.000000  0.000000  0.000000  1
  Y  Y2  1  0.481967  0.931166  0.750000  1
  Y  Y3  1  0.518033  0.068834  0.250000  1
  Y  Y4  1  0.931166  0.481967  0.750000  1
  Y  Y5  1  0.068834  0.518033  0.250000  1
  Ru  Ru6  1  0.500000  0.500000  0.500000  1
  Ru  Ru7  1  0.500000  0.500000  0.000000  1
  O  O8  1  0.587424  0.587424  0.750000  1
  O  O9  1  0.412576  0.412576  0.250000  1
  O  O10  1  0.837448  0.118373  0.750000  1
  O  O11  1  0.162552  0.881627  0.250000  1
  O  O12  1  0.118373  0.837448  0.750000  1
  O  O13  1  0.881627  0.162552  0.250000  1
  O  O14  1  0.442087  0.183436  0.963959  1
  O  O15  1  0.557913  0.816564  0.463959  1
  O  O16  1  0.183436  0.442087  0.963959  1
  O  O17  1  0.816564  0.557913  0.463959  1
  O  O18  1  0.442087  0.183436  0.536041  1
  O  O19  1  0.557913  0.816564  0.036041  1
  O  O20  1  0.816564  0.557913  0.036041  1
  O  O21  1  0.183436  0.442087  0.536041  1
