# generated using pymatgen
data_Hf4Re7Mo
_symmetry_space_group_name_H-M   'P 1'
_cell_length_a   5.29842100
_cell_length_b   5.29842195
_cell_length_c   8.62694900
_cell_angle_alpha   90.00000000
_cell_angle_beta   90.00000000
_cell_angle_gamma   120.00000028
_symmetry_Int_Tables_number   1
_chemical_formula_structural   Hf4Re7Mo
_chemical_formula_sum   'Hf4 Re7 Mo1'
_cell_volume   209.73980798
_cell_formula_units_Z   1
loop_
 _symmetry_equiv_pos_site_id
 _symmetry_equiv_pos_as_xyz
  1  'x, y, z'
loop_
 _atom_site_type_symbol
 _atom_site_label
 _atom_site_symmetry_multiplicity
 _atom_site_fract_x
 _atom_site_fract_y
 _atom_site_fract_z
 _atom_site_occupancy
  Hf  Hf0  1  0.333333  0.666667  0.433539  1
  Hf  Hf1  1  0.666667  0.333333  0.566461  1
  Hf  Hf2  1  0.666667  0.333333  0.936563  1
  Hf  Hf3  1  0.333333  0.666667  0.063437  1
  Re  Re4  1  0.000000  0.000000  0.000000  1
  Re  Re5  1  0.828317  0.171683  0.249706  1
  Re  Re6  1  0.828317  0.656634  0.249706  1
  Re  Re7  1  0.343366  0.171683  0.249706  1
  Re  Re8  1  0.171683  0.828317  0.750294  1
  Re  Re9  1  0.171683  0.343366  0.750294  1
  Re  Re10  1  0.656634  0.828317  0.750294  1
  Mo  Mo11  1  0.000000  0.000000  0.500000  1
