# generated using pymatgen
data_Hf3TaFe2N
_symmetry_space_group_name_H-M   'P 1'
_cell_length_a   8.42120075
_cell_length_b   8.42119998
_cell_length_c   8.42120100
_cell_angle_alpha   59.99999993
_cell_angle_beta   60.00000296
_cell_angle_gamma   60.00000121
_symmetry_Int_Tables_number   1
_chemical_formula_structural   Hf3TaFe2N
_chemical_formula_sum   'Hf12 Ta4 Fe8 N4'
_cell_volume   422.28635674
_cell_formula_units_Z   4
loop_
 _symmetry_equiv_pos_site_id
 _symmetry_equiv_pos_as_xyz
  1  'x, y, z'
loop_
 _atom_site_type_symbol
 _atom_site_label
 _atom_site_symmetry_multiplicity
 _atom_site_fract_x
 _atom_site_fract_y
 _atom_site_fract_z
 _atom_site_occupancy
  Hf  Hf0  1  0.811995  0.811995  0.188005  1
  Hf  Hf1  1  0.188005  0.188005  0.811995  1
  Hf  Hf2  1  0.811995  0.188005  0.811995  1
  Hf  Hf3  1  0.188005  0.811995  0.188005  1
  Hf  Hf4  1  0.188005  0.811995  0.811995  1
  Hf  Hf5  1  0.811995  0.188005  0.188005  1
  Hf  Hf6  1  0.438005  0.438005  0.061995  1
  Hf  Hf7  1  0.061995  0.061995  0.438005  1
  Hf  Hf8  1  0.438005  0.061995  0.438005  1
  Hf  Hf9  1  0.061995  0.438005  0.061995  1
  Hf  Hf10  1  0.061995  0.438005  0.438005  1
  Hf  Hf11  1  0.438005  0.061995  0.061995  1
  Ta  Ta12  1  0.125000  0.625000  0.625000  1
  Ta  Ta13  1  0.625000  0.125000  0.625000  1
  Ta  Ta14  1  0.625000  0.625000  0.125000  1
  Ta  Ta15  1  0.625000  0.625000  0.625000  1
  Fe  Fe16  1  0.744219  0.418594  0.418594  1
  Fe  Fe17  1  0.418594  0.744219  0.418594  1
  Fe  Fe18  1  0.418594  0.418594  0.744219  1
  Fe  Fe19  1  0.418594  0.418594  0.418594  1
  Fe  Fe20  1  0.505781  0.831406  0.831406  1
  Fe  Fe21  1  0.831406  0.505781  0.831406  1
  Fe  Fe22  1  0.831406  0.831406  0.505781  1
  Fe  Fe23  1  0.831406  0.831406  0.831406  1
  N  N24  1  0.625000  0.125000  0.125000  1
  N  N25  1  0.125000  0.625000  0.125000  1
  N  N26  1  0.125000  0.125000  0.625000  1
  N  N27  1  0.125000  0.125000  0.125000  1
