# generated using pymatgen
data_Ho6Sc4In8Ir3Rh
_symmetry_space_group_name_H-M   'P 1'
_cell_length_a   3.54670900
_cell_length_b   7.90472212
_cell_length_c   17.88503727
_cell_angle_alpha   89.98028260
_cell_angle_beta   90.00000000
_cell_angle_gamma   90.00000000
_symmetry_Int_Tables_number   1
_chemical_formula_structural   Ho6Sc4In8Ir3Rh
_chemical_formula_sum   'Ho6 Sc4 In8 Ir3 Rh1'
_cell_volume   501.42038726
_cell_formula_units_Z   1
loop_
 _symmetry_equiv_pos_site_id
 _symmetry_equiv_pos_as_xyz
  1  'x, y, z'
loop_
 _atom_site_type_symbol
 _atom_site_label
 _atom_site_symmetry_multiplicity
 _atom_site_fract_x
 _atom_site_fract_y
 _atom_site_fract_z
 _atom_site_occupancy
  Ho  Ho0  1  0.000000  0.999406  0.999820  1
  Ho  Ho1  1  0.000000  0.499584  0.500232  1
  Ho  Ho2  1  0.000000  0.752416  0.783656  1
  Ho  Ho3  1  0.000000  0.246733  0.216683  1
  Ho  Ho4  1  0.000000  0.252364  0.716586  1
  Ho  Ho5  1  0.000000  0.749958  0.283652  1
  Sc  Sc6  1  0.000000  0.878729  0.589725  1
  Sc  Sc7  1  0.000000  0.121289  0.410427  1
  Sc  Sc8  1  0.000000  0.378209  0.910292  1
  Sc  Sc9  1  0.000000  0.620912  0.089840  1
  In  In10  1  0.500000  0.810411  0.439884  1
  In  In11  1  0.500000  0.188857  0.559896  1
  In  In12  1  0.500000  0.311061  0.060006  1
  In  In13  1  0.500000  0.688182  0.940525  1
  In  In14  1  0.500000  0.921328  0.149651  1
  In  In15  1  0.500000  0.078724  0.850123  1
  In  In16  1  0.500000  0.421931  0.349640  1
  In  In17  1  0.500000  0.578885  0.649893  1
  Ir  Ir18  1  0.500000  0.965653  0.693418  1
  Ir  Ir19  1  0.500000  0.034446  0.306447  1
  Ir  Ir20  1  0.500000  0.466105  0.806881  1
  Rh  Rh21  1  0.500000  0.534818  0.192720  1
