# generated using pymatgen
data_Ho12GaCo4Hg
_symmetry_space_group_name_H-M   'P 1'
_cell_length_a   8.25878565
_cell_length_b   8.25878527
_cell_length_c   8.25878580
_cell_angle_alpha   111.98886928
_cell_angle_beta   109.71061960
_cell_angle_gamma   106.75643127
_symmetry_Int_Tables_number   1
_chemical_formula_structural   Ho12GaCo4Hg
_chemical_formula_sum   'Ho12 Ga1 Co4 Hg1'
_cell_volume   432.73147801
_cell_formula_units_Z   1
loop_
 _symmetry_equiv_pos_site_id
 _symmetry_equiv_pos_as_xyz
  1  'x, y, z'
loop_
 _atom_site_type_symbol
 _atom_site_label
 _atom_site_symmetry_multiplicity
 _atom_site_fract_x
 _atom_site_fract_y
 _atom_site_fract_z
 _atom_site_occupancy
  Ho  Ho0  1  0.959908  0.262331  0.697577  1
  Ho  Ho1  1  0.040092  0.737669  0.302423  1
  Ho  Ho2  1  0.673897  0.860929  0.187031  1
  Ho  Ho3  1  0.326103  0.513135  0.187031  1
  Ho  Ho4  1  0.326103  0.139071  0.812969  1
  Ho  Ho5  1  0.673897  0.486865  0.812969  1
  Ho  Ho6  1  0.564754  0.262331  0.302423  1
  Ho  Ho7  1  0.435246  0.737669  0.697577  1
  Ho  Ho8  1  0.180106  0.780212  0.960318  1
  Ho  Ho9  1  0.819894  0.780212  0.600107  1
  Ho  Ho10  1  0.180106  0.219788  0.399893  1
  Ho  Ho11  1  0.819894  0.219788  0.039682  1
  Ga  Ga12  1  0.000000  0.500000  0.500000  1
  Co  Co13  1  0.114677  0.114677  0.000000  1
  Co  Co14  1  0.885323  0.885323  0.000000  1
  Co  Co15  1  0.663586  0.500000  0.163586  1
  Co  Co16  1  0.336414  0.500000  0.836414  1
  Hg  Hg17  1  0.500000  0.000000  0.500000  1
