# generated using pymatgen
data_Er3TmPa4(ReB6)4
_symmetry_space_group_name_H-M   'P 1'
_cell_length_a   3.70243700
_cell_length_b   9.14141612
_cell_length_c   11.49127715
_cell_angle_alpha   90.01859267
_cell_angle_beta   90.00000000
_cell_angle_gamma   90.00000000
_symmetry_Int_Tables_number   1
_chemical_formula_structural   Er3TmPa4(ReB6)4
_chemical_formula_sum   'Er3 Tm1 Pa4 Re4 B24'
_cell_volume   388.92819887
_cell_formula_units_Z   1
loop_
 _symmetry_equiv_pos_site_id
 _symmetry_equiv_pos_as_xyz
  1  'x, y, z'
loop_
 _atom_site_type_symbol
 _atom_site_label
 _atom_site_symmetry_multiplicity
 _atom_site_fract_x
 _atom_site_fract_y
 _atom_site_fract_z
 _atom_site_occupancy
  Er  Er0  1  0.000000  0.945302  0.374555  1
  Er  Er1  1  0.000000  0.054803  0.625541  1
  Er  Er2  1  0.000000  0.445322  0.125291  1
  Tm  Tm3  1  0.000000  0.554763  0.874476  1
  Pa  Pa4  1  0.000000  0.323119  0.413499  1
  Pa  Pa5  1  0.000000  0.676843  0.586618  1
  Pa  Pa6  1  0.000000  0.822969  0.086418  1
  Pa  Pa7  1  0.000000  0.177001  0.913307  1
  Re  Re8  1  0.000000  0.639161  0.321250  1
  Re  Re9  1  0.000000  0.361064  0.678923  1
  Re  Re10  1  0.000000  0.139158  0.178533  1
  Re  Re11  1  0.000000  0.860550  0.821251  1
  B  B12  1  0.500000  0.552965  0.433250  1
  B  B13  1  0.500000  0.447049  0.566895  1
  B  B14  1  0.500000  0.052945  0.066625  1
  B  B15  1  0.500000  0.946845  0.933326  1
  B  B16  1  0.500000  0.748710  0.420132  1
  B  B17  1  0.500000  0.251341  0.579955  1
  B  B18  1  0.500000  0.248936  0.079749  1
  B  B19  1  0.500000  0.750785  0.920120  1
  B  B20  1  0.500000  0.793830  0.265905  1
  B  B21  1  0.500000  0.206294  0.734155  1
  B  B22  1  0.500000  0.293852  0.233928  1
  B  B23  1  0.500000  0.705911  0.766189  1
  B  B24  1  0.500000  0.633397  0.184833  1
  B  B25  1  0.500000  0.366888  0.815208  1
  B  B26  1  0.500000  0.133506  0.314980  1
  B  B27  1  0.500000  0.866404  0.685136  1
  B  B28  1  0.500000  0.982816  0.213686  1
  B  B29  1  0.500000  0.017105  0.786344  1
  B  B30  1  0.500000  0.482848  0.286251  1
  B  B31  1  0.500000  0.517257  0.714016  1
  B  B32  1  0.500000  0.610277  0.030164  1
  B  B33  1  0.500000  0.389958  0.969375  1
  B  B34  1  0.500000  0.111134  0.469428  1
  B  B35  1  0.500000  0.888893  0.530686  1
