# generated using pymatgen
data_Sc2Ni11MoP7
_symmetry_space_group_name_H-M   'P 1'
_cell_length_a   9.01353451
_cell_length_b   9.03022609
_cell_length_c   3.60807900
_cell_angle_alpha   90.00000000
_cell_angle_beta   90.00000000
_cell_angle_gamma   119.71816498
_symmetry_Int_Tables_number   1
_chemical_formula_structural   Sc2Ni11MoP7
_chemical_formula_sum   'Sc2 Ni11 Mo1 P7'
_cell_volume   255.05086728
_cell_formula_units_Z   1
loop_
 _symmetry_equiv_pos_site_id
 _symmetry_equiv_pos_as_xyz
  1  'x, y, z'
loop_
 _atom_site_type_symbol
 _atom_site_label
 _atom_site_symmetry_multiplicity
 _atom_site_fract_x
 _atom_site_fract_y
 _atom_site_fract_z
 _atom_site_occupancy
  Sc  Sc0  1  0.329455  0.664094  0.000000  1
  Sc  Sc1  1  0.666825  0.331913  0.500000  1
  Ni  Ni2  1  0.625595  0.063509  0.000000  1
  Ni  Ni3  1  0.128723  0.282192  0.000000  1
  Ni  Ni4  1  0.440112  0.376388  0.000000  1
  Ni  Ni5  1  0.935953  0.566387  0.000000  1
  Ni  Ni6  1  0.715722  0.835993  0.000000  1
  Ni  Ni7  1  0.158609  0.879777  0.000000  1
  Ni  Ni8  1  0.221367  0.126237  0.500000  1
  Ni  Ni9  1  0.053983  0.440910  0.500000  1
  Ni  Ni10  1  0.562413  0.615179  0.500000  1
  Ni  Ni11  1  0.901159  0.772451  0.500000  1
  Ni  Ni12  1  0.384560  0.950691  0.500000  1
  Mo  Mo13  1  0.879515  0.093373  0.500000  1
  P  P14  1  0.001693  0.997464  0.000000  1
  P  P15  1  0.411670  0.121181  0.000000  1
  P  P16  1  0.883169  0.299214  0.000000  1
  P  P17  1  0.704936  0.585980  0.000000  1
  P  P18  1  0.290738  0.409824  0.500000  1
  P  P19  1  0.120294  0.709925  0.500000  1
  P  P20  1  0.583510  0.877324  0.500000  1
