# generated using pymatgen
data_ZrUCo2Sn
_symmetry_space_group_name_H-M   'P 1'
_cell_length_a   7.35807200
_cell_length_b   7.05475900
_cell_length_c   3.37421400
_cell_angle_alpha   90.00000000
_cell_angle_beta   90.00000000
_cell_angle_gamma   90.00000000
_symmetry_Int_Tables_number   1
_chemical_formula_structural   ZrUCo2Sn
_chemical_formula_sum   'Zr2 U2 Co4 Sn2'
_cell_volume   175.15350744
_cell_formula_units_Z   2
loop_
 _symmetry_equiv_pos_site_id
 _symmetry_equiv_pos_as_xyz
  1  'x, y, z'
loop_
 _atom_site_type_symbol
 _atom_site_label
 _atom_site_symmetry_multiplicity
 _atom_site_fract_x
 _atom_site_fract_y
 _atom_site_fract_z
 _atom_site_occupancy
  Zr  Zr0  1  0.323990  0.829312  0.500000  1
  Zr  Zr1  1  0.823990  0.670688  0.500000  1
  U  U2  1  0.177448  0.336186  0.500000  1
  U  U3  1  0.677448  0.163814  0.500000  1
  Co  Co4  1  0.364924  0.155815  0.000000  1
  Co  Co5  1  0.864924  0.344185  0.000000  1
  Co  Co6  1  0.124450  0.594672  0.000000  1
  Co  Co7  1  0.624450  0.905328  0.000000  1
  Sn  Sn8  1  0.009189  0.979455  0.000000  1
  Sn  Sn9  1  0.509189  0.520545  0.000000  1
