# generated using pymatgen
data_TaSi3Ni4Mo3P
_symmetry_space_group_name_H-M   'P 1'
_cell_length_a   3.61542800
_cell_length_b   6.06744652
_cell_length_c   7.05240389
_cell_angle_alpha   89.73579383
_cell_angle_beta   90.00000000
_cell_angle_gamma   90.00000000
_symmetry_Int_Tables_number   1
_chemical_formula_structural   TaSi3Ni4Mo3P
_chemical_formula_sum   'Ta1 Si3 Ni4 Mo3 P1'
_cell_volume   154.70282098
_cell_formula_units_Z   1
loop_
 _symmetry_equiv_pos_site_id
 _symmetry_equiv_pos_as_xyz
  1  'x, y, z'
loop_
 _atom_site_type_symbol
 _atom_site_label
 _atom_site_symmetry_multiplicity
 _atom_site_fract_x
 _atom_site_fract_y
 _atom_site_fract_z
 _atom_site_occupancy
  Ta  Ta0  1  0.250000  0.023665  0.328334  1
  Si  Si1  1  0.250000  0.776125  0.878581  1
  Si  Si2  1  0.750000  0.712637  0.377541  1
  Si  Si3  1  0.250000  0.280858  0.629291  1
  Ni  Ni4  1  0.250000  0.653232  0.567665  1
  Ni  Ni5  1  0.750000  0.340690  0.430957  1
  Ni  Ni6  1  0.750000  0.857505  0.067980  1
  Ni  Ni7  1  0.250000  0.150487  0.937616  1
  Mo  Mo8  1  0.250000  0.518664  0.168957  1
  Mo  Mo9  1  0.750000  0.479773  0.831824  1
  Mo  Mo10  1  0.750000  0.976391  0.664492  1
  P  P11  1  0.750000  0.229973  0.116763  1
