# generated using pymatgen
data_HgSb2F12
_symmetry_space_group_name_H-M   'P 1'
_cell_length_a   5.46205568
_cell_length_b   5.78999771
_cell_length_c   9.10985705
_cell_angle_alpha   104.66330198
_cell_angle_beta   91.06156061
_cell_angle_gamma   115.64401965
_symmetry_Int_Tables_number   1
_chemical_formula_structural   HgSb2F12
_chemical_formula_sum   'Hg1 Sb2 F12'
_cell_volume   248.54046172
_cell_formula_units_Z   1
loop_
 _symmetry_equiv_pos_site_id
 _symmetry_equiv_pos_as_xyz
  1  'x, y, z'
loop_
 _atom_site_type_symbol
 _atom_site_label
 _atom_site_symmetry_multiplicity
 _atom_site_fract_x
 _atom_site_fract_y
 _atom_site_fract_z
 _atom_site_occupancy
  Hg  Hg0  1  0.500000  0.500000  0.500000  1
  Sb  Sb1  1  0.266817  0.011912  0.763009  1
  Sb  Sb2  1  0.733183  0.988088  0.236991  1
  F  F3  1  0.788085  0.784558  0.367917  1
  F  F4  1  0.211915  0.215442  0.632083  1
  F  F5  1  0.351149  0.769688  0.222401  1
  F  F6  1  0.303785  0.777041  0.862641  1
  F  F7  1  0.696215  0.222959  0.137359  1
  F  F8  1  0.870186  0.783455  0.706196  1
  F  F9  1  0.129814  0.216545  0.293804  1
  F  F10  1  0.289334  0.776913  0.567938  1
  F  F11  1  0.710666  0.223087  0.432062  1
  F  F12  1  0.209320  0.230803  0.935844  1
  F  F13  1  0.790680  0.769197  0.064156  1
  F  F14  1  0.648851  0.230312  0.777599  1
