# generated using pymatgen
data_Nd8Ga3Os
_symmetry_space_group_name_H-M   'P 1'
_cell_length_a   10.40025600
_cell_length_b   10.40025745
_cell_length_c   7.30685900
_cell_angle_alpha   90.00000000
_cell_angle_beta   90.00000000
_cell_angle_gamma   120.00000175
_symmetry_Int_Tables_number   1
_chemical_formula_structural   Nd8Ga3Os
_chemical_formula_sum   'Nd16 Ga6 Os2'
_cell_volume   684.46220260
_cell_formula_units_Z   2
loop_
 _symmetry_equiv_pos_site_id
 _symmetry_equiv_pos_as_xyz
  1  'x, y, z'
loop_
 _atom_site_type_symbol
 _atom_site_label
 _atom_site_symmetry_multiplicity
 _atom_site_fract_x
 _atom_site_fract_y
 _atom_site_fract_z
 _atom_site_occupancy
  Nd  Nd0  1  0.829652  0.659303  0.486471  1
  Nd  Nd1  1  0.340697  0.170348  0.486471  1
  Nd  Nd2  1  0.829652  0.170348  0.486471  1
  Nd  Nd3  1  0.170348  0.340697  0.986471  1
  Nd  Nd4  1  0.659303  0.829652  0.986471  1
  Nd  Nd5  1  0.170348  0.829652  0.986471  1
  Nd  Nd6  1  0.666667  0.333333  0.163609  1
  Nd  Nd7  1  0.333333  0.666667  0.663609  1
  Nd  Nd8  1  0.537364  0.074726  0.795388  1
  Nd  Nd9  1  0.925274  0.462636  0.795388  1
  Nd  Nd10  1  0.537364  0.462636  0.795388  1
  Nd  Nd11  1  0.462636  0.925274  0.295388  1
  Nd  Nd12  1  0.074726  0.537364  0.295388  1
  Nd  Nd13  1  0.462636  0.537364  0.295388  1
  Nd  Nd14  1  0.000000  0.000000  0.767563  1
  Nd  Nd15  1  0.000000  0.000000  0.267563  1
  Ga  Ga16  1  0.835775  0.671548  0.045650  1
  Ga  Ga17  1  0.328452  0.164225  0.045650  1
  Ga  Ga18  1  0.835775  0.164225  0.045650  1
  Ga  Ga19  1  0.164225  0.328452  0.545650  1
  Ga  Ga20  1  0.671548  0.835775  0.545650  1
  Ga  Ga21  1  0.164225  0.835775  0.545650  1
  Os  Os22  1  0.666667  0.333333  0.549422  1
  Os  Os23  1  0.333333  0.666667  0.049422  1
