# generated using pymatgen
data_Lu3Si(PPd4)5
_symmetry_space_group_name_H-M   'P 1'
_cell_length_a   8.68238173
_cell_length_b   8.67236478
_cell_length_c   8.67236500
_cell_angle_alpha   60.07642147
_cell_angle_beta   59.96178509
_cell_angle_gamma   59.96178177
_symmetry_Int_Tables_number   1
_chemical_formula_structural   Lu3Si(PPd4)5
_chemical_formula_sum   'Lu3 Si1 P5 Pd20'
_cell_volume   461.74028332
_cell_formula_units_Z   1
loop_
 _symmetry_equiv_pos_site_id
 _symmetry_equiv_pos_as_xyz
  1  'x, y, z'
loop_
 _atom_site_type_symbol
 _atom_site_label
 _atom_site_symmetry_multiplicity
 _atom_site_fract_x
 _atom_site_fract_y
 _atom_site_fract_z
 _atom_site_occupancy
  Lu  Lu0  1  0.999007  0.000993  0.000993  1
  Lu  Lu1  1  0.751058  0.748942  0.748942  1
  Lu  Lu2  1  0.251058  0.248942  0.248942  1
  Si  Si3  1  0.733432  0.266568  0.266568  1
  P  P4  1  0.736897  0.734764  0.263103  1
  P  P5  1  0.736897  0.263103  0.734764  1
  P  P6  1  0.265236  0.734764  0.263103  1
  P  P7  1  0.264658  0.735342  0.735342  1
  P  P8  1  0.265236  0.263103  0.734764  1
  Pd  Pd9  1  0.341707  0.001583  0.001583  1
  Pd  Pd10  1  0.998417  0.658293  0.344873  1
  Pd  Pd11  1  0.344421  0.998787  0.655579  1
  Pd  Pd12  1  0.001213  0.655579  0.998787  1
  Pd  Pd13  1  0.655321  0.344679  0.999814  1
  Pd  Pd14  1  0.616594  0.618608  0.148203  1
  Pd  Pd15  1  0.383548  0.849917  0.382987  1
  Pd  Pd16  1  0.150083  0.616452  0.616452  1
  Pd  Pd17  1  0.655321  0.999814  0.344679  1
  Pd  Pd18  1  0.998417  0.344873  0.658293  1
  Pd  Pd19  1  0.655127  0.001583  0.001583  1
  Pd  Pd20  1  0.000186  0.999814  0.344679  1
  Pd  Pd21  1  0.616594  0.148203  0.618608  1
  Pd  Pd22  1  0.344421  0.655579  0.998787  1
  Pd  Pd23  1  0.381392  0.383406  0.383406  1
  Pd  Pd24  1  0.617013  0.616452  0.616452  1
  Pd  Pd25  1  0.383548  0.382987  0.849917  1
  Pd  Pd26  1  0.001213  0.998787  0.655579  1
  Pd  Pd27  1  0.851797  0.383406  0.383406  1
  Pd  Pd28  1  0.000186  0.344679  0.999814  1
