# generated using pymatgen
data_Tb3YbPd3PtO14
_symmetry_space_group_name_H-M   'P 1'
_cell_length_a   7.26279476
_cell_length_b   7.27338113
_cell_length_c   7.27338153
_cell_angle_alpha   59.97849257
_cell_angle_beta   59.96709028
_cell_angle_gamma   59.96709366
_symmetry_Int_Tables_number   1
_chemical_formula_structural   Tb3YbPd3PtO14
_chemical_formula_sum   'Tb3 Yb1 Pd3 Pt1 O14'
_cell_volume   271.50305370
_cell_formula_units_Z   1
loop_
 _symmetry_equiv_pos_site_id
 _symmetry_equiv_pos_as_xyz
  1  'x, y, z'
loop_
 _atom_site_type_symbol
 _atom_site_label
 _atom_site_symmetry_multiplicity
 _atom_site_fract_x
 _atom_site_fract_y
 _atom_site_fract_z
 _atom_site_occupancy
  Tb  Tb0  1  0.625000  0.625000  0.125000  1
  Tb  Tb1  1  0.625000  0.625000  0.625000  1
  Tb  Tb2  1  0.625000  0.125000  0.625000  1
  Yb  Yb3  1  0.125000  0.625000  0.625000  1
  Pd  Pd4  1  0.625000  0.125000  0.125000  1
  Pd  Pd5  1  0.125000  0.625000  0.125000  1
  Pd  Pd6  1  0.125000  0.125000  0.625000  1
  Pt  Pt7  1  0.125000  0.125000  0.125000  1
  O  O8  1  0.036233  0.462511  0.462511  1
  O  O9  1  0.785417  0.786335  0.213223  1
  O  O10  1  0.787651  0.212607  0.212607  1
  O  O11  1  0.464583  0.036777  0.463665  1
  O  O12  1  0.035989  0.457953  0.044032  1
  O  O13  1  0.746160  0.751903  0.751903  1
  O  O14  1  0.035989  0.044032  0.457953  1
  O  O15  1  0.214011  0.792047  0.205968  1
  O  O16  1  0.214011  0.205968  0.792047  1
  O  O17  1  0.503840  0.498097  0.498097  1
  O  O18  1  0.785417  0.213223  0.786335  1
  O  O19  1  0.462349  0.037393  0.037393  1
  O  O20  1  0.464583  0.463665  0.036777  1
  O  O21  1  0.213767  0.787489  0.787489  1
