# generated using pymatgen
data_Tm4Fe9Co7(P3W)4
_symmetry_space_group_name_H-M   'P 1'
_cell_length_a   3.68793100
_cell_length_b   10.34163302
_cell_length_c   11.92171457
_cell_angle_alpha   90.20775064
_cell_angle_beta   90.00000000
_cell_angle_gamma   90.00000000
_symmetry_Int_Tables_number   1
_chemical_formula_structural   Tm4Fe9Co7(P3W)4
_chemical_formula_sum   'Tm4 Fe9 Co7 P12 W4'
_cell_volume   454.68201295
_cell_formula_units_Z   1
loop_
 _symmetry_equiv_pos_site_id
 _symmetry_equiv_pos_as_xyz
  1  'x, y, z'
loop_
 _atom_site_type_symbol
 _atom_site_label
 _atom_site_symmetry_multiplicity
 _atom_site_fract_x
 _atom_site_fract_y
 _atom_site_fract_z
 _atom_site_occupancy
  Tm  Tm0  1  0.250000  0.580553  0.706263  1
  Tm  Tm1  1  0.250000  0.920772  0.206200  1
  Tm  Tm2  1  0.750000  0.418279  0.294143  1
  Tm  Tm3  1  0.750000  0.080498  0.794149  1
  Fe  Fe4  1  0.750000  0.717987  0.323821  1
  Fe  Fe5  1  0.250000  0.881111  0.700717  1
  Fe  Fe6  1  0.250000  0.620397  0.200814  1
  Fe  Fe7  1  0.750000  0.118920  0.299400  1
  Fe  Fe8  1  0.750000  0.381231  0.799402  1
  Fe  Fe9  1  0.250000  0.463193  0.935005  1
  Fe  Fe10  1  0.250000  0.037163  0.434843  1
  Fe  Fe11  1  0.750000  0.537584  0.066359  1
  Fe  Fe12  1  0.750000  0.963360  0.565435  1
  Co  Co13  1  0.250000  0.405757  0.487516  1
  Co  Co14  1  0.250000  0.093996  0.987089  1
  Co  Co15  1  0.750000  0.593792  0.513607  1
  Co  Co16  1  0.750000  0.907226  0.011861  1
  Co  Co17  1  0.250000  0.222987  0.174911  1
  Co  Co18  1  0.250000  0.277096  0.675136  1
  Co  Co19  1  0.750000  0.776857  0.825156  1
  P  P20  1  0.250000  0.424594  0.116218  1
  P  P21  1  0.250000  0.074752  0.616615  1
  P  P22  1  0.750000  0.574560  0.883989  1
  P  P23  1  0.750000  0.924088  0.383185  1
  P  P24  1  0.250000  0.268324  0.861196  1
  P  P25  1  0.250000  0.231595  0.361394  1
  P  P26  1  0.750000  0.735031  0.136824  1
  P  P27  1  0.750000  0.768305  0.638944  1
  P  P28  1  0.250000  0.592970  0.389775  1
  P  P29  1  0.250000  0.905851  0.888706  1
  P  P30  1  0.750000  0.405941  0.611509  1
  P  P31  1  0.750000  0.094577  0.110976  1
  W  W32  1  0.250000  0.703944  0.990007  1
  W  W33  1  0.250000  0.796970  0.489160  1
  W  W34  1  0.750000  0.296519  0.009867  1
  W  W35  1  0.750000  0.203218  0.509805  1
