# generated using pymatgen
data_Dy2FeSi5Rh2
_symmetry_space_group_name_H-M   'P 1'
_cell_length_a   8.04443007
_cell_length_b   8.04442932
_cell_length_c   5.63680123
_cell_angle_alpha   70.95921450
_cell_angle_beta   70.95921834
_cell_angle_gamma   93.63881050
_symmetry_Int_Tables_number   1
_chemical_formula_structural   Dy2FeSi5Rh2
_chemical_formula_sum   'Dy4 Fe2 Si10 Rh4'
_cell_volume   320.00335105
_cell_formula_units_Z   2
loop_
 _symmetry_equiv_pos_site_id
 _symmetry_equiv_pos_as_xyz
  1  'x, y, z'
loop_
 _atom_site_type_symbol
 _atom_site_label
 _atom_site_symmetry_multiplicity
 _atom_site_fract_x
 _atom_site_fract_y
 _atom_site_fract_z
 _atom_site_occupancy
  Dy  Dy0  1  0.864064  0.596862  0.766721  1
  Dy  Dy1  1  0.129212  0.401423  0.243308  1
  Dy  Dy2  1  0.403138  0.135936  0.733279  1
  Dy  Dy3  1  0.598577  0.870788  0.256692  1
  Fe  Fe4  1  0.544126  0.261310  0.129000  1
  Fe  Fe5  1  0.738690  0.455874  0.371000  1
  Si  Si6  1  0.762641  0.237359  0.750000  1
  Si  Si7  1  0.220954  0.779046  0.250000  1
  Si  Si8  1  0.522191  0.477809  0.750000  1
  Si  Si9  1  0.498089  0.501911  0.250000  1
  Si  Si10  1  0.209448  0.790552  0.750000  1
  Si  Si11  1  0.783729  0.216271  0.250000  1
  Si  Si12  1  0.278224  0.069522  0.326210  1
  Si  Si13  1  0.734447  0.941233  0.663359  1
  Si  Si14  1  0.930478  0.721776  0.173790  1
  Si  Si15  1  0.058767  0.265553  0.836641  1
  Rh  Rh16  1  0.459025  0.737200  0.876145  1
  Rh  Rh17  1  0.262800  0.540975  0.623855  1
  Rh  Rh18  1  0.998912  0.001088  0.250000  1
  Rh  Rh19  1  0.002486  0.997514  0.750000  1
