# generated using pymatgen
data_Ho7Tm(Ge4Mo3)4
_symmetry_space_group_name_H-M   'P 1'
_cell_length_a   6.93393523
_cell_length_b   7.04128458
_cell_length_c   13.09928147
_cell_angle_alpha   89.99493635
_cell_angle_beta   89.97695718
_cell_angle_gamma   89.98798197
_symmetry_Int_Tables_number   1
_chemical_formula_structural   Ho7Tm(Ge4Mo3)4
_chemical_formula_sum   'Ho7 Tm1 Ge16 Mo12'
_cell_volume   639.55677774
_cell_formula_units_Z   1
loop_
 _symmetry_equiv_pos_site_id
 _symmetry_equiv_pos_as_xyz
  1  'x, y, z'
loop_
 _atom_site_type_symbol
 _atom_site_label
 _atom_site_symmetry_multiplicity
 _atom_site_fract_x
 _atom_site_fract_y
 _atom_site_fract_z
 _atom_site_occupancy
  Ho  Ho0  1  0.490351  0.330237  0.092327  1
  Ho  Ho1  1  0.990205  0.169610  0.407748  1
  Ho  Ho2  1  0.509894  0.669441  0.592349  1
  Ho  Ho3  1  0.009621  0.830299  0.907997  1
  Ho  Ho4  1  0.509578  0.669834  0.907934  1
  Ho  Ho5  1  0.009874  0.830379  0.592330  1
  Ho  Ho6  1  0.490150  0.330460  0.407374  1
  Tm  Tm7  1  0.989585  0.170167  0.092337  1
  Ge  Ge8  1  0.669162  0.045450  0.548152  1
  Ge  Ge9  1  0.169418  0.454442  0.952155  1
  Ge  Ge10  1  0.329468  0.955517  0.048229  1
  Ge  Ge11  1  0.830768  0.545356  0.451752  1
  Ge  Ge12  1  0.330914  0.954614  0.451768  1
  Ge  Ge13  1  0.830793  0.544423  0.048197  1
  Ge  Ge14  1  0.669712  0.045286  0.952223  1
  Ge  Ge15  1  0.169340  0.454615  0.548200  1
  Ge  Ge16  1  0.530075  0.367592  0.750047  1
  Ge  Ge17  1  0.029853  0.132122  0.749905  1
  Ge  Ge18  1  0.470019  0.632504  0.249901  1
  Ge  Ge19  1  0.970206  0.868395  0.249749  1
  Ge  Ge20  1  0.809712  0.643644  0.750207  1
  Ge  Ge21  1  0.309560  0.855870  0.750094  1
  Ge  Ge22  1  0.189781  0.355666  0.249509  1
  Ge  Ge23  1  0.691029  0.144094  0.249694  1
  Mo  Mo24  1  0.830202  0.343197  0.626761  1
  Mo  Mo25  1  0.329786  0.156463  0.873196  1
  Mo  Mo26  1  0.169837  0.656740  0.126871  1
  Mo  Mo27  1  0.670178  0.843510  0.373119  1
  Mo  Mo28  1  0.169837  0.656788  0.373139  1
  Mo  Mo29  1  0.670487  0.843826  0.126699  1
  Mo  Mo30  1  0.830425  0.342868  0.873347  1
  Mo  Mo31  1  0.330070  0.156506  0.626764  1
  Mo  Mo32  1  0.665699  0.004308  0.750243  1
  Mo  Mo33  1  0.165924  0.495395  0.750218  1
  Mo  Mo34  1  0.334201  0.995952  0.249712  1
  Mo  Mo35  1  0.834285  0.504433  0.249755  1
