# generated using pymatgen
data_Tm6Al17Si7(Os3Ru)2
_symmetry_space_group_name_H-M   'P 1'
_cell_length_a   8.62744182
_cell_length_b   8.63867468
_cell_length_c   9.42474600
_cell_angle_alpha   90.00000000
_cell_angle_beta   90.00000000
_cell_angle_gamma   119.86446028
_symmetry_Int_Tables_number   1
_chemical_formula_structural   Tm6Al17Si7(Os3Ru)2
_chemical_formula_sum   'Tm6 Al17 Si7 Os6 Ru2'
_cell_volume   609.14541609
_cell_formula_units_Z   1
loop_
 _symmetry_equiv_pos_site_id
 _symmetry_equiv_pos_as_xyz
  1  'x, y, z'
loop_
 _atom_site_type_symbol
 _atom_site_label
 _atom_site_symmetry_multiplicity
 _atom_site_fract_x
 _atom_site_fract_y
 _atom_site_fract_z
 _atom_site_occupancy
  Tm  Tm0  1  0.806181  0.196756  0.750000  1
  Tm  Tm1  1  0.194332  0.805887  0.250000  1
  Tm  Tm2  1  0.391105  0.197362  0.750000  1
  Tm  Tm3  1  0.609994  0.802143  0.250000  1
  Tm  Tm4  1  0.803360  0.607768  0.750000  1
  Tm  Tm5  1  0.198221  0.390790  0.250000  1
  Al  Al6  1  0.836491  0.164664  0.420131  1
  Al  Al7  1  0.164867  0.837502  0.581002  1
  Al  Al8  1  0.327247  0.163338  0.420779  1
  Al  Al9  1  0.164867  0.837502  0.918998  1
  Al  Al10  1  0.671849  0.836712  0.579533  1
  Al  Al11  1  0.836491  0.164664  0.079869  1
  Al  Al12  1  0.836877  0.672144  0.422030  1
  Al  Al13  1  0.671849  0.836712  0.920467  1
  Al  Al14  1  0.163926  0.327087  0.580008  1
  Al  Al15  1  0.327247  0.163338  0.079221  1
  Al  Al16  1  0.163926  0.327087  0.919992  1
  Al  Al17  1  0.836877  0.672144  0.077970  1
  Al  Al18  1  0.874381  0.439794  0.250000  1
  Al  Al19  1  0.435604  0.870852  0.750000  1
  Al  Al20  1  0.561229  0.127356  0.250000  1
  Al  Al21  1  0.000261  0.999640  0.750000  1
  Al  Al22  1  0.000245  0.000834  0.250000  1
  Si  Si23  1  0.666502  0.331288  0.960339  1
  Si  Si24  1  0.333476  0.669016  0.040693  1
  Si  Si25  1  0.333476  0.669016  0.459307  1
  Si  Si26  1  0.666502  0.331288  0.539661  1
  Si  Si27  1  0.435365  0.559697  0.750000  1
  Si  Si28  1  0.563268  0.436734  0.250000  1
  Si  Si29  1  0.125384  0.560312  0.750000  1
  Os  Os30  1  0.498980  0.500148  0.999095  1
  Os  Os31  1  0.001592  0.500949  0.993554  1
  Os  Os32  1  0.498980  0.500148  0.500905  1
  Os  Os33  1  0.499239  0.999400  0.999716  1
  Os  Os34  1  0.001592  0.500949  0.506446  1
  Os  Os35  1  0.499239  0.999400  0.500284  1
  Ru  Ru36  1  0.999491  0.999790  0.000197  1
  Ru  Ru37  1  0.999491  0.999790  0.499803  1
