# generated using pymatgen
data_Tb5In3Br
_symmetry_space_group_name_H-M   'P 1'
_cell_length_a   9.24690200
_cell_length_b   9.24690110
_cell_length_c   6.76254400
_cell_angle_alpha   90.00000000
_cell_angle_beta   90.00000000
_cell_angle_gamma   120.00000322
_symmetry_Int_Tables_number   1
_chemical_formula_structural   Tb5In3Br
_chemical_formula_sum   'Tb10 In6 Br2'
_cell_volume   500.76410292
_cell_formula_units_Z   2
loop_
 _symmetry_equiv_pos_site_id
 _symmetry_equiv_pos_as_xyz
  1  'x, y, z'
loop_
 _atom_site_type_symbol
 _atom_site_label
 _atom_site_symmetry_multiplicity
 _atom_site_fract_x
 _atom_site_fract_y
 _atom_site_fract_z
 _atom_site_occupancy
  Tb  Tb0  1  0.734054  0.734054  0.250000  1
  Tb  Tb1  1  0.000000  0.734054  0.750000  1
  Tb  Tb2  1  0.734054  0.000000  0.750000  1
  Tb  Tb3  1  0.333333  0.666667  0.500000  1
  Tb  Tb4  1  0.265946  0.265946  0.750000  1
  Tb  Tb5  1  0.000000  0.265946  0.250000  1
  Tb  Tb6  1  0.666667  0.333333  0.500000  1
  Tb  Tb7  1  0.265946  0.000000  0.250000  1
  Tb  Tb8  1  0.333333  0.666667  0.000000  1
  Tb  Tb9  1  0.666667  0.333333  0.000000  1
  In  In10  1  0.392581  0.000000  0.750000  1
  In  In11  1  0.000000  0.607419  0.250000  1
  In  In12  1  0.607419  0.000000  0.250000  1
  In  In13  1  0.000000  0.392581  0.750000  1
  In  In14  1  0.392581  0.392581  0.250000  1
  In  In15  1  0.607419  0.607419  0.750000  1
  Br  Br16  1  0.000000  0.000000  0.500000  1
  Br  Br17  1  0.000000  0.000000  0.000000  1
