# generated using pymatgen
data_Dy6Al24Fe5Cu2Ru
_symmetry_space_group_name_H-M   'P 1'
_cell_length_a   8.71095374
_cell_length_b   8.71821387
_cell_length_c   9.34605052
_cell_angle_alpha   89.90704195
_cell_angle_beta   89.99039732
_cell_angle_gamma   119.47733207
_symmetry_Int_Tables_number   1
_chemical_formula_structural   Dy6Al24Fe5Cu2Ru
_chemical_formula_sum   'Dy6 Al24 Fe5 Cu2 Ru1'
_cell_volume   617.89467605
_cell_formula_units_Z   1
loop_
 _symmetry_equiv_pos_site_id
 _symmetry_equiv_pos_as_xyz
  1  'x, y, z'
loop_
 _atom_site_type_symbol
 _atom_site_label
 _atom_site_symmetry_multiplicity
 _atom_site_fract_x
 _atom_site_fract_y
 _atom_site_fract_z
 _atom_site_occupancy
  Dy  Dy0  1  0.194697  0.804941  0.251048  1
  Dy  Dy1  1  0.188464  0.384914  0.251640  1
  Dy  Dy2  1  0.614965  0.811371  0.250767  1
  Dy  Dy3  1  0.805303  0.195059  0.748952  1
  Dy  Dy4  1  0.811536  0.615086  0.748360  1
  Dy  Dy5  1  0.385035  0.188629  0.749233  1
  Al  Al6  1  0.562060  0.438420  0.250293  1
  Al  Al7  1  0.560015  0.120530  0.254800  1
  Al  Al8  1  0.882282  0.441446  0.250373  1
  Al  Al9  1  0.437940  0.561580  0.749707  1
  Al  Al10  1  0.439985  0.879470  0.745200  1
  Al  Al11  1  0.117718  0.558554  0.749627  1
  Al  Al12  1  0.319813  0.152258  0.424186  1
  Al  Al13  1  0.838233  0.162418  0.423930  1
  Al  Al14  1  0.847748  0.679662  0.423782  1
  Al  Al15  1  0.680187  0.847742  0.575814  1
  Al  Al16  1  0.161767  0.837582  0.576070  1
  Al  Al17  1  0.152252  0.320338  0.576218  1
  Al  Al18  1  0.681700  0.845559  0.922610  1
  Al  Al19  1  0.158961  0.835821  0.922918  1
  Al  Al20  1  0.151501  0.319375  0.923635  1
  Al  Al21  1  0.318300  0.154441  0.077390  1
  Al  Al22  1  0.841039  0.164179  0.077082  1
  Al  Al23  1  0.848499  0.680625  0.076365  1
  Al  Al24  1  0.670916  0.329033  0.516373  1
  Al  Al25  1  0.329084  0.670967  0.483627  1
  Al  Al26  1  0.325524  0.664736  0.016649  1
  Al  Al27  1  0.674476  0.335264  0.983351  1
  Al  Al28  1  0.998630  0.001529  0.250109  1
  Al  Al29  1  0.001370  0.998471  0.749891  1
  Fe  Fe30  1  0.000000  0.000000  0.500000  1
  Fe  Fe31  1  0.000000  0.000000  0.000000  1
  Fe  Fe32  1  0.500000  0.000000  0.500000  1
  Fe  Fe33  1  0.000000  0.500000  0.500000  1
  Fe  Fe34  1  0.000000  0.500000  0.000000  1
  Cu  Cu35  1  0.500000  0.500000  0.500000  1
  Cu  Cu36  1  0.500000  0.500000  0.000000  1
  Ru  Ru37  1  0.500000  0.000000  0.000000  1
