# generated using pymatgen
data_Np4Mo3WC8
_symmetry_space_group_name_H-M   'P 1'
_cell_length_a   3.23128600
_cell_length_b   5.67051265
_cell_length_c   10.95415777
_cell_angle_alpha   90.04021533
_cell_angle_beta   90.00000000
_cell_angle_gamma   90.00000000
_symmetry_Int_Tables_number   1
_chemical_formula_structural   Np4Mo3WC8
_chemical_formula_sum   'Np4 Mo3 W1 C8'
_cell_volume   200.71351058
_cell_formula_units_Z   1
loop_
 _symmetry_equiv_pos_site_id
 _symmetry_equiv_pos_as_xyz
  1  'x, y, z'
loop_
 _atom_site_type_symbol
 _atom_site_label
 _atom_site_symmetry_multiplicity
 _atom_site_fract_x
 _atom_site_fract_y
 _atom_site_fract_z
 _atom_site_occupancy
  Np  Np0  1  0.250000  0.579725  0.858598  1
  Np  Np1  1  0.750000  0.419448  0.141564  1
  Np  Np2  1  0.750000  0.920306  0.359045  1
  Np  Np3  1  0.250000  0.079614  0.641515  1
  Mo  Mo4  1  0.750000  0.081579  0.896833  1
  Mo  Mo5  1  0.750000  0.580635  0.602363  1
  Mo  Mo6  1  0.250000  0.419251  0.397278  1
  W  W7  1  0.250000  0.918915  0.102785  1
  C  C8  1  0.250000  0.664554  0.244483  1
  C  C9  1  0.750000  0.337348  0.754905  1
  C  C10  1  0.750000  0.836348  0.745009  1
  C  C11  1  0.250000  0.162910  0.254645  1
  C  C12  1  0.250000  0.748584  0.507913  1
  C  C13  1  0.750000  0.251153  0.492052  1
  C  C14  1  0.750000  0.751576  0.008469  1
  C  C15  1  0.250000  0.248055  0.992542  1
