# generated using pymatgen
data_Yb3PrAs3
_symmetry_space_group_name_H-M   'P 1'
_cell_length_a   7.78114803
_cell_length_b   7.79474209
_cell_length_c   7.77436273
_cell_angle_alpha   109.51828236
_cell_angle_beta   109.44738584
_cell_angle_gamma   109.51871190
_symmetry_Int_Tables_number   1
_chemical_formula_structural   Yb3PrAs3
_chemical_formula_sum   'Yb6 Pr2 As6'
_cell_volume   362.66743083
_cell_formula_units_Z   2
loop_
 _symmetry_equiv_pos_site_id
 _symmetry_equiv_pos_as_xyz
  1  'x, y, z'
loop_
 _atom_site_type_symbol
 _atom_site_label
 _atom_site_symmetry_multiplicity
 _atom_site_fract_x
 _atom_site_fract_y
 _atom_site_fract_z
 _atom_site_occupancy
  Yb  Yb0  1  0.129375  0.134531  0.130352  1
  Yb  Yb1  1  0.499023  0.004179  0.869648  1
  Yb  Yb2  1  0.866189  0.499775  0.004745  1
  Yb  Yb3  1  0.003478  0.865662  0.498601  1
  Yb  Yb4  1  0.361444  0.495030  0.995255  1
  Yb  Yb5  1  0.004877  0.367061  0.501399  1
  Pr  Pr6  1  0.500545  0.999066  0.364418  1
  Pr  Pr7  1  0.636127  0.634648  0.635582  1
  As  As8  1  0.626765  0.375213  0.252489  1
  As  As9  1  0.250653  0.626157  0.374687  1
  As  As10  1  0.747776  0.874378  0.124272  1
  As  As11  1  0.123503  0.750106  0.875728  1
  As  As12  1  0.375967  0.251470  0.625313  1
  As  As13  1  0.874277  0.122725  0.747511  1
