# generated using pymatgen
data_Tb7Nd3(SiHg)4
_symmetry_space_group_name_H-M   'P 1'
_cell_length_a   9.16006456
_cell_length_b   8.70007126
_cell_length_c   7.63736340
_cell_angle_alpha   89.99865385
_cell_angle_beta   89.96827204
_cell_angle_gamma   129.37773046
_symmetry_Int_Tables_number   1
_chemical_formula_structural   Tb7Nd3(SiHg)4
_chemical_formula_sum   'Tb7 Nd3 Si4 Hg4'
_cell_volume   470.47122164
_cell_formula_units_Z   1
loop_
 _symmetry_equiv_pos_site_id
 _symmetry_equiv_pos_as_xyz
  1  'x, y, z'
loop_
 _atom_site_type_symbol
 _atom_site_label
 _atom_site_symmetry_multiplicity
 _atom_site_fract_x
 _atom_site_fract_y
 _atom_site_fract_z
 _atom_site_occupancy
  Tb  Tb0  1  0.787309  0.544529  0.177319  1
  Tb  Tb1  1  0.567158  0.830119  0.176290  1
  Tb  Tb2  1  0.212951  0.459042  0.821686  1
  Tb  Tb3  1  0.712112  0.956917  0.679386  1
  Tb  Tb4  1  0.285924  0.044663  0.321458  1
  Tb  Tb5  1  0.000631  0.001249  0.999351  1
  Tb  Tb6  1  0.499518  0.501170  0.499836  1
  Nd  Nd7  1  0.068055  0.338104  0.320562  1
  Nd  Nd8  1  0.933923  0.662991  0.679032  1
  Nd  Nd9  1  0.431824  0.163164  0.821576  1
  Si  Si10  1  0.383046  0.387661  0.118871  1
  Si  Si11  1  0.617747  0.616512  0.881575  1
  Si  Si12  1  0.116086  0.115606  0.618889  1
  Si  Si13  1  0.880051  0.885041  0.379921  1
  Hg  Hg14  1  0.809844  0.246971  0.982337  1
  Hg  Hg15  1  0.189476  0.744573  0.031410  1
  Hg  Hg16  1  0.682432  0.242674  0.473252  1
  Hg  Hg17  1  0.321911  0.759016  0.517249  1
