# generated using pymatgen
data_Sr9Dy4Ho7Pb16
_symmetry_space_group_name_H-M   'P 1'
_cell_length_a   8.20069718
_cell_length_b   8.72066053
_cell_length_c   16.41883700
_cell_angle_alpha   90.00754250
_cell_angle_beta   89.98788507
_cell_angle_gamma   89.88871028
_symmetry_Int_Tables_number   1
_chemical_formula_structural   Sr9Dy4Ho7Pb16
_chemical_formula_sum   'Sr9 Dy4 Ho7 Pb16'
_cell_volume   1174.19902388
_cell_formula_units_Z   1
loop_
 _symmetry_equiv_pos_site_id
 _symmetry_equiv_pos_as_xyz
  1  'x, y, z'
loop_
 _atom_site_type_symbol
 _atom_site_label
 _atom_site_symmetry_multiplicity
 _atom_site_fract_x
 _atom_site_fract_y
 _atom_site_fract_z
 _atom_site_occupancy
  Sr  Sr0  1  0.495784  0.678850  0.593636  1
  Sr  Sr1  1  0.995457  0.820491  0.906368  1
  Sr  Sr2  1  0.501730  0.319060  0.090738  1
  Sr  Sr3  1  0.002093  0.181615  0.411131  1
  Sr  Sr4  1  0.501909  0.319140  0.409315  1
  Sr  Sr5  1  0.002322  0.181555  0.088839  1
  Sr  Sr6  1  0.495551  0.678760  0.906429  1
  Sr  Sr7  1  0.995274  0.820584  0.593576  1
  Sr  Sr8  1  0.674526  0.012641  0.250009  1
  Dy  Dy9  1  0.330302  0.839096  0.378983  1
  Dy  Dy10  1  0.832165  0.661758  0.121232  1
  Dy  Dy11  1  0.670988  0.158332  0.874296  1
  Dy  Dy12  1  0.170346  0.343167  0.624840  1
  Ho  Ho13  1  0.670852  0.158190  0.625818  1
  Ho  Ho14  1  0.170206  0.343192  0.875014  1
  Ho  Ho15  1  0.330197  0.839226  0.121074  1
  Ho  Ho16  1  0.832331  0.661557  0.378718  1
  Ho  Ho17  1  0.831014  0.504471  0.749972  1
  Ho  Ho18  1  0.331472  0.996322  0.750025  1
  Ho  Ho19  1  0.173547  0.493651  0.249979  1
  Pb  Pb20  1  0.671999  0.954439  0.461313  1
  Pb  Pb21  1  0.173747  0.541932  0.043673  1
  Pb  Pb22  1  0.326096  0.042228  0.954038  1
  Pb  Pb23  1  0.825921  0.457271  0.545457  1
  Pb  Pb24  1  0.327410  0.042140  0.546201  1
  Pb  Pb25  1  0.827340  0.457482  0.954293  1
  Pb  Pb26  1  0.670450  0.954491  0.039001  1
  Pb  Pb27  1  0.172503  0.541816  0.455981  1
  Pb  Pb28  1  0.472604  0.362327  0.750022  1
  Pb  Pb29  1  0.974141  0.136814  0.749942  1
  Pb  Pb30  1  0.527290  0.629690  0.250066  1
  Pb  Pb31  1  0.038469  0.852047  0.249886  1
  Pb  Pb32  1  0.697001  0.857856  0.749900  1
  Pb  Pb33  1  0.197536  0.642081  0.750088  1
  Pb  Pb34  1  0.281669  0.136872  0.249895  1
  Pb  Pb35  1  0.807754  0.378852  0.250245  1
