# generated using pymatgen
data_Tb7Sn23(RuRh2)2
_symmetry_space_group_name_H-M   'P 1'
_cell_length_a   9.89007321
_cell_length_b   9.90274151
_cell_length_c   10.07629767
_cell_angle_alpha   90.00000013
_cell_angle_beta   90.23981642
_cell_angle_gamma   120.04239520
_symmetry_Int_Tables_number   1
_chemical_formula_structural   Tb7Sn23(RuRh2)2
_chemical_formula_sum   'Tb7 Sn23 Ru2 Rh4'
_cell_volume   854.27127449
_cell_formula_units_Z   1
loop_
 _symmetry_equiv_pos_site_id
 _symmetry_equiv_pos_as_xyz
  1  'x, y, z'
loop_
 _atom_site_type_symbol
 _atom_site_label
 _atom_site_symmetry_multiplicity
 _atom_site_fract_x
 _atom_site_fract_y
 _atom_site_fract_z
 _atom_site_occupancy
  Tb  Tb0  1  0.000000  0.000000  0.000000  1
  Tb  Tb1  1  0.480986  0.516955  0.306661  1
  Tb  Tb2  1  0.519014  0.483045  0.693339  1
  Tb  Tb3  1  0.480986  0.964031  0.306661  1
  Tb  Tb4  1  0.519014  0.035969  0.693339  1
  Tb  Tb5  1  0.035810  0.517905  0.307203  1
  Tb  Tb6  1  0.964190  0.482095  0.692797  1
  Sn  Sn7  1  0.351865  0.002006  0.000553  1
  Sn  Sn8  1  0.648135  0.997994  0.999447  1
  Sn  Sn9  1  0.000000  0.351035  0.000000  1
  Sn  Sn10  1  0.000000  0.648965  0.000000  1
  Sn  Sn11  1  0.648135  0.650142  0.999447  1
  Sn  Sn12  1  0.351865  0.349858  0.000553  1
  Sn  Sn13  1  0.335799  0.667900  0.822361  1
  Sn  Sn14  1  0.664201  0.332100  0.177639  1
  Sn  Sn15  1  0.000000  0.000000  0.500000  1
  Sn  Sn16  1  0.779942  0.220504  0.460533  1
  Sn  Sn17  1  0.220058  0.779496  0.539467  1
  Sn  Sn18  1  0.779942  0.559437  0.460533  1
  Sn  Sn19  1  0.220058  0.440563  0.539467  1
  Sn  Sn20  1  0.440269  0.220134  0.460191  1
  Sn  Sn21  1  0.559731  0.779866  0.539809  1
  Sn  Sn22  1  0.333168  0.666584  0.121599  1
  Sn  Sn23  1  0.666832  0.333416  0.878401  1
  Sn  Sn24  1  0.118326  0.882924  0.277164  1
  Sn  Sn25  1  0.881674  0.117076  0.722836  1
  Sn  Sn26  1  0.118326  0.235403  0.277164  1
  Sn  Sn27  1  0.881674  0.764597  0.722836  1
  Sn  Sn28  1  0.764895  0.882448  0.277396  1
  Sn  Sn29  1  0.235105  0.117552  0.722604  1
  Ru  Ru30  1  0.338334  0.169166  0.200691  1
  Ru  Ru31  1  0.661666  0.830834  0.799309  1
  Rh  Rh32  1  0.830265  0.170099  0.199906  1
  Rh  Rh33  1  0.169735  0.829901  0.800094  1
  Rh  Rh34  1  0.830265  0.660166  0.199906  1
  Rh  Rh35  1  0.169735  0.339834  0.800094  1
