# generated using pymatgen
data_PaNiPdPt3
_symmetry_space_group_name_H-M   'P 1'
_cell_length_a   5.12582458
_cell_length_b   5.12582286
_cell_length_c   5.12582506
_cell_angle_alpha   62.86297066
_cell_angle_beta   62.86298009
_cell_angle_gamma   62.86296844
_symmetry_Int_Tables_number   1
_chemical_formula_structural   PaNiPdPt3
_chemical_formula_sum   'Pa1 Ni1 Pd1 Pt3'
_cell_volume   101.28971311
_cell_formula_units_Z   1
loop_
 _symmetry_equiv_pos_site_id
 _symmetry_equiv_pos_as_xyz
  1  'x, y, z'
loop_
 _atom_site_type_symbol
 _atom_site_label
 _atom_site_symmetry_multiplicity
 _atom_site_fract_x
 _atom_site_fract_y
 _atom_site_fract_z
 _atom_site_occupancy
  Pa  Pa0  1  0.247946  0.247946  0.247946  1
  Ni  Ni1  1  0.625977  0.625977  0.625977  1
  Pd  Pd2  1  0.000234  0.000234  0.000234  1
  Pt  Pt3  1  0.626003  0.626003  0.123836  1
  Pt  Pt4  1  0.626003  0.123836  0.626003  1
  Pt  Pt5  1  0.123836  0.626003  0.626003  1
