# generated using pymatgen
data_Dy4Co5Os
_symmetry_space_group_name_H-M   'P 1'
_cell_length_a   5.43933030
_cell_length_b   5.43933046
_cell_length_c   7.05431044
_cell_angle_alpha   90.69672433
_cell_angle_beta   89.30327636
_cell_angle_gamma   121.54875091
_symmetry_Int_Tables_number   1
_chemical_formula_structural   Dy4Co5Os
_chemical_formula_sum   'Dy4 Co5 Os1'
_cell_volume   177.84530627
_cell_formula_units_Z   1
loop_
 _symmetry_equiv_pos_site_id
 _symmetry_equiv_pos_as_xyz
  1  'x, y, z'
loop_
 _atom_site_type_symbol
 _atom_site_label
 _atom_site_symmetry_multiplicity
 _atom_site_fract_x
 _atom_site_fract_y
 _atom_site_fract_z
 _atom_site_occupancy
  Dy  Dy0  1  0.163052  0.836947  0.099050  1
  Dy  Dy1  1  0.659989  0.340010  0.401723  1
  Dy  Dy2  1  0.340010  0.659989  0.598277  1
  Dy  Dy3  1  0.836947  0.163052  0.900949  1
  Co  Co4  1  0.152611  0.331111  0.252480  1
  Co  Co5  1  0.668890  0.847390  0.252480  1
  Co  Co6  1  0.000000  0.000000  0.500000  1
  Co  Co7  1  0.331111  0.152611  0.747522  1
  Co  Co8  1  0.847390  0.668890  0.747522  1
  Os  Os9  1  0.500000  0.500000  0.000000  1
