# generated using pymatgen
data_Th3Al3GaTcPd
_symmetry_space_group_name_H-M   'P 1'
_cell_length_a   7.22622400
_cell_length_b   7.22622352
_cell_length_c   4.28812900
_cell_angle_alpha   90.00000000
_cell_angle_beta   90.00000000
_cell_angle_gamma   120.00000221
_symmetry_Int_Tables_number   1
_chemical_formula_structural   Th3Al3GaTcPd
_chemical_formula_sum   'Th3 Al3 Ga1 Tc1 Pd1'
_cell_volume   193.91940698
_cell_formula_units_Z   1
loop_
 _symmetry_equiv_pos_site_id
 _symmetry_equiv_pos_as_xyz
  1  'x, y, z'
loop_
 _atom_site_type_symbol
 _atom_site_label
 _atom_site_symmetry_multiplicity
 _atom_site_fract_x
 _atom_site_fract_y
 _atom_site_fract_z
 _atom_site_occupancy
  Th  Th0  1  0.416371  0.428221  0.500000  1
  Th  Th1  1  0.571779  0.988150  0.500000  1
  Th  Th2  1  0.011850  0.583629  0.500000  1
  Al  Al3  1  0.760522  0.773205  0.000000  1
  Al  Al4  1  0.226795  0.987317  0.000000  1
  Al  Al5  1  0.012683  0.239478  0.000000  1
  Ga  Ga6  1  0.666667  0.333333  0.000000  1
  Tc  Tc7  1  0.333333  0.666667  0.000000  1
  Pd  Pd8  1  0.000000  0.000000  0.500000  1
