# generated using pymatgen
data_Yb3Lu(Os3Ru)2
_symmetry_space_group_name_H-M   'P 1'
_cell_length_a   5.23038501
_cell_length_b   5.23037484
_cell_length_c   8.93881600
_cell_angle_alpha   90.00014895
_cell_angle_beta   90.00057324
_cell_angle_gamma   120.00319824
_symmetry_Int_Tables_number   1
_chemical_formula_structural   Yb3Lu(Os3Ru)2
_chemical_formula_sum   'Yb3 Lu1 Os6 Ru2'
_cell_volume   211.76935048
_cell_formula_units_Z   1
loop_
 _symmetry_equiv_pos_site_id
 _symmetry_equiv_pos_as_xyz
  1  'x, y, z'
loop_
 _atom_site_type_symbol
 _atom_site_label
 _atom_site_symmetry_multiplicity
 _atom_site_fract_x
 _atom_site_fract_y
 _atom_site_fract_z
 _atom_site_occupancy
  Yb  Yb0  1  0.333339  0.666660  0.432408  1
  Yb  Yb1  1  0.333345  0.666661  0.064547  1
  Yb  Yb2  1  0.666663  0.333334  0.938349  1
  Lu  Lu3  1  0.666665  0.333348  0.567098  1
  Os  Os4  1  0.171596  0.343238  0.748411  1
  Os  Os5  1  0.171607  0.828406  0.748407  1
  Os  Os6  1  0.656746  0.828387  0.748407  1
  Os  Os7  1  0.828659  0.657270  0.251219  1
  Os  Os8  1  0.828658  0.171327  0.251223  1
  Os  Os9  1  0.342732  0.171373  0.251224  1
  Ru  Ru10  1  0.999987  0.000001  0.499793  1
  Ru  Ru11  1  0.000004  0.999995  0.998914  1
