# generated using pymatgen
data_Dy9Y11Si15Rh
_symmetry_space_group_name_H-M   'P 1'
_cell_length_a   7.46035960
_cell_length_b   7.69156757
_cell_length_c   14.62098133
_cell_angle_alpha   89.68611127
_cell_angle_beta   89.65526759
_cell_angle_gamma   90.17128576
_symmetry_Int_Tables_number   1
_chemical_formula_structural   Dy9Y11Si15Rh
_chemical_formula_sum   'Dy9 Y11 Si15 Rh1'
_cell_volume   838.94749567
_cell_formula_units_Z   1
loop_
 _symmetry_equiv_pos_site_id
 _symmetry_equiv_pos_as_xyz
  1  'x, y, z'
loop_
 _atom_site_type_symbol
 _atom_site_label
 _atom_site_symmetry_multiplicity
 _atom_site_fract_x
 _atom_site_fract_y
 _atom_site_fract_z
 _atom_site_occupancy
  Dy  Dy0  1  0.969861  0.817248  0.400527  1
  Dy  Dy1  1  0.683495  0.811987  0.882385  1
  Dy  Dy2  1  0.179142  0.681428  0.621817  1
  Dy  Dy3  1  0.817516  0.333477  0.118031  1
  Dy  Dy4  1  0.316041  0.178031  0.376337  1
  Dy  Dy5  1  0.320988  0.179079  0.123333  1
  Dy  Dy6  1  0.819279  0.319150  0.377402  1
  Dy  Dy7  1  0.176262  0.675797  0.878517  1
  Dy  Dy8  1  0.683058  0.819086  0.622396  1
  Y  Y9  1  0.648632  0.992854  0.248712  1
  Y  Y10  1  0.147855  0.510349  0.247718  1
  Y  Y11  1  0.847999  0.488583  0.757603  1
  Y  Y12  1  0.352468  0.010092  0.752078  1
  Y  Y13  1  0.973813  0.816784  0.097786  1
  Y  Y14  1  0.470938  0.682760  0.401300  1
  Y  Y15  1  0.528390  0.321747  0.900691  1
  Y  Y16  1  0.029527  0.184067  0.599492  1
  Y  Y17  1  0.028466  0.184567  0.902007  1
  Y  Y18  1  0.529960  0.317734  0.598810  1
  Y  Y19  1  0.473688  0.682162  0.099220  1
  Si  Si20  1  0.764504  0.628516  0.251834  1
  Si  Si21  1  0.265294  0.872876  0.250778  1
  Si  Si22  1  0.733368  0.123400  0.748601  1
  Si  Si23  1  0.235233  0.373619  0.746753  1
  Si  Si24  1  0.020457  0.106141  0.249016  1
  Si  Si25  1  0.523280  0.396491  0.251476  1
  Si  Si26  1  0.472389  0.605784  0.746747  1
  Si  Si27  1  0.976773  0.897353  0.748551  1
  Si  Si28  1  0.354721  0.971750  0.539888  1
  Si  Si29  1  0.646370  0.027619  0.041743  1
  Si  Si30  1  0.146767  0.470528  0.459983  1
  Si  Si31  1  0.155054  0.472098  0.041174  1
  Si  Si32  1  0.643740  0.028331  0.459526  1
  Si  Si33  1  0.353310  0.969248  0.961091  1
  Si  Si34  1  0.855157  0.528752  0.538845  1
  Rh  Rh35  1  0.856202  0.520509  0.957837  1
