# generated using pymatgen
data_Sr2MgV5(PO4)6
_symmetry_space_group_name_H-M   'P 1'
_cell_length_a   9.24052782
_cell_length_b   9.24052895
_cell_length_c   9.23904542
_cell_angle_alpha   137.59666214
_cell_angle_beta   110.24977955
_cell_angle_gamma   85.16104711
_symmetry_Int_Tables_number   1
_chemical_formula_structural   Sr2MgV5(PO4)6
_chemical_formula_sum   'Sr2 Mg1 V5 P6 O24'
_cell_volume   480.48323611
_cell_formula_units_Z   1
loop_
 _symmetry_equiv_pos_site_id
 _symmetry_equiv_pos_as_xyz
  1  'x, y, z'
loop_
 _atom_site_type_symbol
 _atom_site_label
 _atom_site_symmetry_multiplicity
 _atom_site_fract_x
 _atom_site_fract_y
 _atom_site_fract_z
 _atom_site_occupancy
  Sr  Sr0  1  0.750406  0.149777  0.400541  1
  Sr  Sr1  1  0.249236  0.849864  0.599459  1
  Mg  Mg2  1  0.617222  0.617222  0.500000  1
  V  V3  1  0.383174  0.383174  0.500000  1
  V  V4  1  0.118958  0.618958  0.000000  1
  V  V5  1  0.880476  0.380476  0.000000  1
  V  V6  1  0.999483  0.001166  0.001093  1
  V  V7  1  0.500072  0.498390  0.998907  1
  P  P8  1  0.324755  0.824755  0.000000  1
  P  P9  1  0.750243  0.660276  0.908268  1
  P  P10  1  0.176046  0.176046  0.500000  1
  P  P11  1  0.674559  0.174559  0.000000  1
  P  P12  1  0.252008  0.341975  0.091732  1
  P  P13  1  0.821240  0.821240  0.500000  1
  O  O14  1  0.574201  0.931439  0.777797  1
  O  O15  1  0.072160  0.293206  0.637549  1
  O  O16  1  0.844328  0.888206  0.047648  1
  O  O17  1  0.344517  0.707318  0.778425  1
  O  O18  1  0.141994  0.204789  0.342488  1
  O  O19  1  0.340558  0.296680  0.952352  1
  O  O20  1  0.635630  0.695843  0.341367  1
  O  O21  1  0.854476  0.794263  0.658633  1
  O  O22  1  0.373117  0.489240  0.351877  1
  O  O23  1  0.155657  0.934611  0.362451  1
  O  O24  1  0.639752  0.296308  0.934628  1
  O  O25  1  0.637363  0.521240  0.648123  1
  O  O26  1  0.861680  0.205124  0.065372  1
  O  O27  1  0.841842  0.062761  0.636788  1
  O  O28  1  0.359677  0.701107  0.062607  1
  O  O29  1  0.362300  0.299506  0.657512  1
  O  O30  1  0.655952  0.698489  0.038424  1
  O  O31  1  0.925973  0.705054  0.363212  1
  O  O32  1  0.160065  0.117527  0.961576  1
  O  O33  1  0.864984  0.513500  0.878639  1
  O  O34  1  0.134860  0.486344  0.121361  1
  O  O35  1  0.138500  0.797070  0.937393  1
  O  O36  1  0.653642  0.296404  0.222203  1
  O  O37  1  0.428893  0.066092  0.221575  1
