# generated using pymatgen
data_La5Pr4Y(Al2Ru3)2
_symmetry_space_group_name_H-M   'P 1'
_cell_length_a   8.57261120
_cell_length_b   8.64711321
_cell_length_c   8.64711310
_cell_angle_alpha   109.61895537
_cell_angle_beta   109.86812686
_cell_angle_gamma   109.27805749
_symmetry_Int_Tables_number   1
_chemical_formula_structural   La5Pr4Y(Al2Ru3)2
_chemical_formula_sum   'La5 Pr4 Y1 Al4 Ru6'
_cell_volume   491.27717465
_cell_formula_units_Z   1
loop_
 _symmetry_equiv_pos_site_id
 _symmetry_equiv_pos_as_xyz
  1  'x, y, z'
loop_
 _atom_site_type_symbol
 _atom_site_label
 _atom_site_symmetry_multiplicity
 _atom_site_fract_x
 _atom_site_fract_y
 _atom_site_fract_z
 _atom_site_occupancy
  La  La0  1  0.750000  0.809842  0.059842  1
  La  La1  1  0.438485  0.245811  0.687529  1
  La  La2  1  0.691692  0.439383  0.250529  1
  La  La3  1  0.061515  0.749044  0.807326  1
  La  La4  1  0.808308  0.058837  0.747691  1
  Pr  Pr5  1  0.215712  0.217988  0.215030  1
  Pr  Pr6  1  0.495612  0.997704  0.283132  1
  Pr  Pr7  1  0.284288  0.499318  0.002276  1
  Pr  Pr8  1  0.004388  0.287520  0.502093  1
  Y  Y9  1  0.250000  0.682959  0.432959  1
  Al  Al10  1  0.581230  0.586257  0.584758  1
  Al  Al11  1  0.498667  0.996948  0.908686  1
  Al  Al12  1  0.918770  0.503527  0.005027  1
  Al  Al13  1  0.001333  0.910019  0.498281  1
  Ru  Ru14  1  0.250000  0.115720  0.865720  1
  Ru  Ru15  1  0.750000  0.387400  0.637400  1
  Ru  Ru16  1  0.867121  0.255128  0.117250  1
  Ru  Ru17  1  0.108279  0.866843  0.247902  1
  Ru  Ru18  1  0.632878  0.750128  0.388006  1
  Ru  Ru19  1  0.391721  0.639623  0.758565  1
