# generated using pymatgen
data_Tb4TmOsRu
_symmetry_space_group_name_H-M   'P 1'
_cell_length_a   6.39543641
_cell_length_b   7.31763315
_cell_length_c   8.47398458
_cell_angle_alpha   96.75878036
_cell_angle_beta   112.17007657
_cell_angle_gamma   89.99999981
_symmetry_Int_Tables_number   1
_chemical_formula_structural   Tb4TmOsRu
_chemical_formula_sum   'Tb8 Tm2 Os2 Ru2'
_cell_volume   364.28019908
_cell_formula_units_Z   2
loop_
 _symmetry_equiv_pos_site_id
 _symmetry_equiv_pos_as_xyz
  1  'x, y, z'
loop_
 _atom_site_type_symbol
 _atom_site_label
 _atom_site_symmetry_multiplicity
 _atom_site_fract_x
 _atom_site_fract_y
 _atom_site_fract_z
 _atom_site_occupancy
  Tb  Tb0  1  0.793407  0.082901  0.817146  1
  Tb  Tb1  1  0.976261  0.417099  0.182854  1
  Tb  Tb2  1  0.207921  0.915929  0.184934  1
  Tb  Tb3  1  0.022987  0.584071  0.815066  1
  Tb  Tb4  1  0.205719  0.185278  0.566563  1
  Tb  Tb5  1  0.639156  0.314722  0.433437  1
  Tb  Tb6  1  0.793609  0.814405  0.432934  1
  Tb  Tb7  1  0.360675  0.685595  0.567066  1
  Tm  Tm8  1  0.425995  0.250000  0.000000  1
  Tm  Tm9  1  0.576558  0.750000  0.000000  1
  Os  Os10  1  0.602934  0.425354  0.783368  1
  Os  Os11  1  0.819566  0.074646  0.216632  1
  Ru  Ru12  1  0.396201  0.575224  0.217193  1
  Ru  Ru13  1  0.179010  0.924776  0.782807  1
