# generated using pymatgen
data_Na4Sr(IrN)3
_symmetry_space_group_name_H-M   'P 1'
_cell_length_a   8.07821500
_cell_length_b   8.28941766
_cell_length_c   3.72254800
_cell_angle_alpha   90.00000000
_cell_angle_beta   90.00000000
_cell_angle_gamma   119.16069813
_symmetry_Int_Tables_number   1
_chemical_formula_structural   Na4Sr(IrN)3
_chemical_formula_sum   'Na4 Sr1 Ir3 N3'
_cell_volume   217.68152527
_cell_formula_units_Z   1
loop_
 _symmetry_equiv_pos_site_id
 _symmetry_equiv_pos_as_xyz
  1  'x, y, z'
loop_
 _atom_site_type_symbol
 _atom_site_label
 _atom_site_symmetry_multiplicity
 _atom_site_fract_x
 _atom_site_fract_y
 _atom_site_fract_z
 _atom_site_occupancy
  Na  Na0  1  0.263536  0.259172  0.500001  1
  Na  Na1  1  0.667995  0.352674  0.500001  1
  Na  Na2  1  0.315323  0.647327  0.500001  1
  Na  Na3  1  0.004364  0.740829  0.500001  1
  Sr  Sr4  1  0.722877  0.000000  0.500001  1
  Ir  Ir5  1  0.378507  0.000000  0.000000  1
  Ir  Ir6  1  0.995514  0.355957  0.000000  1
  Ir  Ir7  1  0.639557  0.644043  0.000000  1
  N  N8  1  0.377840  0.000000  0.500001  1
  N  N9  1  0.996666  0.358848  0.500001  1
  N  N10  1  0.637821  0.641154  0.500001  1
