# generated using pymatgen
data_Ho5Tm15(InGa2)4
_symmetry_space_group_name_H-M   'P 1'
_cell_length_a   7.65658321
_cell_length_b   7.65748947
_cell_length_c   14.14906935
_cell_angle_alpha   90.08558686
_cell_angle_beta   90.07974906
_cell_angle_gamma   90.03385950
_symmetry_Int_Tables_number   1
_chemical_formula_structural   Ho5Tm15(InGa2)4
_chemical_formula_sum   'Ho5 Tm15 In4 Ga8'
_cell_volume   829.56096532
_cell_formula_units_Z   1
loop_
 _symmetry_equiv_pos_site_id
 _symmetry_equiv_pos_as_xyz
  1  'x, y, z'
loop_
 _atom_site_type_symbol
 _atom_site_label
 _atom_site_symmetry_multiplicity
 _atom_site_fract_x
 _atom_site_fract_y
 _atom_site_fract_z
 _atom_site_occupancy
  Ho  Ho0  1  0.838154  0.832291  0.105861  1
  Ho  Ho1  1  0.338258  0.667755  0.394585  1
  Ho  Ho2  1  0.661767  0.667640  0.894077  1
  Ho  Ho3  1  0.838240  0.167751  0.605567  1
  Ho  Ho4  1  0.162184  0.168113  0.105707  1
  Tm  Tm5  1  0.000324  0.500084  0.754040  1
  Tm  Tm6  1  0.999736  0.499885  0.254600  1
  Tm  Tm7  1  0.500027  0.000106  0.246178  1
  Tm  Tm8  1  0.499678  0.000058  0.745632  1
  Tm  Tm9  1  0.667636  0.661810  0.606071  1
  Tm  Tm10  1  0.667467  0.337496  0.106093  1
  Tm  Tm11  1  0.832664  0.837833  0.394135  1
  Tm  Tm12  1  0.167955  0.837666  0.893663  1
  Tm  Tm13  1  0.332480  0.337604  0.605999  1
  Tm  Tm14  1  0.332461  0.661634  0.106198  1
  Tm  Tm15  1  0.167858  0.161997  0.394172  1
  Tm  Tm16  1  0.832298  0.162301  0.893511  1
  Tm  Tm17  1  0.661338  0.332573  0.393859  1
  Tm  Tm18  1  0.338406  0.332281  0.893506  1
  Tm  Tm19  1  0.161408  0.832636  0.606279  1
  In  In20  1  0.999859  0.499884  0.498062  1
  In  In21  1  0.000478  0.499590  0.997685  1
  In  In22  1  0.500160  0.999879  0.502026  1
  In  In23  1  0.499528  0.000716  0.001675  1
  Ga  Ga24  1  0.873871  0.873532  0.750345  1
  Ga  Ga25  1  0.872884  0.126968  0.250958  1
  Ga  Ga26  1  0.626834  0.626132  0.249604  1
  Ga  Ga27  1  0.372717  0.626547  0.749326  1
  Ga  Ga28  1  0.127170  0.126551  0.750432  1
  Ga  Ga29  1  0.126325  0.873801  0.250901  1
  Ga  Ga30  1  0.373803  0.373314  0.249723  1
  Ga  Ga31  1  0.626031  0.373574  0.749529  1
