# generated using pymatgen
data_NaEr(AgTe2)4
_symmetry_space_group_name_H-M   'P 1'
_cell_length_a   12.01055058
_cell_length_b   12.01055055
_cell_length_c   11.00282800
_cell_angle_alpha   90.13345834
_cell_angle_beta   90.13345834
_cell_angle_gamma   14.87961710
_symmetry_Int_Tables_number   1
_chemical_formula_structural   NaEr(AgTe2)4
_chemical_formula_sum   'Na1 Er1 Ag4 Te8'
_cell_volume   407.57295348
_cell_formula_units_Z   1
loop_
 _symmetry_equiv_pos_site_id
 _symmetry_equiv_pos_as_xyz
  1  'x, y, z'
loop_
 _atom_site_type_symbol
 _atom_site_label
 _atom_site_symmetry_multiplicity
 _atom_site_fract_x
 _atom_site_fract_y
 _atom_site_fract_z
 _atom_site_occupancy
  Na  Na0  1  0.000000  0.000000  0.000000  1
  Er  Er1  1  0.500000  0.500000  0.500000  1
  Ag  Ag2  1  0.245179  0.245179  0.124681  1
  Ag  Ag3  1  0.870305  0.870305  0.391660  1
  Ag  Ag4  1  0.129695  0.129695  0.608340  1
  Ag  Ag5  1  0.754821  0.754821  0.875319  1
  Te  Te6  1  0.906228  0.906228  0.632911  1
  Te  Te7  1  0.093772  0.093772  0.367089  1
  Te  Te8  1  0.554219  0.554219  0.775356  1
  Te  Te9  1  0.445781  0.445781  0.224644  1
  Te  Te10  1  0.648699  0.648699  0.006524  1
  Te  Te11  1  0.351301  0.351301  0.993476  1
  Te  Te12  1  0.756119  0.756119  0.348917  1
  Te  Te13  1  0.243881  0.243881  0.651083  1
