# generated using pymatgen
data_La6NdPd2Ru
_symmetry_space_group_name_H-M   'P 1'
_cell_length_a   10.37252300
_cell_length_b   10.25716303
_cell_length_c   6.59022499
_cell_angle_alpha   90.24155628
_cell_angle_beta   90.00000000
_cell_angle_gamma   120.37273315
_symmetry_Int_Tables_number   1
_chemical_formula_structural   La6NdPd2Ru
_chemical_formula_sum   'La12 Nd2 Pd4 Ru2'
_cell_volume   604.91436716
_cell_formula_units_Z   2
loop_
 _symmetry_equiv_pos_site_id
 _symmetry_equiv_pos_as_xyz
  1  'x, y, z'
loop_
 _atom_site_type_symbol
 _atom_site_label
 _atom_site_symmetry_multiplicity
 _atom_site_fract_x
 _atom_site_fract_y
 _atom_site_fract_z
 _atom_site_occupancy
  La  La0  1  0.136434  0.888127  0.240403  1
  La  La1  1  0.751693  0.888127  0.240403  1
  La  La2  1  0.122901  0.245801  0.240928  1
  La  La3  1  0.872132  0.127549  0.755370  1
  La  La4  1  0.255416  0.127549  0.755370  1
  La  La5  1  0.872520  0.745040  0.741028  1
  La  La6  1  0.530828  0.451287  0.434847  1
  La  La7  1  0.920458  0.451287  0.434847  1
  La  La8  1  0.541974  0.083949  0.432448  1
  La  La9  1  0.461975  0.533732  0.945975  1
  La  La10  1  0.071757  0.533732  0.945975  1
  La  La11  1  0.464209  0.928417  0.939473  1
  Nd  Nd12  1  0.333667  0.667334  0.450505  1
  Nd  Nd13  1  0.664607  0.329214  0.967915  1
  Pd  Pd14  1  0.814174  0.628348  0.191755  1
  Pd  Pd15  1  0.186703  0.808712  0.692574  1
  Pd  Pd16  1  0.622010  0.808712  0.692574  1
  Pd  Pd17  1  0.189396  0.378790  0.691648  1
  Ru  Ru18  1  0.815383  0.187148  0.195876  1
  Ru  Ru19  1  0.371763  0.187148  0.195876  1
