# generated using pymatgen
data_AcEu(CuAs)4
_symmetry_space_group_name_H-M   'P 1'
_cell_length_a   4.36768700
_cell_length_b   4.36768700
_cell_length_c   10.01077800
_cell_angle_alpha   90.00000000
_cell_angle_beta   90.00000000
_cell_angle_gamma   90.00000000
_symmetry_Int_Tables_number   1
_chemical_formula_structural   AcEu(CuAs)4
_chemical_formula_sum   'Ac1 Eu1 Cu4 As4'
_cell_volume   190.97250586
_cell_formula_units_Z   1
loop_
 _symmetry_equiv_pos_site_id
 _symmetry_equiv_pos_as_xyz
  1  'x, y, z'
loop_
 _atom_site_type_symbol
 _atom_site_label
 _atom_site_symmetry_multiplicity
 _atom_site_fract_x
 _atom_site_fract_y
 _atom_site_fract_z
 _atom_site_occupancy
  Ac  Ac0  1  0.000000  0.499999  0.245969  1
  Eu  Eu1  1  0.499999  0.000000  0.754553  1
  Cu  Cu2  1  0.000000  0.000000  0.995630  1
  Cu  Cu3  1  0.499999  0.499999  0.995630  1
  Cu  Cu4  1  0.499999  0.000000  0.376014  1
  Cu  Cu5  1  0.000000  0.499999  0.626469  1
  As  As6  1  0.499999  0.000000  0.131347  1
  As  As7  1  0.000000  0.000000  0.503183  1
  As  As8  1  0.499999  0.499999  0.503183  1
  As  As9  1  0.000000  0.499999  0.868024  1
