# generated using pymatgen
data_YbLu7B24(OsRu)2
_symmetry_space_group_name_H-M   'P 1'
_cell_length_a   3.59698500
_cell_length_b   9.03935959
_cell_length_c   11.41427859
_cell_angle_alpha   89.87040721
_cell_angle_beta   90.00000000
_cell_angle_gamma   90.00000000
_symmetry_Int_Tables_number   1
_chemical_formula_structural   YbLu7B24(OsRu)2
_chemical_formula_sum   'Yb1 Lu7 B24 Os2 Ru2'
_cell_volume   371.12793677
_cell_formula_units_Z   1
loop_
 _symmetry_equiv_pos_site_id
 _symmetry_equiv_pos_as_xyz
  1  'x, y, z'
loop_
 _atom_site_type_symbol
 _atom_site_label
 _atom_site_symmetry_multiplicity
 _atom_site_fract_x
 _atom_site_fract_y
 _atom_site_fract_z
 _atom_site_occupancy
  Yb  Yb0  1  0.000000  0.322427  0.413649  1
  Lu  Lu1  1  0.000000  0.677128  0.584978  1
  Lu  Lu2  1  0.000000  0.821316  0.086641  1
  Lu  Lu3  1  0.000000  0.179374  0.914325  1
  Lu  Lu4  1  0.000000  0.944414  0.371890  1
  Lu  Lu5  1  0.000000  0.056998  0.627540  1
  Lu  Lu6  1  0.000000  0.442890  0.128281  1
  Lu  Lu7  1  0.000000  0.556445  0.872873  1
  B  B8  1  0.500000  0.553829  0.433235  1
  B  B9  1  0.500000  0.446596  0.567052  1
  B  B10  1  0.500000  0.052995  0.065798  1
  B  B11  1  0.500000  0.946280  0.933526  1
  B  B12  1  0.500000  0.749427  0.419961  1
  B  B13  1  0.500000  0.250843  0.580916  1
  B  B14  1  0.500000  0.248536  0.079644  1
  B  B15  1  0.500000  0.750988  0.920428  1
  B  B16  1  0.500000  0.792598  0.265436  1
  B  B17  1  0.500000  0.208306  0.734985  1
  B  B18  1  0.500000  0.290748  0.233525  1
  B  B19  1  0.500000  0.708369  0.765874  1
  B  B20  1  0.500000  0.631459  0.184772  1
  B  B21  1  0.500000  0.369154  0.815957  1
  B  B22  1  0.500000  0.130435  0.314627  1
  B  B23  1  0.500000  0.868866  0.684384  1
  B  B24  1  0.500000  0.981821  0.212117  1
  B  B25  1  0.500000  0.018063  0.787193  1
  B  B26  1  0.500000  0.482424  0.287092  1
  B  B27  1  0.500000  0.518495  0.713043  1
  B  B28  1  0.500000  0.606057  0.029374  1
  B  B29  1  0.500000  0.394203  0.970964  1
  B  B30  1  0.500000  0.102242  0.471740  1
  B  B31  1  0.500000  0.895647  0.528837  1
  Os  Os32  1  0.000000  0.639685  0.320202  1
  Os  Os33  1  0.000000  0.362152  0.680542  1
  Ru  Ru34  1  0.000000  0.136566  0.177685  1
  Ru  Ru35  1  0.000000  0.862223  0.820913  1
