# generated using pymatgen
data_Hf18Re8SiB
_symmetry_space_group_name_H-M   'P 1'
_cell_length_a   8.50318900
_cell_length_b   8.50319039
_cell_length_c   8.63155100
_cell_angle_alpha   90.00000000
_cell_angle_beta   90.00000000
_cell_angle_gamma   119.99999849
_symmetry_Int_Tables_number   1
_chemical_formula_structural   Hf18Re8SiB
_chemical_formula_sum   'Hf18 Re8 Si1 B1'
_cell_volume   540.48446357
_cell_formula_units_Z   1
loop_
 _symmetry_equiv_pos_site_id
 _symmetry_equiv_pos_as_xyz
  1  'x, y, z'
loop_
 _atom_site_type_symbol
 _atom_site_label
 _atom_site_symmetry_multiplicity
 _atom_site_fract_x
 _atom_site_fract_y
 _atom_site_fract_z
 _atom_site_occupancy
  Hf  Hf0  1  0.194629  0.805371  0.452335  1
  Hf  Hf1  1  0.194629  0.389259  0.452335  1
  Hf  Hf2  1  0.610741  0.805371  0.452335  1
  Hf  Hf3  1  0.798975  0.201025  0.555929  1
  Hf  Hf4  1  0.798975  0.597951  0.555929  1
  Hf  Hf5  1  0.402049  0.201025  0.555929  1
  Hf  Hf6  1  0.798975  0.201025  0.944071  1
  Hf  Hf7  1  0.798975  0.597951  0.944071  1
  Hf  Hf8  1  0.402049  0.201025  0.944071  1
  Hf  Hf9  1  0.194629  0.805371  0.047665  1
  Hf  Hf10  1  0.194629  0.389259  0.047665  1
  Hf  Hf11  1  0.610741  0.805371  0.047665  1
  Hf  Hf12  1  0.540500  0.459500  0.250000  1
  Hf  Hf13  1  0.540500  0.080999  0.250000  1
  Hf  Hf14  1  0.919001  0.459500  0.250000  1
  Hf  Hf15  1  0.459964  0.540036  0.750000  1
  Hf  Hf16  1  0.459964  0.919928  0.750000  1
  Hf  Hf17  1  0.080072  0.540036  0.750000  1
  Re  Re18  1  0.889718  0.110282  0.250000  1
  Re  Re19  1  0.889718  0.779437  0.250000  1
  Re  Re20  1  0.220563  0.110282  0.250000  1
  Re  Re21  1  0.109728  0.890272  0.750000  1
  Re  Re22  1  0.109728  0.219455  0.750000  1
  Re  Re23  1  0.780545  0.890272  0.750000  1
  Re  Re24  1  0.000000  0.000000  0.500344  1
  Re  Re25  1  0.000000  0.000000  0.999656  1
  Si  Si26  1  0.333333  0.666667  0.250000  1
  B  B27  1  0.666667  0.333333  0.750000  1
