# generated using pymatgen
data_EuFe3Sb12Rh
_symmetry_space_group_name_H-M   'P 1'
_cell_length_a   8.01630459
_cell_length_b   8.02574063
_cell_length_c   8.02574164
_cell_angle_alpha   109.49502122
_cell_angle_beta   109.44740594
_cell_angle_gamma   109.44739962
_symmetry_Int_Tables_number   1
_chemical_formula_structural   EuFe3Sb12Rh
_chemical_formula_sum   'Eu1 Fe3 Sb12 Rh1'
_cell_volume   397.60352464
_cell_formula_units_Z   1
loop_
 _symmetry_equiv_pos_site_id
 _symmetry_equiv_pos_as_xyz
  1  'x, y, z'
loop_
 _atom_site_type_symbol
 _atom_site_label
 _atom_site_symmetry_multiplicity
 _atom_site_fract_x
 _atom_site_fract_y
 _atom_site_fract_z
 _atom_site_occupancy
  Eu  Eu0  1  0.000000  0.000000  0.000000  1
  Fe  Fe1  1  0.000000  0.000000  0.500000  1
  Fe  Fe2  1  0.000000  0.500000  0.000000  1
  Fe  Fe3  1  0.500000  0.500000  0.500000  1
  Sb  Sb4  1  0.152216  0.820839  0.654921  1
  Sb  Sb5  1  0.847784  0.179161  0.345079  1
  Sb  Sb6  1  0.668623  0.165918  0.820839  1
  Sb  Sb7  1  0.502705  0.654921  0.834082  1
  Sb  Sb8  1  0.666304  0.837686  0.503382  1
  Sb  Sb9  1  0.497295  0.345079  0.165918  1
  Sb  Sb10  1  0.331377  0.834082  0.179161  1
  Sb  Sb11  1  0.171381  0.334303  0.837686  1
  Sb  Sb12  1  0.828619  0.665697  0.162314  1
  Sb  Sb13  1  0.333696  0.162314  0.496618  1
  Sb  Sb14  1  0.837078  0.503382  0.665697  1
  Sb  Sb15  1  0.162922  0.496618  0.334303  1
  Rh  Rh16  1  0.500000  0.000000  0.000000  1
