# generated using pymatgen
data_HoEr2NiSn3Pd2
_symmetry_space_group_name_H-M   'P 1'
_cell_length_a   7.57879315
_cell_length_b   7.57879364
_cell_length_c   3.79130300
_cell_angle_alpha   90.00000000
_cell_angle_beta   90.00000000
_cell_angle_gamma   120.11988267
_symmetry_Int_Tables_number   1
_chemical_formula_structural   HoEr2NiSn3Pd2
_chemical_formula_sum   'Ho1 Er2 Ni1 Sn3 Pd2'
_cell_volume   188.36202830
_cell_formula_units_Z   1
loop_
 _symmetry_equiv_pos_site_id
 _symmetry_equiv_pos_as_xyz
  1  'x, y, z'
loop_
 _atom_site_type_symbol
 _atom_site_label
 _atom_site_symmetry_multiplicity
 _atom_site_fract_x
 _atom_site_fract_y
 _atom_site_fract_z
 _atom_site_occupancy
  Ho  Ho0  1  0.399556  0.399556  0.500000  1
  Er  Er1  1  0.600756  0.000123  0.500000  1
  Er  Er2  1  0.000123  0.600756  0.500000  1
  Ni  Ni3  1  0.999727  0.999727  0.500000  1
  Sn  Sn4  1  0.746961  0.746961  0.000000  1
  Sn  Sn5  1  0.253234  0.999437  0.000000  1
  Sn  Sn6  1  0.999437  0.253234  0.000000  1
  Pd  Pd7  1  0.667037  0.333167  0.000000  1
  Pd  Pd8  1  0.333167  0.667037  0.000000  1
