# generated using pymatgen
data_ErMn5Fe(Sn2Ge)2
_symmetry_space_group_name_H-M   'P 1'
_cell_length_a   5.31098249
_cell_length_b   5.34312526
_cell_length_c   8.66900200
_cell_angle_alpha   90.00000000
_cell_angle_beta   90.00000000
_cell_angle_gamma   120.20040601
_symmetry_Int_Tables_number   1
_chemical_formula_structural   ErMn5Fe(Sn2Ge)2
_chemical_formula_sum   'Er1 Mn5 Fe1 Sn4 Ge2'
_cell_volume   212.61279086
_cell_formula_units_Z   1
loop_
 _symmetry_equiv_pos_site_id
 _symmetry_equiv_pos_as_xyz
  1  'x, y, z'
loop_
 _atom_site_type_symbol
 _atom_site_label
 _atom_site_symmetry_multiplicity
 _atom_site_fract_x
 _atom_site_fract_y
 _atom_site_fract_z
 _atom_site_occupancy
  Er  Er0  1  0.000000  0.000000  0.000569  1
  Mn  Mn1  1  0.500000  0.500000  0.767770  1
  Mn  Mn2  1  0.500000  0.000000  0.767770  1
  Mn  Mn3  1  0.500000  0.500000  0.230507  1
  Mn  Mn4  1  0.500000  0.000000  0.230507  1
  Mn  Mn5  1  0.000000  0.500000  0.234349  1
  Fe  Fe6  1  0.000000  0.500000  0.767664  1
  Sn  Sn7  1  0.665995  0.332997  0.499567  1
  Sn  Sn8  1  0.334005  0.667003  0.499567  1
  Sn  Sn9  1  0.000000  0.000000  0.665472  1
  Sn  Sn10  1  0.000000  0.000000  0.334961  1
  Ge  Ge11  1  0.671768  0.335883  0.000648  1
  Ge  Ge12  1  0.328232  0.664117  0.000648  1
