# generated using pymatgen
data_Tb5ErAl17Si7Os8
_symmetry_space_group_name_H-M   'P 1'
_cell_length_a   8.71061621
_cell_length_b   8.69923172
_cell_length_c   9.50614000
_cell_angle_alpha   90.00000000
_cell_angle_beta   90.00000000
_cell_angle_gamma   120.12177737
_symmetry_Int_Tables_number   1
_chemical_formula_structural   Tb5ErAl17Si7Os8
_chemical_formula_sum   'Tb5 Er1 Al17 Si7 Os8'
_cell_volume   623.06073082
_cell_formula_units_Z   1
loop_
 _symmetry_equiv_pos_site_id
 _symmetry_equiv_pos_as_xyz
  1  'x, y, z'
loop_
 _atom_site_type_symbol
 _atom_site_label
 _atom_site_symmetry_multiplicity
 _atom_site_fract_x
 _atom_site_fract_y
 _atom_site_fract_z
 _atom_site_occupancy
  Tb  Tb0  1  0.192321  0.386842  0.250000  1
  Tb  Tb1  1  0.807752  0.615685  0.750000  1
  Tb  Tb2  1  0.612031  0.807786  0.250000  1
  Tb  Tb3  1  0.386549  0.190705  0.750000  1
  Tb  Tb4  1  0.803268  0.191226  0.750000  1
  Er  Er5  1  0.196573  0.804550  0.250000  1
  Al  Al6  1  0.164652  0.330136  0.577479  1
  Al  Al7  1  0.834365  0.670946  0.421251  1
  Al  Al8  1  0.670821  0.834651  0.576939  1
  Al  Al9  1  0.834365  0.670946  0.078749  1
  Al  Al10  1  0.329893  0.165689  0.422432  1
  Al  Al11  1  0.164652  0.330136  0.922521  1
  Al  Al12  1  0.163725  0.834191  0.575273  1
  Al  Al13  1  0.329893  0.165689  0.077568  1
  Al  Al14  1  0.835156  0.164468  0.422044  1
  Al  Al15  1  0.670821  0.834651  0.923061  1
  Al  Al16  1  0.835156  0.164468  0.077956  1
  Al  Al17  1  0.163725  0.834191  0.924727  1
  Al  Al18  1  0.126135  0.566273  0.750000  1
  Al  Al19  1  0.565057  0.434599  0.250000  1
  Al  Al20  1  0.438758  0.566864  0.750000  1
  Al  Al21  1  0.000720  0.998015  0.250000  1
  Al  Al22  1  0.999987  0.001026  0.750000  1
  Si  Si23  1  0.333059  0.664885  0.039110  1
  Si  Si24  1  0.666358  0.335962  0.961117  1
  Si  Si25  1  0.666358  0.335962  0.538883  1
  Si  Si26  1  0.333059  0.664885  0.460890  1
  Si  Si27  1  0.564184  0.124119  0.250000  1
  Si  Si28  1  0.435969  0.872855  0.750000  1
  Si  Si29  1  0.874920  0.435275  0.250000  1
  Os  Os30  1  0.500355  0.000648  0.001588  1
  Os  Os31  1  0.998656  0.499860  0.007102  1
  Os  Os32  1  0.500355  0.000648  0.498412  1
  Os  Os33  1  0.500389  0.500312  0.000841  1
  Os  Os34  1  0.998656  0.499860  0.492898  1
  Os  Os35  1  0.500389  0.500312  0.499159  1
  Os  Os36  1  0.000458  0.000344  0.000163  1
  Os  Os37  1  0.000458  0.000344  0.499837  1
