# generated using pymatgen
data_Tb3(PRh)4
_symmetry_space_group_name_H-M   'P 1'
_cell_length_a   3.91551414
_cell_length_b   4.05401162
_cell_length_c   12.35924489
_cell_angle_alpha   80.56042909
_cell_angle_beta   80.88572412
_cell_angle_gamma   90.00000187
_symmetry_Int_Tables_number   1
_chemical_formula_structural   Tb3(PRh)4
_chemical_formula_sum   'Tb3 P4 Rh4'
_cell_volume   191.01704624
_cell_formula_units_Z   1
loop_
 _symmetry_equiv_pos_site_id
 _symmetry_equiv_pos_as_xyz
  1  'x, y, z'
loop_
 _atom_site_type_symbol
 _atom_site_label
 _atom_site_symmetry_multiplicity
 _atom_site_fract_x
 _atom_site_fract_y
 _atom_site_fract_z
 _atom_site_occupancy
  Tb  Tb0  1  0.000000  0.000000  0.000000  1
  Tb  Tb1  1  0.855103  0.355103  0.289794  1
  Tb  Tb2  1  0.144897  0.644897  0.710206  1
  P  P3  1  0.691612  0.191612  0.616776  1
  P  P4  1  0.308388  0.808388  0.383224  1
  P  P5  1  0.451364  0.451364  0.097272  1
  P  P6  1  0.548636  0.548636  0.902728  1
  Rh  Rh7  1  0.595308  0.095308  0.809384  1
  Rh  Rh8  1  0.404692  0.904692  0.190616  1
  Rh  Rh9  1  0.248075  0.248075  0.503851  1
  Rh  Rh10  1  0.751925  0.751925  0.496149  1
