# generated using pymatgen
data_Dy15Ho(MgPb4)4
_symmetry_space_group_name_H-M   'P 1'
_cell_length_a   7.85315175
_cell_length_b   8.33655715
_cell_length_c   15.57064580
_cell_angle_alpha   89.96744706
_cell_angle_beta   89.83299834
_cell_angle_gamma   90.14292558
_symmetry_Int_Tables_number   1
_chemical_formula_structural   Dy15Ho(MgPb4)4
_chemical_formula_sum   'Dy15 Ho1 Mg4 Pb16'
_cell_volume   1019.37523530
_cell_formula_units_Z   1
loop_
 _symmetry_equiv_pos_site_id
 _symmetry_equiv_pos_as_xyz
  1  'x, y, z'
loop_
 _atom_site_type_symbol
 _atom_site_label
 _atom_site_symmetry_multiplicity
 _atom_site_fract_x
 _atom_site_fract_y
 _atom_site_fract_z
 _atom_site_occupancy
  Dy  Dy0  1  0.842003  0.661526  0.627500  1
  Dy  Dy1  1  0.656502  0.161833  0.372453  1
  Dy  Dy2  1  0.156837  0.339667  0.126564  1
  Dy  Dy3  1  0.653832  0.162676  0.127954  1
  Dy  Dy4  1  0.154743  0.335815  0.372324  1
  Dy  Dy5  1  0.347997  0.836357  0.628148  1
  Dy  Dy6  1  0.844517  0.663088  0.872397  1
  Dy  Dy7  1  0.509501  0.312865  0.909693  1
  Dy  Dy8  1  0.011856  0.187079  0.591697  1
  Dy  Dy9  1  0.491364  0.685584  0.409638  1
  Dy  Dy10  1  0.988184  0.812434  0.090750  1
  Dy  Dy11  1  0.489970  0.686712  0.090184  1
  Dy  Dy12  1  0.991436  0.813849  0.408533  1
  Dy  Dy13  1  0.509478  0.313998  0.590919  1
  Dy  Dy14  1  0.009986  0.186911  0.907551  1
  Ho  Ho15  1  0.343273  0.840890  0.872675  1
  Mg  Mg16  1  0.166142  0.504405  0.748682  1
  Mg  Mg17  1  0.669865  0.995682  0.751008  1
  Mg  Mg18  1  0.831570  0.495085  0.250380  1
  Mg  Mg19  1  0.331059  0.003722  0.251420  1
  Pb  Pb20  1  0.305523  0.038113  0.041742  1
  Pb  Pb21  1  0.807098  0.460916  0.459435  1
  Pb  Pb22  1  0.696157  0.962124  0.540902  1
  Pb  Pb23  1  0.193084  0.539535  0.957347  1
  Pb  Pb24  1  0.693207  0.961995  0.959256  1
  Pb  Pb25  1  0.194389  0.539328  0.540195  1
  Pb  Pb26  1  0.306849  0.037991  0.460171  1
  Pb  Pb27  1  0.806286  0.461203  0.040590  1
  Pb  Pb28  1  0.527980  0.598438  0.752582  1
  Pb  Pb29  1  0.031400  0.899597  0.748943  1
  Pb  Pb30  1  0.469431  0.401721  0.250758  1
  Pb  Pb31  1  0.969809  0.098607  0.248449  1
  Pb  Pb32  1  0.317576  0.162890  0.749977  1
  Pb  Pb33  1  0.814314  0.338249  0.749717  1
  Pb  Pb34  1  0.683094  0.837108  0.249888  1
  Pb  Pb35  1  0.183688  0.662009  0.249576  1
