# generated using pymatgen
data_NdSm3Pd4F28
_symmetry_space_group_name_H-M   'P 1'
_cell_length_a   5.61595616
_cell_length_b   9.05769255
_cell_length_c   12.15704633
_cell_angle_alpha   62.14947229
_cell_angle_beta   89.97355324
_cell_angle_gamma   89.98284851
_symmetry_Int_Tables_number   1
_chemical_formula_structural   NdSm3Pd4F28
_chemical_formula_sum   'Nd1 Sm3 Pd4 F28'
_cell_volume   546.77009867
_cell_formula_units_Z   1
loop_
 _symmetry_equiv_pos_site_id
 _symmetry_equiv_pos_as_xyz
  1  'x, y, z'
loop_
 _atom_site_type_symbol
 _atom_site_label
 _atom_site_symmetry_multiplicity
 _atom_site_fract_x
 _atom_site_fract_y
 _atom_site_fract_z
 _atom_site_occupancy
  Nd  Nd0  1  0.761439  0.812009  0.764537  1
  Sm  Sm1  1  0.261886  0.189919  0.735506  1
  Sm  Sm2  1  0.238225  0.188068  0.235735  1
  Sm  Sm3  1  0.738308  0.812168  0.264310  1
  Pd  Pd4  1  0.757459  0.271470  0.957994  1
  Pd  Pd5  1  0.256948  0.726807  0.541386  1
  Pd  Pd6  1  0.242573  0.726604  0.044153  1
  Pd  Pd7  1  0.742176  0.274007  0.456512  1
  F  F8  1  0.429740  0.704657  0.917867  1
  F  F9  1  0.931569  0.295046  0.582654  1
  F  F10  1  0.567834  0.293902  0.083534  1
  F  F11  1  0.068390  0.705173  0.415335  1
  F  F12  1  0.447409  0.281399  0.539314  1
  F  F13  1  0.947723  0.718106  0.962715  1
  F  F14  1  0.553197  0.719384  0.459753  1
  F  F15  1  0.052360  0.279844  0.040218  1
  F  F16  1  0.769885  0.513827  0.861171  1
  F  F17  1  0.269644  0.483990  0.638659  1
  F  F18  1  0.230782  0.483422  0.140497  1
  F  F19  1  0.729970  0.516873  0.360119  1
  F  F20  1  0.755840  0.028845  0.049193  1
  F  F21  1  0.255482  0.969536  0.450791  1
  F  F22  1  0.243722  0.969201  0.952122  1
  F  F23  1  0.744101  0.031604  0.547133  1
  F  F24  1  0.967143  0.726103  0.629239  1
  F  F25  1  0.467914  0.272552  0.869332  1
  F  F26  1  0.031491  0.273435  0.368116  1
  F  F27  1  0.532749  0.727087  0.131761  1
  F  F28  1  0.058105  0.743263  0.174037  1
  F  F29  1  0.556718  0.257307  0.326736  1
  F  F30  1  0.942839  0.255735  0.827806  1
  F  F31  1  0.439128  0.742339  0.672101  1
  F  F32  1  0.409015  0.968506  0.231327  1
  F  F33  1  0.909015  0.031831  0.268717  1
  F  F34  1  0.592070  0.036176  0.769153  1
  F  F35  1  0.097151  0.969804  0.730466  1
