# generated using pymatgen
data_AcH9W
_symmetry_space_group_name_H-M   'P 1'
_cell_length_a   5.00000200
_cell_length_b   5.00000222
_cell_length_c   9.28491900
_cell_angle_alpha   90.00000000
_cell_angle_beta   90.00000000
_cell_angle_gamma   119.99999857
_symmetry_Int_Tables_number   1
_chemical_formula_structural   AcH9W
_chemical_formula_sum   'Ac2 H18 W2'
_cell_volume   201.02456553
_cell_formula_units_Z   2
loop_
 _symmetry_equiv_pos_site_id
 _symmetry_equiv_pos_as_xyz
  1  'x, y, z'
loop_
 _atom_site_type_symbol
 _atom_site_label
 _atom_site_symmetry_multiplicity
 _atom_site_fract_x
 _atom_site_fract_y
 _atom_site_fract_z
 _atom_site_occupancy
  Ac  Ac0  1  0.000000  0.000000  0.000000  1
  Ac  Ac1  1  0.000000  0.000000  0.500000  1
  H  H2  1  0.476703  0.523297  0.387462  1
  H  H3  1  0.476703  0.953405  0.387462  1
  H  H4  1  0.046595  0.523297  0.387462  1
  H  H5  1  0.953405  0.476703  0.887462  1
  H  H6  1  0.133714  0.267427  0.250000  1
  H  H7  1  0.866286  0.133714  0.750000  1
  H  H8  1  0.267427  0.133714  0.750000  1
  H  H9  1  0.732573  0.866286  0.250000  1
  H  H10  1  0.133714  0.866286  0.250000  1
  H  H11  1  0.866286  0.732573  0.750000  1
  H  H12  1  0.476703  0.953405  0.112538  1
  H  H13  1  0.523297  0.476703  0.612538  1
  H  H14  1  0.953405  0.476703  0.612538  1
  H  H15  1  0.046595  0.523297  0.112538  1
  H  H16  1  0.476703  0.523297  0.112538  1
  H  H17  1  0.523297  0.046595  0.887462  1
  H  H18  1  0.523297  0.476703  0.887462  1
  H  H19  1  0.523297  0.046595  0.612538  1
  W  W20  1  0.333333  0.666667  0.250000  1
  W  W21  1  0.666667  0.333333  0.750000  1
