# generated using pymatgen
data_LaBi3(TeO5)2
_symmetry_space_group_name_H-M   'P 1'
_cell_length_a   8.91797591
_cell_length_b   8.91797557
_cell_length_c   11.67020900
_cell_angle_alpha   90.00000000
_cell_angle_beta   90.00000000
_cell_angle_gamma   143.15637188
_symmetry_Int_Tables_number   1
_chemical_formula_structural   LaBi3(TeO5)2
_chemical_formula_sum   'La2 Bi6 Te4 O20'
_cell_volume   556.54058223
_cell_formula_units_Z   2
loop_
 _symmetry_equiv_pos_site_id
 _symmetry_equiv_pos_as_xyz
  1  'x, y, z'
loop_
 _atom_site_type_symbol
 _atom_site_label
 _atom_site_symmetry_multiplicity
 _atom_site_fract_x
 _atom_site_fract_y
 _atom_site_fract_z
 _atom_site_occupancy
  La  La0  1  0.778455  0.278455  0.616315  1
  La  La1  1  0.278455  0.778455  0.383685  1
  Bi  Bi2  1  0.266920  0.766920  0.869057  1
  Bi  Bi3  1  0.766920  0.266920  0.130943  1
  Bi  Bi4  1  0.946611  0.116508  0.395366  1
  Bi  Bi5  1  0.116508  0.946611  0.604634  1
  Bi  Bi6  1  0.446611  0.616508  0.604634  1
  Bi  Bi7  1  0.616508  0.446611  0.395366  1
  Te  Te8  1  0.439527  0.611020  0.134832  1
  Te  Te9  1  0.611020  0.439527  0.865168  1
  Te  Te10  1  0.939527  0.111020  0.865168  1
  Te  Te11  1  0.111020  0.939527  0.134832  1
  O  O12  1  0.542836  0.867016  0.218425  1
  O  O13  1  0.867016  0.542836  0.781575  1
  O  O14  1  0.042836  0.367016  0.781575  1
  O  O15  1  0.367016  0.042836  0.218425  1
  O  O16  1  0.119776  0.443045  0.497188  1
  O  O17  1  0.443045  0.119776  0.502812  1
  O  O18  1  0.619776  0.943045  0.502812  1
  O  O19  1  0.943045  0.619776  0.497188  1
  O  O20  1  0.396766  0.896766  0.704334  1
  O  O21  1  0.896766  0.396766  0.295666  1
  O  O22  1  0.133007  0.434934  0.068569  1
  O  O23  1  0.434934  0.133007  0.931431  1
  O  O24  1  0.898005  0.813264  0.258224  1
  O  O25  1  0.813264  0.898005  0.741776  1
  O  O26  1  0.398005  0.313264  0.741776  1
  O  O27  1  0.313264  0.398005  0.258224  1
  O  O28  1  0.749412  0.749412  0.500000  1
  O  O29  1  0.249412  0.249412  0.500000  1
  O  O30  1  0.934934  0.633007  0.068569  1
  O  O31  1  0.633007  0.934934  0.931431  1
