# generated using pymatgen
data_Ho12IrPd3
_symmetry_space_group_name_H-M   'P 1'
_cell_length_a   6.44025178
_cell_length_b   7.07504295
_cell_length_c   9.51841700
_cell_angle_alpha   90.00000000
_cell_angle_beta   90.00000000
_cell_angle_gamma   90.05793888
_symmetry_Int_Tables_number   1
_chemical_formula_structural   Ho12IrPd3
_chemical_formula_sum   'Ho12 Ir1 Pd3'
_cell_volume   433.70700066
_cell_formula_units_Z   1
loop_
 _symmetry_equiv_pos_site_id
 _symmetry_equiv_pos_as_xyz
  1  'x, y, z'
loop_
 _atom_site_type_symbol
 _atom_site_label
 _atom_site_symmetry_multiplicity
 _atom_site_fract_x
 _atom_site_fract_y
 _atom_site_fract_z
 _atom_site_occupancy
  Ho  Ho0  1  0.327890  0.681301  0.056835  1
  Ho  Ho1  1  0.172019  0.179601  0.440237  1
  Ho  Ho2  1  0.672563  0.323548  0.562781  1
  Ho  Ho3  1  0.822007  0.816440  0.937480  1
  Ho  Ho4  1  0.672563  0.323548  0.937219  1
  Ho  Ho5  1  0.822007  0.816440  0.562520  1
  Ho  Ho6  1  0.327890  0.681301  0.443165  1
  Ho  Ho7  1  0.172019  0.179601  0.059763  1
  Ho  Ho8  1  0.867794  0.524653  0.250000  1
  Ho  Ho9  1  0.633279  0.027028  0.250000  1
  Ho  Ho10  1  0.138354  0.476589  0.750000  1
  Ho  Ho11  1  0.371560  0.965808  0.750000  1
  Ir  Ir12  1  0.552153  0.614817  0.750000  1
  Pd  Pd13  1  0.055329  0.886783  0.250000  1
  Pd  Pd14  1  0.443421  0.389221  0.250000  1
  Pd  Pd15  1  0.949154  0.113322  0.750000  1
