# generated using pymatgen
data_Sr2Eu6Ru
_symmetry_space_group_name_H-M   'P 1'
_cell_length_a   8.13024277
_cell_length_b   8.13024307
_cell_length_c   8.13024400
_cell_angle_alpha   119.99999565
_cell_angle_beta   119.99999687
_cell_angle_gamma   90.00000362
_symmetry_Int_Tables_number   1
_chemical_formula_structural   Sr2Eu6Ru
_chemical_formula_sum   'Sr2 Eu6 Ru1'
_cell_volume   380.01055617
_cell_formula_units_Z   1
loop_
 _symmetry_equiv_pos_site_id
 _symmetry_equiv_pos_as_xyz
  1  'x, y, z'
loop_
 _atom_site_type_symbol
 _atom_site_label
 _atom_site_symmetry_multiplicity
 _atom_site_fract_x
 _atom_site_fract_y
 _atom_site_fract_z
 _atom_site_occupancy
  Sr  Sr0  1  0.750000  0.250000  0.500000  1
  Sr  Sr1  1  0.250000  0.750000  0.500000  1
  Eu  Eu2  1  0.753637  0.246363  0.000000  1
  Eu  Eu3  1  0.246364  0.246364  0.000000  1
  Eu  Eu4  1  0.753637  0.753637  0.000000  1
  Eu  Eu5  1  0.246363  0.753637  0.000000  1
  Eu  Eu6  1  0.246363  0.246363  0.492727  1
  Eu  Eu7  1  0.753638  0.753638  0.507274  1
  Ru  Ru8  1  0.000000  0.000000  0.000000  1
