# generated using pymatgen
data_SmEr2RuBr3
_symmetry_space_group_name_H-M   'P 1'
_cell_length_a   4.17275700
_cell_length_b   8.43514811
_cell_length_c   11.84277641
_cell_angle_alpha   85.49089945
_cell_angle_beta   90.00000000
_cell_angle_gamma   90.00000000
_symmetry_Int_Tables_number   1
_chemical_formula_structural   SmEr2RuBr3
_chemical_formula_sum   'Sm2 Er4 Ru2 Br6'
_cell_volume   415.54977360
_cell_formula_units_Z   2
loop_
 _symmetry_equiv_pos_site_id
 _symmetry_equiv_pos_as_xyz
  1  'x, y, z'
loop_
 _atom_site_type_symbol
 _atom_site_label
 _atom_site_symmetry_multiplicity
 _atom_site_fract_x
 _atom_site_fract_y
 _atom_site_fract_z
 _atom_site_occupancy
  Sm  Sm0  1  0.250000  0.880223  0.824962  1
  Sm  Sm1  1  0.750000  0.119777  0.175038  1
  Er  Er2  1  0.250000  0.271664  0.398884  1
  Er  Er3  1  0.750000  0.728336  0.601116  1
  Er  Er4  1  0.250000  0.863391  0.368674  1
  Er  Er5  1  0.750000  0.136609  0.631326  1
  Ru  Ru6  1  0.250000  0.941932  0.591506  1
  Ru  Ru7  1  0.750000  0.058068  0.408494  1
  Br  Br8  1  0.250000  0.422703  0.628025  1
  Br  Br9  1  0.750000  0.577297  0.371975  1
  Br  Br10  1  0.250000  0.878298  0.110089  1
  Br  Br11  1  0.750000  0.121702  0.889911  1
  Br  Br12  1  0.250000  0.368413  0.145726  1
  Br  Br13  1  0.750000  0.631587  0.854274  1
