# generated using pymatgen
data_CeYZn17
_symmetry_space_group_name_H-M   'P 1'
_cell_length_a   9.00617600
_cell_length_b   9.00617669
_cell_length_c   8.81551700
_cell_angle_alpha   90.00000000
_cell_angle_beta   90.00000000
_cell_angle_gamma   119.99999748
_symmetry_Int_Tables_number   1
_chemical_formula_structural   CeYZn17
_chemical_formula_sum   'Ce2 Y2 Zn34'
_cell_volume   619.24045723
_cell_formula_units_Z   2
loop_
 _symmetry_equiv_pos_site_id
 _symmetry_equiv_pos_as_xyz
  1  'x, y, z'
loop_
 _atom_site_type_symbol
 _atom_site_label
 _atom_site_symmetry_multiplicity
 _atom_site_fract_x
 _atom_site_fract_y
 _atom_site_fract_z
 _atom_site_occupancy
  Ce  Ce0  1  0.333333  0.666667  0.750000  1
  Ce  Ce1  1  0.666667  0.333333  0.250000  1
  Y  Y2  1  0.000000  0.000000  0.250000  1
  Y  Y3  1  0.000000  0.000000  0.750000  1
  Zn  Zn4  1  0.333333  0.666667  0.398558  1
  Zn  Zn5  1  0.666667  0.333333  0.601442  1
  Zn  Zn6  1  0.666667  0.333333  0.898558  1
  Zn  Zn7  1  0.333333  0.666667  0.101442  1
  Zn  Zn8  1  0.162490  0.837510  0.519817  1
  Zn  Zn9  1  0.162490  0.324981  0.519817  1
  Zn  Zn10  1  0.675019  0.837510  0.519817  1
  Zn  Zn11  1  0.837510  0.162490  0.480183  1
  Zn  Zn12  1  0.837510  0.675019  0.480183  1
  Zn  Zn13  1  0.324981  0.162490  0.480183  1
  Zn  Zn14  1  0.837510  0.162490  0.019817  1
  Zn  Zn15  1  0.837510  0.675019  0.019817  1
  Zn  Zn16  1  0.324981  0.162490  0.019817  1
  Zn  Zn17  1  0.162490  0.837510  0.980183  1
  Zn  Zn18  1  0.162490  0.324981  0.980183  1
  Zn  Zn19  1  0.675019  0.837510  0.980183  1
  Zn  Zn20  1  0.500000  0.500000  0.500000  1
  Zn  Zn21  1  0.500000  0.000000  0.500000  1
  Zn  Zn22  1  0.000000  0.500000  0.500000  1
  Zn  Zn23  1  0.500000  0.500000  0.000000  1
  Zn  Zn24  1  0.500000  0.000000  0.000000  1
  Zn  Zn25  1  0.000000  0.500000  0.000000  1
  Zn  Zn26  1  0.328550  0.365588  0.250000  1
  Zn  Zn27  1  0.634412  0.962961  0.250000  1
  Zn  Zn28  1  0.037039  0.671450  0.250000  1
  Zn  Zn29  1  0.634412  0.671450  0.250000  1
  Zn  Zn30  1  0.037039  0.365588  0.250000  1
  Zn  Zn31  1  0.328550  0.962961  0.250000  1
  Zn  Zn32  1  0.671450  0.634412  0.750000  1
  Zn  Zn33  1  0.365588  0.037039  0.750000  1
  Zn  Zn34  1  0.962961  0.328550  0.750000  1
  Zn  Zn35  1  0.365588  0.328550  0.750000  1
  Zn  Zn36  1  0.962961  0.634412  0.750000  1
  Zn  Zn37  1  0.671450  0.037039  0.750000  1
