# generated using pymatgen
data_Tb5YbMn3CrC12
_symmetry_space_group_name_H-M   'P 1'
_cell_length_a   8.10461678
_cell_length_b   8.11490911
_cell_length_c   5.00881341
_cell_angle_alpha   89.95542452
_cell_angle_beta   90.03392355
_cell_angle_gamma   120.13279232
_symmetry_Int_Tables_number   1
_chemical_formula_structural   Tb5YbMn3CrC12
_chemical_formula_sum   'Tb5 Yb1 Mn3 Cr1 C12'
_cell_volume   284.90416565
_cell_formula_units_Z   1
loop_
 _symmetry_equiv_pos_site_id
 _symmetry_equiv_pos_as_xyz
  1  'x, y, z'
loop_
 _atom_site_type_symbol
 _atom_site_label
 _atom_site_symmetry_multiplicity
 _atom_site_fract_x
 _atom_site_fract_y
 _atom_site_fract_z
 _atom_site_occupancy
  Tb  Tb0  1  0.933852  0.620467  0.251348  1
  Tb  Tb1  1  0.684437  0.064312  0.251597  1
  Tb  Tb2  1  0.315107  0.934959  0.748927  1
  Tb  Tb3  1  0.065876  0.381251  0.748705  1
  Tb  Tb4  1  0.381951  0.317695  0.251231  1
  Yb  Yb5  1  0.614575  0.682843  0.748591  1
  Mn  Mn6  1  0.997842  0.998442  0.998983  1
  Mn  Mn7  1  0.666963  0.331224  0.751602  1
  Mn  Mn8  1  0.333237  0.667112  0.248528  1
  Cr  Cr9  1  0.998611  0.999180  0.499694  1
  C  C10  1  0.961928  0.770657  0.750009  1
  C  C11  1  0.191034  0.963188  0.250497  1
  C  C12  1  0.772411  0.812616  0.250063  1
  C  C13  1  0.229560  0.192930  0.749822  1
  C  C14  1  0.814165  0.039569  0.749576  1
  C  C15  1  0.037366  0.227247  0.250952  1
  C  C16  1  0.860815  0.576815  0.752467  1
  C  C17  1  0.286612  0.863832  0.247796  1
  C  C18  1  0.577562  0.714943  0.246693  1
  C  C19  1  0.424235  0.284477  0.752485  1
  C  C20  1  0.137175  0.422473  0.247731  1
  C  C21  1  0.714688  0.133766  0.752703  1
