# generated using pymatgen
data_La9HoC4I15
_symmetry_space_group_name_H-M   'P 1'
_cell_length_a   9.91803312
_cell_length_b   10.83679583
_cell_length_c   11.90980113
_cell_angle_alpha   93.61798834
_cell_angle_beta   114.21156495
_cell_angle_gamma   109.57351695
_symmetry_Int_Tables_number   1
_chemical_formula_structural   La9HoC4I15
_chemical_formula_sum   'La9 Ho1 C4 I15'
_cell_volume   1069.64029026
_cell_formula_units_Z   1
loop_
 _symmetry_equiv_pos_site_id
 _symmetry_equiv_pos_as_xyz
  1  'x, y, z'
loop_
 _atom_site_type_symbol
 _atom_site_label
 _atom_site_symmetry_multiplicity
 _atom_site_fract_x
 _atom_site_fract_y
 _atom_site_fract_z
 _atom_site_occupancy
  La  La0  1  0.343476  0.745706  0.164764  1
  La  La1  1  0.778365  0.883998  0.257951  1
  La  La2  1  0.529128  0.187247  0.103718  1
  La  La3  1  0.221675  0.114816  0.743076  1
  La  La4  1  0.402769  0.458740  0.656962  1
  La  La5  1  0.472591  0.812839  0.897996  1
  La  La6  1  0.705189  0.567027  0.044524  1
  La  La7  1  0.295065  0.432375  0.956138  1
  La  La8  1  0.656863  0.254989  0.832167  1
  Ho  Ho9  1  0.593075  0.546176  0.332371  1
  C  C10  1  0.482523  0.300247  0.937299  1
  C  C11  1  0.518246  0.698309  0.062691  1
  C  C12  1  0.452799  0.361503  0.833579  1
  C  C13  1  0.546605  0.636837  0.165801  1
  I  I14  1  0.206721  0.906789  0.937927  1
  I  I15  1  0.102160  0.185413  0.467081  1
  I  I16  1  0.150532  0.554429  0.703868  1
  I  I17  1  0.403840  0.967019  0.646434  1
  I  I18  1  0.716242  0.734013  0.822317  1
  I  I19  1  0.299314  0.277384  0.188864  1
  I  I20  1  0.838191  0.449936  0.303695  1
  I  I21  1  0.881013  0.797102  0.525790  1
  I  I22  1  0.371130  0.626588  0.412314  1
  I  I23  1  0.056829  0.832575  0.222219  1
  I  I24  1  0.794493  0.095929  0.062684  1
  I  I25  1  0.642091  0.375544  0.582596  1
  I  I26  1  0.944244  0.166016  0.779631  1
  I  I27  1  0.594652  0.031313  0.353804  1
  I  I28  1  0.000177  0.499141  0.001738  1
