# generated using pymatgen
data_Dy5YAl24Co3Os5
_symmetry_space_group_name_H-M   'P 1'
_cell_length_a   8.75834338
_cell_length_b   8.79412186
_cell_length_c   9.48575100
_cell_angle_alpha   89.99899071
_cell_angle_beta   89.72645970
_cell_angle_gamma   120.13937659
_symmetry_Int_Tables_number   1
_chemical_formula_structural   Dy5YAl24Co3Os5
_chemical_formula_sum   'Dy5 Y1 Al24 Co3 Os5'
_cell_volume   631.82745999
_cell_formula_units_Z   1
loop_
 _symmetry_equiv_pos_site_id
 _symmetry_equiv_pos_as_xyz
  1  'x, y, z'
loop_
 _atom_site_type_symbol
 _atom_site_label
 _atom_site_symmetry_multiplicity
 _atom_site_fract_x
 _atom_site_fract_y
 _atom_site_fract_z
 _atom_site_occupancy
  Dy  Dy0  1  0.803012  0.612344  0.749193  1
  Dy  Dy1  1  0.610916  0.805543  0.247854  1
  Dy  Dy2  1  0.389175  0.194610  0.752161  1
  Dy  Dy3  1  0.197007  0.809333  0.250802  1
  Dy  Dy4  1  0.803065  0.190663  0.749195  1
  Y  Y5  1  0.196698  0.387581  0.250711  1
  Al  Al6  1  0.326600  0.663300  0.015088  1
  Al  Al7  1  0.673528  0.336803  0.984779  1
  Al  Al8  1  0.666563  0.333294  0.514619  1
  Al  Al9  1  0.333492  0.666734  0.485490  1
  Al  Al10  1  0.159052  0.319296  0.576450  1
  Al  Al11  1  0.840987  0.680725  0.423756  1
  Al  Al12  1  0.680615  0.840307  0.574581  1
  Al  Al13  1  0.841692  0.679653  0.074717  1
  Al  Al14  1  0.319432  0.159682  0.425584  1
  Al  Al15  1  0.158331  0.320358  0.925046  1
  Al  Al16  1  0.159003  0.839754  0.576355  1
  Al  Al17  1  0.321457  0.160669  0.075050  1
  Al  Al18  1  0.840907  0.160201  0.423847  1
  Al  Al19  1  0.678610  0.839312  0.924781  1
  Al  Al20  1  0.841575  0.161937  0.074630  1
  Al  Al21  1  0.158305  0.837968  0.925161  1
  Al  Al22  1  0.563811  0.124841  0.249087  1
  Al  Al23  1  0.436206  0.875216  0.750901  1
  Al  Al24  1  0.882547  0.441375  0.244260  1
  Al  Al25  1  0.117333  0.558674  0.755809  1
  Al  Al26  1  0.563855  0.439052  0.249112  1
  Al  Al27  1  0.436192  0.561036  0.750922  1
  Al  Al28  1  0.000590  0.999931  0.250235  1
  Al  Al29  1  0.999197  0.999573  0.749734  1
  Co  Co30  1  0.999992  0.500030  0.000008  1
  Co  Co31  1  0.999979  0.000007  0.000050  1
  Co  Co32  1  0.999984  0.000025  0.499918  1
  Os  Os33  1  0.500020  0.000021  0.999990  1
  Os  Os34  1  0.499984  0.999986  0.499977  1
  Os  Os35  1  0.500128  0.500050  0.999911  1
  Os  Os36  1  0.999988  0.500041  0.500085  1
  Os  Os37  1  0.500173  0.500077  0.500150  1
