# generated using pymatgen
data_Ho8Mg2Sc10Si15P
_symmetry_space_group_name_H-M   'P 1'
_cell_length_a   7.00651794
_cell_length_b   7.37609532
_cell_length_c   13.92489400
_cell_angle_alpha   90.00000000
_cell_angle_beta   90.00000000
_cell_angle_gamma   89.65207353
_symmetry_Int_Tables_number   1
_chemical_formula_structural   Ho8Mg2Sc10Si15P
_chemical_formula_sum   'Ho8 Mg2 Sc10 Si15 P1'
_cell_volume   719.63561679
_cell_formula_units_Z   1
loop_
 _symmetry_equiv_pos_site_id
 _symmetry_equiv_pos_as_xyz
  1  'x, y, z'
loop_
 _atom_site_type_symbol
 _atom_site_label
 _atom_site_symmetry_multiplicity
 _atom_site_fract_x
 _atom_site_fract_y
 _atom_site_fract_z
 _atom_site_occupancy
  Ho  Ho0  1  0.007686  0.178965  0.097390  1
  Ho  Ho1  1  0.992153  0.824196  0.900857  1
  Ho  Ho2  1  0.489067  0.675296  0.904082  1
  Ho  Ho3  1  0.992153  0.824196  0.599143  1
  Ho  Ho4  1  0.512301  0.325315  0.095681  1
  Ho  Ho5  1  0.007686  0.178965  0.402610  1
  Ho  Ho6  1  0.512301  0.325315  0.404319  1
  Ho  Ho7  1  0.489067  0.675296  0.595918  1
  Mg  Mg8  1  0.162991  0.512317  0.750000  1
  Mg  Mg9  1  0.839369  0.495621  0.250000  1
  Sc  Sc10  1  0.338356  0.003958  0.250000  1
  Sc  Sc11  1  0.663513  0.996295  0.750000  1
  Sc  Sc12  1  0.324596  0.177334  0.626697  1
  Sc  Sc13  1  0.670077  0.821317  0.375919  1
  Sc  Sc14  1  0.164320  0.679507  0.375291  1
  Sc  Sc15  1  0.670077  0.821317  0.124081  1
  Sc  Sc16  1  0.838873  0.318107  0.627704  1
  Sc  Sc17  1  0.324596  0.177334  0.873303  1
  Sc  Sc18  1  0.838873  0.318107  0.872296  1
  Sc  Sc19  1  0.164320  0.679507  0.124709  1
  Si  Si20  1  0.966095  0.897264  0.250000  1
  Si  Si21  1  0.460830  0.616918  0.250000  1
  Si  Si22  1  0.537735  0.382313  0.750000  1
  Si  Si23  1  0.297666  0.875566  0.750000  1
  Si  Si24  1  0.708198  0.119855  0.250000  1
  Si  Si25  1  0.221121  0.373450  0.250000  1
  Si  Si26  1  0.779176  0.624744  0.750000  1
  Si  Si27  1  0.160172  0.461035  0.535025  1
  Si  Si28  1  0.839130  0.539170  0.468045  1
  Si  Si29  1  0.338558  0.967863  0.460691  1
  Si  Si30  1  0.839130  0.539170  0.031955  1
  Si  Si31  1  0.660128  0.033948  0.541074  1
  Si  Si32  1  0.160172  0.461035  0.964975  1
  Si  Si33  1  0.660128  0.033948  0.958926  1
  Si  Si34  1  0.338558  0.967863  0.039309  1
  P  P35  1  0.030830  0.097593  0.750000  1
