# generated using pymatgen
data_YTm3(InAu2)2
_symmetry_space_group_name_H-M   'P 1'
_cell_length_a   7.94727905
_cell_length_b   7.94727905
_cell_length_c   3.68778800
_cell_angle_alpha   90.00000000
_cell_angle_beta   90.00000000
_cell_angle_gamma   90.43036394
_symmetry_Int_Tables_number   1
_chemical_formula_structural   YTm3(InAu2)2
_chemical_formula_sum   'Y1 Tm3 In2 Au4'
_cell_volume   232.91133257
_cell_formula_units_Z   1
loop_
 _symmetry_equiv_pos_site_id
 _symmetry_equiv_pos_as_xyz
  1  'x, y, z'
loop_
 _atom_site_type_symbol
 _atom_site_label
 _atom_site_symmetry_multiplicity
 _atom_site_fract_x
 _atom_site_fract_y
 _atom_site_fract_z
 _atom_site_occupancy
  Y  Y0  1  0.169112  0.330888  0.000000  1
  Tm  Tm1  1  0.830882  0.669118  0.000000  1
  Tm  Tm2  1  0.669095  0.168299  0.000000  1
  Tm  Tm3  1  0.331701  0.830905  0.000000  1
  In  In4  1  0.999525  0.999422  0.500000  1
  In  In5  1  0.500578  0.500475  0.500000  1
  Au  Au6  1  0.373364  0.126636  0.500000  1
  Au  Au7  1  0.630026  0.869974  0.500000  1
  Au  Au8  1  0.867692  0.371974  0.500000  1
  Au  Au9  1  0.128026  0.632308  0.500000  1
