# generated using pymatgen
data_Er4Al17GeIr6
_symmetry_space_group_name_H-M   'P 1'
_cell_length_a   7.54334104
_cell_length_b   7.54334005
_cell_length_c   9.43592800
_cell_angle_alpha   90.00000000
_cell_angle_beta   90.00000000
_cell_angle_gamma   119.57624138
_symmetry_Int_Tables_number   1
_chemical_formula_structural   Er4Al17GeIr6
_chemical_formula_sum   'Er4 Al17 Ge1 Ir6'
_cell_volume   466.96180126
_cell_formula_units_Z   1
loop_
 _symmetry_equiv_pos_site_id
 _symmetry_equiv_pos_as_xyz
  1  'x, y, z'
loop_
 _atom_site_type_symbol
 _atom_site_label
 _atom_site_symmetry_multiplicity
 _atom_site_fract_x
 _atom_site_fract_y
 _atom_site_fract_z
 _atom_site_occupancy
  Er  Er0  1  0.994715  0.677187  0.250000  1
  Er  Er1  1  0.003319  0.328228  0.750000  1
  Er  Er2  1  0.677187  0.994715  0.250000  1
  Er  Er3  1  0.328228  0.003319  0.750000  1
  Al  Al4  1  0.871740  0.871740  0.750000  1
  Al  Al5  1  0.999990  0.337998  0.074341  1
  Al  Al6  1  0.998370  0.664495  0.924274  1
  Al  Al7  1  0.998370  0.664495  0.575726  1
  Al  Al8  1  0.337998  0.999990  0.425659  1
  Al  Al9  1  0.999990  0.337998  0.425659  1
  Al  Al10  1  0.664495  0.998370  0.575726  1
  Al  Al11  1  0.664495  0.998370  0.924274  1
  Al  Al12  1  0.337998  0.999990  0.074341  1
  Al  Al13  1  0.332295  0.332295  0.560345  1
  Al  Al14  1  0.663895  0.663895  0.447440  1
  Al  Al15  1  0.663895  0.663895  0.052560  1
  Al  Al16  1  0.332295  0.332295  0.939655  1
  Al  Al17  1  0.337429  0.554446  0.250000  1
  Al  Al18  1  0.661177  0.450672  0.750000  1
  Al  Al19  1  0.554446  0.337429  0.250000  1
  Al  Al20  1  0.450672  0.661177  0.750000  1
  Ge  Ge21  1  0.136428  0.136428  0.250000  1
  Ir  Ir22  1  0.669745  0.326292  0.000161  1
  Ir  Ir23  1  0.326292  0.669745  0.000161  1
  Ir  Ir24  1  0.326292  0.669745  0.499839  1
  Ir  Ir25  1  0.669745  0.326292  0.499839  1
  Ir  Ir26  1  0.999251  0.999251  0.001213  1
  Ir  Ir27  1  0.999251  0.999251  0.498787  1
