# generated using pymatgen
data_CeHo3Re4F28
_symmetry_space_group_name_H-M   'P 1'
_cell_length_a   5.58821308
_cell_length_b   8.90619174
_cell_length_c   12.05495100
_cell_angle_alpha   62.65183791
_cell_angle_beta   89.99053651
_cell_angle_gamma   89.99868257
_symmetry_Int_Tables_number   1
_chemical_formula_structural   CeHo3Re4F28
_chemical_formula_sum   'Ce1 Ho3 Re4 F28'
_cell_volume   532.91329461
_cell_formula_units_Z   1
loop_
 _symmetry_equiv_pos_site_id
 _symmetry_equiv_pos_as_xyz
  1  'x, y, z'
loop_
 _atom_site_type_symbol
 _atom_site_label
 _atom_site_symmetry_multiplicity
 _atom_site_fract_x
 _atom_site_fract_y
 _atom_site_fract_z
 _atom_site_occupancy
  Ce  Ce0  1  0.758702  0.815434  0.765106  1
  Ho  Ho1  1  0.259553  0.192464  0.734843  1
  Ho  Ho2  1  0.241431  0.186000  0.235379  1
  Ho  Ho3  1  0.741667  0.815552  0.264676  1
  Re  Re4  1  0.757118  0.267709  0.959495  1
  Re  Re5  1  0.255372  0.726930  0.538073  1
  Re  Re6  1  0.242791  0.725894  0.048200  1
  Re  Re7  1  0.741893  0.276796  0.454256  1
  F  F8  1  0.436503  0.702580  0.920263  1
  F  F9  1  0.946044  0.294131  0.582048  1
  F  F10  1  0.552726  0.291172  0.084302  1
  F  F11  1  0.054239  0.706036  0.411605  1
  F  F12  1  0.446316  0.278486  0.546012  1
  F  F13  1  0.943971  0.717520  0.963268  1
  F  F14  1  0.557692  0.723885  0.452013  1
  F  F15  1  0.054462  0.274405  0.048092  1
  F  F16  1  0.775019  0.514981  0.860389  1
  F  F17  1  0.273088  0.477949  0.638736  1
  F  F18  1  0.229274  0.476363  0.144750  1
  F  F19  1  0.725958  0.525375  0.357448  1
  F  F20  1  0.756793  0.018974  0.055493  1
  F  F21  1  0.255750  0.976217  0.444022  1
  F  F22  1  0.242018  0.974517  0.947779  1
  F  F23  1  0.743376  0.028180  0.547197  1
  F  F24  1  0.966028  0.722356  0.632828  1
  F  F25  1  0.469773  0.272301  0.861656  1
  F  F26  1  0.026600  0.273872  0.357710  1
  F  F27  1  0.531552  0.727563  0.142419  1
  F  F28  1  0.048469  0.746671  0.177801  1
  F  F29  1  0.543345  0.256672  0.325140  1
  F  F30  1  0.954719  0.250806  0.828408  1
  F  F31  1  0.441712  0.742638  0.671608  1
  F  F32  1  0.418927  0.971384  0.232433  1
  F  F33  1  0.918831  0.030245  0.267607  1
  F  F34  1  0.586328  0.043139  0.769626  1
  F  F35  1  0.101962  0.974807  0.729321  1
