# generated using pymatgen
data_Tm4InPd4Pb
_symmetry_space_group_name_H-M   'P 1'
_cell_length_a   7.79332300
_cell_length_b   7.79332300
_cell_length_c   3.59622900
_cell_angle_alpha   90.00000000
_cell_angle_beta   90.00000000
_cell_angle_gamma   90.00000000
_symmetry_Int_Tables_number   1
_chemical_formula_structural   Tm4InPd4Pb
_chemical_formula_sum   'Tm4 In1 Pd4 Pb1'
_cell_volume   218.42014516
_cell_formula_units_Z   1
loop_
 _symmetry_equiv_pos_site_id
 _symmetry_equiv_pos_as_xyz
  1  'x, y, z'
loop_
 _atom_site_type_symbol
 _atom_site_label
 _atom_site_symmetry_multiplicity
 _atom_site_fract_x
 _atom_site_fract_y
 _atom_site_fract_z
 _atom_site_occupancy
  Tm  Tm0  1  0.332660  0.825105  0.500000  1
  Tm  Tm1  1  0.825105  0.667340  0.500000  1
  Tm  Tm2  1  0.174895  0.332660  0.500000  1
  Tm  Tm3  1  0.667340  0.174895  0.500000  1
  In  In4  1  0.500000  0.500000  0.000000  1
  Pd  Pd5  1  0.376220  0.130195  0.000000  1
  Pd  Pd6  1  0.869805  0.376220  0.000000  1
  Pd  Pd7  1  0.130195  0.623780  0.000000  1
  Pd  Pd8  1  0.623780  0.869805  0.000000  1
  Pb  Pb9  1  0.000000  0.000000  0.000000  1
