# generated using pymatgen
data_Hf6Co15Si7Ni
_symmetry_space_group_name_H-M   'P 1'
_cell_length_a   8.01516791
_cell_length_b   8.01497354
_cell_length_c   8.01516800
_cell_angle_alpha   59.99919742
_cell_angle_beta   59.99999963
_cell_angle_gamma   59.99919517
_symmetry_Int_Tables_number   1
_chemical_formula_structural   Hf6Co15Si7Ni
_chemical_formula_sum   'Hf6 Co15 Si7 Ni1'
_cell_volume   364.08859310
_cell_formula_units_Z   1
loop_
 _symmetry_equiv_pos_site_id
 _symmetry_equiv_pos_as_xyz
  1  'x, y, z'
loop_
 _atom_site_type_symbol
 _atom_site_label
 _atom_site_symmetry_multiplicity
 _atom_site_fract_x
 _atom_site_fract_y
 _atom_site_fract_z
 _atom_site_occupancy
  Hf  Hf0  1  0.794648  0.202358  0.794648  1
  Hf  Hf1  1  0.795609  0.795672  0.204360  1
  Hf  Hf2  1  0.204360  0.795672  0.795609  1
  Hf  Hf3  1  0.208347  0.202358  0.794648  1
  Hf  Hf4  1  0.794648  0.202358  0.208347  1
  Hf  Hf5  1  0.204360  0.795672  0.204360  1
  Co  Co6  1  0.169456  0.171136  0.169456  1
  Co  Co7  1  0.619749  0.618737  0.141766  1
  Co  Co8  1  0.380005  0.380343  0.380005  1
  Co  Co9  1  0.170666  0.488003  0.170666  1
  Co  Co10  1  0.169456  0.171136  0.489953  1
  Co  Co11  1  0.141766  0.618737  0.619749  1
  Co  Co12  1  0.619574  0.141280  0.619574  1
  Co  Co13  1  0.830278  0.831302  0.830278  1
  Co  Co14  1  0.859645  0.380343  0.380005  1
  Co  Co15  1  0.380005  0.380343  0.859645  1
  Co  Co16  1  0.379646  0.861060  0.379646  1
  Co  Co17  1  0.508141  0.831302  0.830278  1
  Co  Co18  1  0.619749  0.618737  0.619749  1
  Co  Co19  1  0.830278  0.831302  0.508141  1
  Co  Co20  1  0.489953  0.171136  0.169456  1
  Si  Si21  1  0.999501  0.501323  0.999501  1
  Si  Si22  1  0.499989  0.500032  0.499989  1
  Si  Si23  1  0.499676  0.501323  0.999501  1
  Si  Si24  1  0.499980  0.999364  0.499980  1
  Si  Si25  1  0.999501  0.501323  0.499676  1
  Si  Si26  1  0.000676  0.999364  0.499980  1
  Si  Si27  1  0.499980  0.999364  0.000676  1
  Ni  Ni28  1  0.830360  0.508920  0.830360  1
