# generated using pymatgen
data_Li3Sc4Pd9
_symmetry_space_group_name_H-M   'P 1'
_cell_length_a   6.93812246
_cell_length_b   6.93812262
_cell_length_c   6.93812100
_cell_angle_alpha   105.00593106
_cell_angle_beta   105.00592288
_cell_angle_gamma   118.82670484
_symmetry_Int_Tables_number   1
_chemical_formula_structural   Li3Sc4Pd9
_chemical_formula_sum   'Li3 Sc4 Pd9'
_cell_volume   251.88565419
_cell_formula_units_Z   1
loop_
 _symmetry_equiv_pos_site_id
 _symmetry_equiv_pos_as_xyz
  1  'x, y, z'
loop_
 _atom_site_type_symbol
 _atom_site_label
 _atom_site_symmetry_multiplicity
 _atom_site_fract_x
 _atom_site_fract_y
 _atom_site_fract_z
 _atom_site_occupancy
  Li  Li0  1  0.500000  0.000000  0.500000  1
  Li  Li1  1  0.000000  0.500000  0.500000  1
  Li  Li2  1  0.500000  0.500000  0.000000  1
  Sc  Sc3  1  0.232988  0.233037  0.466023  1
  Sc  Sc4  1  0.767012  0.766963  0.533977  1
  Sc  Sc5  1  0.232984  0.766963  0.999951  1
  Sc  Sc6  1  0.767016  0.233037  0.000049  1
  Pd  Pd7  1  0.523247  0.271356  0.251885  1
  Pd  Pd8  1  0.476753  0.728644  0.748115  1
  Pd  Pd9  1  0.019472  0.271356  0.748111  1
  Pd  Pd10  1  0.271353  0.019460  0.748107  1
  Pd  Pd11  1  0.980528  0.728644  0.251889  1
  Pd  Pd12  1  0.728647  0.980540  0.251893  1
  Pd  Pd13  1  0.271366  0.523264  0.251897  1
  Pd  Pd14  1  0.728634  0.476736  0.748103  1
  Pd  Pd15  1  0.000000  0.000000  0.000000  1
