# generated using pymatgen
data_Cd3Os3RuPbO14
_symmetry_space_group_name_H-M   'P 1'
_cell_length_a   7.32790998
_cell_length_b   7.28021465
_cell_length_c   7.28021461
_cell_angle_alpha   60.28765414
_cell_angle_beta   60.43537019
_cell_angle_gamma   60.43537436
_symmetry_Int_Tables_number   1
_chemical_formula_structural   Cd3Os3RuPbO14
_chemical_formula_sum   'Cd3 Os3 Ru1 Pb1 O14'
_cell_volume   277.03065835
_cell_formula_units_Z   1
loop_
 _symmetry_equiv_pos_site_id
 _symmetry_equiv_pos_as_xyz
  1  'x, y, z'
loop_
 _atom_site_type_symbol
 _atom_site_label
 _atom_site_symmetry_multiplicity
 _atom_site_fract_x
 _atom_site_fract_y
 _atom_site_fract_z
 _atom_site_occupancy
  Cd  Cd0  1  0.125000  0.125000  0.125000  1
  Cd  Cd1  1  0.125000  0.625000  0.125000  1
  Cd  Cd2  1  0.125000  0.125000  0.625000  1
  Os  Os3  1  0.125000  0.625000  0.625000  1
  Os  Os4  1  0.625000  0.125000  0.625000  1
  Os  Os5  1  0.625000  0.625000  0.125000  1
  Ru  Ru6  1  0.625000  0.625000  0.625000  1
  Pb  Pb7  1  0.625000  0.125000  0.125000  1
  O  O8  1  0.222665  0.259410  0.259410  1
  O  O9  1  0.027335  0.990590  0.990590  1
  O  O10  1  0.559335  0.948791  0.550369  1
  O  O11  1  0.310535  0.691964  0.308358  1
  O  O12  1  0.559335  0.550369  0.948791  1
  O  O13  1  0.945366  0.558373  0.558373  1
  O  O14  1  0.558455  0.942776  0.942776  1
  O  O15  1  0.939465  0.941642  0.558036  1
  O  O16  1  0.939465  0.558036  0.941642  1
  O  O17  1  0.691545  0.307224  0.307224  1
  O  O18  1  0.304634  0.691627  0.691627  1
  O  O19  1  0.690665  0.301209  0.699631  1
  O  O20  1  0.310535  0.308358  0.691964  1
  O  O21  1  0.690665  0.699631  0.301209  1
