# generated using pymatgen
data_KTh3S4
_symmetry_space_group_name_H-M   'P 1'
_cell_length_a   4.08032000
_cell_length_b   4.08032056
_cell_length_c   28.12946000
_cell_angle_alpha   90.00000000
_cell_angle_beta   90.00000000
_cell_angle_gamma   119.99997924
_symmetry_Int_Tables_number   1
_chemical_formula_structural   KTh3S4
_chemical_formula_sum   'K2 Th6 S8'
_cell_volume   405.58382384
_cell_formula_units_Z   2
loop_
 _symmetry_equiv_pos_site_id
 _symmetry_equiv_pos_as_xyz
  1  'x, y, z'
loop_
 _atom_site_type_symbol
 _atom_site_label
 _atom_site_symmetry_multiplicity
 _atom_site_fract_x
 _atom_site_fract_y
 _atom_site_fract_z
 _atom_site_occupancy
  K  K0  1  0.666667  0.333333  0.250000  1
  K  K1  1  0.333333  0.666667  0.750000  1
  Th  Th2  1  0.666667  0.333333  0.614441  1
  Th  Th3  1  0.666667  0.333333  0.885559  1
  Th  Th4  1  0.333333  0.666667  0.385559  1
  Th  Th5  1  0.333333  0.666667  0.114441  1
  Th  Th6  1  0.000000  0.000000  0.500000  1
  Th  Th7  1  0.000000  0.000000  0.000000  1
  S  S8  1  0.000000  0.000000  0.172859  1
  S  S9  1  0.666667  0.333333  0.442535  1
  S  S10  1  0.000000  0.000000  0.672859  1
  S  S11  1  0.333333  0.666667  0.942535  1
  S  S12  1  0.333333  0.666667  0.557465  1
  S  S13  1  0.000000  0.000000  0.327141  1
  S  S14  1  0.666667  0.333333  0.057465  1
  S  S15  1  0.000000  0.000000  0.827141  1
