# generated using pymatgen
data_CeY3(BeSi3)2
_symmetry_space_group_name_H-M   'P 1'
_cell_length_a   7.85816000
_cell_length_b   7.85815984
_cell_length_c   8.21725000
_cell_angle_alpha   90.00000000
_cell_angle_beta   90.00000000
_cell_angle_gamma   120.00000068
_symmetry_Int_Tables_number   1
_chemical_formula_structural   CeY3(BeSi3)2
_chemical_formula_sum   'Ce2 Y6 Be4 Si12'
_cell_volume   439.43925962
_cell_formula_units_Z   2
loop_
 _symmetry_equiv_pos_site_id
 _symmetry_equiv_pos_as_xyz
  1  'x, y, z'
loop_
 _atom_site_type_symbol
 _atom_site_label
 _atom_site_symmetry_multiplicity
 _atom_site_fract_x
 _atom_site_fract_y
 _atom_site_fract_z
 _atom_site_occupancy
  Ce  Ce0  1  0.000000  0.000000  0.250000  1
  Ce  Ce1  1  0.000000  0.000000  0.750000  1
  Y  Y2  1  0.999877  0.499938  0.250000  1
  Y  Y3  1  0.500062  0.499938  0.250000  1
  Y  Y4  1  0.499938  0.999877  0.750000  1
  Y  Y5  1  0.500062  0.000123  0.250000  1
  Y  Y6  1  0.499938  0.500062  0.750000  1
  Y  Y7  1  0.000123  0.500062  0.750000  1
  Be  Be8  1  0.333333  0.666667  0.999389  1
  Be  Be9  1  0.333333  0.666667  0.500611  1
  Be  Be10  1  0.666667  0.333333  0.000611  1
  Be  Be11  1  0.666667  0.333333  0.499389  1
  Si  Si12  1  0.172677  0.345354  0.000067  1
  Si  Si13  1  0.654646  0.827323  0.000067  1
  Si  Si14  1  0.172677  0.345354  0.499933  1
  Si  Si15  1  0.345354  0.172677  0.999933  1
  Si  Si16  1  0.172677  0.827323  0.000067  1
  Si  Si17  1  0.654646  0.827323  0.499933  1
  Si  Si18  1  0.827323  0.654646  0.999933  1
  Si  Si19  1  0.345354  0.172677  0.500067  1
  Si  Si20  1  0.172677  0.827323  0.499933  1
  Si  Si21  1  0.827323  0.654646  0.500067  1
  Si  Si22  1  0.827323  0.172677  0.999933  1
  Si  Si23  1  0.827323  0.172677  0.500067  1
