# generated using pymatgen
data_Dy9ScCd3Co
_symmetry_space_group_name_H-M   'P 1'
_cell_length_a   9.53568800
_cell_length_b   9.53568969
_cell_length_c   9.65693600
_cell_angle_alpha   90.00000000
_cell_angle_beta   90.00000000
_cell_angle_gamma   119.99999414
_symmetry_Int_Tables_number   1
_chemical_formula_structural   Dy9ScCd3Co
_chemical_formula_sum   'Dy18 Sc2 Cd6 Co2'
_cell_volume   760.45610910
_cell_formula_units_Z   2
loop_
 _symmetry_equiv_pos_site_id
 _symmetry_equiv_pos_as_xyz
  1  'x, y, z'
loop_
 _atom_site_type_symbol
 _atom_site_label
 _atom_site_symmetry_multiplicity
 _atom_site_fract_x
 _atom_site_fract_y
 _atom_site_fract_z
 _atom_site_occupancy
  Dy  Dy0  1  0.542654  0.457346  0.250000  1
  Dy  Dy1  1  0.542654  0.085306  0.250000  1
  Dy  Dy2  1  0.914694  0.457346  0.250000  1
  Dy  Dy3  1  0.457346  0.542654  0.750000  1
  Dy  Dy4  1  0.457346  0.914694  0.750000  1
  Dy  Dy5  1  0.085306  0.542654  0.750000  1
  Dy  Dy6  1  0.210415  0.789585  0.437256  1
  Dy  Dy7  1  0.210415  0.420831  0.437256  1
  Dy  Dy8  1  0.579169  0.789585  0.437256  1
  Dy  Dy9  1  0.789585  0.210415  0.562744  1
  Dy  Dy10  1  0.789585  0.579169  0.562744  1
  Dy  Dy11  1  0.420831  0.210415  0.562744  1
  Dy  Dy12  1  0.789585  0.210415  0.937256  1
  Dy  Dy13  1  0.789585  0.579169  0.937256  1
  Dy  Dy14  1  0.420831  0.210415  0.937256  1
  Dy  Dy15  1  0.210415  0.789585  0.062744  1
  Dy  Dy16  1  0.210415  0.420831  0.062744  1
  Dy  Dy17  1  0.579169  0.789585  0.062744  1
  Sc  Sc18  1  0.000000  0.000000  0.500000  1
  Sc  Sc19  1  0.000000  0.000000  0.000000  1
  Cd  Cd20  1  0.888448  0.111552  0.250000  1
  Cd  Cd21  1  0.888448  0.776896  0.250000  1
  Cd  Cd22  1  0.223104  0.111552  0.250000  1
  Cd  Cd23  1  0.111552  0.888448  0.750000  1
  Cd  Cd24  1  0.111552  0.223104  0.750000  1
  Cd  Cd25  1  0.776896  0.888448  0.750000  1
  Co  Co26  1  0.333333  0.666667  0.250000  1
  Co  Co27  1  0.666667  0.333333  0.750000  1
