# generated using pymatgen
data_YHoEr3P12Ru19
_symmetry_space_group_name_H-M   'P 1'
_cell_length_a   12.52640900
_cell_length_b   12.52345510
_cell_length_c   3.97526000
_cell_angle_alpha   90.00000000
_cell_angle_beta   90.00000000
_cell_angle_gamma   119.99141334
_symmetry_Int_Tables_number   1
_chemical_formula_structural   YHoEr3P12Ru19
_chemical_formula_sum   'Y1 Ho1 Er3 P12 Ru19'
_cell_volume   540.11282802
_cell_formula_units_Z   1
loop_
 _symmetry_equiv_pos_site_id
 _symmetry_equiv_pos_as_xyz
  1  'x, y, z'
loop_
 _atom_site_type_symbol
 _atom_site_label
 _atom_site_symmetry_multiplicity
 _atom_site_fract_x
 _atom_site_fract_y
 _atom_site_fract_z
 _atom_site_occupancy
  Y  Y0  1  0.999999  0.183446  0.500000  1
  Ho  Ho1  1  0.333328  0.666760  0.000000  1
  Er  Er2  1  0.816694  0.816702  0.500000  1
  Er  Er3  1  0.183303  0.000033  0.500000  1
  Er  Er4  1  0.666699  0.333460  0.000000  1
  P  P5  1  0.999989  0.815461  0.000000  1
  P  P6  1  0.184536  0.184069  0.000000  1
  P  P7  1  0.815474  0.999555  0.000000  1
  P  P8  1  0.693440  0.171655  0.500000  1
  P  P9  1  0.828328  0.521985  0.500000  1
  P  P10  1  0.478343  0.306572  0.500000  1
  P  P11  1  0.171587  0.693688  0.500000  1
  P  P12  1  0.521771  0.828317  0.500000  1
  P  P13  1  0.306531  0.478103  0.500000  1
  P  P14  1  0.000015  0.372683  0.000000  1
  P  P15  1  0.627726  0.627708  0.000000  1
  P  P16  1  0.372256  0.999950  0.000000  1
  Ru  Ru17  1  0.000009  0.554577  0.000000  1
  Ru  Ru18  1  0.445870  0.445647  0.000000  1
  Ru  Ru19  1  0.554119  0.999760  0.000000  1
  Ru  Ru20  1  0.999980  0.717039  0.500000  1
  Ru  Ru21  1  0.283523  0.283164  0.500000  1
  Ru  Ru22  1  0.716498  0.999676  0.500000  1
  Ru  Ru23  1  0.806996  0.184822  0.000000  1
  Ru  Ru24  1  0.815072  0.622938  0.000000  1
  Ru  Ru25  1  0.377219  0.192087  0.000000  1
  Ru  Ru26  1  0.184857  0.807905  0.000000  1
  Ru  Ru27  1  0.622889  0.814930  0.000000  1
  Ru  Ru28  1  0.192961  0.377711  0.000000  1
  Ru  Ru29  1  0.873695  0.366065  0.500000  1
  Ru  Ru30  1  0.634208  0.507954  0.500000  1
  Ru  Ru31  1  0.492200  0.126306  0.500000  1
  Ru  Ru32  1  0.365798  0.873941  0.500000  1
  Ru  Ru33  1  0.507980  0.634095  0.500000  1
  Ru  Ru34  1  0.126109  0.492178  0.500000  1
  Ru  Ru35  1  0.999996  0.999061  0.000000  1
