# generated using pymatgen
data_Hf3ZrSi3WN
_symmetry_space_group_name_H-M   'P 1'
_cell_length_a   7.76062185
_cell_length_b   7.74084560
_cell_length_c   5.46726560
_cell_angle_alpha   89.97304676
_cell_angle_beta   90.05376912
_cell_angle_gamma   120.08455219
_symmetry_Int_Tables_number   1
_chemical_formula_structural   Hf3ZrSi3WN
_chemical_formula_sum   'Hf6 Zr2 Si6 W2 N2'
_cell_volume   284.19398968
_cell_formula_units_Z   2
loop_
 _symmetry_equiv_pos_site_id
 _symmetry_equiv_pos_as_xyz
  1  'x, y, z'
loop_
 _atom_site_type_symbol
 _atom_site_label
 _atom_site_symmetry_multiplicity
 _atom_site_fract_x
 _atom_site_fract_y
 _atom_site_fract_z
 _atom_site_occupancy
  Hf  Hf0  1  0.001170  0.234054  0.247596  1
  Hf  Hf1  1  0.998830  0.765946  0.752404  1
  Hf  Hf2  1  0.767116  0.765946  0.247596  1
  Hf  Hf3  1  0.232884  0.234054  0.752404  1
  Hf  Hf4  1  0.667410  0.334818  0.500000  1
  Hf  Hf5  1  0.332590  0.665182  0.500000  1
  Zr  Zr6  1  0.239335  0.000000  0.249566  1
  Zr  Zr7  1  0.760665  0.000000  0.750434  1
  Si  Si8  1  0.592905  0.000000  0.227186  1
  Si  Si9  1  0.407095  0.000000  0.772814  1
  Si  Si10  1  0.999983  0.589134  0.225395  1
  Si  Si11  1  0.000017  0.410866  0.774605  1
  Si  Si12  1  0.410849  0.410866  0.225395  1
  Si  Si13  1  0.589151  0.589134  0.774605  1
  W  W14  1  0.332667  0.665334  0.000000  1
  W  W15  1  0.667333  0.334666  0.000000  1
  N  N16  1  0.000000  0.000000  0.000000  1
  N  N17  1  0.000000  0.000000  0.500000  1
