# generated using pymatgen
data_HoCr4(AuO4)3
_symmetry_space_group_name_H-M   'P 1'
_cell_length_a   6.59268458
_cell_length_b   6.59269677
_cell_length_c   6.59269800
_cell_angle_alpha   70.52639801
_cell_angle_beta   70.53193543
_cell_angle_gamma   109.47171742
_symmetry_Int_Tables_number   1
_chemical_formula_structural   HoCr4(AuO4)3
_chemical_formula_sum   'Ho1 Cr4 Au3 O12'
_cell_volume   220.58103962
_cell_formula_units_Z   1
loop_
 _symmetry_equiv_pos_site_id
 _symmetry_equiv_pos_as_xyz
  1  'x, y, z'
loop_
 _atom_site_type_symbol
 _atom_site_label
 _atom_site_symmetry_multiplicity
 _atom_site_fract_x
 _atom_site_fract_y
 _atom_site_fract_z
 _atom_site_occupancy
  Ho  Ho0  1  0.999972  0.999860  0.000079  1
  Cr  Cr1  1  0.999787  0.499773  0.000129  1
  Cr  Cr2  1  0.499749  0.499885  0.500205  1
  Cr  Cr3  1  0.500215  0.000116  0.999795  1
  Cr  Cr4  1  0.000176  0.000265  0.499823  1
  Au  Au5  1  0.499987  0.999979  0.500012  1
  Au  Au6  1  0.500028  0.500035  0.999974  1
  Au  Au7  1  0.000014  0.500044  0.499986  1
  O  O8  1  0.878384  0.707643  0.829228  1
  O  O9  1  0.463150  0.292399  0.829257  1
  O  O10  1  0.536882  0.707622  0.170746  1
  O  O11  1  0.121676  0.292414  0.170714  1
  O  O12  1  0.829417  0.121689  0.707654  1
  O  O13  1  0.829283  0.537047  0.292327  1
  O  O14  1  0.170590  0.462918  0.707762  1
  O  O15  1  0.170719  0.878427  0.292214  1
  O  O16  1  0.292456  0.170752  0.536812  1
  O  O17  1  0.707525  0.170709  0.121717  1
  O  O18  1  0.292442  0.829189  0.878324  1
  O  O19  1  0.707548  0.829235  0.463240  1
