# generated using pymatgen
data_Tb(SmHg2)5
_symmetry_space_group_name_H-M   'P 1'
_cell_length_a   6.45003496
_cell_length_b   6.45003468
_cell_length_c   10.41675300
_cell_angle_alpha   90.00000000
_cell_angle_beta   90.00000000
_cell_angle_gamma   104.96130215
_symmetry_Int_Tables_number   1
_chemical_formula_structural   Tb(SmHg2)5
_chemical_formula_sum   'Tb1 Sm5 Hg10'
_cell_volume   418.67666150
_cell_formula_units_Z   1
loop_
 _symmetry_equiv_pos_site_id
 _symmetry_equiv_pos_as_xyz
  1  'x, y, z'
loop_
 _atom_site_type_symbol
 _atom_site_label
 _atom_site_symmetry_multiplicity
 _atom_site_fract_x
 _atom_site_fract_y
 _atom_site_fract_z
 _atom_site_occupancy
  Tb  Tb0  1  0.430140  0.430140  0.750000  1
  Sm  Sm1  1  0.568044  0.568044  0.250000  1
  Sm  Sm2  1  0.210584  0.788721  0.500744  1
  Sm  Sm3  1  0.210584  0.788721  0.999256  1
  Sm  Sm4  1  0.788721  0.210584  0.500744  1
  Sm  Sm5  1  0.788721  0.210584  0.999256  1
  Hg  Hg6  1  0.972737  0.972737  0.250000  1
  Hg  Hg7  1  0.030389  0.030389  0.750000  1
  Hg  Hg8  1  0.294990  0.294990  0.024828  1
  Hg  Hg9  1  0.704096  0.704096  0.969731  1
  Hg  Hg10  1  0.294990  0.294990  0.475172  1
  Hg  Hg11  1  0.704096  0.704096  0.530269  1
  Hg  Hg12  1  0.475392  0.038111  0.250000  1
  Hg  Hg13  1  0.963528  0.524877  0.750000  1
  Hg  Hg14  1  0.524877  0.963528  0.750000  1
  Hg  Hg15  1  0.038111  0.475392  0.250000  1
