# generated using pymatgen
data_Dy2Ho3Tm11(InIr)4
_symmetry_space_group_name_H-M   'P 1'
_cell_length_a   9.59074890
_cell_length_b   9.58162225
_cell_length_c   9.58051310
_cell_angle_alpha   59.97510595
_cell_angle_beta   59.97230487
_cell_angle_gamma   59.96084172
_symmetry_Int_Tables_number   1
_chemical_formula_structural   Dy2Ho3Tm11(InIr)4
_chemical_formula_sum   'Dy2 Ho3 Tm11 In4 Ir4'
_cell_volume   622.10548090
_cell_formula_units_Z   1
loop_
 _symmetry_equiv_pos_site_id
 _symmetry_equiv_pos_as_xyz
  1  'x, y, z'
loop_
 _atom_site_type_symbol
 _atom_site_label
 _atom_site_symmetry_multiplicity
 _atom_site_fract_x
 _atom_site_fract_y
 _atom_site_fract_z
 _atom_site_occupancy
  Dy  Dy0  1  0.810255  0.810722  0.189398  1
  Dy  Dy1  1  0.189625  0.189398  0.810722  1
  Ho  Ho2  1  0.808465  0.191535  0.191535  1
  Ho  Ho3  1  0.809828  0.189792  0.810338  1
  Ho  Ho4  1  0.190043  0.810338  0.189792  1
  Tm  Tm5  1  0.597645  0.598595  0.598559  1
  Tm  Tm6  1  0.598013  0.600383  0.203576  1
  Tm  Tm7  1  0.598029  0.203576  0.600383  1
  Tm  Tm8  1  0.205201  0.598559  0.598595  1
  Tm  Tm9  1  0.060017  0.439983  0.439983  1
  Tm  Tm10  1  0.440138  0.059862  0.059862  1
  Tm  Tm11  1  0.440580  0.058942  0.440077  1
  Tm  Tm12  1  0.060401  0.440077  0.058942  1
  Tm  Tm13  1  0.440652  0.440157  0.058904  1
  Tm  Tm14  1  0.060287  0.058904  0.440157  1
  Tm  Tm15  1  0.190747  0.809253  0.809253  1
  In  In16  1  0.833989  0.832729  0.832437  1
  In  In17  1  0.832672  0.832620  0.502233  1
  In  In18  1  0.832474  0.502233  0.832620  1
  In  In19  1  0.500844  0.832437  0.832729  1
  Ir  Ir20  1  0.391632  0.390866  0.390554  1
  Ir  Ir21  1  0.390895  0.391806  0.826680  1
  Ir  Ir22  1  0.390621  0.826680  0.391806  1
  Ir  Ir23  1  0.826948  0.390554  0.390866  1
