# generated using pymatgen
data_Ti6Ga2CN
_symmetry_space_group_name_H-M   'P 1'
_cell_length_a   5.54966764
_cell_length_b   5.54966657
_cell_length_c   8.36247418
_cell_angle_alpha   90.11071098
_cell_angle_beta   89.88929033
_cell_angle_gamma   147.14123766
_symmetry_Int_Tables_number   1
_chemical_formula_structural   Ti6Ga2CN
_chemical_formula_sum   'Ti6 Ga2 C1 N1'
_cell_volume   139.74090688
_cell_formula_units_Z   1
loop_
 _symmetry_equiv_pos_site_id
 _symmetry_equiv_pos_as_xyz
  1  'x, y, z'
loop_
 _atom_site_type_symbol
 _atom_site_label
 _atom_site_symmetry_multiplicity
 _atom_site_fract_x
 _atom_site_fract_y
 _atom_site_fract_z
 _atom_site_occupancy
  Ti  Ti0  1  0.627556  0.372441  0.042570  1
  Ti  Ti1  1  0.960314  0.039683  0.250226  1
  Ti  Ti2  1  0.625167  0.374830  0.459817  1
  Ti  Ti3  1  0.374830  0.625167  0.540182  1
  Ti  Ti4  1  0.039683  0.960314  0.749774  1
  Ti  Ti5  1  0.372441  0.627556  0.957429  1
  Ga  Ga6  1  0.251756  0.748240  0.251662  1
  Ga  Ga7  1  0.748240  0.251756  0.748338  1
  C  C8  1  0.000000  0.000000  0.000000  1
  N  N9  1  0.000000  0.000000  0.500000  1
