# generated using pymatgen
data_Ho7Lu(B6Rh)4
_symmetry_space_group_name_H-M   'P 1'
_cell_length_a   3.64345600
_cell_length_b   9.14826852
_cell_length_c   11.48127465
_cell_angle_alpha   89.96141714
_cell_angle_beta   90.00000000
_cell_angle_gamma   90.00000000
_symmetry_Int_Tables_number   1
_chemical_formula_structural   Ho7Lu(B6Rh)4
_chemical_formula_sum   'Ho7 Lu1 B24 Rh4'
_cell_volume   382.68588171
_cell_formula_units_Z   1
loop_
 _symmetry_equiv_pos_site_id
 _symmetry_equiv_pos_as_xyz
  1  'x, y, z'
loop_
 _atom_site_type_symbol
 _atom_site_label
 _atom_site_symmetry_multiplicity
 _atom_site_fract_x
 _atom_site_fract_y
 _atom_site_fract_z
 _atom_site_occupancy
  Ho  Ho0  1  0.500000  0.321917  0.413422  1
  Ho  Ho1  1  0.500000  0.678011  0.585857  1
  Ho  Ho2  1  0.500000  0.177106  0.913766  1
  Ho  Ho3  1  0.500000  0.822825  0.086753  1
  Ho  Ho4  1  0.500000  0.444143  0.126941  1
  Ho  Ho5  1  0.500000  0.555701  0.873544  1
  Ho  Ho6  1  0.500000  0.055589  0.626106  1
  Lu  Lu7  1  0.500000  0.944207  0.373042  1
  B  B8  1  0.000000  0.107985  0.469637  1
  B  B9  1  0.000000  0.891228  0.528437  1
  B  B10  1  0.000000  0.388924  0.970136  1
  B  B11  1  0.000000  0.611081  0.030301  1
  B  B12  1  0.000000  0.131987  0.316482  1
  B  B13  1  0.000000  0.866856  0.683600  1
  B  B14  1  0.000000  0.366541  0.815994  1
  B  B15  1  0.000000  0.633619  0.184365  1
  B  B16  1  0.000000  0.053604  0.065914  1
  B  B17  1  0.000000  0.946048  0.934691  1
  B  B18  1  0.000000  0.446084  0.565188  1
  B  B19  1  0.000000  0.554665  0.434343  1
  B  B20  1  0.000000  0.483070  0.287167  1
  B  B21  1  0.000000  0.517043  0.712990  1
  B  B22  1  0.000000  0.017063  0.786825  1
  B  B23  1  0.000000  0.982263  0.214136  1
  B  B24  1  0.000000  0.248979  0.079721  1
  B  B25  1  0.000000  0.750908  0.920712  1
  B  B26  1  0.000000  0.250456  0.578971  1
  B  B27  1  0.000000  0.750963  0.420361  1
  B  B28  1  0.000000  0.293556  0.236232  1
  B  B29  1  0.000000  0.706034  0.763894  1
  B  B30  1  0.000000  0.205849  0.735685  1
  B  B31  1  0.000000  0.795242  0.264831  1
  Rh  Rh32  1  0.500000  0.138251  0.179420  1
  Rh  Rh33  1  0.500000  0.860671  0.820874  1
  Rh  Rh34  1  0.500000  0.360626  0.678620  1
  Rh  Rh35  1  0.500000  0.640904  0.321042  1
