# generated using pymatgen
data_Ca2Pr(CdPd)3
_symmetry_space_group_name_H-M   'P 1'
_cell_length_a   7.68769400
_cell_length_b   7.64968597
_cell_length_c   4.13067600
_cell_angle_alpha   90.00000000
_cell_angle_beta   90.00000000
_cell_angle_gamma   120.16449567
_symmetry_Int_Tables_number   1
_chemical_formula_structural   Ca2Pr(CdPd)3
_chemical_formula_sum   'Ca2 Pr1 Cd3 Pd3'
_cell_volume   210.02413119
_cell_formula_units_Z   1
loop_
 _symmetry_equiv_pos_site_id
 _symmetry_equiv_pos_as_xyz
  1  'x, y, z'
loop_
 _atom_site_type_symbol
 _atom_site_label
 _atom_site_symmetry_multiplicity
 _atom_site_fract_x
 _atom_site_fract_y
 _atom_site_fract_z
 _atom_site_occupancy
  Ca  Ca0  1  0.405756  0.405583  0.500000  1
  Ca  Ca1  1  0.000173  0.594417  0.500000  1
  Pr  Pr2  1  0.592950  0.000000  0.500000  1
  Cd  Cd3  1  0.747177  0.740858  0.000000  1
  Cd  Cd4  1  0.247537  0.000000  0.000000  1
  Cd  Cd5  1  0.006319  0.259142  0.000000  1
  Pd  Pd6  1  0.665118  0.326098  0.000000  1
  Pd  Pd7  1  0.995950  0.000000  0.500000  1
  Pd  Pd8  1  0.339019  0.673902  0.000000  1
