# generated using pymatgen
data_Zr10ZnCu(SnSb)3
_symmetry_space_group_name_H-M   'P 1'
_cell_length_a   8.67773700
_cell_length_b   8.67773615
_cell_length_c   5.86250600
_cell_angle_alpha   90.00000000
_cell_angle_beta   90.00000000
_cell_angle_gamma   119.99999942
_symmetry_Int_Tables_number   1
_chemical_formula_structural   Zr10ZnCu(SnSb)3
_chemical_formula_sum   'Zr10 Zn1 Cu1 Sn3 Sb3'
_cell_volume   382.31986076
_cell_formula_units_Z   1
loop_
 _symmetry_equiv_pos_site_id
 _symmetry_equiv_pos_as_xyz
  1  'x, y, z'
loop_
 _atom_site_type_symbol
 _atom_site_label
 _atom_site_symmetry_multiplicity
 _atom_site_fract_x
 _atom_site_fract_y
 _atom_site_fract_z
 _atom_site_occupancy
  Zr  Zr0  1  0.666667  0.333333  0.001174  1
  Zr  Zr1  1  0.333333  0.666667  0.001174  1
  Zr  Zr2  1  0.333333  0.666667  0.499082  1
  Zr  Zr3  1  0.666667  0.333333  0.499082  1
  Zr  Zr4  1  0.735682  0.735682  0.752788  1
  Zr  Zr5  1  0.264318  0.000000  0.752788  1
  Zr  Zr6  1  0.000000  0.264318  0.752788  1
  Zr  Zr7  1  0.267737  0.267737  0.247352  1
  Zr  Zr8  1  0.732263  0.000000  0.247352  1
  Zr  Zr9  1  0.000000  0.732263  0.247352  1
  Zn  Zn10  1  0.000000  0.000000  0.494785  1
  Cu  Cu11  1  0.000000  0.000000  0.005494  1
  Sn  Sn12  1  0.616574  0.616574  0.250878  1
  Sn  Sn13  1  0.383426  0.000000  0.250878  1
  Sn  Sn14  1  0.000000  0.383426  0.250878  1
  Sb  Sb15  1  0.386111  0.386111  0.748719  1
  Sb  Sb16  1  0.613889  0.000000  0.748719  1
  Sb  Sb17  1  0.000000  0.613889  0.748719  1
