# generated using pymatgen
data_Er3MgZn2Sn2Au
_symmetry_space_group_name_H-M   'P 1'
_cell_length_a   7.16213820
_cell_length_b   7.16213719
_cell_length_c   4.51639200
_cell_angle_alpha   90.00000000
_cell_angle_beta   90.00000000
_cell_angle_gamma   119.54205287
_symmetry_Int_Tables_number   1
_chemical_formula_structural   Er3MgZn2Sn2Au
_chemical_formula_sum   'Er3 Mg1 Zn2 Sn2 Au1'
_cell_volume   201.55484383
_cell_formula_units_Z   1
loop_
 _symmetry_equiv_pos_site_id
 _symmetry_equiv_pos_as_xyz
  1  'x, y, z'
loop_
 _atom_site_type_symbol
 _atom_site_label
 _atom_site_symmetry_multiplicity
 _atom_site_fract_x
 _atom_site_fract_y
 _atom_site_fract_z
 _atom_site_occupancy
  Er  Er0  1  0.584272  0.999153  0.000000  1
  Er  Er1  1  0.999153  0.584272  0.000000  1
  Er  Er2  1  0.404897  0.404897  0.000000  1
  Mg  Mg3  1  0.778880  0.778880  0.500000  1
  Zn  Zn4  1  0.235512  0.003672  0.500000  1
  Zn  Zn5  1  0.003672  0.235512  0.500000  1
  Sn  Sn6  1  0.328682  0.664709  0.500000  1
  Sn  Sn7  1  0.664709  0.328682  0.500000  1
  Au  Au8  1  0.000222  0.000222  0.000000  1
