# generated using pymatgen
data_MnBe6Ir3Rh2
_symmetry_space_group_name_H-M   'P 1'
_cell_length_a   3.92367000
_cell_length_b   5.60883800
_cell_length_c   11.86038900
_cell_angle_alpha   90.00000000
_cell_angle_beta   90.00003393
_cell_angle_gamma   90.00000000
_symmetry_Int_Tables_number   1
_chemical_formula_structural   MnBe6Ir3Rh2
_chemical_formula_sum   'Mn2 Be12 Ir6 Rh4'
_cell_volume   261.01430144
_cell_formula_units_Z   2
loop_
 _symmetry_equiv_pos_site_id
 _symmetry_equiv_pos_as_xyz
  1  'x, y, z'
loop_
 _atom_site_type_symbol
 _atom_site_label
 _atom_site_symmetry_multiplicity
 _atom_site_fract_x
 _atom_site_fract_y
 _atom_site_fract_z
 _atom_site_occupancy
  Mn  Mn0  1  0.999831  0.000000  0.666332  1
  Mn  Mn1  1  0.499854  0.500000  0.833718  1
  Be  Be2  1  0.500015  0.240888  0.003522  1
  Be  Be3  1  0.500015  0.759114  0.003522  1
  Be  Be4  1  0.000166  0.248914  0.165754  1
  Be  Be5  1  0.000166  0.751086  0.165754  1
  Be  Be6  1  0.500164  0.251065  0.334232  1
  Be  Be7  1  0.500164  0.748937  0.334232  1
  Be  Be8  1  0.000017  0.259069  0.496476  1
  Be  Be9  1  0.000017  0.740932  0.496476  1
  Be  Be10  1  0.499816  0.260110  0.662608  1
  Be  Be11  1  0.499816  0.739892  0.662608  1
  Be  Be12  1  0.999827  0.239896  0.837395  1
  Be  Be13  1  0.999827  0.760104  0.837395  1
  Ir  Ir14  1  0.000025  0.500000  0.991324  1
  Ir  Ir15  1  0.500120  0.000000  0.168581  1
  Ir  Ir16  1  0.000119  0.500000  0.331378  1
  Ir  Ir17  1  0.500020  0.000000  0.508716  1
  Ir  Ir18  1  0.999872  0.500000  0.675045  1
  Ir  Ir19  1  0.499871  0.000000  0.824973  1
  Rh  Rh20  1  0.000012  0.000000  0.998245  1
  Rh  Rh21  1  0.500132  0.500000  0.163579  1
  Rh  Rh22  1  0.000125  0.000000  0.336377  1
  Rh  Rh23  1  0.500012  0.500000  0.501754  1
