# generated using pymatgen
data_Tb3Dy(ZnPb)4
_symmetry_space_group_name_H-M   'P 1'
_cell_length_a   4.61638800
_cell_length_b   4.61638862
_cell_length_c   15.99113900
_cell_angle_alpha   90.00000000
_cell_angle_beta   90.00000000
_cell_angle_gamma   119.99999554
_symmetry_Int_Tables_number   1
_chemical_formula_structural   Tb3Dy(ZnPb)4
_chemical_formula_sum   'Tb3 Dy1 Zn4 Pb4'
_cell_volume   295.13092222
_cell_formula_units_Z   1
loop_
 _symmetry_equiv_pos_site_id
 _symmetry_equiv_pos_as_xyz
  1  'x, y, z'
loop_
 _atom_site_type_symbol
 _atom_site_label
 _atom_site_symmetry_multiplicity
 _atom_site_fract_x
 _atom_site_fract_y
 _atom_site_fract_z
 _atom_site_occupancy
  Tb  Tb0  1  0.000000  0.000000  0.999836  1
  Tb  Tb1  1  0.000000  0.000000  0.250000  1
  Tb  Tb2  1  0.000000  0.000000  0.500164  1
  Dy  Dy3  1  0.000000  0.000000  0.750000  1
  Zn  Zn4  1  0.666666  0.333334  0.164998  1
  Zn  Zn5  1  0.666666  0.333334  0.335002  1
  Zn  Zn6  1  0.333334  0.666668  0.665311  1
  Zn  Zn7  1  0.333334  0.666668  0.834689  1
  Pb  Pb8  1  0.333334  0.666668  0.110190  1
  Pb  Pb9  1  0.333334  0.666668  0.389810  1
  Pb  Pb10  1  0.666666  0.333334  0.610304  1
  Pb  Pb11  1  0.666666  0.333334  0.889696  1
