# generated using pymatgen
data_GdLuTc3Ge4
_symmetry_space_group_name_H-M   'P 1'
_cell_length_a   8.30266300
_cell_length_b   5.63615940
_cell_length_c   7.00085900
_cell_angle_alpha   76.26280520
_cell_angle_beta   90.00000000
_cell_angle_gamma   90.00000000
_symmetry_Int_Tables_number   1
_chemical_formula_structural   GdLuTc3Ge4
_chemical_formula_sum   'Gd2 Lu2 Tc6 Ge8'
_cell_volume   318.23500331
_cell_formula_units_Z   2
loop_
 _symmetry_equiv_pos_site_id
 _symmetry_equiv_pos_as_xyz
  1  'x, y, z'
loop_
 _atom_site_type_symbol
 _atom_site_label
 _atom_site_symmetry_multiplicity
 _atom_site_fract_x
 _atom_site_fract_y
 _atom_site_fract_z
 _atom_site_occupancy
  Gd  Gd0  1  0.552116  0.069491  0.247454  1
  Gd  Gd1  1  0.052116  0.430509  0.752546  1
  Lu  Lu2  1  0.445008  0.918360  0.757592  1
  Lu  Lu3  1  0.945008  0.581640  0.242408  1
  Tc  Tc4  1  0.207847  0.135726  0.112988  1
  Tc  Tc5  1  0.707847  0.364274  0.887012  1
  Tc  Tc6  1  0.794144  0.902468  0.886054  1
  Tc  Tc7  1  0.294144  0.597532  0.113946  1
  Tc  Tc8  1  0.999969  0.000478  0.501372  1
  Tc  Tc9  1  0.499969  0.499522  0.498628  1
  Ge  Ge10  1  0.905029  0.119561  0.137099  1
  Ge  Ge11  1  0.405029  0.380439  0.862901  1
  Ge  Ge12  1  0.099842  0.881121  0.881896  1
  Ge  Ge13  1  0.599842  0.618879  0.118104  1
  Ge  Ge14  1  0.746848  0.226537  0.564623  1
  Ge  Ge15  1  0.246848  0.273463  0.435377  1
  Ge  Ge16  1  0.249196  0.778572  0.412602  1
  Ge  Ge17  1  0.749196  0.721428  0.587398  1
