# generated using pymatgen
data_Y4RhPb2Au3
_symmetry_space_group_name_H-M   'P 1'
_cell_length_a   8.17983817
_cell_length_b   8.17983817
_cell_length_c   3.58958700
_cell_angle_alpha   90.00000000
_cell_angle_beta   90.00000000
_cell_angle_gamma   89.97680105
_symmetry_Int_Tables_number   1
_chemical_formula_structural   Y4RhPb2Au3
_chemical_formula_sum   'Y4 Rh1 Pb2 Au3'
_cell_volume   240.17835787
_cell_formula_units_Z   1
loop_
 _symmetry_equiv_pos_site_id
 _symmetry_equiv_pos_as_xyz
  1  'x, y, z'
loop_
 _atom_site_type_symbol
 _atom_site_label
 _atom_site_symmetry_multiplicity
 _atom_site_fract_x
 _atom_site_fract_y
 _atom_site_fract_z
 _atom_site_occupancy
  Y  Y0  1  0.350987  0.173711  0.500000  1
  Y  Y1  1  0.818068  0.318067  0.500000  1
  Y  Y2  1  0.165261  0.665261  0.500000  1
  Y  Y3  1  0.673711  0.850988  0.500000  1
  Rh  Rh4  1  0.625009  0.125010  0.000000  1
  Pb  Pb5  1  0.997140  0.003267  0.000000  1
  Pb  Pb6  1  0.503267  0.497140  0.000000  1
  Au  Au7  1  0.123045  0.369662  0.000000  1
  Au  Au8  1  0.869662  0.623044  0.000000  1
  Au  Au9  1  0.373851  0.873851  0.000000  1
