# generated using pymatgen
data_Th3Pt4Rh
_symmetry_space_group_name_H-M   'P 1'
_cell_length_a   7.32357000
_cell_length_b   7.21140450
_cell_length_c   3.88408400
_cell_angle_alpha   90.00000000
_cell_angle_beta   90.00000000
_cell_angle_gamma   120.51587603
_symmetry_Int_Tables_number   1
_chemical_formula_structural   Th3Pt4Rh
_chemical_formula_sum   'Th3 Pt4 Rh1'
_cell_volume   176.71800029
_cell_formula_units_Z   1
loop_
 _symmetry_equiv_pos_site_id
 _symmetry_equiv_pos_as_xyz
  1  'x, y, z'
loop_
 _atom_site_type_symbol
 _atom_site_label
 _atom_site_symmetry_multiplicity
 _atom_site_fract_x
 _atom_site_fract_y
 _atom_site_fract_z
 _atom_site_occupancy
  Th  Th0  1  0.642048  0.000000  0.500000  1
  Th  Th1  1  0.008684  0.654767  0.500000  1
  Th  Th2  1  0.353917  0.345233  0.500000  1
  Pt  Pt3  1  0.001009  0.227463  0.000000  1
  Pt  Pt4  1  0.773546  0.772537  0.000000  1
  Pt  Pt5  1  0.333586  0.667535  0.000000  1
  Pt  Pt6  1  0.666052  0.332465  0.000000  1
  Rh  Rh7  1  0.221157  0.000000  0.000000  1
