# generated using pymatgen
data_La3NdMo2(SeO5)4
_symmetry_space_group_name_H-M   'P 1'
_cell_length_a   5.50645598
_cell_length_b   7.03476310
_cell_length_c   12.91202028
_cell_angle_alpha   85.47501788
_cell_angle_beta   83.81058239
_cell_angle_gamma   70.06346940
_symmetry_Int_Tables_number   1
_chemical_formula_structural   La3NdMo2(SeO5)4
_chemical_formula_sum   'La3 Nd1 Mo2 Se4 O20'
_cell_volume   466.97731466
_cell_formula_units_Z   1
loop_
 _symmetry_equiv_pos_site_id
 _symmetry_equiv_pos_as_xyz
  1  'x, y, z'
loop_
 _atom_site_type_symbol
 _atom_site_label
 _atom_site_symmetry_multiplicity
 _atom_site_fract_x
 _atom_site_fract_y
 _atom_site_fract_z
 _atom_site_occupancy
  La  La0  1  0.168802  0.696577  0.046886  1
  La  La1  1  0.084304  0.887223  0.352241  1
  La  La2  1  0.915866  0.112872  0.648018  1
  Nd  Nd3  1  0.832042  0.303953  0.952887  1
  Mo  Mo4  1  0.363560  0.278939  0.441211  1
  Mo  Mo5  1  0.636520  0.721080  0.558868  1
  Se  Se6  1  0.393153  0.104189  0.130302  1
  Se  Se7  1  0.738570  0.576779  0.222030  1
  Se  Se8  1  0.261368  0.420942  0.778450  1
  Se  Se9  1  0.606871  0.895702  0.868709  1
  O  O10  1  0.181708  0.063005  0.044755  1
  O  O11  1  0.441659  0.330279  0.080139  1
  O  O12  1  0.855578  0.507068  0.095438  1
  O  O13  1  0.416641  0.717121  0.202625  1
  O  O14  1  0.878174  0.766557  0.219463  1
  O  O15  1  0.183816  0.166054  0.239925  1
  O  O16  1  0.641256  0.162347  0.353764  1
  O  O17  1  0.172815  0.524080  0.394007  1
  O  O18  1  0.523286  0.710185  0.435317  1
  O  O19  1  0.151901  0.124524  0.469520  1
  O  O20  1  0.848098  0.875534  0.530482  1
  O  O21  1  0.476635  0.289714  0.564874  1
  O  O22  1  0.827301  0.475841  0.606038  1
  O  O23  1  0.358723  0.837818  0.646276  1
  O  O24  1  0.817247  0.834733  0.759437  1
  O  O25  1  0.119510  0.232194  0.782000  1
  O  O26  1  0.583690  0.283506  0.799190  1
  O  O27  1  0.140707  0.490748  0.904523  1
  O  O28  1  0.565715  0.666768  0.918803  1
  O  O29  1  0.814475  0.943664  0.953826  1
