# generated using pymatgen
data_NdSm2Nb(Co4P3)2
_symmetry_space_group_name_H-M   'P 1'
_cell_length_a   3.76180700
_cell_length_b   10.74618000
_cell_length_c   12.48011500
_cell_angle_alpha   90.00000000
_cell_angle_beta   90.00000000
_cell_angle_gamma   90.00000000
_symmetry_Int_Tables_number   1
_chemical_formula_structural   NdSm2Nb(Co4P3)2
_chemical_formula_sum   'Nd2 Sm4 Nb2 Co16 P12'
_cell_volume   504.50933712
_cell_formula_units_Z   2
loop_
 _symmetry_equiv_pos_site_id
 _symmetry_equiv_pos_as_xyz
  1  'x, y, z'
loop_
 _atom_site_type_symbol
 _atom_site_label
 _atom_site_symmetry_multiplicity
 _atom_site_fract_x
 _atom_site_fract_y
 _atom_site_fract_z
 _atom_site_occupancy
  Nd  Nd0  1  0.000000  0.500000  0.525945  1
  Nd  Nd1  1  0.500000  0.000000  0.474055  1
  Sm  Sm2  1  0.500000  0.819548  0.205245  1
  Sm  Sm3  1  0.500000  0.180452  0.205245  1
  Sm  Sm4  1  0.000000  0.680452  0.794755  1
  Sm  Sm5  1  0.000000  0.319548  0.794755  1
  Nb  Nb6  1  0.500000  0.500000  0.154681  1
  Nb  Nb7  1  0.000000  0.000000  0.845319  1
  Co  Co8  1  0.500000  0.500000  0.703714  1
  Co  Co9  1  0.000000  0.000000  0.296286  1
  Co  Co10  1  0.000000  0.500000  0.986185  1
  Co  Co11  1  0.500000  0.000000  0.013815  1
  Co  Co12  1  0.500000  0.332418  0.991986  1
  Co  Co13  1  0.500000  0.667582  0.991986  1
  Co  Co14  1  0.000000  0.167582  0.008014  1
  Co  Co15  1  0.000000  0.832418  0.008014  1
  Co  Co16  1  0.500000  0.295162  0.431692  1
  Co  Co17  1  0.500000  0.704838  0.431692  1
  Co  Co18  1  0.000000  0.204838  0.568308  1
  Co  Co19  1  0.000000  0.795162  0.568308  1
  Co  Co20  1  0.500000  0.878943  0.706016  1
  Co  Co21  1  0.500000  0.121057  0.706016  1
  Co  Co22  1  0.000000  0.621057  0.293984  1
  Co  Co23  1  0.000000  0.378943  0.293984  1
  P  P24  1  0.500000  0.500000  0.884367  1
  P  P25  1  0.000000  0.000000  0.115633  1
  P  P26  1  0.500000  0.500000  0.350968  1
  P  P27  1  0.000000  0.000000  0.649032  1
  P  P28  1  0.500000  0.307031  0.614905  1
  P  P29  1  0.500000  0.692969  0.614905  1
  P  P30  1  0.000000  0.192969  0.385095  1
  P  P31  1  0.000000  0.807031  0.385095  1
  P  P32  1  0.500000  0.842790  0.895496  1
  P  P33  1  0.500000  0.157210  0.895496  1
  P  P34  1  0.000000  0.657210  0.104504  1
  P  P35  1  0.000000  0.342790  0.104504  1
