# generated using pymatgen
data_Ba20InSi8Sn3
_symmetry_space_group_name_H-M   'P 1'
_cell_length_a   8.57492100
_cell_length_b   8.57492100
_cell_length_c   17.50607100
_cell_angle_alpha   90.00000000
_cell_angle_beta   90.00000000
_cell_angle_gamma   90.00000000
_symmetry_Int_Tables_number   1
_chemical_formula_structural   Ba20InSi8Sn3
_chemical_formula_sum   'Ba20 In1 Si8 Sn3'
_cell_volume   1287.20862393
_cell_formula_units_Z   1
loop_
 _symmetry_equiv_pos_site_id
 _symmetry_equiv_pos_as_xyz
  1  'x, y, z'
loop_
 _atom_site_type_symbol
 _atom_site_label
 _atom_site_symmetry_multiplicity
 _atom_site_fract_x
 _atom_site_fract_y
 _atom_site_fract_z
 _atom_site_occupancy
  Ba  Ba0  1  0.312013  0.670968  0.111496  1
  Ba  Ba1  1  0.170968  0.187987  0.111496  1
  Ba  Ba2  1  0.500000  0.000000  0.733383  1
  Ba  Ba3  1  0.329174  0.688987  0.388912  1
  Ba  Ba4  1  0.669745  0.689175  0.888597  1
  Ba  Ba5  1  0.188987  0.170826  0.388912  1
  Ba  Ba6  1  0.670826  0.311013  0.388912  1
  Ba  Ba7  1  0.170796  0.811148  0.611156  1
  Ba  Ba8  1  0.330255  0.310825  0.888597  1
  Ba  Ba9  1  0.189175  0.830255  0.888597  1
  Ba  Ba10  1  0.500000  0.000000  0.232065  1
  Ba  Ba11  1  0.829204  0.188852  0.611156  1
  Ba  Ba12  1  0.311148  0.329204  0.611156  1
  Ba  Ba13  1  0.811013  0.829174  0.388912  1
  Ba  Ba14  1  0.810825  0.169745  0.888597  1
  Ba  Ba15  1  0.829032  0.812013  0.111496  1
  Ba  Ba16  1  0.000000  0.500000  0.266553  1
  Ba  Ba17  1  0.000000  0.500000  0.767520  1
  Ba  Ba18  1  0.687987  0.329032  0.111496  1
  Ba  Ba19  1  0.688852  0.670796  0.611156  1
  In  In20  1  0.000000  0.500000  0.987092  1
  Si  Si21  1  0.100210  0.100256  0.749531  1
  Si  Si22  1  0.399744  0.600210  0.749531  1
  Si  Si23  1  0.600180  0.600338  0.250401  1
  Si  Si24  1  0.100338  0.899820  0.250401  1
  Si  Si25  1  0.600256  0.399790  0.749531  1
  Si  Si26  1  0.899790  0.899744  0.749531  1
  Si  Si27  1  0.399820  0.399662  0.250401  1
  Si  Si28  1  0.899662  0.100180  0.250401  1
  Sn  Sn29  1  0.500000  0.000000  0.013195  1
  Sn  Sn30  1  0.500000  0.000000  0.513012  1
  Sn  Sn31  1  0.000000  0.500000  0.486809  1
