# generated using pymatgen
data_La7Y3Zn2(Si2O)3
_symmetry_space_group_name_H-M   'P 1'
_cell_length_a   10.91164519
_cell_length_b   10.89507102
_cell_length_c   4.54532500
_cell_angle_alpha   90.00000000
_cell_angle_beta   90.00000000
_cell_angle_gamma   119.94976776
_symmetry_Int_Tables_number   1
_chemical_formula_structural   La7Y3Zn2(Si2O)3
_chemical_formula_sum   'La7 Y3 Zn2 Si6 O3'
_cell_volume   468.20438926
_cell_formula_units_Z   1
loop_
 _symmetry_equiv_pos_site_id
 _symmetry_equiv_pos_as_xyz
  1  'x, y, z'
loop_
 _atom_site_type_symbol
 _atom_site_label
 _atom_site_symmetry_multiplicity
 _atom_site_fract_x
 _atom_site_fract_y
 _atom_site_fract_z
 _atom_site_occupancy
  La  La0  1  0.213550  0.787910  0.000000  1
  La  La1  1  0.576042  0.788020  0.000000  1
  La  La2  1  0.786450  0.574362  0.000000  1
  La  La3  1  0.000000  0.000000  0.000000  1
  La  La4  1  0.213550  0.425638  0.000000  1
  La  La5  1  0.423958  0.211980  0.000000  1
  La  La6  1  0.786450  0.212090  0.000000  1
  Y  Y7  1  0.000000  0.500000  0.500000  1
  Y  Y8  1  0.500000  0.500000  0.500000  1
  Y  Y9  1  0.500000  0.000000  0.500000  1
  Zn  Zn10  1  0.000000  0.778797  0.500000  1
  Zn  Zn11  1  0.000000  0.221203  0.500000  1
  Si  Si12  1  0.224232  0.221362  0.500000  1
  Si  Si13  1  0.775768  0.997130  0.500000  1
  Si  Si14  1  0.332040  0.666021  0.500000  1
  Si  Si15  1  0.224232  0.002870  0.500000  1
  Si  Si16  1  0.667960  0.333979  0.500000  1
  Si  Si17  1  0.775768  0.778638  0.500000  1
  O  O18  1  0.000000  0.500000  0.000000  1
  O  O19  1  0.500000  0.500000  0.000000  1
  O  O20  1  0.500000  0.000000  0.000000  1
