# generated using pymatgen
data_Tb3Y2Pd15
_symmetry_space_group_name_H-M   'P 1'
_cell_length_a   4.12630300
_cell_length_b   4.12526700
_cell_length_c   20.85570900
_cell_angle_alpha   90.00000000
_cell_angle_beta   90.00000000
_cell_angle_gamma   90.00000000
_symmetry_Int_Tables_number   1
_chemical_formula_structural   Tb3Y2Pd15
_chemical_formula_sum   'Tb3 Y2 Pd15'
_cell_volume   355.00799749
_cell_formula_units_Z   1
loop_
 _symmetry_equiv_pos_site_id
 _symmetry_equiv_pos_as_xyz
  1  'x, y, z'
loop_
 _atom_site_type_symbol
 _atom_site_label
 _atom_site_symmetry_multiplicity
 _atom_site_fract_x
 _atom_site_fract_y
 _atom_site_fract_z
 _atom_site_occupancy
  Tb  Tb0  1  0.000000  0.000000  0.199728  1
  Tb  Tb1  1  0.000000  0.000000  0.399680  1
  Tb  Tb2  1  0.000000  0.000000  0.000167  1
  Y  Y3  1  0.000000  0.000000  0.599921  1
  Y  Y4  1  0.000000  0.000000  0.800474  1
  Pd  Pd5  1  0.500000  0.500000  0.000054  1
  Pd  Pd6  1  0.500000  0.500000  0.199237  1
  Pd  Pd7  1  0.500000  0.500000  0.399717  1
  Pd  Pd8  1  0.500000  0.500000  0.600189  1
  Pd  Pd9  1  0.500000  0.500000  0.800838  1
  Pd  Pd10  1  0.500000  0.000000  0.099554  1
  Pd  Pd11  1  0.500000  0.000000  0.299527  1
  Pd  Pd12  1  0.500000  0.000000  0.499777  1
  Pd  Pd13  1  0.500000  0.000000  0.700449  1
  Pd  Pd14  1  0.500000  0.000000  0.900691  1
  Pd  Pd15  1  0.000000  0.500000  0.099564  1
  Pd  Pd16  1  0.000000  0.500000  0.299531  1
  Pd  Pd17  1  0.000000  0.500000  0.499776  1
  Pd  Pd18  1  0.000000  0.500000  0.700447  1
  Pd  Pd19  1  0.000000  0.500000  0.900680  1
