# generated using pymatgen
data_Na4Li3VAs4
_symmetry_space_group_name_H-M   'P 1'
_cell_length_a   7.29948700
_cell_length_b   7.74418600
_cell_length_c   8.64170200
_cell_angle_alpha   90.00000000
_cell_angle_beta   90.00000000
_cell_angle_gamma   89.99964145
_symmetry_Int_Tables_number   1
_chemical_formula_structural   Na4Li3VAs4
_chemical_formula_sum   'Na8 Li6 V2 As8'
_cell_volume   488.50318633
_cell_formula_units_Z   2
loop_
 _symmetry_equiv_pos_site_id
 _symmetry_equiv_pos_as_xyz
  1  'x, y, z'
loop_
 _atom_site_type_symbol
 _atom_site_label
 _atom_site_symmetry_multiplicity
 _atom_site_fract_x
 _atom_site_fract_y
 _atom_site_fract_z
 _atom_site_occupancy
  Na  Na0  1  0.872666  0.458250  0.705969  1
  Na  Na1  1  0.372656  0.541772  0.794022  1
  Na  Na2  1  0.372656  0.541772  0.205978  1
  Na  Na3  1  0.872666  0.458250  0.294031  1
  Na  Na4  1  0.876641  0.051183  0.000000  1
  Na  Na5  1  0.376644  0.948817  0.500000  1
  Na  Na6  1  0.389030  0.943362  0.000000  1
  Na  Na7  1  0.889046  0.056637  0.500000  1
  Li  Li8  1  0.720535  0.825479  0.741165  1
  Li  Li9  1  0.220553  0.174528  0.758832  1
  Li  Li10  1  0.220553  0.174528  0.241168  1
  Li  Li11  1  0.720535  0.825479  0.258835  1
  Li  Li12  1  0.172111  0.651177  0.500000  1
  Li  Li13  1  0.672131  0.348840  0.000000  1
  V  V14  1  0.995887  0.674612  0.000000  1
  V  V15  1  0.495920  0.325380  0.500000  1
  As  As16  1  0.669257  0.674979  0.000000  1
  As  As17  1  0.169291  0.325031  0.500000  1
  As  As18  1  0.087990  0.826166  0.767143  1
  As  As19  1  0.588012  0.173812  0.732864  1
  As  As20  1  0.588012  0.173812  0.267136  1
  As  As21  1  0.087990  0.826166  0.232857  1
  As  As22  1  0.587231  0.620382  0.500000  1
  As  As23  1  0.087208  0.379583  0.000000  1
