# generated using pymatgen
data_Na3Li2HfP3
_symmetry_space_group_name_H-M   'P 1'
_cell_length_a   9.71508285
_cell_length_b   9.71508395
_cell_length_c   13.57524400
_cell_angle_alpha   90.00000000
_cell_angle_beta   90.00000000
_cell_angle_gamma   143.43803655
_symmetry_Int_Tables_number   1
_chemical_formula_structural   Na3Li2HfP3
_chemical_formula_sum   'Na12 Li8 Hf4 P12'
_cell_volume   763.24210400
_cell_formula_units_Z   4
loop_
 _symmetry_equiv_pos_site_id
 _symmetry_equiv_pos_as_xyz
  1  'x, y, z'
loop_
 _atom_site_type_symbol
 _atom_site_label
 _atom_site_symmetry_multiplicity
 _atom_site_fract_x
 _atom_site_fract_y
 _atom_site_fract_z
 _atom_site_occupancy
  Na  Na0  1  0.103254  0.452473  0.680167  1
  Na  Na1  1  0.718650  0.718650  0.683528  1
  Na  Na2  1  0.218650  0.218650  0.816472  1
  Na  Na3  1  0.781350  0.781350  0.183528  1
  Na  Na4  1  0.952473  0.603254  0.819833  1
  Na  Na5  1  0.547527  0.896746  0.319833  1
  Na  Na6  1  0.396746  0.047527  0.180167  1
  Na  Na7  1  0.047527  0.396746  0.180167  1
  Na  Na8  1  0.896746  0.547527  0.319833  1
  Na  Na9  1  0.452473  0.103254  0.680167  1
  Na  Na10  1  0.603254  0.952474  0.819833  1
  Na  Na11  1  0.281350  0.281350  0.316472  1
  Li  Li12  1  0.916217  0.083783  0.000000  1
  Li  Li13  1  0.583783  0.416217  0.500000  1
  Li  Li14  1  0.083783  0.916217  0.000000  1
  Li  Li15  1  0.416217  0.583783  0.500000  1
  Li  Li16  1  0.754420  0.245580  0.000000  1
  Li  Li17  1  0.745580  0.254420  0.500000  1
  Li  Li18  1  0.245580  0.754420  0.000000  1
  Li  Li19  1  0.254420  0.745580  0.500000  1
  Hf  Hf20  1  0.088936  0.911064  0.500000  1
  Hf  Hf21  1  0.411064  0.588936  0.000000  1
  Hf  Hf22  1  0.911064  0.088936  0.500000  1
  Hf  Hf23  1  0.588936  0.411064  0.000000  1
  P  P24  1  0.901432  0.573264  0.105571  1
  P  P25  1  0.426736  0.098568  0.894429  1
  P  P26  1  0.598568  0.926736  0.605571  1
  P  P27  1  0.926736  0.598568  0.605571  1
  P  P28  1  0.098568  0.426736  0.894429  1
  P  P29  1  0.573264  0.901432  0.105571  1
  P  P30  1  0.401432  0.073264  0.394429  1
  P  P31  1  0.233349  0.233349  0.598819  1
  P  P32  1  0.733349  0.733349  0.901181  1
  P  P33  1  0.266651  0.266651  0.098819  1
  P  P34  1  0.073264  0.401432  0.394429  1
  P  P35  1  0.766651  0.766651  0.401181  1
