# generated using pymatgen
data_Eu2DyHo3Ta2O14
_symmetry_space_group_name_H-M   'P 1'
_cell_length_a   6.47869028
_cell_length_b   6.47820665
_cell_length_c   7.54728610
_cell_angle_alpha   90.01310445
_cell_angle_beta   89.98285068
_cell_angle_gamma   108.81129938
_symmetry_Int_Tables_number   1
_chemical_formula_structural   Eu2DyHo3Ta2O14
_chemical_formula_sum   'Eu2 Dy1 Ho3 Ta2 O14'
_cell_volume   299.84218880
_cell_formula_units_Z   1
loop_
 _symmetry_equiv_pos_site_id
 _symmetry_equiv_pos_as_xyz
  1  'x, y, z'
loop_
 _atom_site_type_symbol
 _atom_site_label
 _atom_site_symmetry_multiplicity
 _atom_site_fract_x
 _atom_site_fract_y
 _atom_site_fract_z
 _atom_site_occupancy
  Eu  Eu0  1  0.504455  0.504397  0.499858  1
  Eu  Eu1  1  0.495810  0.495732  0.000142  1
  Dy  Dy2  1  0.000158  0.465428  0.748267  1
  Ho  Ho3  1  0.000268  0.534064  0.248297  1
  Ho  Ho4  1  0.533874  0.000234  0.751704  1
  Ho  Ho5  1  0.466053  0.999694  0.251700  1
  Ta  Ta6  1  0.999864  0.999845  0.499797  1
  Ta  Ta7  1  0.000139  0.000158  0.000208  1
  O  O8  1  0.639170  0.358918  0.749958  1
  O  O9  1  0.359114  0.640886  0.250051  1
  O  O10  1  0.933494  0.065901  0.750003  1
  O  O11  1  0.066577  0.933628  0.249993  1
  O  O12  1  0.930260  0.678382  0.530619  1
  O  O13  1  0.069441  0.321747  0.032169  1
  O  O14  1  0.321832  0.069186  0.968473  1
  O  O15  1  0.678073  0.930871  0.468488  1
  O  O16  1  0.367603  0.634939  0.750089  1
  O  O17  1  0.634192  0.365827  0.249933  1
  O  O18  1  0.935602  0.682239  0.965292  1
  O  O19  1  0.064124  0.317861  0.463759  1
  O  O20  1  0.317954  0.063894  0.535606  1
  O  O21  1  0.681942  0.936168  0.035594  1
