# generated using pymatgen
data_LiPr4TcC8
_symmetry_space_group_name_H-M   'P 1'
_cell_length_a   7.00157443
_cell_length_b   7.00157469
_cell_length_c   7.00157300
_cell_angle_alpha   134.42803205
_cell_angle_beta   108.29463421
_cell_angle_gamma   89.20262139
_symmetry_Int_Tables_number   1
_chemical_formula_structural   LiPr4TcC8
_chemical_formula_sum   'Li1 Pr4 Tc1 C8'
_cell_volume   221.74154917
_cell_formula_units_Z   1
loop_
 _symmetry_equiv_pos_site_id
 _symmetry_equiv_pos_as_xyz
  1  'x, y, z'
loop_
 _atom_site_type_symbol
 _atom_site_label
 _atom_site_symmetry_multiplicity
 _atom_site_fract_x
 _atom_site_fract_y
 _atom_site_fract_z
 _atom_site_occupancy
  Li  Li0  1  0.000000  0.250000  0.250000  1
  Pr  Pr1  1  0.200234  0.347349  0.847778  1
  Pr  Pr2  1  0.799766  0.647544  0.147115  1
  Pr  Pr3  1  0.499570  0.852456  0.652222  1
  Pr  Pr4  1  0.500430  0.152651  0.352885  1
  Tc  Tc5  1  0.000000  0.750000  0.750000  1
  C  C6  1  0.788329  0.125541  0.667281  1
  C  C7  1  0.211671  0.878951  0.337211  1
  C  C8  1  0.458259  0.621049  0.832719  1
  C  C9  1  0.541741  0.374459  0.162789  1
  C  C10  1  0.892614  0.023221  0.758365  1
  C  C11  1  0.107386  0.865751  0.130607  1
  C  C12  1  0.264856  0.634249  0.741635  1
  C  C13  1  0.735144  0.476779  0.369393  1
