# generated using pymatgen
data_Ba2LuV3(SeO3)8
_symmetry_space_group_name_H-M   'P 1'
_cell_length_a   5.39131729
_cell_length_b   10.39774257
_cell_length_c   14.42142512
_cell_angle_alpha   49.10719096
_cell_angle_beta   88.89678291
_cell_angle_gamma   89.31321632
_symmetry_Int_Tables_number   1
_chemical_formula_structural   Ba2LuV3(SeO3)8
_chemical_formula_sum   'Ba2 Lu1 V3 Se8 O24'
_cell_volume   611.00715345
_cell_formula_units_Z   1
loop_
 _symmetry_equiv_pos_site_id
 _symmetry_equiv_pos_as_xyz
  1  'x, y, z'
loop_
 _atom_site_type_symbol
 _atom_site_label
 _atom_site_symmetry_multiplicity
 _atom_site_fract_x
 _atom_site_fract_y
 _atom_site_fract_z
 _atom_site_occupancy
  Ba  Ba0  1  0.067889  0.000054  0.744508  1
  Ba  Ba1  1  0.932111  0.999946  0.255492  1
  Lu  Lu2  1  0.500000  0.000000  0.000000  1
  V  V3  1  0.000000  0.500000  0.500000  1
  V  V4  1  0.500000  0.000000  0.500000  1
  V  V5  1  0.000000  0.500000  0.000000  1
  Se  Se6  1  0.488196  0.342054  0.177870  1
  Se  Se7  1  0.005745  0.746763  0.592782  1
  Se  Se8  1  0.013357  0.266862  0.903136  1
  Se  Se9  1  0.994255  0.253237  0.407218  1
  Se  Se10  1  0.504598  0.346107  0.673177  1
  Se  Se11  1  0.511804  0.657946  0.822130  1
  Se  Se12  1  0.495402  0.653893  0.326823  1
  Se  Se13  1  0.986643  0.733138  0.096864  1
  O  O14  1  0.208359  0.700731  0.357437  1
  O  O15  1  0.286655  0.790122  0.043545  1
  O  O16  1  0.791073  0.701800  0.856713  1
  O  O17  1  0.830391  0.903319  0.966596  1
  O  O18  1  0.725516  0.829056  0.516425  1
  O  O19  1  0.312547  0.351950  0.576032  1
  O  O20  1  0.169609  0.096681  0.033404  1
  O  O21  1  0.693164  0.341662  0.084707  1
  O  O22  1  0.791641  0.299269  0.642563  1
  O  O23  1  0.566767  0.140979  0.312836  1
  O  O24  1  0.687453  0.648050  0.423968  1
  O  O25  1  0.274484  0.170944  0.483575  1
  O  O26  1  0.580844  0.855742  0.194528  1
  O  O27  1  0.799995  0.094344  0.527513  1
  O  O28  1  0.419156  0.144258  0.805472  1
  O  O29  1  0.068988  0.433828  0.898452  1
  O  O30  1  0.713345  0.209878  0.956455  1
  O  O31  1  0.948877  0.421033  0.402868  1
  O  O32  1  0.051123  0.578967  0.597132  1
  O  O33  1  0.433233  0.859021  0.687164  1
  O  O34  1  0.306836  0.658338  0.915293  1
  O  O35  1  0.200005  0.905656  0.472487  1
  O  O36  1  0.931012  0.566172  0.101548  1
  O  O37  1  0.208927  0.298200  0.143287  1
