# generated using pymatgen
data_Dy3Y3Al24Os7Ru
_symmetry_space_group_name_H-M   'P 1'
_cell_length_a   8.83727800
_cell_length_b   8.83727778
_cell_length_c   9.57379300
_cell_angle_alpha   90.00000000
_cell_angle_beta   90.00000000
_cell_angle_gamma   120.00000080
_symmetry_Int_Tables_number   1
_chemical_formula_structural   Dy3Y3Al24Os7Ru
_chemical_formula_sum   'Dy3 Y3 Al24 Os7 Ru1'
_cell_volume   647.51776039
_cell_formula_units_Z   1
loop_
 _symmetry_equiv_pos_site_id
 _symmetry_equiv_pos_as_xyz
  1  'x, y, z'
loop_
 _atom_site_type_symbol
 _atom_site_label
 _atom_site_symmetry_multiplicity
 _atom_site_fract_x
 _atom_site_fract_y
 _atom_site_fract_z
 _atom_site_occupancy
  Dy  Dy0  1  0.806678  0.193322  0.750399  1
  Dy  Dy1  1  0.806678  0.613357  0.750399  1
  Dy  Dy2  1  0.386643  0.193322  0.750399  1
  Y  Y3  1  0.193225  0.806775  0.249579  1
  Y  Y4  1  0.193225  0.386449  0.249579  1
  Y  Y5  1  0.613551  0.806775  0.249579  1
  Al  Al6  1  0.560783  0.439217  0.249902  1
  Al  Al7  1  0.560783  0.121568  0.249902  1
  Al  Al8  1  0.878432  0.439217  0.249902  1
  Al  Al9  1  0.439222  0.560778  0.750102  1
  Al  Al10  1  0.439222  0.878443  0.750102  1
  Al  Al11  1  0.121557  0.560778  0.750102  1
  Al  Al12  1  0.324739  0.162369  0.423761  1
  Al  Al13  1  0.837631  0.162369  0.423761  1
  Al  Al14  1  0.837631  0.675261  0.423761  1
  Al  Al15  1  0.675280  0.837640  0.576320  1
  Al  Al16  1  0.162360  0.837640  0.576320  1
  Al  Al17  1  0.162360  0.324720  0.576320  1
  Al  Al18  1  0.675394  0.837697  0.923691  1
  Al  Al19  1  0.162303  0.837697  0.923691  1
  Al  Al20  1  0.162303  0.324606  0.923691  1
  Al  Al21  1  0.324628  0.162314  0.076240  1
  Al  Al22  1  0.837686  0.162314  0.076240  1
  Al  Al23  1  0.837686  0.675372  0.076240  1
  Al  Al24  1  0.666667  0.333333  0.515811  1
  Al  Al25  1  0.333333  0.666667  0.484292  1
  Al  Al26  1  0.333333  0.666667  0.015673  1
  Al  Al27  1  0.666667  0.333333  0.984245  1
  Al  Al28  1  0.000000  0.000000  0.248248  1
  Al  Al29  1  0.000000  0.000000  0.751762  1
  Os  Os30  1  0.000000  0.000000  0.499953  1
  Os  Os31  1  0.500044  0.499956  0.500092  1
  Os  Os32  1  0.500044  0.000089  0.500092  1
  Os  Os33  1  0.999911  0.499956  0.500092  1
  Os  Os34  1  0.500045  0.499955  0.999902  1
  Os  Os35  1  0.500045  0.000089  0.999902  1
  Os  Os36  1  0.999911  0.499955  0.999902  1
  Ru  Ru37  1  0.000000  0.000000  0.000051  1
