# generated using pymatgen
data_Tm9Sc10Si16W
_symmetry_space_group_name_H-M   'P 1'
_cell_length_a   7.00525048
_cell_length_b   7.33065701
_cell_length_c   13.85048974
_cell_angle_alpha   90.16119679
_cell_angle_beta   90.15794807
_cell_angle_gamma   89.66959445
_symmetry_Int_Tables_number   1
_chemical_formula_structural   Tm9Sc10Si16W
_chemical_formula_sum   'Tm9 Sc10 Si16 W1'
_cell_volume   711.24811431
_cell_formula_units_Z   1
loop_
 _symmetry_equiv_pos_site_id
 _symmetry_equiv_pos_as_xyz
  1  'x, y, z'
loop_
 _atom_site_type_symbol
 _atom_site_label
 _atom_site_symmetry_multiplicity
 _atom_site_fract_x
 _atom_site_fract_y
 _atom_site_fract_z
 _atom_site_occupancy
  Tm  Tm0  1  0.992901  0.681783  0.599681  1
  Tm  Tm1  1  0.011179  0.321942  0.406026  1
  Tm  Tm2  1  0.511678  0.177960  0.403367  1
  Tm  Tm3  1  0.010642  0.321522  0.093422  1
  Tm  Tm4  1  0.487789  0.824277  0.597508  1
  Tm  Tm5  1  0.993773  0.682110  0.901815  1
  Tm  Tm6  1  0.488465  0.825097  0.903899  1
  Tm  Tm7  1  0.509840  0.177533  0.094825  1
  Tm  Tm8  1  0.330168  0.322102  0.626350  1
  Sc  Sc9  1  0.839641  0.004634  0.249678  1
  Sc  Sc10  1  0.339529  0.496010  0.249139  1
  Sc  Sc11  1  0.660720  0.509285  0.751188  1
  Sc  Sc12  1  0.670021  0.677513  0.372964  1
  Sc  Sc13  1  0.170827  0.826920  0.375396  1
  Sc  Sc14  1  0.669586  0.676600  0.125821  1
  Sc  Sc15  1  0.828378  0.170070  0.629427  1
  Sc  Sc16  1  0.329289  0.319597  0.872959  1
  Sc  Sc17  1  0.827892  0.169763  0.872609  1
  Sc  Sc18  1  0.170699  0.826031  0.123166  1
  Si  Si19  1  0.028197  0.381369  0.753402  1
  Si  Si20  1  0.970625  0.612426  0.249365  1
  Si  Si21  1  0.467539  0.888615  0.249441  1
  Si  Si22  1  0.522822  0.096482  0.752370  1
  Si  Si23  1  0.284430  0.646368  0.751051  1
  Si  Si24  1  0.716149  0.368912  0.249590  1
  Si  Si25  1  0.212828  0.131560  0.249360  1
  Si  Si26  1  0.795617  0.868948  0.750859  1
  Si  Si27  1  0.151419  0.027418  0.546856  1
  Si  Si28  1  0.840407  0.964723  0.462816  1
  Si  Si29  1  0.345700  0.537665  0.458815  1
  Si  Si30  1  0.840448  0.964612  0.037426  1
  Si  Si31  1  0.667714  0.466543  0.536964  1
  Si  Si32  1  0.157403  0.032706  0.952455  1
  Si  Si33  1  0.659630  0.465874  0.961105  1
  Si  Si34  1  0.343241  0.534420  0.037104  1
  W  W35  1  0.152810  0.000609  0.751781  1
