# generated using pymatgen
data_DyLu5(Sc2Sn3)2
_symmetry_space_group_name_H-M   'P 1'
_cell_length_a   8.69556777
_cell_length_b   8.69556888
_cell_length_c   6.21706000
_cell_angle_alpha   90.00000000
_cell_angle_beta   90.00000000
_cell_angle_gamma   120.09151114
_symmetry_Int_Tables_number   1
_chemical_formula_structural   DyLu5(Sc2Sn3)2
_chemical_formula_sum   'Dy1 Lu5 Sc4 Sn6'
_cell_volume   406.73394668
_cell_formula_units_Z   1
loop_
 _symmetry_equiv_pos_site_id
 _symmetry_equiv_pos_as_xyz
  1  'x, y, z'
loop_
 _atom_site_type_symbol
 _atom_site_label
 _atom_site_symmetry_multiplicity
 _atom_site_fract_x
 _atom_site_fract_y
 _atom_site_fract_z
 _atom_site_occupancy
  Dy  Dy0  1  0.762547  0.762547  0.750000  1
  Lu  Lu1  1  0.238110  0.000162  0.750000  1
  Lu  Lu2  1  0.000162  0.238110  0.750000  1
  Lu  Lu3  1  0.237147  0.237147  0.250000  1
  Lu  Lu4  1  0.762188  0.000543  0.250000  1
  Lu  Lu5  1  0.000543  0.762188  0.250000  1
  Sc  Sc6  1  0.666569  0.333263  0.000163  1
  Sc  Sc7  1  0.333263  0.666569  0.000163  1
  Sc  Sc8  1  0.333263  0.666569  0.499837  1
  Sc  Sc9  1  0.666569  0.333263  0.499837  1
  Sn  Sn10  1  0.397730  0.397730  0.750000  1
  Sn  Sn11  1  0.600482  0.001385  0.750000  1
  Sn  Sn12  1  0.001385  0.600482  0.750000  1
  Sn  Sn13  1  0.600978  0.600978  0.250000  1
  Sn  Sn14  1  0.398942  0.000123  0.250000  1
  Sn  Sn15  1  0.000123  0.398942  0.250000  1
