# generated using pymatgen
data_Y8Si8Pd5Pt3
_symmetry_space_group_name_H-M   'P 1'
_cell_length_a   4.32480900
_cell_length_b   7.49461729
_cell_length_c   14.05169656
_cell_angle_alpha   90.03214925
_cell_angle_beta   90.00000000
_cell_angle_gamma   90.00000000
_symmetry_Int_Tables_number   1
_chemical_formula_structural   Y8Si8Pd5Pt3
_chemical_formula_sum   'Y8 Si8 Pd5 Pt3'
_cell_volume   455.45459433
_cell_formula_units_Z   1
loop_
 _symmetry_equiv_pos_site_id
 _symmetry_equiv_pos_as_xyz
  1  'x, y, z'
loop_
 _atom_site_type_symbol
 _atom_site_label
 _atom_site_symmetry_multiplicity
 _atom_site_fract_x
 _atom_site_fract_y
 _atom_site_fract_z
 _atom_site_occupancy
  Y  Y0  1  0.500000  0.792575  0.749964  1
  Y  Y1  1  0.000000  0.207394  0.750207  1
  Y  Y2  1  0.500000  0.791397  0.250356  1
  Y  Y3  1  0.000000  0.207100  0.249804  1
  Y  Y4  1  0.500000  0.708656  0.999861  1
  Y  Y5  1  0.000000  0.291570  0.499988  1
  Y  Y6  1  0.500000  0.702757  0.500305  1
  Y  Y7  1  0.000000  0.298441  0.999993  1
  Si  Si8  1  0.500000  0.407219  0.643792  1
  Si  Si9  1  0.000000  0.592748  0.856110  1
  Si  Si10  1  0.500000  0.407367  0.356074  1
  Si  Si11  1  0.000000  0.591273  0.144738  1
  Si  Si12  1  0.500000  0.091672  0.093480  1
  Si  Si13  1  0.000000  0.910508  0.407142  1
  Si  Si14  1  0.500000  0.089257  0.908756  1
  Si  Si15  1  0.000000  0.910592  0.592565  1
  Pd  Pd16  1  0.000000  0.922953  0.106769  1
  Pd  Pd17  1  0.500000  0.421792  0.156527  1
  Pd  Pd18  1  0.000000  0.579230  0.343080  1
  Pd  Pd19  1  0.500000  0.421257  0.843521  1
  Pd  Pd20  1  0.000000  0.578520  0.656876  1
  Pt  Pt21  1  0.500000  0.075649  0.608756  1
  Pt  Pt22  1  0.000000  0.924306  0.890607  1
  Pt  Pt23  1  0.500000  0.075766  0.390729  1
