# generated using pymatgen
data_Zn2FeH8
_symmetry_space_group_name_H-M   'P 1'
_cell_length_a   6.03353387
_cell_length_b   4.61836854
_cell_length_c   4.76215911
_cell_angle_alpha   98.42549500
_cell_angle_beta   93.24377184
_cell_angle_gamma   98.59383518
_symmetry_Int_Tables_number   1
_chemical_formula_structural   Zn2FeH8
_chemical_formula_sum   'Zn2 Fe1 H8'
_cell_volume   129.37352449
_cell_formula_units_Z   1
loop_
 _symmetry_equiv_pos_site_id
 _symmetry_equiv_pos_as_xyz
  1  'x, y, z'
loop_
 _atom_site_type_symbol
 _atom_site_label
 _atom_site_symmetry_multiplicity
 _atom_site_fract_x
 _atom_site_fract_y
 _atom_site_fract_z
 _atom_site_occupancy
  Zn  Zn0  1  0.511371  0.462749  0.875917  1
  Zn  Zn1  1  0.466824  0.008986  0.449942  1
  Fe  Fe2  1  0.548666  0.518718  0.391855  1
  H  H3  1  0.404339  0.259717  0.166099  1
  H  H4  1  0.796055  0.497732  0.315185  1
  H  H5  1  0.310585  0.621514  0.431379  1
  H  H6  1  0.632413  0.757979  0.205323  1
  H  H7  1  0.940188  0.119473  0.829980  1
  H  H8  1  0.662297  0.747677  0.654816  1
  H  H9  1  0.013183  0.226472  0.944434  1
  H  H10  1  0.758657  0.357413  0.434677  1
