# generated using pymatgen
data_DyEr5(B7W)2
_symmetry_space_group_name_H-M   'P 1'
_cell_length_a   8.11408122
_cell_length_b   8.11408072
_cell_length_c   9.45955900
_cell_angle_alpha   90.00000000
_cell_angle_beta   90.00000000
_cell_angle_gamma   155.55037860
_symmetry_Int_Tables_number   1
_chemical_formula_structural   DyEr5(B7W)2
_chemical_formula_sum   'Dy1 Er5 B14 W2'
_cell_volume   257.77311725
_cell_formula_units_Z   1
loop_
 _symmetry_equiv_pos_site_id
 _symmetry_equiv_pos_as_xyz
  1  'x, y, z'
loop_
 _atom_site_type_symbol
 _atom_site_label
 _atom_site_symmetry_multiplicity
 _atom_site_fract_x
 _atom_site_fract_y
 _atom_site_fract_z
 _atom_site_occupancy
  Dy  Dy0  1  0.754048  0.245952  0.750000  1
  Er  Er1  1  0.892607  0.107393  0.439514  1
  Er  Er2  1  0.107268  0.892732  0.559715  1
  Er  Er3  1  0.892607  0.107393  0.060486  1
  Er  Er4  1  0.107268  0.892732  0.940285  1
  Er  Er5  1  0.245070  0.754930  0.250000  1
  B  B6  1  0.727995  0.272005  0.465942  1
  B  B7  1  0.272354  0.727646  0.531531  1
  B  B8  1  0.727995  0.272005  0.034058  1
  B  B9  1  0.272354  0.727646  0.968469  1
  B  B10  1  0.635404  0.364596  0.146977  1
  B  B11  1  0.364707  0.635293  0.853776  1
  B  B12  1  0.635404  0.364596  0.353023  1
  B  B13  1  0.364707  0.635293  0.646224  1
  B  B14  1  0.519286  0.480714  0.091229  1
  B  B15  1  0.480736  0.519264  0.908770  1
  B  B16  1  0.519286  0.480714  0.408771  1
  B  B17  1  0.480736  0.519264  0.591230  1
  B  B18  1  0.453803  0.546197  0.250000  1
  B  B19  1  0.546340  0.453660  0.750000  1
  W  W20  1  0.052999  0.947001  0.250000  1
  W  W21  1  0.947026  0.052974  0.750000  1
