# generated using pymatgen
data_Ho10AsPtPb6
_symmetry_space_group_name_H-M   'P 1'
_cell_length_a   9.20600100
_cell_length_b   9.20600148
_cell_length_c   6.78798700
_cell_angle_alpha   90.00000000
_cell_angle_beta   90.00000000
_cell_angle_gamma   120.00000186
_symmetry_Int_Tables_number   1
_chemical_formula_structural   Ho10AsPtPb6
_chemical_formula_sum   'Ho10 As1 Pt1 Pb6'
_cell_volume   498.21142618
_cell_formula_units_Z   1
loop_
 _symmetry_equiv_pos_site_id
 _symmetry_equiv_pos_as_xyz
  1  'x, y, z'
loop_
 _atom_site_type_symbol
 _atom_site_label
 _atom_site_symmetry_multiplicity
 _atom_site_fract_x
 _atom_site_fract_y
 _atom_site_fract_z
 _atom_site_occupancy
  Ho  Ho0  1  0.245816  0.000000  0.748947  1
  Ho  Ho1  1  0.754184  0.000000  0.251053  1
  Ho  Ho2  1  0.000000  0.245816  0.748947  1
  Ho  Ho3  1  0.000000  0.754184  0.251053  1
  Ho  Ho4  1  0.754184  0.754184  0.748947  1
  Ho  Ho5  1  0.245816  0.245816  0.251053  1
  Ho  Ho6  1  0.333333  0.666667  0.500000  1
  Ho  Ho7  1  0.666667  0.333333  0.500000  1
  Ho  Ho8  1  0.666667  0.333333  0.000000  1
  Ho  Ho9  1  0.333333  0.666667  0.000000  1
  As  As10  1  0.000000  0.000000  0.500000  1
  Pt  Pt11  1  0.000000  0.000000  0.000000  1
  Pb  Pb12  1  0.601784  0.000000  0.748060  1
  Pb  Pb13  1  0.398216  0.000000  0.251940  1
  Pb  Pb14  1  0.000000  0.601784  0.748060  1
  Pb  Pb15  1  0.000000  0.398216  0.251940  1
  Pb  Pb16  1  0.398216  0.398216  0.748060  1
  Pb  Pb17  1  0.601784  0.601784  0.251940  1
