# generated using pymatgen
data_ErTm3B12RuW
_symmetry_space_group_name_H-M   'P 1'
_cell_length_a   3.59542300
_cell_length_b   9.16304915
_cell_length_c   11.55218523
_cell_angle_alpha   89.77487680
_cell_angle_beta   90.00000000
_cell_angle_gamma   90.00000000
_symmetry_Int_Tables_number   1
_chemical_formula_structural   ErTm3B12RuW
_chemical_formula_sum   'Er2 Tm6 B24 Ru2 W2'
_cell_volume   380.58423963
_cell_formula_units_Z   2
loop_
 _symmetry_equiv_pos_site_id
 _symmetry_equiv_pos_as_xyz
  1  'x, y, z'
loop_
 _atom_site_type_symbol
 _atom_site_label
 _atom_site_symmetry_multiplicity
 _atom_site_fract_x
 _atom_site_fract_y
 _atom_site_fract_z
 _atom_site_occupancy
  Er  Er0  1  0.000000  0.321303  0.414024  1
  Er  Er1  1  0.000000  0.678697  0.585976  1
  Tm  Tm2  1  0.000000  0.821458  0.086274  1
  Tm  Tm3  1  0.000000  0.178542  0.913726  1
  Tm  Tm4  1  0.000000  0.945336  0.371245  1
  Tm  Tm5  1  0.000000  0.054664  0.628755  1
  Tm  Tm6  1  0.000000  0.441656  0.127467  1
  Tm  Tm7  1  0.000000  0.558344  0.872533  1
  B  B8  1  0.500000  0.550989  0.434797  1
  B  B9  1  0.500000  0.449011  0.565203  1
  B  B10  1  0.500000  0.053668  0.066319  1
  B  B11  1  0.500000  0.946332  0.933681  1
  B  B12  1  0.500000  0.752230  0.421622  1
  B  B13  1  0.500000  0.247770  0.578378  1
  B  B14  1  0.500000  0.248505  0.080692  1
  B  B15  1  0.500000  0.751495  0.919308  1
  B  B16  1  0.500000  0.796507  0.262592  1
  B  B17  1  0.500000  0.203493  0.737408  1
  B  B18  1  0.500000  0.290186  0.233441  1
  B  B19  1  0.500000  0.709814  0.766559  1
  B  B20  1  0.500000  0.632055  0.180837  1
  B  B21  1  0.500000  0.367945  0.819163  1
  B  B22  1  0.500000  0.130591  0.313565  1
  B  B23  1  0.500000  0.869409  0.686435  1
  B  B24  1  0.500000  0.983447  0.211282  1
  B  B25  1  0.500000  0.016553  0.788718  1
  B  B26  1  0.500000  0.476831  0.286041  1
  B  B27  1  0.500000  0.523169  0.713959  1
  B  B28  1  0.500000  0.603819  0.027906  1
  B  B29  1  0.500000  0.396181  0.972094  1
  B  B30  1  0.500000  0.103013  0.470559  1
  B  B31  1  0.500000  0.896987  0.529441  1
  Ru  Ru32  1  0.000000  0.137985  0.177924  1
  Ru  Ru33  1  0.000000  0.862015  0.822076  1
  W  W34  1  0.000000  0.639050  0.319119  1
  W  W35  1  0.000000  0.360950  0.680881  1
