# generated using pymatgen
data_Ac3BeAl11
_symmetry_space_group_name_H-M   'P 1'
_cell_length_a   8.88542684
_cell_length_b   8.88542600
_cell_length_c   8.88542552
_cell_angle_alpha   150.42580479
_cell_angle_beta   105.06976429
_cell_angle_gamma   82.54702894
_symmetry_Int_Tables_number   1
_chemical_formula_structural   Ac3BeAl11
_chemical_formula_sum   'Ac3 Be1 Al11'
_cell_volume   327.41187186
_cell_formula_units_Z   1
loop_
 _symmetry_equiv_pos_site_id
 _symmetry_equiv_pos_as_xyz
  1  'x, y, z'
loop_
 _atom_site_type_symbol
 _atom_site_label
 _atom_site_symmetry_multiplicity
 _atom_site_fract_x
 _atom_site_fract_y
 _atom_site_fract_z
 _atom_site_occupancy
  Ac  Ac0  1  0.999320  0.000000  0.999320  1
  Ac  Ac1  1  0.334805  0.333256  0.001549  1
  Ac  Ac2  1  0.668292  0.666744  0.001549  1
  Be  Be3  1  0.623213  0.000000  0.623213  1
  Al  Al4  1  0.397339  0.000000  0.397339  1
  Al  Al5  1  0.255872  0.500000  0.755872  1
  Al  Al6  1  0.740219  0.500000  0.240219  1
  Al  Al7  1  0.589954  0.845887  0.744067  1
  Al  Al8  1  0.898181  0.154113  0.744067  1
  Al  Al9  1  0.291132  0.668675  0.622457  1
  Al  Al10  1  0.953782  0.331325  0.622457  1
  Al  Al11  1  0.042900  0.665669  0.377230  1
  Al  Al12  1  0.711559  0.334331  0.377230  1
  Al  Al13  1  0.089273  0.837057  0.252217  1
  Al  Al14  1  0.415160  0.162943  0.252217  1
