# generated using pymatgen
data_DyTmSe2
_symmetry_space_group_name_H-M   'P 1'
_cell_length_a   3.93540890
_cell_length_b   3.95630529
_cell_length_c   10.80067649
_cell_angle_alpha   100.15176528
_cell_angle_beta   136.76889061
_cell_angle_gamma   60.24660333
_symmetry_Int_Tables_number   1
_chemical_formula_structural   DyTmSe2
_chemical_formula_sum   'Dy1 Tm1 Se2'
_cell_volume   95.01728927
_cell_formula_units_Z   1
loop_
 _symmetry_equiv_pos_site_id
 _symmetry_equiv_pos_as_xyz
  1  'x, y, z'
loop_
 _atom_site_type_symbol
 _atom_site_label
 _atom_site_symmetry_multiplicity
 _atom_site_fract_x
 _atom_site_fract_y
 _atom_site_fract_z
 _atom_site_occupancy
  Dy  Dy0  1  0.633288  0.586280  0.618556  1
  Tm  Tm1  1  0.396711  0.940468  0.087868  1
  Se  Se2  1  0.329785  0.104791  0.345110  1
  Se  Se3  1  0.536815  0.756951  0.862877  1
