# generated using pymatgen
data_La3ScCd2Pt3
_symmetry_space_group_name_H-M   'P 1'
_cell_length_a   7.76051690
_cell_length_b   7.59574089
_cell_length_c   4.27404100
_cell_angle_alpha   90.00000000
_cell_angle_beta   90.00000000
_cell_angle_gamma   119.30008849
_symmetry_Int_Tables_number   1
_chemical_formula_structural   La3ScCd2Pt3
_chemical_formula_sum   'La3 Sc1 Cd2 Pt3'
_cell_volume   219.71013065
_cell_formula_units_Z   1
loop_
 _symmetry_equiv_pos_site_id
 _symmetry_equiv_pos_as_xyz
  1  'x, y, z'
loop_
 _atom_site_type_symbol
 _atom_site_label
 _atom_site_symmetry_multiplicity
 _atom_site_fract_x
 _atom_site_fract_y
 _atom_site_fract_z
 _atom_site_occupancy
  La  La0  1  0.422314  0.412256  0.500000  1
  La  La1  1  0.000000  0.607113  0.500000  1
  La  La2  1  0.577686  0.989942  0.500000  1
  Sc  Sc3  1  0.000000  0.236012  0.000000  1
  Cd  Cd4  1  0.751372  0.753833  0.000000  1
  Cd  Cd5  1  0.248628  0.002461  0.000000  1
  Pt  Pt6  1  0.689367  0.329965  0.000000  1
  Pt  Pt7  1  0.310633  0.640598  0.000000  1
  Pt  Pt8  1  0.000000  0.027822  0.500000  1
