# generated using pymatgen
data_U3AgPd12
_symmetry_space_group_name_H-M   'P 1'
_cell_length_a   5.79604400
_cell_length_b   5.79604420
_cell_length_c   9.49140600
_cell_angle_alpha   90.00000000
_cell_angle_beta   90.00000000
_cell_angle_gamma   120.00001027
_symmetry_Int_Tables_number   1
_chemical_formula_structural   U3AgPd12
_chemical_formula_sum   'U3 Ag1 Pd12'
_cell_volume   276.13693509
_cell_formula_units_Z   1
loop_
 _symmetry_equiv_pos_site_id
 _symmetry_equiv_pos_as_xyz
  1  'x, y, z'
loop_
 _atom_site_type_symbol
 _atom_site_label
 _atom_site_symmetry_multiplicity
 _atom_site_fract_x
 _atom_site_fract_y
 _atom_site_fract_z
 _atom_site_occupancy
  U  U0  1  0.000000  0.000000  0.510650  1
  U  U1  1  0.000000  0.000000  0.989350  1
  U  U2  1  0.666667  0.333333  0.250000  1
  Ag  Ag3  1  0.333333  0.666667  0.750000  1
  Pd  Pd4  1  0.500521  0.499479  0.498976  1
  Pd  Pd5  1  0.500521  0.001041  0.498976  1
  Pd  Pd6  1  0.998959  0.499479  0.498976  1
  Pd  Pd7  1  0.500521  0.499479  0.001024  1
  Pd  Pd8  1  0.500521  0.001041  0.001024  1
  Pd  Pd9  1  0.998959  0.499479  0.001024  1
  Pd  Pd10  1  0.168910  0.831090  0.250000  1
  Pd  Pd11  1  0.168910  0.337822  0.250000  1
  Pd  Pd12  1  0.662178  0.831090  0.250000  1
  Pd  Pd13  1  0.828523  0.171477  0.750000  1
  Pd  Pd14  1  0.828523  0.657044  0.750000  1
  Pd  Pd15  1  0.342956  0.171477  0.750000  1
