# generated using pymatgen
data_Y4Co3Ni(P3Rh4)4
_symmetry_space_group_name_H-M   'P 1'
_cell_length_a   3.85730100
_cell_length_b   10.76078002
_cell_length_c   12.41513059
_cell_angle_alpha   89.90119255
_cell_angle_beta   90.00000000
_cell_angle_gamma   90.00000000
_symmetry_Int_Tables_number   1
_chemical_formula_structural   Y4Co3Ni(P3Rh4)4
_chemical_formula_sum   'Y4 Co3 Ni1 P12 Rh16'
_cell_volume   515.32110522
_cell_formula_units_Z   1
loop_
 _symmetry_equiv_pos_site_id
 _symmetry_equiv_pos_as_xyz
  1  'x, y, z'
loop_
 _atom_site_type_symbol
 _atom_site_label
 _atom_site_symmetry_multiplicity
 _atom_site_fract_x
 _atom_site_fract_y
 _atom_site_fract_z
 _atom_site_occupancy
  Y  Y0  1  0.250000  0.914717  0.206436  1
  Y  Y1  1  0.750000  0.085268  0.792342  1
  Y  Y2  1  0.750000  0.414160  0.292053  1
  Y  Y3  1  0.250000  0.584949  0.708111  1
  Co  Co4  1  0.750000  0.962668  0.565226  1
  Co  Co5  1  0.750000  0.535658  0.066031  1
  Co  Co6  1  0.250000  0.464252  0.933882  1
  Ni  Ni7  1  0.250000  0.036409  0.434527  1
  P  P8  1  0.250000  0.076818  0.608096  1
  P  P9  1  0.750000  0.920657  0.393429  1
  P  P10  1  0.750000  0.575709  0.894114  1
  P  P11  1  0.250000  0.424293  0.105998  1
  P  P12  1  0.250000  0.229733  0.371918  1
  P  P13  1  0.750000  0.771945  0.628496  1
  P  P14  1  0.750000  0.727393  0.126817  1
  P  P15  1  0.250000  0.272459  0.872915  1
  P  P16  1  0.250000  0.900503  0.888163  1
  P  P17  1  0.750000  0.099060  0.112070  1
  P  P18  1  0.750000  0.400869  0.611752  1
  P  P19  1  0.250000  0.599294  0.388555  1
  Rh  Rh20  1  0.250000  0.787926  0.482964  1
  Rh  Rh21  1  0.750000  0.215603  0.514390  1
  Rh  Rh22  1  0.750000  0.283963  0.013421  1
  Rh  Rh23  1  0.250000  0.716178  0.987224  1
  Rh  Rh24  1  0.250000  0.091751  0.980186  1
  Rh  Rh25  1  0.750000  0.908146  0.019278  1
  Rh  Rh26  1  0.750000  0.593464  0.520152  1
  Rh  Rh27  1  0.250000  0.408616  0.480585  1
  Rh  Rh28  1  0.250000  0.273518  0.678625  1
  Rh  Rh29  1  0.750000  0.725874  0.321088  1
  Rh  Rh30  1  0.750000  0.772829  0.822576  1
  Rh  Rh31  1  0.250000  0.227514  0.178029  1
  Rh  Rh32  1  0.250000  0.613422  0.198657  1
  Rh  Rh33  1  0.750000  0.386434  0.801752  1
  Rh  Rh34  1  0.750000  0.112286  0.301680  1
  Rh  Rh35  1  0.250000  0.885663  0.698462  1
