# generated using pymatgen
data_Sc12Si(PtI8)2
_symmetry_space_group_name_H-M   'P 1'
_cell_length_a   9.13761090
_cell_length_b   12.02873663
_cell_length_c   12.64713336
_cell_angle_alpha   117.28903286
_cell_angle_beta   101.14395566
_cell_angle_gamma   100.61751541
_symmetry_Int_Tables_number   1
_chemical_formula_structural   Sc12Si(PtI8)2
_chemical_formula_sum   'Sc12 Si1 Pt2 I16'
_cell_volume   1151.21322721
_cell_formula_units_Z   1
loop_
 _symmetry_equiv_pos_site_id
 _symmetry_equiv_pos_as_xyz
  1  'x, y, z'
loop_
 _atom_site_type_symbol
 _atom_site_label
 _atom_site_symmetry_multiplicity
 _atom_site_fract_x
 _atom_site_fract_y
 _atom_site_fract_z
 _atom_site_occupancy
  Sc  Sc0  1  0.090964  0.278753  0.363904  1
  Sc  Sc1  1  0.907958  0.730049  0.641477  1
  Sc  Sc2  1  0.776727  0.535101  0.329051  1
  Sc  Sc3  1  0.217799  0.466251  0.664779  1
  Sc  Sc4  1  0.271571  0.721762  0.636033  1
  Sc  Sc5  1  0.720442  0.269668  0.358717  1
  Sc  Sc6  1  0.144878  0.533997  0.335622  1
  Sc  Sc7  1  0.851714  0.464860  0.671182  1
  Sc  Sc8  1  0.400103  0.358754  0.273502  1
  Sc  Sc9  1  0.589186  0.641410  0.726399  1
  Sc  Sc10  1  0.453517  0.307778  0.521048  1
  Sc  Sc11  1  0.535892  0.691933  0.478132  1
  Si  Si12  1  0.359074  0.500059  0.499767  1
  Pt  Pt13  1  0.993002  0.499987  0.500302  1
  Pt  Pt14  1  0.650673  0.499845  0.500309  1
  I  I15  1  0.389367  0.738420  0.881271  1
  I  I16  1  0.606672  0.260202  0.116272  1
  I  I17  1  0.188613  0.960046  0.781071  1
  I  I18  1  0.815498  0.040043  0.218867  1
  I  I19  1  0.348339  0.097761  0.252812  1
  I  I20  1  0.672102  0.902035  0.746867  1
  I  I21  1  0.569990  0.438415  0.798382  1
  I  I22  1  0.449511  0.561490  0.201193  1
  I  I23  1  0.300174  0.823402  0.462468  1
  I  I24  1  0.696344  0.174374  0.537884  1
  I  I25  1  0.161857  0.175996  0.535339  1
  I  I26  1  0.835745  0.825935  0.464321  1
  I  I27  1  0.927970  0.572780  0.160920  1
  I  I28  1  0.076485  0.427268  0.839386  1
  I  I29  1  0.926501  0.738783  0.883962  1
  I  I30  1  0.071334  0.262842  0.118759  1
