# generated using pymatgen
data_CaTbY5RhI12
_symmetry_space_group_name_H-M   'P 1'
_cell_length_a   9.76296339
_cell_length_b   9.82576947
_cell_length_c   9.82950624
_cell_angle_alpha   106.84894841
_cell_angle_beta   106.96781350
_cell_angle_gamma   107.09881027
_symmetry_Int_Tables_number   1
_chemical_formula_structural   CaTbY5RhI12
_chemical_formula_sum   'Ca1 Tb1 Y5 Rh1 I12'
_cell_volume   785.88118382
_cell_formula_units_Z   1
loop_
 _symmetry_equiv_pos_site_id
 _symmetry_equiv_pos_as_xyz
  1  'x, y, z'
loop_
 _atom_site_type_symbol
 _atom_site_label
 _atom_site_symmetry_multiplicity
 _atom_site_fract_x
 _atom_site_fract_y
 _atom_site_fract_z
 _atom_site_occupancy
  Ca  Ca0  1  0.499843  0.500081  0.500193  1
  Tb  Tb1  1  0.292486  0.094399  0.022967  1
  Y  Y2  1  0.902367  0.974810  0.696954  1
  Y  Y3  1  0.975846  0.696738  0.901497  1
  Y  Y4  1  0.708058  0.905827  0.976873  1
  Y  Y5  1  0.097263  0.025020  0.302834  1
  Y  Y6  1  0.024020  0.303023  0.098421  1
  Rh  Rh7  1  0.000246  0.000036  0.999720  1
  I  I8  1  0.542142  0.849057  0.621726  1
  I  I9  1  0.849593  0.620572  0.541813  1
  I  I10  1  0.620369  0.543157  0.849582  1
  I  I11  1  0.457785  0.151152  0.378732  1
  I  I12  1  0.150021  0.379300  0.458186  1
  I  I13  1  0.379692  0.457581  0.151047  1
  I  I14  1  0.677350  0.221469  0.070078  1
  I  I15  1  0.224111  0.070744  0.676997  1
  I  I16  1  0.070326  0.676255  0.222968  1
  I  I17  1  0.323530  0.778170  0.929963  1
  I  I18  1  0.775486  0.928956  0.322518  1
  I  I19  1  0.929466  0.323652  0.776930  1
