# generated using pymatgen
data_Gd3TmC5
_symmetry_space_group_name_H-M   'P 1'
_cell_length_a   3.66756500
_cell_length_b   6.61862008
_cell_length_c   12.08034115
_cell_angle_alpha   88.80132786
_cell_angle_beta   90.00000000
_cell_angle_gamma   90.00000000
_symmetry_Int_Tables_number   1
_chemical_formula_structural   Gd3TmC5
_chemical_formula_sum   'Gd6 Tm2 C10'
_cell_volume   293.17668081
_cell_formula_units_Z   2
loop_
 _symmetry_equiv_pos_site_id
 _symmetry_equiv_pos_as_xyz
  1  'x, y, z'
loop_
 _atom_site_type_symbol
 _atom_site_label
 _atom_site_symmetry_multiplicity
 _atom_site_fract_x
 _atom_site_fract_y
 _atom_site_fract_z
 _atom_site_occupancy
  Gd  Gd0  1  0.000000  0.253900  0.543010  1
  Gd  Gd1  1  0.000000  0.746100  0.456990  1
  Gd  Gd2  1  0.000000  0.751924  0.958635  1
  Gd  Gd3  1  0.000000  0.248076  0.041365  1
  Gd  Gd4  1  0.500000  0.103400  0.801687  1
  Gd  Gd5  1  0.500000  0.896600  0.198313  1
  Tm  Tm6  1  0.500000  0.609092  0.693017  1
  Tm  Tm7  1  0.500000  0.390908  0.306983  1
  C  C8  1  0.500000  0.500000  0.500000  1
  C  C9  1  0.500000  0.000000  0.000000  1
  C  C10  1  0.000000  0.361716  0.736523  1
  C  C11  1  0.000000  0.638284  0.263477  1
  C  C12  1  0.000000  0.855810  0.764808  1
  C  C13  1  0.000000  0.144190  0.235192  1
  C  C14  1  0.000000  0.428351  0.839525  1
  C  C15  1  0.000000  0.571649  0.160475  1
  C  C16  1  0.000000  0.121044  0.345221  1
  C  C17  1  0.000000  0.878956  0.654779  1
