# generated using pymatgen
data_Y6Th2Zn2FeNi
_symmetry_space_group_name_H-M   'P 1'
_cell_length_a   9.49292290
_cell_length_b   9.49292234
_cell_length_c   9.54855100
_cell_angle_alpha   59.80597271
_cell_angle_beta   59.80597466
_cell_angle_gamma   59.67643664
_symmetry_Int_Tables_number   1
_chemical_formula_structural   Y6Th2Zn2FeNi
_chemical_formula_sum   'Y12 Th4 Zn4 Fe2 Ni2'
_cell_volume   605.16727062
_cell_formula_units_Z   2
loop_
 _symmetry_equiv_pos_site_id
 _symmetry_equiv_pos_as_xyz
  1  'x, y, z'
loop_
 _atom_site_type_symbol
 _atom_site_label
 _atom_site_symmetry_multiplicity
 _atom_site_fract_x
 _atom_site_fract_y
 _atom_site_fract_z
 _atom_site_occupancy
  Y  Y0  1  0.814289  0.188676  0.190673  1
  Y  Y1  1  0.188676  0.814289  0.806362  1
  Y  Y2  1  0.188676  0.814289  0.190673  1
  Y  Y3  1  0.814289  0.188676  0.806362  1
  Y  Y4  1  0.189046  0.189046  0.810954  1
  Y  Y5  1  0.809523  0.809523  0.190477  1
  Y  Y6  1  0.934675  0.561197  0.567096  1
  Y  Y7  1  0.561197  0.934675  0.937032  1
  Y  Y8  1  0.561197  0.934675  0.567096  1
  Y  Y9  1  0.934675  0.561197  0.937032  1
  Y  Y10  1  0.562146  0.562146  0.937854  1
  Y  Y11  1  0.934327  0.934327  0.565673  1
  Th  Th12  1  0.347717  0.347717  0.355038  1
  Th  Th13  1  0.347717  0.347717  0.949529  1
  Th  Th14  1  0.344057  0.957934  0.349005  1
  Th  Th15  1  0.957934  0.344057  0.349005  1
  Zn  Zn16  1  0.577752  0.577752  0.582158  1
  Zn  Zn17  1  0.577752  0.577752  0.262336  1
  Zn  Zn18  1  0.577780  0.260323  0.580948  1
  Zn  Zn19  1  0.260323  0.577780  0.580948  1
  Fe  Fe20  1  0.149724  0.149724  0.141995  1
  Fe  Fe21  1  0.149724  0.149724  0.558556  1
  Ni  Ni22  1  0.145905  0.570897  0.141598  1
  Ni  Ni23  1  0.570897  0.145905  0.141598  1
