# generated using pymatgen
data_Nd2Dy2Y2CoI10
_symmetry_space_group_name_H-M   'P 1'
_cell_length_a   7.78185113
_cell_length_b   9.79767875
_cell_length_c   9.75812401
_cell_angle_alpha   106.93322223
_cell_angle_beta   96.38343956
_cell_angle_gamma   105.19319863
_symmetry_Int_Tables_number   1
_chemical_formula_structural   Nd2Dy2Y2CoI10
_chemical_formula_sum   'Nd2 Dy2 Y2 Co1 I10'
_cell_volume   672.54877744
_cell_formula_units_Z   1
loop_
 _symmetry_equiv_pos_site_id
 _symmetry_equiv_pos_as_xyz
  1  'x, y, z'
loop_
 _atom_site_type_symbol
 _atom_site_label
 _atom_site_symmetry_multiplicity
 _atom_site_fract_x
 _atom_site_fract_y
 _atom_site_fract_z
 _atom_site_occupancy
  Nd  Nd0  1  0.887873  0.958636  0.231276  1
  Nd  Nd1  1  0.112127  0.041364  0.768724  1
  Dy  Dy2  1  0.029414  0.718745  0.915544  1
  Dy  Dy3  1  0.970586  0.281255  0.084456  1
  Y  Y4  1  0.655991  0.876902  0.836994  1
  Y  Y5  1  0.344009  0.123098  0.163006  1
  Co  Co6  1  0.000000  0.000000  0.000000  1
  I  I7  1  0.650550  0.551354  0.729552  1
  I  I8  1  0.349450  0.448646  0.270448  1
  I  I9  1  0.734291  0.910447  0.540911  1
  I  I10  1  0.265709  0.089553  0.459089  1
  I  I11  1  0.083938  0.376475  0.822803  1
  I  I12  1  0.916062  0.623525  0.177197  1
  I  I13  1  0.449083  0.815868  0.090390  1
  I  I14  1  0.550917  0.184132  0.909610  1
  I  I15  1  0.223907  0.738906  0.656324  1
  I  I16  1  0.776093  0.261094  0.343676  1
