# generated using pymatgen
data_Y4Er8ZnCo4Bi
_symmetry_space_group_name_H-M   'P 1'
_cell_length_a   8.31055116
_cell_length_b   8.31055021
_cell_length_c   8.31055153
_cell_angle_alpha   109.73402978
_cell_angle_beta   111.31491640
_cell_angle_gamma   107.38866091
_symmetry_Int_Tables_number   1
_chemical_formula_structural   Y4Er8ZnCo4Bi
_chemical_formula_sum   'Y4 Er8 Zn1 Co4 Bi1'
_cell_volume   441.31936483
_cell_formula_units_Z   1
loop_
 _symmetry_equiv_pos_site_id
 _symmetry_equiv_pos_as_xyz
  1  'x, y, z'
loop_
 _atom_site_type_symbol
 _atom_site_label
 _atom_site_symmetry_multiplicity
 _atom_site_fract_x
 _atom_site_fract_y
 _atom_site_fract_z
 _atom_site_occupancy
  Y  Y0  1  0.285398  0.183883  0.469282  1
  Y  Y1  1  0.714602  0.816117  0.530718  1
  Y  Y2  1  0.285398  0.816117  0.101515  1
  Y  Y3  1  0.714602  0.183883  0.898485  1
  Er  Er4  1  0.622803  0.314003  0.308799  1
  Er  Er5  1  0.377197  0.685997  0.691201  1
  Er  Er6  1  0.005206  0.314003  0.691201  1
  Er  Er7  1  0.994794  0.685997  0.308799  1
  Er  Er8  1  0.218257  0.424664  0.206407  1
  Er  Er9  1  0.781743  0.575336  0.793593  1
  Er  Er10  1  0.218257  0.011850  0.793593  1
  Er  Er11  1  0.781743  0.988150  0.206407  1
  Zn  Zn12  1  0.000000  0.000000  0.000000  1
  Co  Co13  1  0.000000  0.376737  0.376737  1
  Co  Co14  1  0.000000  0.623263  0.623263  1
  Co  Co15  1  0.386784  0.886784  0.500000  1
  Co  Co16  1  0.613216  0.113216  0.500000  1
  Bi  Bi17  1  0.500000  0.500000  0.000000  1
