# generated using pymatgen
data_Y3HoErPb4
_symmetry_space_group_name_H-M   'P 1'
_cell_length_a   8.20615400
_cell_length_b   8.28023600
_cell_length_c   15.65055000
_cell_angle_alpha   90.00000000
_cell_angle_beta   90.00000000
_cell_angle_gamma   90.00000000
_symmetry_Int_Tables_number   1
_chemical_formula_structural   Y3HoErPb4
_chemical_formula_sum   'Y12 Ho4 Er4 Pb16'
_cell_volume   1063.43752813
_cell_formula_units_Z   4
loop_
 _symmetry_equiv_pos_site_id
 _symmetry_equiv_pos_as_xyz
  1  'x, y, z'
loop_
 _atom_site_type_symbol
 _atom_site_label
 _atom_site_symmetry_multiplicity
 _atom_site_fract_x
 _atom_site_fract_y
 _atom_site_fract_z
 _atom_site_occupancy
  Y  Y0  1  0.622662  0.159372  0.120676  1
  Y  Y1  1  0.122662  0.340628  0.379324  1
  Y  Y2  1  0.377338  0.840628  0.620676  1
  Y  Y3  1  0.877338  0.659372  0.879324  1
  Y  Y4  1  0.534814  0.323434  0.899838  1
  Y  Y5  1  0.034814  0.176566  0.600162  1
  Y  Y6  1  0.465186  0.676566  0.399838  1
  Y  Y7  1  0.965186  0.823434  0.100162  1
  Y  Y8  1  0.465201  0.676561  0.100114  1
  Y  Y9  1  0.965201  0.823439  0.399886  1
  Y  Y10  1  0.534799  0.323439  0.600114  1
  Y  Y11  1  0.034799  0.176561  0.899886  1
  Ho  Ho12  1  0.377362  0.840625  0.879336  1
  Ho  Ho13  1  0.877362  0.659375  0.620664  1
  Ho  Ho14  1  0.622638  0.159375  0.379336  1
  Ho  Ho15  1  0.122638  0.340625  0.120664  1
  Er  Er16  1  0.208778  0.503878  0.749993  1
  Er  Er17  1  0.708778  0.996122  0.750007  1
  Er  Er18  1  0.791222  0.496122  0.249993  1
  Er  Er19  1  0.291222  0.003878  0.250007  1
  Pb  Pb20  1  0.280914  0.032952  0.042836  1
  Pb  Pb21  1  0.780914  0.467048  0.457164  1
  Pb  Pb22  1  0.719086  0.967048  0.542836  1
  Pb  Pb23  1  0.219086  0.532952  0.957164  1
  Pb  Pb24  1  0.718696  0.967219  0.956945  1
  Pb  Pb25  1  0.218696  0.532781  0.543055  1
  Pb  Pb26  1  0.281304  0.032781  0.456945  1
  Pb  Pb27  1  0.781304  0.467219  0.043055  1
  Pb  Pb28  1  0.572069  0.626233  0.750146  1
  Pb  Pb29  1  0.072069  0.873767  0.749854  1
  Pb  Pb30  1  0.427931  0.373767  0.250146  1
  Pb  Pb31  1  0.927931  0.126233  0.249854  1
  Pb  Pb32  1  0.346917  0.152922  0.750120  1
  Pb  Pb33  1  0.846917  0.347078  0.749880  1
  Pb  Pb34  1  0.653083  0.847078  0.250120  1
  Pb  Pb35  1  0.153083  0.652922  0.249880  1
