# generated using pymatgen
data_CoAg2Bi2Ir3O14
_symmetry_space_group_name_H-M   'P 1'
_cell_length_a   7.21412042
_cell_length_b   7.09349867
_cell_length_c   7.21412036
_cell_angle_alpha   60.38246742
_cell_angle_beta   61.41967929
_cell_angle_gamma   60.38246795
_symmetry_Int_Tables_number   1
_chemical_formula_structural   CoAg2Bi2Ir3O14
_chemical_formula_sum   'Co1 Ag2 Bi2 Ir3 O14'
_cell_volume   265.27564684
_cell_formula_units_Z   1
loop_
 _symmetry_equiv_pos_site_id
 _symmetry_equiv_pos_as_xyz
  1  'x, y, z'
loop_
 _atom_site_type_symbol
 _atom_site_label
 _atom_site_symmetry_multiplicity
 _atom_site_fract_x
 _atom_site_fract_y
 _atom_site_fract_z
 _atom_site_occupancy
  Co  Co0  1  0.625000  0.625000  0.625000  1
  Ag  Ag1  1  0.125000  0.625000  0.125000  1
  Ag  Ag2  1  0.125000  0.125000  0.125000  1
  Bi  Bi3  1  0.625000  0.125000  0.125000  1
  Bi  Bi4  1  0.125000  0.125000  0.625000  1
  Ir  Ir5  1  0.125000  0.625000  0.625000  1
  Ir  Ir6  1  0.625000  0.125000  0.625000  1
  Ir  Ir7  1  0.625000  0.625000  0.125000  1
  O  O8  1  0.692250  0.706700  0.303888  1
  O  O9  1  0.299540  0.293550  0.696547  1
  O  O10  1  0.704362  0.299195  0.704362  1
  O  O11  1  0.306667  0.696802  0.306667  1
  O  O12  1  0.303888  0.706700  0.692250  1
  O  O13  1  0.696547  0.293550  0.299540  1
  O  O14  1  0.557750  0.543300  0.946112  1
  O  O15  1  0.950460  0.956450  0.553453  1
  O  O16  1  0.545638  0.950805  0.545638  1
  O  O17  1  0.943333  0.553198  0.943333  1
  O  O18  1  0.946112  0.543300  0.557750  1
  O  O19  1  0.553453  0.956450  0.950460  1
  O  O20  1  0.240968  0.258178  0.240968  1
  O  O21  1  0.009032  0.991822  0.009032  1
