# generated using pymatgen
data_TbLu(AlZn)2
_symmetry_space_group_name_H-M   'P 1'
_cell_length_a   4.47371400
_cell_length_b   4.47371316
_cell_length_c   7.04345100
_cell_angle_alpha   90.00000000
_cell_angle_beta   90.00000000
_cell_angle_gamma   120.00000623
_symmetry_Int_Tables_number   1
_chemical_formula_structural   TbLu(AlZn)2
_chemical_formula_sum   'Tb1 Lu1 Al2 Zn2'
_cell_volume   122.08222996
_cell_formula_units_Z   1
loop_
 _symmetry_equiv_pos_site_id
 _symmetry_equiv_pos_as_xyz
  1  'x, y, z'
loop_
 _atom_site_type_symbol
 _atom_site_label
 _atom_site_symmetry_multiplicity
 _atom_site_fract_x
 _atom_site_fract_y
 _atom_site_fract_z
 _atom_site_occupancy
  Tb  Tb0  1  0.000000  0.000000  0.503567  1
  Lu  Lu1  1  0.000000  0.000000  0.004016  1
  Al  Al2  1  0.666667  0.333333  0.783017  1
  Al  Al3  1  0.333333  0.666667  0.273950  1
  Zn  Zn4  1  0.666667  0.333333  0.206286  1
  Zn  Zn5  1  0.333333  0.666667  0.716765  1
