# generated using pymatgen
data_CaPa8Mn3O24
_symmetry_space_group_name_H-M   'P 1'
_cell_length_a   5.40195900
_cell_length_b   5.37310636
_cell_length_c   16.07097600
_cell_angle_alpha   89.46144586
_cell_angle_beta   90.00000000
_cell_angle_gamma   90.00000000
_symmetry_Int_Tables_number   1
_chemical_formula_structural   CaPa8Mn3O24
_chemical_formula_sum   'Ca1 Pa8 Mn3 O24'
_cell_volume   466.44429751
_cell_formula_units_Z   1
loop_
 _symmetry_equiv_pos_site_id
 _symmetry_equiv_pos_as_xyz
  1  'x, y, z'
loop_
 _atom_site_type_symbol
 _atom_site_label
 _atom_site_symmetry_multiplicity
 _atom_site_fract_x
 _atom_site_fract_y
 _atom_site_fract_z
 _atom_site_occupancy
  Ca  Ca0  1  0.755795  0.500000  0.500000  1
  Pa  Pa1  1  0.251458  0.478114  0.661319  1
  Pa  Pa2  1  0.245545  0.965677  0.841999  1
  Pa  Pa3  1  0.245545  0.034323  0.158001  1
  Pa  Pa4  1  0.251458  0.521886  0.338681  1
  Pa  Pa5  1  0.750629  0.019759  0.338970  1
  Pa  Pa6  1  0.751929  0.532886  0.158121  1
  Pa  Pa7  1  0.751929  0.467114  0.841879  1
  Pa  Pa8  1  0.750629  0.980241  0.661030  1
  Mn  Mn9  1  0.285990  0.500000  0.000000  1
  Mn  Mn10  1  0.239361  0.000000  0.500000  1
  Mn  Mn11  1  0.714309  0.000000  0.000000  1
  O  O12  1  0.046453  0.664249  0.908796  1
  O  O13  1  0.478965  0.210120  0.587238  1
  O  O14  1  0.478965  0.789880  0.412762  1
  O  O15  1  0.046453  0.335751  0.091204  1
  O  O16  1  0.951551  0.835605  0.090827  1
  O  O17  1  0.521437  0.287160  0.404609  1
  O  O18  1  0.521437  0.712840  0.595391  1
  O  O19  1  0.951551  0.164395  0.909173  1
  O  O20  1  0.016291  0.772223  0.248123  1
  O  O21  1  0.482703  0.279841  0.245315  1
  O  O22  1  0.482703  0.720159  0.754685  1
  O  O23  1  0.016291  0.227777  0.751877  1
  O  O24  1  0.982260  0.726994  0.750186  1
  O  O25  1  0.515572  0.221715  0.750159  1
  O  O26  1  0.515572  0.778285  0.249841  1
  O  O27  1  0.982260  0.273006  0.249814  1
  O  O28  1  0.026045  0.755316  0.588357  1
  O  O29  1  0.457172  0.244933  0.911813  1
  O  O30  1  0.457172  0.755067  0.088187  1
  O  O31  1  0.026045  0.244684  0.411643  1
  O  O32  1  0.983586  0.750232  0.407979  1
  O  O33  1  0.540678  0.256110  0.085497  1
  O  O34  1  0.540678  0.743890  0.914503  1
  O  O35  1  0.983586  0.249768  0.592021  1
