# generated using pymatgen
data_Tb4PrNdRh18
_symmetry_space_group_name_H-M   'P 1'
_cell_length_a   5.31483800
_cell_length_b   5.31695583
_cell_length_c   17.55453100
_cell_angle_alpha   90.00000000
_cell_angle_beta   90.00000000
_cell_angle_gamma   119.99179428
_symmetry_Int_Tables_number   1
_chemical_formula_structural   Tb4PrNdRh18
_chemical_formula_sum   'Tb4 Pr1 Nd1 Rh18'
_cell_volume   429.64409867
_cell_formula_units_Z   1
loop_
 _symmetry_equiv_pos_site_id
 _symmetry_equiv_pos_as_xyz
  1  'x, y, z'
loop_
 _atom_site_type_symbol
 _atom_site_label
 _atom_site_symmetry_multiplicity
 _atom_site_fract_x
 _atom_site_fract_y
 _atom_site_fract_z
 _atom_site_occupancy
  Tb  Tb0  1  0.333337  0.666674  0.541684  1
  Tb  Tb1  1  0.666671  0.333333  0.041699  1
  Tb  Tb2  1  0.666671  0.333333  0.458301  1
  Tb  Tb3  1  0.333337  0.666674  0.958316  1
  Pr  Pr4  1  0.333340  0.666636  0.750000  1
  Nd  Nd5  1  0.666658  0.333343  0.250000  1
  Rh  Rh6  1  0.167286  0.334589  0.125422  1
  Rh  Rh7  1  0.832729  0.665442  0.625411  1
  Rh  Rh8  1  0.665408  0.832704  0.125394  1
  Rh  Rh9  1  0.167294  0.832706  0.125409  1
  Rh  Rh10  1  0.832723  0.167284  0.625385  1
  Rh  Rh11  1  0.334563  0.167286  0.625379  1
  Rh  Rh12  1  0.832729  0.665442  0.874589  1
  Rh  Rh13  1  0.832723  0.167284  0.874615  1
  Rh  Rh14  1  0.334563  0.167286  0.874621  1
  Rh  Rh15  1  0.665408  0.832704  0.374606  1
  Rh  Rh16  1  0.167294  0.832706  0.374591  1
  Rh  Rh17  1  0.167286  0.334589  0.374578  1
  Rh  Rh18  1  0.999950  0.999946  0.250000  1
  Rh  Rh19  1  0.000012  0.000025  0.750000  1
  Rh  Rh20  1  0.333320  0.666651  0.250000  1
  Rh  Rh21  1  0.666679  0.333350  0.750000  1
  Rh  Rh22  1  0.000010  0.000008  0.999984  1
  Rh  Rh23  1  0.000010  0.000008  0.500016  1
