# generated using pymatgen
data_TbY3Ge4F28
_symmetry_space_group_name_H-M   'P 1'
_cell_length_a   5.43660432
_cell_length_b   8.74650580
_cell_length_c   11.74990000
_cell_angle_alpha   62.33156281
_cell_angle_beta   90.01967611
_cell_angle_gamma   90.00522591
_symmetry_Int_Tables_number   1
_chemical_formula_structural   TbY3Ge4F28
_chemical_formula_sum   'Tb1 Y3 Ge4 F28'
_cell_volume   494.83267534
_cell_formula_units_Z   1
loop_
 _symmetry_equiv_pos_site_id
 _symmetry_equiv_pos_as_xyz
  1  'x, y, z'
loop_
 _atom_site_type_symbol
 _atom_site_label
 _atom_site_symmetry_multiplicity
 _atom_site_fract_x
 _atom_site_fract_y
 _atom_site_fract_z
 _atom_site_occupancy
  Tb  Tb0  1  0.239815  0.810283  0.764196  1
  Y  Y1  1  0.260472  0.810351  0.264157  1
  Y  Y2  1  0.739506  0.190024  0.735817  1
  Y  Y3  1  0.760469  0.189607  0.235869  1
  Ge  Ge4  1  0.758347  0.726018  0.042569  1
  Ge  Ge5  1  0.241567  0.273819  0.957640  1
  Ge  Ge6  1  0.258566  0.274010  0.457565  1
  Ge  Ge7  1  0.741735  0.725982  0.542247  1
  F  F8  1  0.933679  0.705926  0.422440  1
  F  F9  1  0.066475  0.294124  0.577261  1
  F  F10  1  0.433832  0.293820  0.077474  1
  F  F11  1  0.565838  0.706382  0.922689  1
  F  F12  1  0.485265  0.728005  0.133104  1
  F  F13  1  0.514685  0.271953  0.867142  1
  F  F14  1  0.985520  0.271772  0.367021  1
  F  F15  1  0.014810  0.728253  0.632627  1
  F  F16  1  0.948062  0.740505  0.167480  1
  F  F17  1  0.051976  0.259187  0.832783  1
  F  F18  1  0.448045  0.259101  0.332799  1
  F  F19  1  0.552497  0.740502  0.667030  1
  F  F20  1  0.771783  0.491198  0.136221  1
  F  F21  1  0.227851  0.508432  0.863982  1
  F  F22  1  0.272018  0.508852  0.363603  1
  F  F23  1  0.728225  0.491150  0.636109  1
  F  F24  1  0.958258  0.281914  0.040671  1
  F  F25  1  0.041268  0.717916  0.959461  1
  F  F26  1  0.458241  0.717816  0.459312  1
  F  F27  1  0.541942  0.282156  0.540450  1
  F  F28  1  0.739252  0.960815  0.452602  1
  F  F29  1  0.260802  0.039196  0.547591  1
  F  F30  1  0.239247  0.039013  0.047289  1
  F  F31  1  0.760787  0.960760  0.952882  1
  F  F32  1  0.594148  0.968627  0.228026  1
  F  F33  1  0.405802  0.032250  0.771952  1
  F  F34  1  0.094281  0.031309  0.271986  1
  F  F35  1  0.904935  0.968973  0.727951  1
