# generated using pymatgen
data_SmNp5(Ni3Sb4)2
_symmetry_space_group_name_H-M   'P 1'
_cell_length_a   8.14726183
_cell_length_b   8.14726039
_cell_length_c   8.14726100
_cell_angle_alpha   109.44168178
_cell_angle_beta   109.53031549
_cell_angle_gamma   109.44168237
_symmetry_Int_Tables_number   1
_chemical_formula_structural   SmNp5(Ni3Sb4)2
_chemical_formula_sum   'Sm1 Np5 Ni6 Sb8'
_cell_volume   416.30598416
_cell_formula_units_Z   1
loop_
 _symmetry_equiv_pos_site_id
 _symmetry_equiv_pos_as_xyz
  1  'x, y, z'
loop_
 _atom_site_type_symbol
 _atom_site_label
 _atom_site_symmetry_multiplicity
 _atom_site_fract_x
 _atom_site_fract_y
 _atom_site_fract_z
 _atom_site_occupancy
  Sm  Sm0  1  0.874306  0.249570  0.124624  1
  Np  Np1  1  0.625631  0.749727  0.374996  1
  Np  Np2  1  0.249030  0.126324  0.876600  1
  Np  Np3  1  0.753063  0.373549  0.626967  1
  Np  Np4  1  0.124457  0.872967  0.249740  1
  Np  Np5  1  0.373596  0.627101  0.746855  1
  Ni  Ni6  1  0.374562  0.249572  0.624484  1
  Ni  Ni7  1  0.124829  0.748750  0.873740  1
  Ni  Ni8  1  0.257607  0.631373  0.379070  1
  Ni  Ni9  1  0.747963  0.869604  0.128711  1
  Ni  Ni10  1  0.621975  0.380722  0.252667  1
  Ni  Ni11  1  0.872580  0.120708  0.741454  1
  Sb  Sb12  1  0.661866  0.499993  0.996768  1
  Sb  Sb13  1  0.497345  0.000730  0.662389  1
  Sb  Sb14  1  0.999814  0.663190  0.500283  1
  Sb  Sb15  1  0.836401  0.835944  0.837571  1
  Sb  Sb16  1  0.499591  0.000411  0.163105  1
  Sb  Sb17  1  0.163995  0.499987  0.999580  1
  Sb  Sb18  1  0.002236  0.163247  0.501917  1
  Sb  Sb19  1  0.339158  0.336532  0.338475  1
