# generated using pymatgen
data_Nd4AlGa17Ir6
_symmetry_space_group_name_H-M   'P 1'
_cell_length_a   7.64983952
_cell_length_b   7.64983984
_cell_length_c   9.62144004
_cell_angle_alpha   89.99026840
_cell_angle_beta   89.99022831
_cell_angle_gamma   119.66892755
_symmetry_Int_Tables_number   1
_chemical_formula_structural   Nd4AlGa17Ir6
_chemical_formula_sum   'Nd4 Al1 Ga17 Ir6'
_cell_volume   489.23166491
_cell_formula_units_Z   1
loop_
 _symmetry_equiv_pos_site_id
 _symmetry_equiv_pos_as_xyz
  1  'x, y, z'
loop_
 _atom_site_type_symbol
 _atom_site_label
 _atom_site_symmetry_multiplicity
 _atom_site_fract_x
 _atom_site_fract_y
 _atom_site_fract_z
 _atom_site_occupancy
  Nd  Nd0  1  0.998209  0.669353  0.249733  1
  Nd  Nd1  1  0.001386  0.329913  0.749243  1
  Nd  Nd2  1  0.669353  0.998208  0.249733  1
  Nd  Nd3  1  0.329912  0.001384  0.749244  1
  Al  Al4  1  0.336482  0.336482  0.952743  1
  Ga  Ga5  1  0.129343  0.129342  0.249429  1
  Ga  Ga6  1  0.870236  0.870236  0.749422  1
  Ga  Ga7  1  0.000994  0.334879  0.076911  1
  Ga  Ga8  1  0.998200  0.664692  0.921124  1
  Ga  Ga9  1  0.997546  0.664498  0.578498  1
  Ga  Ga10  1  0.335045  0.002169  0.421092  1
  Ga  Ga11  1  0.002169  0.335044  0.421092  1
  Ga  Ga12  1  0.664498  0.997546  0.578498  1
  Ga  Ga13  1  0.664691  0.998200  0.921125  1
  Ga  Ga14  1  0.334879  0.000994  0.076911  1
  Ga  Ga15  1  0.333176  0.333176  0.560358  1
  Ga  Ga16  1  0.666233  0.666233  0.440010  1
  Ga  Ga17  1  0.669841  0.669842  0.059660  1
  Ga  Ga18  1  0.339578  0.545492  0.249912  1
  Ga  Ga19  1  0.656805  0.453194  0.750296  1
  Ga  Ga20  1  0.545492  0.339579  0.249912  1
  Ga  Ga21  1  0.453195  0.656806  0.750296  1
  Ir  Ir22  1  0.668693  0.329221  0.999320  1
  Ir  Ir23  1  0.329221  0.668694  0.999320  1
  Ir  Ir24  1  0.329177  0.671513  0.499553  1
  Ir  Ir25  1  0.671513  0.329177  0.499553  1
  Ir  Ir26  1  0.004478  0.004478  0.997878  1
  Ir  Ir27  1  0.999655  0.999655  0.499137  1
