# generated using pymatgen
data_Er2Tm2Ni2C5
_symmetry_space_group_name_H-M   'P 1'
_cell_length_a   3.57583100
_cell_length_b   3.67045800
_cell_length_c   11.51414900
_cell_angle_alpha   90.00000000
_cell_angle_beta   90.00000000
_cell_angle_gamma   90.00000000
_symmetry_Int_Tables_number   1
_chemical_formula_structural   Er2Tm2Ni2C5
_chemical_formula_sum   'Er2 Tm2 Ni2 C5'
_cell_volume   151.12248600
_cell_formula_units_Z   1
loop_
 _symmetry_equiv_pos_site_id
 _symmetry_equiv_pos_as_xyz
  1  'x, y, z'
loop_
 _atom_site_type_symbol
 _atom_site_label
 _atom_site_symmetry_multiplicity
 _atom_site_fract_x
 _atom_site_fract_y
 _atom_site_fract_z
 _atom_site_occupancy
  Er  Er0  1  0.500000  0.209858  0.500000  1
  Er  Er1  1  0.000000  0.999059  0.000000  1
  Tm  Tm2  1  0.500000  0.502770  0.203164  1
  Tm  Tm3  1  0.500000  0.502770  0.796836  1
  Ni  Ni4  1  0.000000  0.697883  0.384003  1
  Ni  Ni5  1  0.000000  0.697883  0.615997  1
  C  C6  1  0.000000  0.000209  0.228648  1
  C  C7  1  0.000000  0.000209  0.771352  1
  C  C8  1  0.000000  0.198666  0.331921  1
  C  C9  1  0.000000  0.198666  0.668079  1
  C  C10  1  0.500000  0.493525  0.000000  1
