# generated using pymatgen
data_Dy2Ho14MgNi4Hg3
_symmetry_space_group_name_H-M   'P 1'
_cell_length_a   9.49001740
_cell_length_b   9.48270152
_cell_length_c   9.46749300
_cell_angle_alpha   60.05304318
_cell_angle_beta   60.07848669
_cell_angle_gamma   60.13255994
_symmetry_Int_Tables_number   1
_chemical_formula_structural   Dy2Ho14MgNi4Hg3
_chemical_formula_sum   'Dy2 Ho14 Mg1 Ni4 Hg3'
_cell_volume   603.64845665
_cell_formula_units_Z   1
loop_
 _symmetry_equiv_pos_site_id
 _symmetry_equiv_pos_as_xyz
  1  'x, y, z'
loop_
 _atom_site_type_symbol
 _atom_site_label
 _atom_site_symmetry_multiplicity
 _atom_site_fract_x
 _atom_site_fract_y
 _atom_site_fract_z
 _atom_site_occupancy
  Dy  Dy0  1  0.347572  0.346957  0.346768  1
  Dy  Dy1  1  0.347572  0.346957  0.958703  1
  Ho  Ho2  1  0.352513  0.950021  0.348733  1
  Ho  Ho3  1  0.940838  0.354907  0.352127  1
  Ho  Ho4  1  0.809850  0.191390  0.189727  1
  Ho  Ho5  1  0.186530  0.814021  0.811763  1
  Ho  Ho6  1  0.186530  0.814021  0.187685  1
  Ho  Ho7  1  0.809850  0.191390  0.809034  1
  Ho  Ho8  1  0.186746  0.189359  0.811947  1
  Ho  Ho9  1  0.810210  0.811669  0.189061  1
  Ho  Ho10  1  0.936488  0.564766  0.563737  1
  Ho  Ho11  1  0.563230  0.937146  0.935637  1
  Ho  Ho12  1  0.563231  0.937146  0.563987  1
  Ho  Ho13  1  0.936488  0.564766  0.935007  1
  Ho  Ho14  1  0.563974  0.564958  0.935533  1
  Ho  Ho15  1  0.937877  0.938601  0.561761  1
  Mg  Mg16  1  0.285027  0.569255  0.572859  1
  Ni  Ni17  1  0.138316  0.142489  0.149795  1
  Ni  Ni18  1  0.138316  0.142489  0.569399  1
  Ni  Ni19  1  0.136213  0.573297  0.145244  1
  Ni  Ni20  1  0.573806  0.139503  0.143345  1
  Hg  Hg21  1  0.582855  0.586303  0.587430  1
  Hg  Hg22  1  0.582855  0.586303  0.243411  1
  Hg  Hg23  1  0.583110  0.242287  0.587302  1
