# generated using pymatgen
data_Sm2Ho2GaNi13
_symmetry_space_group_name_H-M   'P 1'
_cell_length_a   4.94753607
_cell_length_b   4.94753704
_cell_length_c   12.41399205
_cell_angle_alpha   78.59009831
_cell_angle_beta   78.59010672
_cell_angle_gamma   60.53056341
_symmetry_Int_Tables_number   1
_chemical_formula_structural   Sm2Ho2GaNi13
_chemical_formula_sum   'Sm2 Ho2 Ga1 Ni13'
_cell_volume   257.52276581
_cell_formula_units_Z   1
loop_
 _symmetry_equiv_pos_site_id
 _symmetry_equiv_pos_as_xyz
  1  'x, y, z'
loop_
 _atom_site_type_symbol
 _atom_site_label
 _atom_site_symmetry_multiplicity
 _atom_site_fract_x
 _atom_site_fract_y
 _atom_site_fract_z
 _atom_site_occupancy
  Sm  Sm0  1  0.946453  0.946453  0.161190  1
  Sm  Sm1  1  0.053547  0.053547  0.838810  1
  Ho  Ho2  1  0.851551  0.851551  0.444242  1
  Ho  Ho3  1  0.148449  0.148449  0.555758  1
  Ga  Ga4  1  0.500000  0.500000  0.000000  1
  Ni  Ni5  1  0.500000  0.500000  0.500000  1
  Ni  Ni6  1  0.724565  0.724565  0.832120  1
  Ni  Ni7  1  0.275435  0.275435  0.167880  1
  Ni  Ni8  1  0.612908  0.612908  0.167727  1
  Ni  Ni9  1  0.387092  0.387092  0.832273  1
  Ni  Ni10  1  0.000000  0.500000  0.000000  1
  Ni  Ni11  1  0.500000  0.000000  0.000000  1
  Ni  Ni12  1  0.388398  0.388398  0.332078  1
  Ni  Ni13  1  0.890057  0.388139  0.332233  1
  Ni  Ni14  1  0.388139  0.890057  0.332233  1
  Ni  Ni15  1  0.611602  0.611602  0.667922  1
  Ni  Ni16  1  0.109943  0.611861  0.667767  1
  Ni  Ni17  1  0.611861  0.109943  0.667767  1
