# generated using pymatgen
data_K2Yb(Si2O5)2
_symmetry_space_group_name_H-M   'P 1'
_cell_length_a   7.22421775
_cell_length_b   8.25896465
_cell_length_c   10.23088500
_cell_angle_alpha   104.00129852
_cell_angle_beta   102.84100606
_cell_angle_gamma   112.64606903
_symmetry_Int_Tables_number   1
_chemical_formula_structural   K2Yb(Si2O5)2
_chemical_formula_sum   'K4 Yb2 Si8 O20'
_cell_volume   511.59273472
_cell_formula_units_Z   2
loop_
 _symmetry_equiv_pos_site_id
 _symmetry_equiv_pos_as_xyz
  1  'x, y, z'
loop_
 _atom_site_type_symbol
 _atom_site_label
 _atom_site_symmetry_multiplicity
 _atom_site_fract_x
 _atom_site_fract_y
 _atom_site_fract_z
 _atom_site_occupancy
  K  K0  1  0.656314  0.816499  0.995125  1
  K  K1  1  0.714277  0.205215  0.421882  1
  K  K2  1  0.285723  0.794785  0.578118  1
  K  K3  1  0.343686  0.183501  0.004875  1
  Yb  Yb4  1  0.757173  0.696983  0.590567  1
  Yb  Yb5  1  0.242827  0.303017  0.409433  1
  Si  Si6  1  0.082754  0.675935  0.866038  1
  Si  Si7  1  0.917246  0.324065  0.133962  1
  Si  Si8  1  0.218271  0.901220  0.197384  1
  Si  Si9  1  0.781729  0.098780  0.802616  1
  Si  Si10  1  0.386597  0.630123  0.262387  1
  Si  Si11  1  0.185733  0.351595  0.748189  1
  Si  Si12  1  0.814267  0.648405  0.251811  1
  Si  Si13  1  0.613403  0.369877  0.737613  1
  O  O14  1  0.972280  0.805558  0.199053  1
  O  O15  1  0.027720  0.194442  0.800947  1
  O  O16  1  0.840891  0.538994  0.862391  1
  O  O17  1  0.159109  0.461006  0.137609  1
  O  O18  1  0.576744  0.644854  0.193135  1
  O  O19  1  0.423256  0.355146  0.806865  1
  O  O20  1  0.222458  0.558551  0.848835  1
  O  O21  1  0.777542  0.441449  0.151165  1
  O  O22  1  0.900383  0.693657  0.419369  1
  O  O23  1  0.099617  0.306343  0.580631  1
  O  O24  1  0.430543  0.593362  0.410099  1
  O  O25  1  0.569457  0.406638  0.589901  1
  O  O26  1  0.075358  0.779935  0.754735  1
  O  O27  1  0.924642  0.220065  0.245265  1
  O  O28  1  0.786845  0.168449  0.968626  1
  O  O29  1  0.213155  0.831551  0.031374  1
  O  O30  1  0.631450  0.171133  0.708765  1
  O  O31  1  0.368550  0.828867  0.291235  1
  O  O32  1  0.327052  0.124647  0.259471  1
  O  O33  1  0.672948  0.875353  0.740529  1
