# generated using pymatgen
data_LiPr8Ho8Sc3Si16
_symmetry_space_group_name_H-M   'P 1'
_cell_length_a   7.34513783
_cell_length_b   7.75740688
_cell_length_c   14.73995000
_cell_angle_alpha   90.00000000
_cell_angle_beta   90.00000000
_cell_angle_gamma   90.05454313
_symmetry_Int_Tables_number   1
_chemical_formula_structural   LiPr8Ho8Sc3Si16
_chemical_formula_sum   'Li1 Pr8 Ho8 Sc3 Si16'
_cell_volume   839.87051373
_cell_formula_units_Z   1
loop_
 _symmetry_equiv_pos_site_id
 _symmetry_equiv_pos_as_xyz
  1  'x, y, z'
loop_
 _atom_site_type_symbol
 _atom_site_label
 _atom_site_symmetry_multiplicity
 _atom_site_fract_x
 _atom_site_fract_y
 _atom_site_fract_z
 _atom_site_occupancy
  Li  Li0  1  0.655602  0.989219  0.750000  1
  Pr  Pr1  1  0.017531  0.178510  0.401413  1
  Pr  Pr2  1  0.517407  0.322279  0.401186  1
  Pr  Pr3  1  0.482553  0.686731  0.898527  1
  Pr  Pr4  1  0.482553  0.686731  0.601473  1
  Pr  Pr5  1  0.974807  0.822380  0.600863  1
  Pr  Pr6  1  0.974807  0.822380  0.899137  1
  Pr  Pr7  1  0.517407  0.322279  0.098814  1
  Pr  Pr8  1  0.017531  0.178510  0.098587  1
  Ho  Ho9  1  0.329844  0.175011  0.625615  1
  Ho  Ho10  1  0.677607  0.820243  0.374005  1
  Ho  Ho11  1  0.177400  0.677415  0.375425  1
  Ho  Ho12  1  0.821286  0.315573  0.874411  1
  Ho  Ho13  1  0.821286  0.315573  0.625589  1
  Ho  Ho14  1  0.329844  0.175011  0.874385  1
  Ho  Ho15  1  0.177400  0.677415  0.124575  1
  Ho  Ho16  1  0.677607  0.820243  0.125995  1
  Sc  Sc17  1  0.845550  0.490363  0.250000  1
  Sc  Sc18  1  0.344496  0.010294  0.250000  1
  Sc  Sc19  1  0.153146  0.508330  0.750000  1
  Si  Si20  1  0.268308  0.875949  0.750000  1
  Si  Si21  1  0.477012  0.605665  0.250000  1
  Si  Si22  1  0.032509  0.107762  0.750000  1
  Si  Si23  1  0.522034  0.403731  0.750000  1
  Si  Si24  1  0.149482  0.468731  0.541212  1
  Si  Si25  1  0.977707  0.891340  0.250000  1
  Si  Si26  1  0.717612  0.126120  0.250000  1
  Si  Si27  1  0.852374  0.532138  0.037638  1
  Si  Si28  1  0.352219  0.967481  0.040093  1
  Si  Si29  1  0.149482  0.468731  0.958788  1
  Si  Si30  1  0.650341  0.036385  0.532181  1
  Si  Si31  1  0.352219  0.967481  0.459907  1
  Si  Si32  1  0.852374  0.532138  0.462362  1
  Si  Si33  1  0.781799  0.610614  0.750000  1
  Si  Si34  1  0.218523  0.374853  0.250000  1
  Si  Si35  1  0.650341  0.036385  0.967819  1
