# generated using pymatgen
data_NdMgB6Ru
_symmetry_space_group_name_H-M   'P 1'
_cell_length_a   3.63520300
_cell_length_b   8.97607600
_cell_length_c   11.43092200
_cell_angle_alpha   90.00000000
_cell_angle_beta   90.00000000
_cell_angle_gamma   90.00000000
_symmetry_Int_Tables_number   1
_chemical_formula_structural   NdMgB6Ru
_chemical_formula_sum   'Nd4 Mg4 B24 Ru4'
_cell_volume   372.98936628
_cell_formula_units_Z   4
loop_
 _symmetry_equiv_pos_site_id
 _symmetry_equiv_pos_as_xyz
  1  'x, y, z'
loop_
 _atom_site_type_symbol
 _atom_site_label
 _atom_site_symmetry_multiplicity
 _atom_site_fract_x
 _atom_site_fract_y
 _atom_site_fract_z
 _atom_site_occupancy
  Nd  Nd0  1  0.000000  0.322003  0.414752  1
  Nd  Nd1  1  0.000000  0.677997  0.585248  1
  Nd  Nd2  1  0.000000  0.822003  0.085248  1
  Nd  Nd3  1  0.000000  0.177997  0.914752  1
  Mg  Mg4  1  0.000000  0.943501  0.369993  1
  Mg  Mg5  1  0.000000  0.056499  0.630007  1
  Mg  Mg6  1  0.000000  0.443501  0.130007  1
  Mg  Mg7  1  0.000000  0.556499  0.869993  1
  B  B8  1  0.500000  0.557540  0.429433  1
  B  B9  1  0.500000  0.442460  0.570567  1
  B  B10  1  0.500000  0.057540  0.070567  1
  B  B11  1  0.500000  0.942460  0.929433  1
  B  B12  1  0.500000  0.755727  0.415432  1
  B  B13  1  0.500000  0.244273  0.584568  1
  B  B14  1  0.500000  0.255727  0.084568  1
  B  B15  1  0.500000  0.744273  0.915432  1
  B  B16  1  0.500000  0.792990  0.263781  1
  B  B17  1  0.500000  0.207010  0.736219  1
  B  B18  1  0.500000  0.292990  0.236219  1
  B  B19  1  0.500000  0.707010  0.763781  1
  B  B20  1  0.500000  0.626679  0.182957  1
  B  B21  1  0.500000  0.373321  0.817043  1
  B  B22  1  0.500000  0.126679  0.317043  1
  B  B23  1  0.500000  0.873321  0.682957  1
  B  B24  1  0.500000  0.982528  0.214061  1
  B  B25  1  0.500000  0.017472  0.785939  1
  B  B26  1  0.500000  0.482528  0.285939  1
  B  B27  1  0.500000  0.517472  0.714061  1
  B  B28  1  0.500000  0.591419  0.024455  1
  B  B29  1  0.500000  0.408581  0.975545  1
  B  B30  1  0.500000  0.091419  0.475545  1
  B  B31  1  0.500000  0.908581  0.524455  1
  Ru  Ru32  1  0.000000  0.641873  0.316635  1
  Ru  Ru33  1  0.000000  0.358127  0.683365  1
  Ru  Ru34  1  0.000000  0.141873  0.183365  1
  Ru  Ru35  1  0.000000  0.858127  0.816635  1
