# generated using pymatgen
data_Tm4Si2B8Os
_symmetry_space_group_name_H-M   'P 1'
_cell_length_a   7.06091700
_cell_length_b   7.06091700
_cell_length_c   7.53167900
_cell_angle_alpha   90.00000000
_cell_angle_beta   90.00000000
_cell_angle_gamma   90.00000000
_symmetry_Int_Tables_number   1
_chemical_formula_structural   Tm4Si2B8Os
_chemical_formula_sum   'Tm8 Si4 B16 Os2'
_cell_volume   375.50352222
_cell_formula_units_Z   2
loop_
 _symmetry_equiv_pos_site_id
 _symmetry_equiv_pos_as_xyz
  1  'x, y, z'
loop_
 _atom_site_type_symbol
 _atom_site_label
 _atom_site_symmetry_multiplicity
 _atom_site_fract_x
 _atom_site_fract_y
 _atom_site_fract_z
 _atom_site_occupancy
  Tm  Tm0  1  0.678458  0.178458  0.236360  1
  Tm  Tm1  1  0.321542  0.821542  0.763640  1
  Tm  Tm2  1  0.321542  0.821542  0.236360  1
  Tm  Tm3  1  0.821542  0.678458  0.236360  1
  Tm  Tm4  1  0.821542  0.678458  0.763640  1
  Tm  Tm5  1  0.678458  0.178458  0.763640  1
  Tm  Tm6  1  0.178458  0.321542  0.763640  1
  Tm  Tm7  1  0.178458  0.321542  0.236360  1
  Si  Si8  1  0.123822  0.623822  0.500000  1
  Si  Si9  1  0.876178  0.376178  0.500000  1
  Si  Si10  1  0.376178  0.123822  0.500000  1
  Si  Si11  1  0.623822  0.876178  0.500000  1
  B  B12  1  0.172448  0.040963  0.000000  1
  B  B13  1  0.827552  0.959037  0.000000  1
  B  B14  1  0.959037  0.172448  0.000000  1
  B  B15  1  0.327552  0.540963  0.000000  1
  B  B16  1  0.040963  0.827552  0.000000  1
  B  B17  1  0.672448  0.459037  0.000000  1
  B  B18  1  0.540963  0.672448  0.000000  1
  B  B19  1  0.459037  0.327552  0.000000  1
  B  B20  1  0.089687  0.589687  0.000000  1
  B  B21  1  0.910313  0.410313  0.000000  1
  B  B22  1  0.410313  0.089687  0.000000  1
  B  B23  1  0.589687  0.910313  0.000000  1
  B  B24  1  0.000000  0.000000  0.176466  1
  B  B25  1  0.000000  0.000000  0.823534  1
  B  B26  1  0.500000  0.500000  0.823534  1
  B  B27  1  0.500000  0.500000  0.176466  1
  Os  Os28  1  0.000000  0.000000  0.500000  1
  Os  Os29  1  0.500000  0.500000  0.500000  1
