# generated using pymatgen
data_Ho5Er3(TmRh)4
_symmetry_space_group_name_H-M   'P 1'
_cell_length_a   6.27707854
_cell_length_b   7.13251558
_cell_length_c   9.31061900
_cell_angle_alpha   90.01314887
_cell_angle_beta   89.96039882
_cell_angle_gamma   89.98310723
_symmetry_Int_Tables_number   1
_chemical_formula_structural   Ho5Er3(TmRh)4
_chemical_formula_sum   'Ho5 Er3 Tm4 Rh4'
_cell_volume   416.84895057
_cell_formula_units_Z   1
loop_
 _symmetry_equiv_pos_site_id
 _symmetry_equiv_pos_as_xyz
  1  'x, y, z'
loop_
 _atom_site_type_symbol
 _atom_site_label
 _atom_site_symmetry_multiplicity
 _atom_site_fract_x
 _atom_site_fract_y
 _atom_site_fract_z
 _atom_site_occupancy
  Ho  Ho0  1  0.672712  0.178595  0.062838  1
  Ho  Ho1  1  0.867373  0.966072  0.749789  1
  Ho  Ho2  1  0.366708  0.534011  0.250130  1
  Ho  Ho3  1  0.632531  0.466390  0.749792  1
  Ho  Ho4  1  0.133247  0.033462  0.250139  1
  Er  Er5  1  0.827406  0.678522  0.063348  1
  Er  Er6  1  0.172596  0.321589  0.563299  1
  Er  Er7  1  0.672723  0.178350  0.437022  1
  Tm  Tm8  1  0.172650  0.321643  0.936366  1
  Tm  Tm9  1  0.827211  0.678560  0.436621  1
  Tm  Tm10  1  0.327255  0.821533  0.563416  1
  Tm  Tm11  1  0.327068  0.821444  0.936375  1
  Rh  Rh12  1  0.053951  0.615915  0.750099  1
  Rh  Rh13  1  0.553947  0.883744  0.250605  1
  Rh  Rh14  1  0.445821  0.115503  0.749798  1
  Rh  Rh15  1  0.946802  0.384664  0.250362  1
