# generated using pymatgen
data_Nd3Cr(Ni4As3)2
_symmetry_space_group_name_H-M   'P 1'
_cell_length_a   3.98609800
_cell_length_b   11.06852000
_cell_length_c   12.89671500
_cell_angle_alpha   90.00000000
_cell_angle_beta   90.00000000
_cell_angle_gamma   90.00000000
_symmetry_Int_Tables_number   1
_chemical_formula_structural   Nd3Cr(Ni4As3)2
_chemical_formula_sum   'Nd6 Cr2 Ni16 As12'
_cell_volume   569.00571524
_cell_formula_units_Z   2
loop_
 _symmetry_equiv_pos_site_id
 _symmetry_equiv_pos_as_xyz
  1  'x, y, z'
loop_
 _atom_site_type_symbol
 _atom_site_label
 _atom_site_symmetry_multiplicity
 _atom_site_fract_x
 _atom_site_fract_y
 _atom_site_fract_z
 _atom_site_occupancy
  Nd  Nd0  1  0.000000  0.500000  0.520857  1
  Nd  Nd1  1  0.500000  0.000000  0.479143  1
  Nd  Nd2  1  0.500000  0.815296  0.205772  1
  Nd  Nd3  1  0.500000  0.184704  0.205772  1
  Nd  Nd4  1  0.000000  0.684704  0.794228  1
  Nd  Nd5  1  0.000000  0.315296  0.794228  1
  Cr  Cr6  1  0.500000  0.500000  0.148938  1
  Cr  Cr7  1  0.000000  0.000000  0.851062  1
  Ni  Ni8  1  0.500000  0.500000  0.698631  1
  Ni  Ni9  1  0.000000  0.000000  0.301369  1
  Ni  Ni10  1  0.000000  0.500000  0.980269  1
  Ni  Ni11  1  0.500000  0.000000  0.019731  1
  Ni  Ni12  1  0.500000  0.333168  0.993959  1
  Ni  Ni13  1  0.500000  0.666832  0.993959  1
  Ni  Ni14  1  0.000000  0.166832  0.006041  1
  Ni  Ni15  1  0.000000  0.833168  0.006041  1
  Ni  Ni16  1  0.500000  0.304113  0.423185  1
  Ni  Ni17  1  0.500000  0.695887  0.423185  1
  Ni  Ni18  1  0.000000  0.195887  0.576815  1
  Ni  Ni19  1  0.000000  0.804113  0.576815  1
  Ni  Ni20  1  0.500000  0.881954  0.710685  1
  Ni  Ni21  1  0.500000  0.118046  0.710685  1
  Ni  Ni22  1  0.000000  0.618046  0.289315  1
  Ni  Ni23  1  0.000000  0.381954  0.289315  1
  As  As24  1  0.500000  0.500000  0.878237  1
  As  As25  1  0.000000  0.000000  0.121763  1
  As  As26  1  0.500000  0.500000  0.342508  1
  As  As27  1  0.000000  0.000000  0.657492  1
  As  As28  1  0.500000  0.310799  0.611402  1
  As  As29  1  0.500000  0.689201  0.611402  1
  As  As30  1  0.000000  0.189201  0.388598  1
  As  As31  1  0.000000  0.810799  0.388598  1
  As  As32  1  0.500000  0.848171  0.894638  1
  As  As33  1  0.500000  0.151829  0.894638  1
  As  As34  1  0.000000  0.651829  0.105362  1
  As  As35  1  0.000000  0.348171  0.105362  1
