# generated using pymatgen
data_SmZr5Al4(RhN)2
_symmetry_space_group_name_H-M   'P 1'
_cell_length_a   8.77248656
_cell_length_b   8.77248833
_cell_length_c   8.72402700
_cell_angle_alpha   60.18256146
_cell_angle_beta   60.18255483
_cell_angle_gamma   59.63486305
_symmetry_Int_Tables_number   1
_chemical_formula_structural   SmZr5Al4(RhN)2
_chemical_formula_sum   'Sm2 Zr10 Al8 Rh4 N4'
_cell_volume   474.70202665
_cell_formula_units_Z   2
loop_
 _symmetry_equiv_pos_site_id
 _symmetry_equiv_pos_as_xyz
  1  'x, y, z'
loop_
 _atom_site_type_symbol
 _atom_site_label
 _atom_site_symmetry_multiplicity
 _atom_site_fract_x
 _atom_site_fract_y
 _atom_site_fract_z
 _atom_site_occupancy
  Sm  Sm0  1  0.445158  0.445158  0.054842  1
  Sm  Sm1  1  0.195158  0.195158  0.804842  1
  Zr  Zr2  1  0.808522  0.808522  0.191478  1
  Zr  Zr3  1  0.056678  0.438829  0.437222  1
  Zr  Zr4  1  0.438829  0.056678  0.067272  1
  Zr  Zr5  1  0.058522  0.058522  0.441478  1
  Zr  Zr6  1  0.056678  0.438829  0.067272  1
  Zr  Zr7  1  0.438829  0.056678  0.437222  1
  Zr  Zr8  1  0.182728  0.812778  0.193322  1
  Zr  Zr9  1  0.182728  0.812778  0.811171  1
  Zr  Zr10  1  0.812778  0.182728  0.193322  1
  Zr  Zr11  1  0.812778  0.182728  0.811171  1
  Al  Al12  1  0.418479  0.740903  0.420308  1
  Al  Al13  1  0.829692  0.829692  0.509097  1
  Al  Al14  1  0.515705  0.830575  0.826860  1
  Al  Al15  1  0.829692  0.829692  0.831521  1
  Al  Al16  1  0.740903  0.418479  0.420308  1
  Al  Al17  1  0.423140  0.423140  0.419425  1
  Al  Al18  1  0.423140  0.423140  0.734295  1
  Al  Al19  1  0.830575  0.515705  0.826860  1
  Rh  Rh20  1  0.632069  0.123798  0.622066  1
  Rh  Rh21  1  0.627934  0.627934  0.126202  1
  Rh  Rh22  1  0.123798  0.632069  0.622066  1
  Rh  Rh23  1  0.627934  0.627934  0.617931  1
  N  N24  1  0.113596  0.630182  0.128111  1
  N  N25  1  0.121889  0.121889  0.619818  1
  N  N26  1  0.630182  0.113596  0.128111  1
  N  N27  1  0.121889  0.121889  0.136404  1
