# generated using pymatgen
data_Zr4TiZn(Co5B2)2
_symmetry_space_group_name_H-M   'P 1'
_cell_length_a   8.68620400
_cell_length_b   8.68620400
_cell_length_c   3.10977200
_cell_angle_alpha   90.00000000
_cell_angle_beta   90.00000000
_cell_angle_gamma   90.00000000
_symmetry_Int_Tables_number   1
_chemical_formula_structural   Zr4TiZn(Co5B2)2
_chemical_formula_sum   'Zr4 Ti1 Zn1 Co10 B4'
_cell_volume   234.63273255
_cell_formula_units_Z   1
loop_
 _symmetry_equiv_pos_site_id
 _symmetry_equiv_pos_as_xyz
  1  'x, y, z'
loop_
 _atom_site_type_symbol
 _atom_site_label
 _atom_site_symmetry_multiplicity
 _atom_site_fract_x
 _atom_site_fract_y
 _atom_site_fract_z
 _atom_site_occupancy
  Zr  Zr0  1  0.826722  0.319390  0.000000  1
  Zr  Zr1  1  0.319390  0.173278  0.000000  1
  Zr  Zr2  1  0.680610  0.826722  0.000000  1
  Zr  Zr3  1  0.173278  0.680610  0.000000  1
  Ti  Ti4  1  0.500000  0.500000  0.000000  1
  Zn  Zn5  1  0.000000  0.000000  0.000000  1
  Co  Co6  1  0.500000  0.000000  0.500000  1
  Co  Co7  1  0.000000  0.500000  0.500000  1
  Co  Co8  1  0.070531  0.225506  0.500000  1
  Co  Co9  1  0.225506  0.929469  0.500000  1
  Co  Co10  1  0.774494  0.070531  0.500000  1
  Co  Co11  1  0.929469  0.774494  0.500000  1
  Co  Co12  1  0.432731  0.722563  0.500000  1
  Co  Co13  1  0.567269  0.277437  0.500000  1
  Co  Co14  1  0.722563  0.567269  0.500000  1
  Co  Co15  1  0.277437  0.432731  0.500000  1
  B  B16  1  0.618443  0.118950  0.000000  1
  B  B17  1  0.118950  0.381557  0.000000  1
  B  B18  1  0.881050  0.618443  0.000000  1
  B  B19  1  0.381557  0.881050  0.000000  1
