# generated using pymatgen
data_La3Pr(Ga5Pt3)2
_symmetry_space_group_name_H-M   'P 1'
_cell_length_a   8.71935867
_cell_length_b   8.72108032
_cell_length_c   8.72108146
_cell_angle_alpha   139.41991569
_cell_angle_beta   106.52366088
_cell_angle_gamma   87.48613053
_symmetry_Int_Tables_number   1
_chemical_formula_structural   La3Pr(Ga5Pt3)2
_chemical_formula_sum   'La3 Pr1 Ga10 Pt6'
_cell_volume   397.51463610
_cell_formula_units_Z   1
loop_
 _symmetry_equiv_pos_site_id
 _symmetry_equiv_pos_as_xyz
  1  'x, y, z'
loop_
 _atom_site_type_symbol
 _atom_site_label
 _atom_site_symmetry_multiplicity
 _atom_site_fract_x
 _atom_site_fract_y
 _atom_site_fract_z
 _atom_site_occupancy
  La  La0  1  0.860248  0.632333  0.227914  1
  La  La1  1  0.139233  0.367978  0.771255  1
  La  La2  1  0.404386  0.132635  0.271751  1
  Pr  Pr3  1  0.595583  0.867050  0.728533  1
  Ga  Ga4  1  0.501053  0.750511  0.252502  1
  Ga  Ga5  1  0.501053  0.248549  0.750542  1
  Ga  Ga6  1  0.223346  0.972375  0.749590  1
  Ga  Ga7  1  0.776850  0.528865  0.750510  1
  Ga  Ga8  1  0.776850  0.026339  0.247986  1
  Ga  Ga9  1  0.223346  0.473756  0.250969  1
  Ga  Ga10  1  0.047469  0.895231  0.152237  1
  Ga  Ga11  1  0.951574  0.104272  0.847301  1
  Ga  Ga12  1  0.741960  0.395271  0.346690  1
  Ga  Ga13  1  0.257766  0.605290  0.652476  1
  Pt  Pt14  1  0.999824  0.749791  0.749565  1
  Pt  Pt15  1  0.999824  0.250259  0.250034  1
  Pt  Pt16  1  0.250634  0.861430  0.389204  1
  Pt  Pt17  1  0.750330  0.139625  0.610705  1
  Pt  Pt18  1  0.471182  0.360598  0.110584  1
  Pt  Pt19  1  0.527492  0.637843  0.889649  1
