# generated using pymatgen
data_Lu5ZnCoTe2
_symmetry_space_group_name_H-M   'P 1'
_cell_length_a   8.46724315
_cell_length_b   8.46724441
_cell_length_c   7.68093142
_cell_angle_alpha   91.57775323
_cell_angle_beta   91.57775120
_cell_angle_gamma   126.02418477
_symmetry_Int_Tables_number   1
_chemical_formula_structural   Lu5ZnCoTe2
_chemical_formula_sum   'Lu10 Zn2 Co2 Te4'
_cell_volume   444.55098393
_cell_formula_units_Z   2
loop_
 _symmetry_equiv_pos_site_id
 _symmetry_equiv_pos_as_xyz
  1  'x, y, z'
loop_
 _atom_site_type_symbol
 _atom_site_label
 _atom_site_symmetry_multiplicity
 _atom_site_fract_x
 _atom_site_fract_y
 _atom_site_fract_z
 _atom_site_occupancy
  Lu  Lu0  1  0.000000  0.000000  0.000000  1
  Lu  Lu1  1  0.500000  0.500000  0.500000  1
  Lu  Lu2  1  0.805045  0.565764  0.183113  1
  Lu  Lu3  1  0.434236  0.194955  0.816887  1
  Lu  Lu4  1  0.966607  0.739993  0.647447  1
  Lu  Lu5  1  0.260007  0.033393  0.352553  1
  Lu  Lu6  1  0.194955  0.434236  0.816887  1
  Lu  Lu7  1  0.565764  0.805045  0.183113  1
  Lu  Lu8  1  0.033393  0.260007  0.352553  1
  Lu  Lu9  1  0.739993  0.966607  0.647447  1
  Zn  Zn10  1  0.627123  0.627123  0.874203  1
  Zn  Zn11  1  0.372877  0.372877  0.125797  1
  Co  Co12  1  0.866158  0.866158  0.368641  1
  Co  Co13  1  0.133842  0.133842  0.631359  1
  Te  Te14  1  0.211518  0.788482  0.000000  1
  Te  Te15  1  0.708840  0.291160  0.500000  1
  Te  Te16  1  0.788482  0.211518  0.000000  1
  Te  Te17  1  0.291160  0.708840  0.500000  1
