# generated using pymatgen
data_NdLu5Co16(TcP6)2
_symmetry_space_group_name_H-M   'P 1'
_cell_length_a   3.68524300
_cell_length_b   10.47500400
_cell_length_c   12.14956000
_cell_angle_alpha   90.00000000
_cell_angle_beta   90.00000000
_cell_angle_gamma   90.00000000
_symmetry_Int_Tables_number   1
_chemical_formula_structural   NdLu5Co16(TcP6)2
_chemical_formula_sum   'Nd1 Lu5 Co16 Tc2 P12'
_cell_volume   469.00867698
_cell_formula_units_Z   1
loop_
 _symmetry_equiv_pos_site_id
 _symmetry_equiv_pos_as_xyz
  1  'x, y, z'
loop_
 _atom_site_type_symbol
 _atom_site_label
 _atom_site_symmetry_multiplicity
 _atom_site_fract_x
 _atom_site_fract_y
 _atom_site_fract_z
 _atom_site_occupancy
  Nd  Nd0  1  0.000000  0.500000  0.525795  1
  Lu  Lu1  1  0.500000  0.000000  0.473920  1
  Lu  Lu2  1  0.500000  0.819079  0.205435  1
  Lu  Lu3  1  0.500000  0.180921  0.205435  1
  Lu  Lu4  1  0.000000  0.682164  0.795472  1
  Lu  Lu5  1  0.000000  0.317836  0.795472  1
  Co  Co6  1  0.500000  0.500000  0.705902  1
  Co  Co7  1  0.000000  0.000000  0.296921  1
  Co  Co8  1  0.000000  0.500000  0.987314  1
  Co  Co9  1  0.500000  0.000000  0.013349  1
  Co  Co10  1  0.500000  0.331713  0.989378  1
  Co  Co11  1  0.500000  0.668287  0.989378  1
  Co  Co12  1  0.000000  0.167610  0.010602  1
  Co  Co13  1  0.000000  0.832390  0.010602  1
  Co  Co14  1  0.500000  0.292503  0.430059  1
  Co  Co15  1  0.500000  0.707497  0.430059  1
  Co  Co16  1  0.000000  0.199924  0.569171  1
  Co  Co17  1  0.000000  0.800076  0.569171  1
  Co  Co18  1  0.500000  0.879350  0.708519  1
  Co  Co19  1  0.500000  0.120650  0.708519  1
  Co  Co20  1  0.000000  0.623022  0.290411  1
  Co  Co21  1  0.000000  0.376978  0.290411  1
  Tc  Tc22  1  0.500000  0.500000  0.155379  1
  Tc  Tc23  1  0.000000  0.000000  0.843880  1
  P  P24  1  0.500000  0.500000  0.881116  1
  P  P25  1  0.000000  0.000000  0.120056  1
  P  P26  1  0.500000  0.500000  0.346152  1
  P  P27  1  0.000000  0.000000  0.649715  1
  P  P28  1  0.500000  0.308543  0.618958  1
  P  P29  1  0.500000  0.691457  0.618958  1
  P  P30  1  0.000000  0.186177  0.382712  1
  P  P31  1  0.000000  0.813823  0.382712  1
  P  P32  1  0.500000  0.845750  0.891813  1
  P  P33  1  0.500000  0.154250  0.891813  1
  P  P34  1  0.000000  0.655397  0.107721  1
  P  P35  1  0.000000  0.344603  0.107721  1
