# generated using pymatgen
data_Er5Tm5(CoBi2)2
_symmetry_space_group_name_H-M   'P 1'
_cell_length_a   7.87538993
_cell_length_b   8.84379200
_cell_length_c   12.33022249
_cell_angle_alpha   90.00000000
_cell_angle_beta   89.94402849
_cell_angle_gamma   90.00000000
_symmetry_Int_Tables_number   1
_chemical_formula_structural   Er5Tm5(CoBi2)2
_chemical_formula_sum   'Er10 Tm10 Co4 Bi8'
_cell_volume   858.77875395
_cell_formula_units_Z   2
loop_
 _symmetry_equiv_pos_site_id
 _symmetry_equiv_pos_as_xyz
  1  'x, y, z'
loop_
 _atom_site_type_symbol
 _atom_site_label
 _atom_site_symmetry_multiplicity
 _atom_site_fract_x
 _atom_site_fract_y
 _atom_site_fract_z
 _atom_site_occupancy
  Er  Er0  1  0.153866  0.250000  0.799969  1
  Er  Er1  1  0.846134  0.750000  0.200031  1
  Er  Er2  1  0.118769  0.750000  0.813709  1
  Er  Er3  1  0.881231  0.250000  0.186291  1
  Er  Er4  1  0.619071  0.250000  0.686198  1
  Er  Er5  1  0.380929  0.750000  0.313802  1
  Er  Er6  1  0.554451  0.750000  0.997470  1
  Er  Er7  1  0.445549  0.250000  0.002530  1
  Er  Er8  1  0.054733  0.250000  0.502595  1
  Er  Er9  1  0.945267  0.750000  0.497405  1
  Tm  Tm10  1  0.653135  0.750000  0.698887  1
  Tm  Tm11  1  0.346865  0.250000  0.301113  1
  Tm  Tm12  1  0.826923  0.463227  0.936037  1
  Tm  Tm13  1  0.173077  0.536773  0.063963  1
  Tm  Tm14  1  0.327077  0.536973  0.563989  1
  Tm  Tm15  1  0.173077  0.963227  0.063963  1
  Tm  Tm16  1  0.672923  0.463027  0.436011  1
  Tm  Tm17  1  0.826923  0.036773  0.936037  1
  Tm  Tm18  1  0.672923  0.036973  0.436011  1
  Tm  Tm19  1  0.327077  0.963027  0.563989  1
  Co  Co20  1  0.936193  0.750000  0.993175  1
  Co  Co21  1  0.063807  0.250000  0.006825  1
  Co  Co22  1  0.436268  0.250000  0.507068  1
  Co  Co23  1  0.563732  0.750000  0.492932  1
  Bi  Bi24  1  0.932066  0.007636  0.673314  1
  Bi  Bi25  1  0.067934  0.992364  0.326686  1
  Bi  Bi26  1  0.432731  0.991728  0.826620  1
  Bi  Bi27  1  0.067934  0.507636  0.326686  1
  Bi  Bi28  1  0.567269  0.008272  0.173380  1
  Bi  Bi29  1  0.932066  0.492364  0.673314  1
  Bi  Bi30  1  0.567269  0.491728  0.173380  1
  Bi  Bi31  1  0.432731  0.508272  0.826620  1
