# generated using pymatgen
data_Y2HoMoO7
_symmetry_space_group_name_H-M   'P 1'
_cell_length_a   6.45720579
_cell_length_b   6.49841780
_cell_length_c   7.47219674
_cell_angle_alpha   89.96536170
_cell_angle_beta   89.97474791
_cell_angle_gamma   108.71606753
_symmetry_Int_Tables_number   1
_chemical_formula_structural   Y2HoMoO7
_chemical_formula_sum   'Y4 Ho2 Mo2 O14'
_cell_volume   296.96518488
_cell_formula_units_Z   2
loop_
 _symmetry_equiv_pos_site_id
 _symmetry_equiv_pos_as_xyz
  1  'x, y, z'
loop_
 _atom_site_type_symbol
 _atom_site_label
 _atom_site_symmetry_multiplicity
 _atom_site_fract_x
 _atom_site_fract_y
 _atom_site_fract_z
 _atom_site_occupancy
  Y  Y0  1  0.528305  0.531457  0.499289  1
  Y  Y1  1  0.470517  0.468916  0.999343  1
  Y  Y2  1  0.000540  0.534096  0.246263  1
  Y  Y3  1  0.999379  0.465189  0.742338  1
  Ho  Ho4  1  0.537035  0.000851  0.758233  1
  Ho  Ho5  1  0.463844  0.999129  0.253773  1
  Mo  Mo6  1  0.001366  0.001295  0.499973  1
  Mo  Mo7  1  0.998885  0.998781  0.999826  1
  O  O8  1  0.924469  0.073799  0.750035  1
  O  O9  1  0.075155  0.926950  0.249829  1
  O  O10  1  0.364730  0.640706  0.248603  1
  O  O11  1  0.634907  0.359557  0.748667  1
  O  O12  1  0.371556  0.633920  0.750873  1
  O  O13  1  0.628279  0.366161  0.250812  1
  O  O14  1  0.328578  0.081456  0.974034  1
  O  O15  1  0.676436  0.923002  0.472152  1
  O  O16  1  0.306801  0.048553  0.540788  1
  O  O17  1  0.686561  0.944708  0.037694  1
  O  O18  1  0.067820  0.316606  0.464986  1
  O  O19  1  0.938878  0.689654  0.962393  1
  O  O20  1  0.913527  0.670173  0.524089  1
  O  O21  1  0.082432  0.325041  0.026007  1
