# generated using pymatgen
data_HfZr2Sc5(V3Si4)4
_symmetry_space_group_name_H-M   'P 1'
_cell_length_a   6.62317883
_cell_length_b   6.62504962
_cell_length_c   12.25598161
_cell_angle_alpha   90.03839540
_cell_angle_beta   89.98559559
_cell_angle_gamma   89.98578015
_symmetry_Int_Tables_number   1
_chemical_formula_structural   HfZr2Sc5(V3Si4)4
_chemical_formula_sum   'Hf1 Zr2 Sc5 V12 Si16'
_cell_volume   537.77869474
_cell_formula_units_Z   1
loop_
 _symmetry_equiv_pos_site_id
 _symmetry_equiv_pos_as_xyz
  1  'x, y, z'
loop_
 _atom_site_type_symbol
 _atom_site_label
 _atom_site_symmetry_multiplicity
 _atom_site_fract_x
 _atom_site_fract_y
 _atom_site_fract_z
 _atom_site_occupancy
  Hf  Hf0  1  0.160305  0.495868  0.779824  1
  Zr  Zr1  1  0.003298  0.660626  0.029647  1
  Zr  Zr2  1  0.838729  0.503638  0.280366  1
  Sc  Sc3  1  0.501316  0.837288  0.720311  1
  Sc  Sc4  1  0.498523  0.162342  0.220686  1
  Sc  Sc5  1  0.998311  0.338100  0.529423  1
  Sc  Sc6  1  0.662443  0.000984  0.970278  1
  Sc  Sc7  1  0.338116  0.998215  0.470413  1
  V  V8  1  0.330428  0.334101  0.999382  1
  V  V9  1  0.165892  0.830996  0.249979  1
  V  V10  1  0.834793  0.169684  0.750086  1
  V  V11  1  0.668005  0.667778  0.500256  1
  V  V12  1  0.005443  0.158514  0.125939  1
  V  V13  1  0.342408  0.506015  0.376070  1
  V  V14  1  0.658060  0.494121  0.875884  1
  V  V15  1  0.505568  0.344421  0.624499  1
  V  V16  1  0.493387  0.657861  0.122977  1
  V  V17  1  0.994316  0.842149  0.627448  1
  V  V18  1  0.157765  0.005113  0.873063  1
  V  V19  1  0.842394  0.993051  0.373067  1
  Si  Si20  1  0.294368  0.961928  0.064548  1
  Si  Si21  1  0.537533  0.795251  0.314827  1
  Si  Si22  1  0.461391  0.205407  0.814517  1
  Si  Si23  1  0.792889  0.540396  0.684454  1
  Si  Si24  1  0.210421  0.457560  0.185949  1
  Si  Si25  1  0.706711  0.039668  0.564741  1
  Si  Si26  1  0.957858  0.289619  0.935301  1
  Si  Si27  1  0.041385  0.708310  0.436840  1
  Si  Si28  1  0.702153  0.369505  0.070662  1
  Si  Si29  1  0.129852  0.202649  0.320561  1
  Si  Si30  1  0.869231  0.796376  0.820529  1
  Si  Si31  1  0.205152  0.128315  0.678902  1
  Si  Si32  1  0.793396  0.873811  0.179161  1
  Si  Si33  1  0.296795  0.629957  0.571079  1
  Si  Si34  1  0.373446  0.705564  0.928334  1
  Si  Si35  1  0.627920  0.294816  0.429997  1
