# generated using pymatgen
data_PrPa(CoP)4
_symmetry_space_group_name_H-M   'P 1'
_cell_length_a   3.99938600
_cell_length_b   3.99938600
_cell_length_c   9.04833500
_cell_angle_alpha   90.00000000
_cell_angle_beta   90.00000000
_cell_angle_gamma   90.00000000
_symmetry_Int_Tables_number   1
_chemical_formula_structural   PrPa(CoP)4
_chemical_formula_sum   'Pr1 Pa1 Co4 P4'
_cell_volume   144.72891799
_cell_formula_units_Z   1
loop_
 _symmetry_equiv_pos_site_id
 _symmetry_equiv_pos_as_xyz
  1  'x, y, z'
loop_
 _atom_site_type_symbol
 _atom_site_label
 _atom_site_symmetry_multiplicity
 _atom_site_fract_x
 _atom_site_fract_y
 _atom_site_fract_z
 _atom_site_occupancy
  Pr  Pr0  1  0.000000  0.500000  0.251023  1
  Pa  Pa1  1  0.500000  0.000000  0.752371  1
  Co  Co2  1  0.500000  0.500000  0.988536  1
  Co  Co3  1  0.000000  0.000000  0.988536  1
  Co  Co4  1  0.500000  0.000000  0.396720  1
  Co  Co5  1  0.000000  0.500000  0.617792  1
  P  P6  1  0.500000  0.000000  0.130392  1
  P  P7  1  0.000000  0.500000  0.865848  1
  P  P8  1  0.500000  0.500000  0.504391  1
  P  P9  1  0.000000  0.000000  0.504391  1
