# generated using pymatgen
data_Sm8Dy2B2I15
_symmetry_space_group_name_H-M   'P 1'
_cell_length_a   9.77244291
_cell_length_b   10.49824918
_cell_length_c   11.46007388
_cell_angle_alpha   91.80717774
_cell_angle_beta   114.39134192
_cell_angle_gamma   110.39914607
_symmetry_Int_Tables_number   1
_chemical_formula_structural   Sm8Dy2B2I15
_chemical_formula_sum   'Sm8 Dy2 B2 I15'
_cell_volume   982.20393928
_cell_formula_units_Z   1
loop_
 _symmetry_equiv_pos_site_id
 _symmetry_equiv_pos_as_xyz
  1  'x, y, z'
loop_
 _atom_site_type_symbol
 _atom_site_label
 _atom_site_symmetry_multiplicity
 _atom_site_fract_x
 _atom_site_fract_y
 _atom_site_fract_z
 _atom_site_occupancy
  Sm  Sm0  1  0.787419  0.396456  0.269498  1
  Sm  Sm1  1  0.212581  0.603544  0.730502  1
  Sm  Sm2  1  0.664806  0.751063  0.824374  1
  Sm  Sm3  1  0.335194  0.248937  0.175626  1
  Sm  Sm4  1  0.523793  0.710558  0.087884  1
  Sm  Sm5  1  0.476207  0.289442  0.912116  1
  Sm  Sm6  1  0.581938  0.041679  0.312326  1
  Sm  Sm7  1  0.418062  0.958321  0.687674  1
  Dy  Dy8  1  0.705521  0.069379  0.044989  1
  Dy  Dy9  1  0.294479  0.930621  0.955011  1
  B  B10  1  0.468392  0.824224  0.880409  1
  B  B11  1  0.531608  0.175776  0.119591  1
  I  I12  1  0.000000  0.000000  0.000000  1
  I  I13  1  0.638884  0.882416  0.581268  1
  I  I14  1  0.361116  0.117584  0.418732  1
  I  I15  1  0.885695  0.299054  0.532706  1
  I  I16  1  0.114305  0.700946  0.467294  1
  I  I17  1  0.280905  0.760855  0.173754  1
  I  I18  1  0.719095  0.239145  0.826246  1
  I  I19  1  0.051346  0.336697  0.222541  1
  I  I20  1  0.157232  0.053172  0.705140  1
  I  I21  1  0.842768  0.946828  0.294860  1
  I  I22  1  0.225228  0.408581  0.941814  1
  I  I23  1  0.774772  0.591419  0.058186  1
  I  I24  1  0.408556  0.458218  0.656866  1
  I  I25  1  0.591444  0.541782  0.343134  1
  I  I26  1  0.948654  0.663303  0.777459  1
