# generated using pymatgen
data_La3Ho(Si5Pt3)2
_symmetry_space_group_name_H-M   'P 1'
_cell_length_a   8.29107097
_cell_length_b   8.29450996
_cell_length_c   8.29451012
_cell_angle_alpha   136.50590549
_cell_angle_beta   105.49384923
_cell_angle_gamma   90.43164525
_symmetry_Int_Tables_number   1
_chemical_formula_structural   La3Ho(Si5Pt3)2
_chemical_formula_sum   'La3 Ho1 Si10 Pt6'
_cell_volume   360.48853186
_cell_formula_units_Z   1
loop_
 _symmetry_equiv_pos_site_id
 _symmetry_equiv_pos_as_xyz
  1  'x, y, z'
loop_
 _atom_site_type_symbol
 _atom_site_label
 _atom_site_symmetry_multiplicity
 _atom_site_fract_x
 _atom_site_fract_y
 _atom_site_fract_z
 _atom_site_occupancy
  La  La0  1  0.138362  0.370917  0.767445  1
  La  La1  1  0.396301  0.128919  0.267381  1
  La  La2  1  0.604221  0.871074  0.733148  1
  Ho  Ho3  1  0.858967  0.628505  0.230462  1
  Si  Si4  1  0.501231  0.751453  0.251743  1
  Si  Si5  1  0.501231  0.249488  0.749778  1
  Si  Si6  1  0.228551  0.978259  0.748772  1
  Si  Si7  1  0.770856  0.519385  0.750976  1
  Si  Si8  1  0.770856  0.019880  0.251471  1
  Si  Si9  1  0.228551  0.479779  0.250292  1
  Si  Si10  1  0.032152  0.884463  0.147688  1
  Si  Si11  1  0.965518  0.113714  0.851804  1
  Si  Si12  1  0.740846  0.390179  0.350668  1
  Si  Si13  1  0.262501  0.613575  0.648927  1
  Pt  Pt14  1  0.999606  0.750418  0.748059  1
  Pt  Pt15  1  0.999606  0.251547  0.249188  1
  Pt  Pt16  1  0.249303  0.860914  0.388390  1
  Pt  Pt17  1  0.747940  0.135928  0.612011  1
  Pt  Pt18  1  0.475877  0.365622  0.110255  1
  Pt  Pt19  1  0.527524  0.635982  0.891542  1
