# generated using pymatgen
data_Tm6U(Fe3Co8)2
_symmetry_space_group_name_H-M   'P 1'
_cell_length_a   8.43019952
_cell_length_b   8.43066867
_cell_length_c   8.43056500
_cell_angle_alpha   60.00415386
_cell_angle_beta   60.00235246
_cell_angle_gamma   60.00283659
_symmetry_Int_Tables_number   1
_chemical_formula_structural   Tm6U(Fe3Co8)2
_chemical_formula_sum   'Tm6 U1 Fe6 Co16'
_cell_volume   423.71342209
_cell_formula_units_Z   1
loop_
 _symmetry_equiv_pos_site_id
 _symmetry_equiv_pos_as_xyz
  1  'x, y, z'
loop_
 _atom_site_type_symbol
 _atom_site_label
 _atom_site_symmetry_multiplicity
 _atom_site_fract_x
 _atom_site_fract_y
 _atom_site_fract_z
 _atom_site_occupancy
  Tm  Tm0  1  0.708598  0.291416  0.291030  1
  Tm  Tm1  1  0.291402  0.708584  0.708970  1
  Tm  Tm2  1  0.291301  0.708510  0.291113  1
  Tm  Tm3  1  0.291114  0.291322  0.708699  1
  Tm  Tm4  1  0.708699  0.291490  0.708887  1
  Tm  Tm5  1  0.708886  0.708678  0.291301  1
  U  U6  1  0.000000  0.000000  0.000000  1
  Fe  Fe7  1  0.500000  0.000000  0.000000  1
  Fe  Fe8  1  0.000000  0.500000  0.500000  1
  Fe  Fe9  1  0.000000  0.500000  0.000000  1
  Fe  Fe10  1  0.000000  0.000000  0.500000  1
  Fe  Fe11  1  0.500000  0.000000  0.500000  1
  Fe  Fe12  1  0.500000  0.500000  0.000000  1
  Co  Co13  1  0.323382  0.323583  0.323368  1
  Co  Co14  1  0.323473  0.323431  0.029841  1
  Co  Co15  1  0.029884  0.323501  0.323407  1
  Co  Co16  1  0.323420  0.029989  0.323278  1
  Co  Co17  1  0.676618  0.676417  0.676632  1
  Co  Co18  1  0.676527  0.676569  0.970159  1
  Co  Co19  1  0.676580  0.970011  0.676722  1
  Co  Co20  1  0.970116  0.676499  0.676593  1
  Co  Co21  1  0.123299  0.123320  0.123268  1
  Co  Co22  1  0.123265  0.123424  0.630038  1
  Co  Co23  1  0.630018  0.123396  0.123277  1
  Co  Co24  1  0.123357  0.629945  0.123401  1
  Co  Co25  1  0.876701  0.876680  0.876732  1
  Co  Co26  1  0.876735  0.876576  0.369962  1
  Co  Co27  1  0.876643  0.370055  0.876599  1
  Co  Co28  1  0.369982  0.876604  0.876723  1
