# generated using pymatgen
data_Tl3InCo2(SeO3)8
_symmetry_space_group_name_H-M   'P 1'
_cell_length_a   5.01382724
_cell_length_b   8.85258042
_cell_length_c   15.66417215
_cell_angle_alpha   68.85991352
_cell_angle_beta   90.45934038
_cell_angle_gamma   90.24881760
_symmetry_Int_Tables_number   1
_chemical_formula_structural   Tl3InCo2(SeO3)8
_chemical_formula_sum   'Tl3 In1 Co2 Se8 O24'
_cell_volume   648.44755535
_cell_formula_units_Z   1
loop_
 _symmetry_equiv_pos_site_id
 _symmetry_equiv_pos_as_xyz
  1  'x, y, z'
loop_
 _atom_site_type_symbol
 _atom_site_label
 _atom_site_symmetry_multiplicity
 _atom_site_fract_x
 _atom_site_fract_y
 _atom_site_fract_z
 _atom_site_occupancy
  Tl  Tl0  1  0.535542  0.159016  0.786024  1
  Tl  Tl1  1  0.962350  0.160540  0.285919  1
  Tl  Tl2  1  0.462776  0.839135  0.214071  1
  In  In3  1  0.037504  0.846179  0.712780  1
  Co  Co4  1  0.998453  0.999227  0.999415  1
  Co  Co5  1  0.506371  0.998742  0.501372  1
  Se  Se6  1  0.583209  0.778884  0.890444  1
  Se  Se7  1  0.916336  0.780361  0.396395  1
  Se  Se8  1  0.413953  0.220046  0.104222  1
  Se  Se9  1  0.083858  0.214418  0.605387  1
  Se  Se10  1  0.001410  0.340806  0.875115  1
  Se  Se11  1  0.499093  0.340731  0.376082  1
  Se  Se12  1  0.996874  0.658808  0.123932  1
  Se  Se13  1  0.502003  0.661314  0.629273  1
  O  O14  1  0.778344  0.367809  0.785523  1
  O  O15  1  0.720747  0.367454  0.287224  1
  O  O16  1  0.220257  0.631198  0.213606  1
  O  O17  1  0.270362  0.646256  0.713480  1
  O  O18  1  0.829147  0.713621  0.836626  1
  O  O19  1  0.674480  0.702607  0.345212  1
  O  O20  1  0.174347  0.296800  0.155111  1
  O  O21  1  0.324620  0.295094  0.655295  1
  O  O22  1  0.192630  0.170397  0.879566  1
  O  O23  1  0.305823  0.170329  0.380382  1
  O  O24  1  0.805876  0.829212  0.119829  1
  O  O25  1  0.706563  0.828783  0.624293  1
  O  O26  1  0.718370  0.949322  0.907258  1
  O  O27  1  0.775329  0.951930  0.408816  1
  O  O28  1  0.272790  0.048276  0.091232  1
  O  O29  1  0.227225  0.041558  0.594971  1
  O  O30  1  0.373484  0.898646  0.801792  1
  O  O31  1  0.116011  0.899301  0.305460  1
  O  O32  1  0.616487  0.100388  0.194980  1
  O  O33  1  0.887957  0.093786  0.697371  1
  O  O34  1  0.828143  0.229158  0.970795  1
  O  O35  1  0.671473  0.228708  0.472871  1
  O  O36  1  0.169873  0.770272  0.028107  1
  O  O37  1  0.339928  0.770886  0.529769  1
