# generated using pymatgen
data_Eu2Ru2I
_symmetry_space_group_name_H-M   'P 1'
_cell_length_a   4.24865900
_cell_length_b   4.24865907
_cell_length_c   18.28850700
_cell_angle_alpha   90.00000000
_cell_angle_beta   90.00000000
_cell_angle_gamma   119.99999164
_symmetry_Int_Tables_number   1
_chemical_formula_structural   Eu2Ru2I
_chemical_formula_sum   'Eu4 Ru4 I2'
_cell_volume   285.89902889
_cell_formula_units_Z   2
loop_
 _symmetry_equiv_pos_site_id
 _symmetry_equiv_pos_as_xyz
  1  'x, y, z'
loop_
 _atom_site_type_symbol
 _atom_site_label
 _atom_site_symmetry_multiplicity
 _atom_site_fract_x
 _atom_site_fract_y
 _atom_site_fract_z
 _atom_site_occupancy
  Eu  Eu0  1  0.000000  0.000000  0.113477  1
  Eu  Eu1  1  0.000000  0.000000  0.886523  1
  Eu  Eu2  1  0.000000  0.000000  0.613477  1
  Eu  Eu3  1  0.000000  0.000000  0.386523  1
  Ru  Ru4  1  0.333333  0.666667  0.503842  1
  Ru  Ru5  1  0.666667  0.333333  0.496158  1
  Ru  Ru6  1  0.666667  0.333333  0.003842  1
  Ru  Ru7  1  0.333333  0.666667  0.996158  1
  I  I8  1  0.333333  0.666667  0.250000  1
  I  I9  1  0.666667  0.333333  0.750000  1
