# generated using pymatgen
data_Ir2OsSe8
_symmetry_space_group_name_H-M   'P 1'
_cell_length_a   6.02576838
_cell_length_b   6.04430276
_cell_length_c   6.01692155
_cell_angle_alpha   90.08175939
_cell_angle_beta   90.12650938
_cell_angle_gamma   89.96662876
_symmetry_Int_Tables_number   1
_chemical_formula_structural   Ir2OsSe8
_chemical_formula_sum   'Ir2 Os1 Se8'
_cell_volume   219.14492598
_cell_formula_units_Z   1
loop_
 _symmetry_equiv_pos_site_id
 _symmetry_equiv_pos_as_xyz
  1  'x, y, z'
loop_
 _atom_site_type_symbol
 _atom_site_label
 _atom_site_symmetry_multiplicity
 _atom_site_fract_x
 _atom_site_fract_y
 _atom_site_fract_z
 _atom_site_occupancy
  Ir  Ir0  1  0.000000  0.500000  0.500000  1
  Ir  Ir1  1  0.500000  0.500000  0.000000  1
  Os  Os2  1  0.500000  0.000000  0.500000  1
  Se  Se3  1  0.619038  0.885678  0.120715  1
  Se  Se4  1  0.880244  0.118368  0.616304  1
  Se  Se5  1  0.118255  0.618753  0.884114  1
  Se  Se6  1  0.620804  0.627141  0.621228  1
  Se  Se7  1  0.379196  0.372859  0.378772  1
  Se  Se8  1  0.881745  0.381247  0.115886  1
  Se  Se9  1  0.119756  0.881632  0.383696  1
  Se  Se10  1  0.380962  0.114322  0.879285  1
