# generated using pymatgen
data_V3Ru4
_symmetry_space_group_name_H-M   'P 1'
_cell_length_a   4.17590300
_cell_length_b   5.22367400
_cell_length_c   17.67346900
_cell_angle_alpha   90.00000000
_cell_angle_beta   90.00000000
_cell_angle_gamma   90.00000000
_symmetry_Int_Tables_number   1
_chemical_formula_structural   V3Ru4
_chemical_formula_sum   'V12 Ru16'
_cell_volume   385.52120447
_cell_formula_units_Z   4
loop_
 _symmetry_equiv_pos_site_id
 _symmetry_equiv_pos_as_xyz
  1  'x, y, z'
loop_
 _atom_site_type_symbol
 _atom_site_label
 _atom_site_symmetry_multiplicity
 _atom_site_fract_x
 _atom_site_fract_y
 _atom_site_fract_z
 _atom_site_occupancy
  V  V0  1  0.750000  0.500177  0.103849  1
  V  V1  1  0.250000  0.499823  0.896151  1
  V  V2  1  0.750000  0.000177  0.396151  1
  V  V3  1  0.250000  0.999823  0.603849  1
  V  V4  1  0.750000  0.337586  0.532184  1
  V  V5  1  0.250000  0.662414  0.467816  1
  V  V6  1  0.750000  0.837586  0.967816  1
  V  V7  1  0.250000  0.162414  0.032184  1
  V  V8  1  0.750000  0.142579  0.811941  1
  V  V9  1  0.250000  0.857421  0.188059  1
  V  V10  1  0.750000  0.642579  0.688059  1
  V  V11  1  0.250000  0.357421  0.311941  1
  Ru  Ru12  1  0.750000  0.139934  0.265396  1
  Ru  Ru13  1  0.250000  0.860066  0.734604  1
  Ru  Ru14  1  0.750000  0.639934  0.234604  1
  Ru  Ru15  1  0.250000  0.360066  0.765396  1
  Ru  Ru16  1  0.750000  0.502395  0.393265  1
  Ru  Ru17  1  0.250000  0.497605  0.606735  1
  Ru  Ru18  1  0.750000  0.002395  0.106735  1
  Ru  Ru19  1  0.250000  0.997605  0.893265  1
  Ru  Ru20  1  0.750000  0.327633  0.963338  1
  Ru  Ru21  1  0.250000  0.672367  0.036662  1
  Ru  Ru22  1  0.750000  0.827633  0.536662  1
  Ru  Ru23  1  0.250000  0.172367  0.463338  1
  Ru  Ru24  1  0.750000  0.164860  0.668299  1
  Ru  Ru25  1  0.250000  0.835140  0.331701  1
  Ru  Ru26  1  0.750000  0.664860  0.831701  1
  Ru  Ru27  1  0.250000  0.335140  0.168299  1
