# generated using pymatgen
data_YTh2(AlCo)3
_symmetry_space_group_name_H-M   'P 1'
_cell_length_a   6.97460600
_cell_length_b   7.12152843
_cell_length_c   3.86790300
_cell_angle_alpha   90.00000000
_cell_angle_beta   90.00000000
_cell_angle_gamma   119.31985521
_symmetry_Int_Tables_number   1
_chemical_formula_structural   YTh2(AlCo)3
_chemical_formula_sum   'Y1 Th2 Al3 Co3'
_cell_volume   167.50777071
_cell_formula_units_Z   1
loop_
 _symmetry_equiv_pos_site_id
 _symmetry_equiv_pos_as_xyz
  1  'x, y, z'
loop_
 _atom_site_type_symbol
 _atom_site_label
 _atom_site_symmetry_multiplicity
 _atom_site_fract_x
 _atom_site_fract_y
 _atom_site_fract_z
 _atom_site_occupancy
  Y  Y0  1  0.583965  0.000000  0.000000  1
  Th  Th1  1  0.999293  0.576492  0.000000  1
  Th  Th2  1  0.422801  0.423508  0.000000  1
  Al  Al3  1  0.239257  0.000000  0.500000  1
  Al  Al4  1  0.992175  0.221596  0.500000  1
  Al  Al5  1  0.770579  0.778404  0.500000  1
  Co  Co6  1  0.313359  0.642906  0.500000  1
  Co  Co7  1  0.670455  0.357094  0.500000  1
  Co  Co8  1  0.008116  0.000000  0.000000  1
