# generated using pymatgen
data_ErTmB6Rh
_symmetry_space_group_name_H-M   'P 1'
_cell_length_a   3.62910100
_cell_length_b   9.12891700
_cell_length_c   11.45845900
_cell_angle_alpha   90.00000000
_cell_angle_beta   90.00000000
_cell_angle_gamma   90.00000000
_symmetry_Int_Tables_number   1
_chemical_formula_structural   ErTmB6Rh
_chemical_formula_sum   'Er4 Tm4 B24 Rh4'
_cell_volume   379.61601742
_cell_formula_units_Z   4
loop_
 _symmetry_equiv_pos_site_id
 _symmetry_equiv_pos_as_xyz
  1  'x, y, z'
loop_
 _atom_site_type_symbol
 _atom_site_label
 _atom_site_symmetry_multiplicity
 _atom_site_fract_x
 _atom_site_fract_y
 _atom_site_fract_z
 _atom_site_occupancy
  Er  Er0  1  0.500000  0.321517  0.413697  1
  Er  Er1  1  0.500000  0.678483  0.586303  1
  Er  Er2  1  0.500000  0.178483  0.913697  1
  Er  Er3  1  0.500000  0.821517  0.086303  1
  Tm  Tm4  1  0.500000  0.444198  0.126892  1
  Tm  Tm5  1  0.500000  0.555802  0.873108  1
  Tm  Tm6  1  0.500000  0.055802  0.626892  1
  Tm  Tm7  1  0.500000  0.944198  0.373108  1
  B  B8  1  0.000000  0.108112  0.470730  1
  B  B9  1  0.000000  0.891888  0.529270  1
  B  B10  1  0.000000  0.391888  0.970730  1
  B  B11  1  0.000000  0.608112  0.029270  1
  B  B12  1  0.000000  0.132687  0.316567  1
  B  B13  1  0.000000  0.867313  0.683433  1
  B  B14  1  0.000000  0.367313  0.816567  1
  B  B15  1  0.000000  0.632687  0.183433  1
  B  B16  1  0.000000  0.053986  0.065153  1
  B  B17  1  0.000000  0.946014  0.934847  1
  B  B18  1  0.000000  0.446014  0.565153  1
  B  B19  1  0.000000  0.553986  0.434847  1
  B  B20  1  0.000000  0.482428  0.286708  1
  B  B21  1  0.000000  0.517572  0.713292  1
  B  B22  1  0.000000  0.017572  0.786708  1
  B  B23  1  0.000000  0.982428  0.213292  1
  B  B24  1  0.000000  0.250021  0.079347  1
  B  B25  1  0.000000  0.749979  0.920653  1
  B  B26  1  0.000000  0.249979  0.579347  1
  B  B27  1  0.000000  0.750021  0.420653  1
  B  B28  1  0.000000  0.294479  0.236274  1
  B  B29  1  0.000000  0.705521  0.763726  1
  B  B30  1  0.000000  0.205521  0.736274  1
  B  B31  1  0.000000  0.794479  0.263726  1
  Rh  Rh32  1  0.500000  0.139531  0.179392  1
  Rh  Rh33  1  0.500000  0.860469  0.820608  1
  Rh  Rh34  1  0.500000  0.360469  0.679392  1
  Rh  Rh35  1  0.500000  0.639531  0.320608  1
