# generated using pymatgen
data_Tb3Tm(TcB4)4
_symmetry_space_group_name_H-M   'P 1'
_cell_length_a   3.60158100
_cell_length_b   5.97094574
_cell_length_c   11.56476305
_cell_angle_alpha   89.95023439
_cell_angle_beta   90.00000000
_cell_angle_gamma   90.00000000
_symmetry_Int_Tables_number   1
_chemical_formula_structural   Tb3Tm(TcB4)4
_chemical_formula_sum   'Tb3 Tm1 Tc4 B16'
_cell_volume   248.69833973
_cell_formula_units_Z   1
loop_
 _symmetry_equiv_pos_site_id
 _symmetry_equiv_pos_as_xyz
  1  'x, y, z'
loop_
 _atom_site_type_symbol
 _atom_site_label
 _atom_site_symmetry_multiplicity
 _atom_site_fract_x
 _atom_site_fract_y
 _atom_site_fract_z
 _atom_site_occupancy
  Tb  Tb0  1  0.000000  0.626892  0.349977  1
  Tb  Tb1  1  0.000000  0.373018  0.650380  1
  Tb  Tb2  1  0.000000  0.126988  0.149538  1
  Tm  Tm3  1  0.000000  0.873251  0.850492  1
  Tc  Tc4  1  0.000000  0.634008  0.086634  1
  Tc  Tc5  1  0.000000  0.366396  0.911946  1
  Tc  Tc6  1  0.000000  0.132750  0.412905  1
  Tc  Tc7  1  0.000000  0.866944  0.588563  1
  B  B8  1  0.500000  0.786392  0.184429  1
  B  B9  1  0.500000  0.212047  0.815241  1
  B  B10  1  0.500000  0.286422  0.315038  1
  B  B11  1  0.500000  0.713599  0.685933  1
  B  B12  1  0.500000  0.864191  0.030471  1
  B  B13  1  0.500000  0.135967  0.967761  1
  B  B14  1  0.500000  0.363500  0.468792  1
  B  B15  1  0.500000  0.636353  0.532061  1
  B  B16  1  0.500000  0.886693  0.453445  1
  B  B17  1  0.500000  0.112609  0.547548  1
  B  B18  1  0.500000  0.387470  0.046172  1
  B  B19  1  0.500000  0.614714  0.952018  1
  B  B20  1  0.500000  0.975937  0.308028  1
  B  B21  1  0.500000  0.022905  0.693272  1
  B  B22  1  0.500000  0.476268  0.191467  1
  B  B23  1  0.500000  0.524689  0.807889  1
