# generated using pymatgen
data_MoRhI18
_symmetry_space_group_name_H-M   'P 1'
_cell_length_a   10.06560951
_cell_length_b   10.06406386
_cell_length_c   10.05829397
_cell_angle_alpha   90.86526771
_cell_angle_beta   90.85533807
_cell_angle_gamma   90.89858038
_symmetry_Int_Tables_number   1
_chemical_formula_structural   MoRhI18
_chemical_formula_sum   'Mo1 Rh1 I18'
_cell_volume   1018.55593167
_cell_formula_units_Z   1
loop_
 _symmetry_equiv_pos_site_id
 _symmetry_equiv_pos_as_xyz
  1  'x, y, z'
loop_
 _atom_site_type_symbol
 _atom_site_label
 _atom_site_symmetry_multiplicity
 _atom_site_fract_x
 _atom_site_fract_y
 _atom_site_fract_z
 _atom_site_occupancy
  Mo  Mo0  1  0.000000  0.000000  0.000000  1
  Rh  Rh1  1  0.500000  0.500000  0.500000  1
  I  I2  1  0.767343  0.483684  0.508136  1
  I  I3  1  0.508307  0.767339  0.482912  1
  I  I4  1  0.483829  0.508893  0.767616  1
  I  I5  1  0.232657  0.516316  0.491864  1
  I  I6  1  0.491693  0.232661  0.517088  1
  I  I7  1  0.516171  0.491107  0.232384  1
  I  I8  1  0.882394  0.374621  0.751588  1
  I  I9  1  0.751920  0.882368  0.374597  1
  I  I10  1  0.374627  0.752238  0.882339  1
  I  I11  1  0.117606  0.625379  0.248412  1
  I  I12  1  0.248080  0.117632  0.625403  1
  I  I13  1  0.625373  0.247762  0.117661  1
  I  I14  1  0.012069  0.971458  0.723676  1
  I  I15  1  0.723906  0.011886  0.971641  1
  I  I16  1  0.971538  0.723879  0.012401  1
  I  I17  1  0.987931  0.028542  0.276324  1
  I  I18  1  0.276094  0.988114  0.028359  1
  I  I19  1  0.028462  0.276121  0.987599  1
