# generated using pymatgen
data_La9Yb(Pr5Ir6)2
_symmetry_space_group_name_H-M   'P 1'
_cell_length_a   11.38990261
_cell_length_b   11.39511289
_cell_length_c   6.58318612
_cell_angle_alpha   89.98477132
_cell_angle_beta   89.93512047
_cell_angle_gamma   89.95725713
_symmetry_Int_Tables_number   1
_chemical_formula_structural   La9Yb(Pr5Ir6)2
_chemical_formula_sum   'La9 Yb1 Pr10 Ir12'
_cell_volume   854.42581581
_cell_formula_units_Z   1
loop_
 _symmetry_equiv_pos_site_id
 _symmetry_equiv_pos_as_xyz
  1  'x, y, z'
loop_
 _atom_site_type_symbol
 _atom_site_label
 _atom_site_symmetry_multiplicity
 _atom_site_fract_x
 _atom_site_fract_y
 _atom_site_fract_z
 _atom_site_occupancy
  La  La0  1  0.285990  0.088925  0.385575  1
  La  La1  1  0.289432  0.909524  0.885573  1
  La  La2  1  0.710581  0.090499  0.885579  1
  La  La3  1  0.714117  0.910858  0.385975  1
  La  La4  1  0.591469  0.789903  0.884055  1
  La  La5  1  0.590097  0.209264  0.383605  1
  La  La6  1  0.410206  0.790743  0.383207  1
  La  La7  1  0.408868  0.209780  0.884417  1
  La  La8  1  0.207409  0.411278  0.616103  1
  Yb  Yb9  1  0.999887  0.000016  0.500261  1
  Pr  Pr10  1  0.208432  0.590294  0.116619  1
  Pr  Pr11  1  0.791747  0.410226  0.116313  1
  Pr  Pr12  1  0.792122  0.588415  0.617414  1
  Pr  Pr13  1  0.911113  0.708733  0.115358  1
  Pr  Pr14  1  0.911621  0.287479  0.615152  1
  Pr  Pr15  1  0.087601  0.712681  0.615168  1
  Pr  Pr16  1  0.088489  0.290820  0.115410  1
  Pr  Pr17  1  0.999974  0.000096  0.000173  1
  Pr  Pr18  1  0.500228  0.499966  0.000644  1
  Pr  Pr19  1  0.500415  0.500297  0.500184  1
  Ir  Ir20  1  0.844407  0.153940  0.246470  1
  Ir  Ir21  1  0.844463  0.845823  0.751067  1
  Ir  Ir22  1  0.155678  0.154350  0.750533  1
  Ir  Ir23  1  0.155493  0.846013  0.246476  1
  Ir  Ir24  1  0.654256  0.344792  0.747456  1
  Ir  Ir25  1  0.653690  0.655630  0.250059  1
  Ir  Ir26  1  0.345725  0.344564  0.251150  1
  Ir  Ir27  1  0.345683  0.655365  0.747581  1
  Ir  Ir28  1  0.499960  0.000112  0.117358  1
  Ir  Ir29  1  0.500029  0.999903  0.616586  1
  Ir  Ir30  1  0.000610  0.499709  0.882943  1
  Ir  Ir31  1  0.000210  0.500002  0.385535  1
