# generated using pymatgen
data_Hf3Nb2AlSi2N
_symmetry_space_group_name_H-M   'P 1'
_cell_length_a   7.81560500
_cell_length_b   7.82549087
_cell_length_c   5.42742500
_cell_angle_alpha   90.00000000
_cell_angle_beta   90.00000000
_cell_angle_gamma   119.95822371
_symmetry_Int_Tables_number   1
_chemical_formula_structural   Hf3Nb2AlSi2N
_chemical_formula_sum   'Hf6 Nb4 Al2 Si4 N2'
_cell_volume   287.59499418
_cell_formula_units_Z   2
loop_
 _symmetry_equiv_pos_site_id
 _symmetry_equiv_pos_as_xyz
  1  'x, y, z'
loop_
 _atom_site_type_symbol
 _atom_site_label
 _atom_site_symmetry_multiplicity
 _atom_site_fract_x
 _atom_site_fract_y
 _atom_site_fract_z
 _atom_site_occupancy
  Hf  Hf0  1  0.235947  0.000000  0.250000  1
  Hf  Hf1  1  0.000056  0.234437  0.250000  1
  Hf  Hf2  1  0.765619  0.765563  0.250000  1
  Hf  Hf3  1  0.764673  0.000000  0.750000  1
  Hf  Hf4  1  0.003573  0.768603  0.750000  1
  Hf  Hf5  1  0.234971  0.231397  0.750000  1
  Nb  Nb6  1  0.662931  0.328817  0.002052  1
  Nb  Nb7  1  0.334113  0.671183  0.002052  1
  Nb  Nb8  1  0.662931  0.328817  0.497948  1
  Nb  Nb9  1  0.334113  0.671183  0.497948  1
  Al  Al10  1  0.000169  0.410337  0.750000  1
  Al  Al11  1  0.589832  0.589663  0.750000  1
  Si  Si12  1  0.594267  0.000000  0.250000  1
  Si  Si13  1  0.997982  0.589003  0.250000  1
  Si  Si14  1  0.408979  0.410997  0.250000  1
  Si  Si15  1  0.408407  0.000000  0.750000  1
  N  N16  1  0.000719  0.000000  0.000270  1
  N  N17  1  0.000719  0.000000  0.499730  1
