# generated using pymatgen
data_DyHo3(B10Ir)2
_symmetry_space_group_name_H-M   'P 1'
_cell_length_a   4.16890300
_cell_length_b   5.67623501
_cell_length_c   11.33642403
_cell_angle_alpha   89.99189386
_cell_angle_beta   90.00000000
_cell_angle_gamma   90.00000000
_symmetry_Int_Tables_number   1
_chemical_formula_structural   DyHo3(B10Ir)2
_chemical_formula_sum   'Dy1 Ho3 B20 Ir2'
_cell_volume   268.26143055
_cell_formula_units_Z   1
loop_
 _symmetry_equiv_pos_site_id
 _symmetry_equiv_pos_as_xyz
  1  'x, y, z'
loop_
 _atom_site_type_symbol
 _atom_site_label
 _atom_site_symmetry_multiplicity
 _atom_site_fract_x
 _atom_site_fract_y
 _atom_site_fract_z
 _atom_site_occupancy
  Dy  Dy0  1  0.500000  0.204493  0.365377  1
  Ho  Ho1  1  0.500000  0.795529  0.634487  1
  Ho  Ho2  1  0.500000  0.295570  0.865551  1
  Ho  Ho3  1  0.500000  0.704331  0.134446  1
  B  B4  1  0.000000  0.381318  0.042462  1
  B  B5  1  0.000000  0.618757  0.957484  1
  B  B6  1  0.000000  0.118768  0.542587  1
  B  B7  1  0.000000  0.881409  0.457518  1
  B  B8  1  0.000000  0.363739  0.197244  1
  B  B9  1  0.000000  0.636241  0.802749  1
  B  B10  1  0.000000  0.136287  0.697333  1
  B  B11  1  0.000000  0.863741  0.302719  1
  B  B12  1  0.000000  0.055553  0.193051  1
  B  B13  1  0.000000  0.944354  0.806871  1
  B  B14  1  0.000000  0.444392  0.693234  1
  B  B15  1  0.000000  0.555579  0.306875  1
  B  B16  1  0.301732  0.220150  0.119284  1
  B  B17  1  0.698248  0.779817  0.880569  1
  B  B18  1  0.301752  0.779817  0.880569  1
  B  B19  1  0.698228  0.279838  0.619466  1
  B  B20  1  0.698268  0.220150  0.119284  1
  B  B21  1  0.301752  0.719908  0.380567  1
  B  B22  1  0.698248  0.719908  0.380567  1
  B  B23  1  0.301772  0.279838  0.619466  1
  Ir  Ir24  1  0.000000  0.999997  0.999928  1
  Ir  Ir25  1  0.000000  0.500518  0.500313  1
