# generated using pymatgen
data_NdEr(NiP)2
_symmetry_space_group_name_H-M   'P 1'
_cell_length_a   3.91160800
_cell_length_b   3.91160845
_cell_length_c   15.70643600
_cell_angle_alpha   90.00000000
_cell_angle_beta   90.00000000
_cell_angle_gamma   119.99997924
_symmetry_Int_Tables_number   1
_chemical_formula_structural   NdEr(NiP)2
_chemical_formula_sum   'Nd2 Er2 Ni4 P4'
_cell_volume   208.12251884
_cell_formula_units_Z   2
loop_
 _symmetry_equiv_pos_site_id
 _symmetry_equiv_pos_as_xyz
  1  'x, y, z'
loop_
 _atom_site_type_symbol
 _atom_site_label
 _atom_site_symmetry_multiplicity
 _atom_site_fract_x
 _atom_site_fract_y
 _atom_site_fract_z
 _atom_site_occupancy
  Nd  Nd0  1  0.000000  0.000000  0.500000  1
  Nd  Nd1  1  0.000000  0.000000  0.000000  1
  Er  Er2  1  0.000000  0.000000  0.250000  1
  Er  Er3  1  0.000000  0.000000  0.750000  1
  Ni  Ni4  1  0.333333  0.666667  0.367152  1
  Ni  Ni5  1  0.666667  0.333333  0.632848  1
  Ni  Ni6  1  0.666667  0.333333  0.867152  1
  Ni  Ni7  1  0.333333  0.666667  0.132848  1
  P  P8  1  0.333333  0.666667  0.871286  1
  P  P9  1  0.666667  0.333333  0.128714  1
  P  P10  1  0.666667  0.333333  0.371286  1
  P  P11  1  0.333333  0.666667  0.628714  1
