# generated using pymatgen
data_KCrFe2Sb12Pt
_symmetry_space_group_name_H-M   'P 1'
_cell_length_a   8.18027404
_cell_length_b   8.15661710
_cell_length_c   8.12290001
_cell_angle_alpha   109.42652919
_cell_angle_beta   109.51852252
_cell_angle_gamma   110.05676808
_symmetry_Int_Tables_number   1
_chemical_formula_structural   KCrFe2Sb12Pt
_chemical_formula_sum   'K1 Cr1 Fe2 Sb12 Pt1'
_cell_volume   414.15484385
_cell_formula_units_Z   1
loop_
 _symmetry_equiv_pos_site_id
 _symmetry_equiv_pos_as_xyz
  1  'x, y, z'
loop_
 _atom_site_type_symbol
 _atom_site_label
 _atom_site_symmetry_multiplicity
 _atom_site_fract_x
 _atom_site_fract_y
 _atom_site_fract_z
 _atom_site_occupancy
  K  K0  1  0.000000  0.000000  0.000000  1
  Cr  Cr1  1  0.500000  0.500000  0.500000  1
  Fe  Fe2  1  0.500000  0.000000  0.000000  1
  Fe  Fe3  1  0.000000  0.500000  0.000000  1
  Sb  Sb4  1  0.845507  0.649740  0.497152  1
  Sb  Sb5  1  0.154493  0.350260  0.502848  1
  Sb  Sb6  1  0.161568  0.667671  0.829723  1
  Sb  Sb7  1  0.838432  0.332329  0.170277  1
  Sb  Sb8  1  0.670367  0.501234  0.851212  1
  Sb  Sb9  1  0.329633  0.498766  0.148788  1
  Sb  Sb10  1  0.648095  0.816159  0.145636  1
  Sb  Sb11  1  0.351905  0.183841  0.854364  1
  Sb  Sb12  1  0.500194  0.850127  0.669711  1
  Sb  Sb13  1  0.499806  0.149873  0.330289  1
  Sb  Sb14  1  0.183979  0.832230  0.331236  1
  Sb  Sb15  1  0.816021  0.167770  0.668764  1
  Pt  Pt16  1  0.000000  0.000000  0.500000  1
