# generated using pymatgen
data_La4Pd5AuO19
_symmetry_space_group_name_H-M   'P 1'
_cell_length_a   7.87219272
_cell_length_b   7.87533429
_cell_length_c   7.87219207
_cell_angle_alpha   109.47222506
_cell_angle_beta   109.45969416
_cell_angle_gamma   109.46558217
_symmetry_Int_Tables_number   1
_chemical_formula_structural   La4Pd5AuO19
_chemical_formula_sum   'La4 Pd5 Au1 O19'
_cell_volume   375.77258195
_cell_formula_units_Z   1
loop_
 _symmetry_equiv_pos_site_id
 _symmetry_equiv_pos_as_xyz
  1  'x, y, z'
loop_
 _atom_site_type_symbol
 _atom_site_label
 _atom_site_symmetry_multiplicity
 _atom_site_fract_x
 _atom_site_fract_y
 _atom_site_fract_z
 _atom_site_occupancy
  La  La0  1  0.004990  0.008783  0.324822  1
  La  La1  1  0.002051  0.321555  0.999428  1
  La  La2  1  0.677873  0.678445  0.680496  1
  La  La3  1  0.316041  0.991217  0.996209  1
  Pd  Pd4  1  0.339250  0.500000  0.839250  1
  Pd  Pd5  1  0.841047  0.340345  0.500380  1
  Pd  Pd6  1  0.499252  0.158701  0.657808  1
  Pd  Pd7  1  0.160036  0.659655  0.500701  1
  Pd  Pd8  1  0.499107  0.841299  0.340551  1
  Au  Au9  1  0.659916  0.500000  0.159916  1
  O  O10  1  0.340136  0.000000  0.340136  1
  O  O11  1  0.338389  0.336609  0.997775  1
  O  O12  1  0.999135  0.658810  0.659036  1
  O  O13  1  0.661166  0.663391  0.001780  1
  O  O14  1  0.000226  0.341190  0.340325  1
  O  O15  1  0.658989  0.000000  0.658989  1
  O  O16  1  0.999727  0.000000  0.999727  1
  O  O17  1  0.363768  0.325665  0.608337  1
  O  O18  1  0.038571  0.284019  0.675045  1
  O  O19  1  0.753470  0.391022  0.714734  1
  O  O20  1  0.391027  0.715981  0.754551  1
  O  O21  1  0.247082  0.961013  0.638007  1
  O  O22  1  0.605834  0.359208  0.324271  1
  O  O23  1  0.323712  0.608978  0.362447  1
  O  O24  1  0.676992  0.038987  0.286067  1
  O  O25  1  0.965062  0.640792  0.246626  1
  O  O26  1  0.716993  0.757009  0.394499  1
  O  O27  1  0.637490  0.242991  0.959982  1
  O  O28  1  0.282672  0.674335  0.038104  1
