# generated using pymatgen
data_PaFe3C
_symmetry_space_group_name_H-M   'P 1'
_cell_length_a   3.92032000
_cell_length_b   3.92032000
_cell_length_c   3.92032000
_cell_angle_alpha   90.00000000
_cell_angle_beta   90.00000000
_cell_angle_gamma   90.00000000
_symmetry_Int_Tables_number   1
_chemical_formula_structural   PaFe3C
_chemical_formula_sum   'Pa1 Fe3 C1'
_cell_volume   60.25104095
_cell_formula_units_Z   1
loop_
 _symmetry_equiv_pos_site_id
 _symmetry_equiv_pos_as_xyz
  1  'x, y, z'
loop_
 _atom_site_type_symbol
 _atom_site_label
 _atom_site_symmetry_multiplicity
 _atom_site_fract_x
 _atom_site_fract_y
 _atom_site_fract_z
 _atom_site_occupancy
  Pa  Pa0  1  0.000000  0.000000  0.000000  1
  Fe  Fe1  1  0.499999  0.499999  0.000000  1
  Fe  Fe2  1  0.499999  0.000000  0.499999  1
  Fe  Fe3  1  0.000000  0.499999  0.499999  1
  C  C4  1  0.499999  0.499999  0.499999  1
