# generated using pymatgen
data_Ca3(ZnPd)2
_symmetry_space_group_name_H-M   'P 1'
_cell_length_a   5.77534500
_cell_length_b   7.96110300
_cell_length_c   14.13145200
_cell_angle_alpha   90.00000000
_cell_angle_beta   90.00000000
_cell_angle_gamma   90.00000000
_symmetry_Int_Tables_number   1
_chemical_formula_structural   Ca3(ZnPd)2
_chemical_formula_sum   'Ca12 Zn8 Pd8'
_cell_volume   649.73754504
_cell_formula_units_Z   4
loop_
 _symmetry_equiv_pos_site_id
 _symmetry_equiv_pos_as_xyz
  1  'x, y, z'
loop_
 _atom_site_type_symbol
 _atom_site_label
 _atom_site_symmetry_multiplicity
 _atom_site_fract_x
 _atom_site_fract_y
 _atom_site_fract_z
 _atom_site_occupancy
  Ca  Ca0  1  0.141296  0.604741  0.097778  1
  Ca  Ca1  1  0.141296  0.895259  0.902222  1
  Ca  Ca2  1  0.858704  0.104741  0.402222  1
  Ca  Ca3  1  0.858704  0.395259  0.597778  1
  Ca  Ca4  1  0.858704  0.395259  0.902222  1
  Ca  Ca5  1  0.858704  0.104741  0.097778  1
  Ca  Ca6  1  0.141296  0.895259  0.597778  1
  Ca  Ca7  1  0.141296  0.604741  0.402222  1
  Ca  Ca8  1  0.374029  0.248348  0.250000  1
  Ca  Ca9  1  0.374029  0.251652  0.750000  1
  Ca  Ca10  1  0.625971  0.748348  0.250000  1
  Ca  Ca11  1  0.625971  0.751652  0.750000  1
  Zn  Zn12  1  0.369571  0.250000  0.000000  1
  Zn  Zn13  1  0.630429  0.750000  0.500000  1
  Zn  Zn14  1  0.630429  0.750000  0.000000  1
  Zn  Zn15  1  0.369571  0.250000  0.500000  1
  Zn  Zn16  1  0.861214  0.401689  0.250000  1
  Zn  Zn17  1  0.861214  0.098311  0.750000  1
  Zn  Zn18  1  0.138786  0.901689  0.250000  1
  Zn  Zn19  1  0.138786  0.598311  0.750000  1
  Pd  Pd20  1  0.635345  0.467081  0.093844  1
  Pd  Pd21  1  0.635345  0.032919  0.906156  1
  Pd  Pd22  1  0.364655  0.967081  0.406156  1
  Pd  Pd23  1  0.364655  0.532919  0.593844  1
  Pd  Pd24  1  0.364655  0.532919  0.906156  1
  Pd  Pd25  1  0.364655  0.967081  0.093844  1
  Pd  Pd26  1  0.635345  0.032919  0.593844  1
  Pd  Pd27  1  0.635345  0.467081  0.406156  1
