# generated using pymatgen
data_EuZn10Cu
_symmetry_space_group_name_H-M   'P 1'
_cell_length_a   8.24401937
_cell_length_b   8.24401946
_cell_length_c   8.24401923
_cell_angle_alpha   99.45305339
_cell_angle_beta   99.88243835
_cell_angle_gamma   131.61587458
_symmetry_Int_Tables_number   1
_chemical_formula_structural   EuZn10Cu
_chemical_formula_sum   'Eu2 Zn20 Cu2'
_cell_volume   382.09319427
_cell_formula_units_Z   2
loop_
 _symmetry_equiv_pos_site_id
 _symmetry_equiv_pos_as_xyz
  1  'x, y, z'
loop_
 _atom_site_type_symbol
 _atom_site_label
 _atom_site_symmetry_multiplicity
 _atom_site_fract_x
 _atom_site_fract_y
 _atom_site_fract_z
 _atom_site_occupancy
  Eu  Eu0  1  0.999169  0.999169  0.000000  1
  Eu  Eu1  1  0.250831  0.750831  0.500000  1
  Zn  Zn2  1  0.754489  0.254489  0.500000  1
  Zn  Zn3  1  0.495511  0.495511  0.000000  1
  Zn  Zn4  1  0.625000  0.875000  0.250000  1
  Zn  Zn5  1  0.625000  0.375000  0.750000  1
  Zn  Zn6  1  0.182089  0.508029  0.080168  1
  Zn  Zn7  1  0.182089  0.101921  0.674060  1
  Zn  Zn8  1  0.764209  0.937322  0.586933  1
  Zn  Zn9  1  0.764209  0.177276  0.826886  1
  Zn  Zn10  1  0.427861  0.508029  0.325940  1
  Zn  Zn11  1  0.427861  0.101921  0.919832  1
  Zn  Zn12  1  0.350389  0.937322  0.173114  1
  Zn  Zn13  1  0.350389  0.177276  0.413067  1
  Zn  Zn14  1  0.067911  0.241971  0.419832  1
  Zn  Zn15  1  0.067911  0.648079  0.825940  1
  Zn  Zn16  1  0.485791  0.812678  0.913067  1
  Zn  Zn17  1  0.485791  0.572724  0.673114  1
  Zn  Zn18  1  0.822139  0.241971  0.174060  1
  Zn  Zn19  1  0.822139  0.648079  0.580168  1
  Zn  Zn20  1  0.899611  0.812678  0.326886  1
  Zn  Zn21  1  0.899611  0.572724  0.086933  1
  Cu  Cu22  1  0.125000  0.375000  0.750000  1
  Cu  Cu23  1  0.625000  0.375000  0.250000  1
