# generated using pymatgen
data_Lu3Co9SiGeB4
_symmetry_space_group_name_H-M   'P 1'
_cell_length_a   5.08765800
_cell_length_b   5.08747452
_cell_length_c   9.40002500
_cell_angle_alpha   89.99740709
_cell_angle_beta   90.00270550
_cell_angle_gamma   119.99758234
_symmetry_Int_Tables_number   1
_chemical_formula_structural   Lu3Co9SiGeB4
_chemical_formula_sum   'Lu3 Co9 Si1 Ge1 B4'
_cell_volume   210.71253718
_cell_formula_units_Z   1
loop_
 _symmetry_equiv_pos_site_id
 _symmetry_equiv_pos_as_xyz
  1  'x, y, z'
loop_
 _atom_site_type_symbol
 _atom_site_label
 _atom_site_symmetry_multiplicity
 _atom_site_fract_x
 _atom_site_fract_y
 _atom_site_fract_z
 _atom_site_occupancy
  Lu  Lu0  1  0.000108  0.000003  0.999712  1
  Lu  Lu1  1  0.999983  0.000050  0.338720  1
  Lu  Lu2  1  0.999944  0.000001  0.660987  1
  Co  Co3  1  0.499753  0.999577  0.499979  1
  Co  Co4  1  0.499769  0.500178  0.499970  1
  Co  Co5  1  0.000371  0.500200  0.499972  1
  Co  Co6  1  0.501318  0.002678  0.199672  1
  Co  Co7  1  0.501338  0.498724  0.199745  1
  Co  Co8  1  0.997322  0.498728  0.199639  1
  Co  Co9  1  0.501089  0.002262  0.800520  1
  Co  Co10  1  0.501123  0.498777  0.800468  1
  Co  Co11  1  0.997596  0.498799  0.800577  1
  Si  Si12  1  0.666626  0.333356  0.000004  1
  Ge  Ge13  1  0.333566  0.666683  0.999946  1
  B  B14  1  0.333284  0.666695  0.346245  1
  B  B15  1  0.666740  0.333364  0.347348  1
  B  B16  1  0.666717  0.333322  0.652703  1
  B  B17  1  0.333251  0.666604  0.653794  1
