# generated using pymatgen
data_Tb8Ho9Lu3Sn16
_symmetry_space_group_name_H-M   'P 1'
_cell_length_a   7.99685034
_cell_length_b   8.14348335
_cell_length_c   15.41275600
_cell_angle_alpha   90.00000000
_cell_angle_beta   90.00000000
_cell_angle_gamma   90.03346818
_symmetry_Int_Tables_number   1
_chemical_formula_structural   Tb8Ho9Lu3Sn16
_chemical_formula_sum   'Tb8 Ho9 Lu3 Sn16'
_cell_volume   1003.71267856
_cell_formula_units_Z   1
loop_
 _symmetry_equiv_pos_site_id
 _symmetry_equiv_pos_as_xyz
  1  'x, y, z'
loop_
 _atom_site_type_symbol
 _atom_site_label
 _atom_site_symmetry_multiplicity
 _atom_site_fract_x
 _atom_site_fract_y
 _atom_site_fract_z
 _atom_site_occupancy
  Tb  Tb0  1  0.520657  0.320206  0.902823  1
  Tb  Tb1  1  0.020366  0.179520  0.597195  1
  Tb  Tb2  1  0.479465  0.679632  0.402702  1
  Tb  Tb3  1  0.979518  0.820333  0.097238  1
  Tb  Tb4  1  0.479465  0.679632  0.097298  1
  Tb  Tb5  1  0.979518  0.820333  0.402762  1
  Tb  Tb6  1  0.520657  0.320206  0.597177  1
  Tb  Tb7  1  0.020366  0.179520  0.902805  1
  Ho  Ho8  1  0.367254  0.836455  0.877753  1
  Ho  Ho9  1  0.866748  0.663926  0.622270  1
  Ho  Ho10  1  0.632923  0.163719  0.377694  1
  Ho  Ho11  1  0.132911  0.336290  0.122433  1
  Ho  Ho12  1  0.632923  0.163719  0.122306  1
  Ho  Ho13  1  0.132911  0.336290  0.377567  1
  Ho  Ho14  1  0.367254  0.836455  0.622247  1
  Ho  Ho15  1  0.866748  0.663926  0.877730  1
  Ho  Ho16  1  0.197815  0.503322  0.750000  1
  Lu  Lu17  1  0.698098  0.996413  0.750000  1
  Lu  Lu18  1  0.801979  0.496536  0.250000  1
  Lu  Lu19  1  0.302006  0.003485  0.250000  1
  Sn  Sn20  1  0.294265  0.036619  0.042175  1
  Sn  Sn21  1  0.794262  0.463499  0.457821  1
  Sn  Sn22  1  0.705718  0.963376  0.542097  1
  Sn  Sn23  1  0.205721  0.536677  0.958426  1
  Sn  Sn24  1  0.705718  0.963376  0.957903  1
  Sn  Sn25  1  0.205721  0.536677  0.541574  1
  Sn  Sn26  1  0.294265  0.036619  0.457825  1
  Sn  Sn27  1  0.794262  0.463499  0.042179  1
  Sn  Sn28  1  0.564907  0.620528  0.750000  1
  Sn  Sn29  1  0.063618  0.880325  0.750000  1
  Sn  Sn30  1  0.436282  0.379749  0.250000  1
  Sn  Sn31  1  0.936143  0.120155  0.250000  1
  Sn  Sn32  1  0.329265  0.146494  0.750000  1
  Sn  Sn33  1  0.828880  0.352290  0.750000  1
  Sn  Sn34  1  0.670826  0.852485  0.250000  1
  Sn  Sn35  1  0.170565  0.647714  0.250000  1
