# generated using pymatgen
data_Li2YHo3(Co3P2)6
_symmetry_space_group_name_H-M   'P 1'
_cell_length_a   3.66173200
_cell_length_b   10.23512601
_cell_length_c   11.79897901
_cell_angle_alpha   90.00454126
_cell_angle_beta   90.00000000
_cell_angle_gamma   90.00000000
_symmetry_Int_Tables_number   1
_chemical_formula_structural   Li2YHo3(Co3P2)6
_chemical_formula_sum   'Li2 Y1 Ho3 Co18 P12'
_cell_volume   442.20553707
_cell_formula_units_Z   1
loop_
 _symmetry_equiv_pos_site_id
 _symmetry_equiv_pos_as_xyz
  1  'x, y, z'
loop_
 _atom_site_type_symbol
 _atom_site_label
 _atom_site_symmetry_multiplicity
 _atom_site_fract_x
 _atom_site_fract_y
 _atom_site_fract_z
 _atom_site_occupancy
  Li  Li0  1  0.250000  0.702601  0.991022  1
  Li  Li1  1  0.250000  0.797354  0.490480  1
  Y  Y2  1  0.250000  0.579779  0.702229  1
  Ho  Ho3  1  0.250000  0.920424  0.202173  1
  Ho  Ho4  1  0.750000  0.420234  0.297715  1
  Ho  Ho5  1  0.750000  0.079738  0.797809  1
  Co  Co6  1  0.750000  0.288607  0.008858  1
  Co  Co7  1  0.750000  0.211209  0.508364  1
  Co  Co8  1  0.250000  0.403719  0.486873  1
  Co  Co9  1  0.250000  0.096085  0.987166  1
  Co  Co10  1  0.750000  0.590840  0.513883  1
  Co  Co11  1  0.750000  0.909030  0.014887  1
  Co  Co12  1  0.250000  0.223885  0.174758  1
  Co  Co13  1  0.250000  0.275925  0.674732  1
  Co  Co14  1  0.750000  0.780310  0.826238  1
  Co  Co15  1  0.750000  0.720119  0.325939  1
  Co  Co16  1  0.250000  0.881432  0.698780  1
  Co  Co17  1  0.250000  0.619011  0.198914  1
  Co  Co18  1  0.750000  0.120832  0.299737  1
  Co  Co19  1  0.750000  0.378659  0.800155  1
  Co  Co20  1  0.250000  0.463298  0.931900  1
  Co  Co21  1  0.250000  0.036520  0.431323  1
  Co  Co22  1  0.750000  0.533079  0.066714  1
  Co  Co23  1  0.750000  0.967143  0.566233  1
  P  P24  1  0.250000  0.422105  0.112452  1
  P  P25  1  0.250000  0.077916  0.612178  1
  P  P26  1  0.750000  0.577467  0.884637  1
  P  P27  1  0.750000  0.922513  0.383901  1
  P  P28  1  0.250000  0.267709  0.867109  1
  P  P29  1  0.250000  0.232205  0.366890  1
  P  P30  1  0.750000  0.730063  0.137896  1
  P  P31  1  0.750000  0.770698  0.637651  1
  P  P32  1  0.250000  0.601261  0.393047  1
  P  P33  1  0.250000  0.898706  0.893244  1
  P  P34  1  0.750000  0.395419  0.606891  1
  P  P35  1  0.750000  0.104104  0.107220  1
