# generated using pymatgen
data_Ho16In6CoPt
_symmetry_space_group_name_H-M   'P 1'
_cell_length_a   10.41804900
_cell_length_b   10.41805004
_cell_length_c   6.97678100
_cell_angle_alpha   90.00000000
_cell_angle_beta   90.00000000
_cell_angle_gamma   119.99999988
_symmetry_Int_Tables_number   1
_chemical_formula_structural   Ho16In6CoPt
_chemical_formula_sum   'Ho16 In6 Co1 Pt1'
_cell_volume   655.78058930
_cell_formula_units_Z   1
loop_
 _symmetry_equiv_pos_site_id
 _symmetry_equiv_pos_as_xyz
  1  'x, y, z'
loop_
 _atom_site_type_symbol
 _atom_site_label
 _atom_site_symmetry_multiplicity
 _atom_site_fract_x
 _atom_site_fract_y
 _atom_site_fract_z
 _atom_site_occupancy
  Ho  Ho0  1  0.530944  0.061887  0.508302  1
  Ho  Ho1  1  0.938113  0.469056  0.508302  1
  Ho  Ho2  1  0.530944  0.469056  0.508302  1
  Ho  Ho3  1  0.464554  0.929109  0.005268  1
  Ho  Ho4  1  0.070891  0.535446  0.005268  1
  Ho  Ho5  1  0.464554  0.535446  0.005268  1
  Ho  Ho6  1  0.178248  0.356495  0.713863  1
  Ho  Ho7  1  0.643505  0.821752  0.713863  1
  Ho  Ho8  1  0.178248  0.821752  0.713863  1
  Ho  Ho9  1  0.824547  0.649094  0.212618  1
  Ho  Ho10  1  0.350906  0.175453  0.212618  1
  Ho  Ho11  1  0.824547  0.175453  0.212618  1
  Ho  Ho12  1  0.666667  0.333333  0.884432  1
  Ho  Ho13  1  0.333333  0.666667  0.395969  1
  Ho  Ho14  1  0.000000  0.000000  0.492725  1
  Ho  Ho15  1  0.000000  0.000000  0.991498  1
  In  In16  1  0.837562  0.675125  0.751379  1
  In  In17  1  0.324875  0.162438  0.751379  1
  In  In18  1  0.837562  0.162438  0.751379  1
  In  In19  1  0.162663  0.325326  0.251315  1
  In  In20  1  0.674674  0.837337  0.251315  1
  In  In21  1  0.162663  0.837337  0.251315  1
  Co  Co22  1  0.333333  0.666667  0.782254  1
  Pt  Pt23  1  0.666667  0.333333  0.282925  1
