# generated using pymatgen
data_Er3Tm17Sn16
_symmetry_space_group_name_H-M   'P 1'
_cell_length_a   7.94760839
_cell_length_b   8.06370503
_cell_length_c   15.26028409
_cell_angle_alpha   89.99764560
_cell_angle_beta   90.06605637
_cell_angle_gamma   89.94860850
_symmetry_Int_Tables_number   1
_chemical_formula_structural   Er3Tm17Sn16
_chemical_formula_sum   'Er3 Tm17 Sn16'
_cell_volume   977.98737291
_cell_formula_units_Z   1
loop_
 _symmetry_equiv_pos_site_id
 _symmetry_equiv_pos_as_xyz
  1  'x, y, z'
loop_
 _atom_site_type_symbol
 _atom_site_label
 _atom_site_symmetry_multiplicity
 _atom_site_fract_x
 _atom_site_fract_y
 _atom_site_fract_z
 _atom_site_occupancy
  Er  Er0  1  0.977925  0.821083  0.402998  1
  Er  Er1  1  0.522080  0.321261  0.596705  1
  Er  Er2  1  0.022371  0.178623  0.903332  1
  Tm  Tm3  1  0.368221  0.837054  0.877406  1
  Tm  Tm4  1  0.867584  0.662674  0.622855  1
  Tm  Tm5  1  0.632304  0.162537  0.376925  1
  Tm  Tm6  1  0.131999  0.337377  0.122651  1
  Tm  Tm7  1  0.631869  0.163001  0.122671  1
  Tm  Tm8  1  0.132142  0.337171  0.377152  1
  Tm  Tm9  1  0.368061  0.837022  0.622765  1
  Tm  Tm10  1  0.868695  0.662898  0.877404  1
  Tm  Tm11  1  0.523355  0.321453  0.902509  1
  Tm  Tm12  1  0.023002  0.178892  0.597461  1
  Tm  Tm13  1  0.477192  0.678811  0.402668  1
  Tm  Tm14  1  0.976839  0.820911  0.097483  1
  Tm  Tm15  1  0.476876  0.678640  0.097037  1
  Tm  Tm16  1  0.198691  0.503753  0.750122  1
  Tm  Tm17  1  0.698584  0.996276  0.750119  1
  Tm  Tm18  1  0.801243  0.496382  0.249713  1
  Tm  Tm19  1  0.301420  0.003701  0.249801  1
  Sn  Sn20  1  0.292707  0.035322  0.042160  1
  Sn  Sn21  1  0.792544  0.463570  0.458080  1
  Sn  Sn22  1  0.707549  0.963825  0.541806  1
  Sn  Sn23  1  0.208580  0.536711  0.958685  1
  Sn  Sn24  1  0.706477  0.962664  0.958814  1
  Sn  Sn25  1  0.206060  0.537505  0.541196  1
  Sn  Sn26  1  0.293879  0.037372  0.458725  1
  Sn  Sn27  1  0.792013  0.463905  0.041446  1
  Sn  Sn28  1  0.564830  0.619442  0.750173  1
  Sn  Sn29  1  0.064797  0.880333  0.749991  1
  Sn  Sn30  1  0.435235  0.381077  0.249904  1
  Sn  Sn31  1  0.935276  0.119377  0.249860  1
  Sn  Sn32  1  0.332061  0.148901  0.750257  1
  Sn  Sn33  1  0.832146  0.351006  0.749788  1
  Sn  Sn34  1  0.666978  0.850477  0.249749  1
  Sn  Sn35  1  0.168417  0.648993  0.249591  1
