# generated using pymatgen
data_HfTa5(AlRu2)6
_symmetry_space_group_name_H-M   'P 1'
_cell_length_a   4.38769100
_cell_length_b   6.21416500
_cell_length_c   13.14489600
_cell_angle_alpha   90.00000000
_cell_angle_beta   90.00010016
_cell_angle_gamma   90.00000000
_symmetry_Int_Tables_number   1
_chemical_formula_structural   HfTa5(AlRu2)6
_chemical_formula_sum   'Hf1 Ta5 Al6 Ru12'
_cell_volume   358.40657651
_cell_formula_units_Z   1
loop_
 _symmetry_equiv_pos_site_id
 _symmetry_equiv_pos_as_xyz
  1  'x, y, z'
loop_
 _atom_site_type_symbol
 _atom_site_label
 _atom_site_symmetry_multiplicity
 _atom_site_fract_x
 _atom_site_fract_y
 _atom_site_fract_z
 _atom_site_occupancy
  Hf  Hf0  1  0.500076  0.500000  0.833344  1
  Ta  Ta1  1  0.999998  0.000000  0.999692  1
  Ta  Ta2  1  0.499923  0.500000  0.166511  1
  Ta  Ta3  1  0.999926  0.000000  0.333343  1
  Ta  Ta4  1  0.499999  0.500000  0.500196  1
  Ta  Ta5  1  0.000079  0.000000  0.666964  1
  Al  Al6  1  0.000002  0.500000  0.999973  1
  Al  Al7  1  0.499913  0.000000  0.166859  1
  Al  Al8  1  0.999916  0.500000  0.333345  1
  Al  Al9  1  0.499998  0.000000  0.499831  1
  Al  Al10  1  0.000083  0.500000  0.666706  1
  Al  Al11  1  0.500083  0.000000  0.833351  1
  Ru  Ru12  1  0.499996  0.247516  0.002927  1
  Ru  Ru13  1  0.499996  0.752485  0.002927  1
  Ru  Ru14  1  0.999922  0.250447  0.167613  1
  Ru  Ru15  1  0.999922  0.749554  0.167613  1
  Ru  Ru16  1  0.499931  0.249673  0.333354  1
  Ru  Ru17  1  0.499931  0.750328  0.333354  1
  Ru  Ru18  1  0.000001  0.250448  0.499014  1
  Ru  Ru19  1  0.000001  0.749552  0.499014  1
  Ru  Ru20  1  0.500082  0.247482  0.663755  1
  Ru  Ru21  1  0.500082  0.752519  0.663755  1
  Ru  Ru22  1  0.000069  0.244514  0.833279  1
  Ru  Ru23  1  0.000069  0.755487  0.833279  1
