# generated using pymatgen
data_Pr3SnPt3Pb2
_symmetry_space_group_name_H-M   'P 1'
_cell_length_a   7.77421600
_cell_length_b   7.82073718
_cell_length_c   4.18061000
_cell_angle_alpha   90.00000000
_cell_angle_beta   90.00000000
_cell_angle_gamma   119.80341309
_symmetry_Int_Tables_number   1
_chemical_formula_structural   Pr3SnPt3Pb2
_chemical_formula_sum   'Pr3 Sn1 Pt3 Pb2'
_cell_volume   220.56240484
_cell_formula_units_Z   1
loop_
 _symmetry_equiv_pos_site_id
 _symmetry_equiv_pos_as_xyz
  1  'x, y, z'
loop_
 _atom_site_type_symbol
 _atom_site_label
 _atom_site_symmetry_multiplicity
 _atom_site_fract_x
 _atom_site_fract_y
 _atom_site_fract_z
 _atom_site_occupancy
  Pr  Pr0  1  0.589861  0.593077  0.000000  1
  Pr  Pr1  1  0.409964  0.000000  0.000000  1
  Pr  Pr2  1  0.996783  0.406923  0.000000  1
  Sn  Sn3  1  0.746384  0.000000  0.500000  1
  Pt  Pt4  1  0.670821  0.324343  0.500000  1
  Pt  Pt5  1  0.985301  0.000000  0.000000  1
  Pt  Pt6  1  0.346477  0.675657  0.500000  1
  Pb  Pb7  1  0.999768  0.745128  0.500000  1
  Pb  Pb8  1  0.254640  0.254872  0.500000  1
