# generated using pymatgen
data_PrNd5Al21Si3Os8
_symmetry_space_group_name_H-M   'P 1'
_cell_length_a   8.84337800
_cell_length_b   8.84027524
_cell_length_c   9.71417204
_cell_angle_alpha   90.00945423
_cell_angle_beta   90.00000000
_cell_angle_gamma   120.01161101
_symmetry_Int_Tables_number   1
_chemical_formula_structural   PrNd5Al21Si3Os8
_chemical_formula_sum   'Pr1 Nd5 Al21 Si3 Os8'
_cell_volume   657.61175224
_cell_formula_units_Z   1
loop_
 _symmetry_equiv_pos_site_id
 _symmetry_equiv_pos_as_xyz
  1  'x, y, z'
loop_
 _atom_site_type_symbol
 _atom_site_label
 _atom_site_symmetry_multiplicity
 _atom_site_fract_x
 _atom_site_fract_y
 _atom_site_fract_z
 _atom_site_occupancy
  Pr  Pr0  1  0.192745  0.385490  0.247501  1
  Nd  Nd1  1  0.805902  0.611803  0.752952  1
  Nd  Nd2  1  0.614390  0.807222  0.247348  1
  Nd  Nd3  1  0.388202  0.194117  0.752942  1
  Nd  Nd4  1  0.192831  0.807222  0.247348  1
  Nd  Nd5  1  0.805915  0.194117  0.752942  1
  Al  Al6  1  0.333459  0.666920  0.487984  1
  Al  Al7  1  0.163530  0.327059  0.571834  1
  Al  Al8  1  0.835817  0.671635  0.425977  1
  Al  Al9  1  0.672950  0.836472  0.571594  1
  Al  Al10  1  0.835723  0.671447  0.074222  1
  Al  Al11  1  0.328420  0.164011  0.426051  1
  Al  Al12  1  0.164352  0.328704  0.925703  1
  Al  Al13  1  0.163523  0.836472  0.571594  1
  Al  Al14  1  0.328629  0.164105  0.074140  1
  Al  Al15  1  0.835591  0.164011  0.426051  1
  Al  Al16  1  0.671315  0.835672  0.925947  1
  Al  Al17  1  0.835476  0.164105  0.074140  1
  Al  Al18  1  0.164357  0.835672  0.925947  1
  Al  Al19  1  0.564351  0.128700  0.248702  1
  Al  Al20  1  0.436218  0.872435  0.748540  1
  Al  Al21  1  0.870956  0.435698  0.248691  1
  Al  Al22  1  0.127556  0.563782  0.748557  1
  Al  Al23  1  0.564743  0.435698  0.248691  1
  Al  Al24  1  0.436227  0.563782  0.748557  1
  Al  Al25  1  0.999764  0.999528  0.249342  1
  Al  Al26  1  0.000004  0.000009  0.749597  1
  Si  Si27  1  0.333549  0.667098  0.025898  1
  Si  Si28  1  0.666679  0.333356  0.972832  1
  Si  Si29  1  0.666668  0.333334  0.528866  1
  Os  Os30  1  0.499427  0.998854  0.999090  1
  Os  Os31  1  0.001077  0.500705  0.998989  1
  Os  Os32  1  0.504303  0.008605  0.501098  1
  Os  Os33  1  0.499627  0.500705  0.998989  1
  Os  Os34  1  0.991320  0.495826  0.501234  1
  Os  Os35  1  0.504506  0.495826  0.501234  1
  Os  Os36  1  0.999953  0.999905  0.999344  1
  Os  Os37  1  0.999949  0.999898  0.499523  1
