# generated using pymatgen
data_Ac6IrRuBr6
_symmetry_space_group_name_H-M   'P 1'
_cell_length_a   11.01985795
_cell_length_b   11.02836335
_cell_length_c   11.01985845
_cell_angle_alpha   109.57196494
_cell_angle_beta   109.23853855
_cell_angle_gamma   109.57196051
_symmetry_Int_Tables_number   1
_chemical_formula_structural   Ac6IrRuBr6
_chemical_formula_sum   'Ac12 Ir2 Ru2 Br12'
_cell_volume   1031.34653838
_cell_formula_units_Z   2
loop_
 _symmetry_equiv_pos_site_id
 _symmetry_equiv_pos_as_xyz
  1  'x, y, z'
loop_
 _atom_site_type_symbol
 _atom_site_label
 _atom_site_symmetry_multiplicity
 _atom_site_fract_x
 _atom_site_fract_y
 _atom_site_fract_z
 _atom_site_occupancy
  Ac  Ac0  1  0.266212  0.750000  0.233788  1
  Ac  Ac1  1  0.483788  0.750000  0.016212  1
  Ac  Ac2  1  0.233563  0.467125  0.483563  1
  Ac  Ac3  1  0.016437  0.032875  0.266437  1
  Ac  Ac4  1  0.232762  0.265340  0.748101  1
  Ac  Ac5  1  0.013896  0.481875  0.746218  1
  Ac  Ac6  1  0.482762  0.234660  0.467421  1
  Ac  Ac7  1  0.264343  0.018125  0.032023  1
  Ac  Ac8  1  0.751899  0.234660  0.267238  1
  Ac  Ac9  1  0.753782  0.018125  0.486104  1
  Ac  Ac10  1  0.467977  0.481875  0.235657  1
  Ac  Ac11  1  0.032579  0.265340  0.017238  1
  Ir  Ir12  1  0.499814  0.999626  0.249814  1
  Ir  Ir13  1  0.250186  0.500374  0.000186  1
  Ru  Ru14  1  0.999196  0.250000  0.500804  1
  Ru  Ru15  1  0.250804  0.250000  0.249196  1
  Br  Br16  1  0.249403  0.994169  0.505435  1
  Br  Br17  1  0.511266  0.505831  0.755234  1
  Br  Br18  1  0.249705  0.755067  0.744153  1
  Br  Br19  1  0.989084  0.744933  0.994638  1
  Br  Br20  1  0.994565  0.505831  0.250597  1
  Br  Br21  1  0.744766  0.994169  0.988734  1
  Br  Br22  1  0.755847  0.744933  0.250295  1
  Br  Br23  1  0.505362  0.755067  0.510916  1
  Br  Br24  1  0.505591  0.250000  0.994409  1
  Br  Br25  1  0.756168  0.512336  0.506168  1
  Br  Br26  1  0.744409  0.250000  0.755591  1
  Br  Br27  1  0.993832  0.987664  0.743832  1
