# generated using pymatgen
data_Sc2Ni3Rh3C
_symmetry_space_group_name_H-M   'P 1'
_cell_length_a   5.58193071
_cell_length_b   5.58193008
_cell_length_c   5.49590232
_cell_angle_alpha   59.48083825
_cell_angle_beta   59.48084022
_cell_angle_gamma   60.00000593
_symmetry_Int_Tables_number   1
_chemical_formula_structural   Sc2Ni3Rh3C
_chemical_formula_sum   'Sc2 Ni3 Rh3 C1'
_cell_volume   120.12681243
_cell_formula_units_Z   1
loop_
 _symmetry_equiv_pos_site_id
 _symmetry_equiv_pos_as_xyz
  1  'x, y, z'
loop_
 _atom_site_type_symbol
 _atom_site_label
 _atom_site_symmetry_multiplicity
 _atom_site_fract_x
 _atom_site_fract_y
 _atom_site_fract_z
 _atom_site_occupancy
  Sc  Sc0  1  0.249745  0.249745  0.250764  1
  Sc  Sc1  1  0.752321  0.752321  0.743037  1
  Ni  Ni2  1  0.745452  0.260022  0.249076  1
  Ni  Ni3  1  0.260022  0.745452  0.249076  1
  Ni  Ni4  1  0.745450  0.745450  0.249078  1
  Rh  Rh5  1  0.254876  0.254876  0.744261  1
  Rh  Rh6  1  0.745988  0.254878  0.744259  1
  Rh  Rh7  1  0.254878  0.745988  0.744259  1
  C  C8  1  0.991269  0.991269  0.026192  1
