# generated using pymatgen
data_HfZr3Ir2N
_symmetry_space_group_name_H-M   'P 1'
_cell_length_a   8.80450029
_cell_length_b   8.80450092
_cell_length_c   8.80450000
_cell_angle_alpha   60.00000346
_cell_angle_beta   60.00000108
_cell_angle_gamma   59.99999876
_symmetry_Int_Tables_number   1
_chemical_formula_structural   HfZr3Ir2N
_chemical_formula_sum   'Hf4 Zr12 Ir8 N4'
_cell_volume   482.61316650
_cell_formula_units_Z   4
loop_
 _symmetry_equiv_pos_site_id
 _symmetry_equiv_pos_as_xyz
  1  'x, y, z'
loop_
 _atom_site_type_symbol
 _atom_site_label
 _atom_site_symmetry_multiplicity
 _atom_site_fract_x
 _atom_site_fract_y
 _atom_site_fract_z
 _atom_site_occupancy
  Hf  Hf0  1  0.125000  0.625000  0.625000  1
  Hf  Hf1  1  0.625000  0.125000  0.625000  1
  Hf  Hf2  1  0.625000  0.625000  0.125000  1
  Hf  Hf3  1  0.625000  0.625000  0.625000  1
  Zr  Zr4  1  0.814950  0.814950  0.185050  1
  Zr  Zr5  1  0.185050  0.185050  0.814950  1
  Zr  Zr6  1  0.814950  0.185050  0.814950  1
  Zr  Zr7  1  0.185050  0.814950  0.185050  1
  Zr  Zr8  1  0.185050  0.814950  0.814950  1
  Zr  Zr9  1  0.814950  0.185050  0.185050  1
  Zr  Zr10  1  0.435050  0.435050  0.064950  1
  Zr  Zr11  1  0.064950  0.064950  0.435050  1
  Zr  Zr12  1  0.435050  0.064950  0.435050  1
  Zr  Zr13  1  0.064950  0.435050  0.064950  1
  Zr  Zr14  1  0.064950  0.435050  0.435050  1
  Zr  Zr15  1  0.435050  0.064950  0.064950  1
  Ir  Ir16  1  0.763772  0.412076  0.412076  1
  Ir  Ir17  1  0.412076  0.763772  0.412076  1
  Ir  Ir18  1  0.412076  0.412076  0.763772  1
  Ir  Ir19  1  0.412076  0.412076  0.412076  1
  Ir  Ir20  1  0.486228  0.837924  0.837924  1
  Ir  Ir21  1  0.837924  0.486228  0.837924  1
  Ir  Ir22  1  0.837924  0.837924  0.486228  1
  Ir  Ir23  1  0.837924  0.837924  0.837924  1
  N  N24  1  0.625000  0.125000  0.125000  1
  N  N25  1  0.125000  0.625000  0.125000  1
  N  N26  1  0.125000  0.125000  0.625000  1
  N  N27  1  0.125000  0.125000  0.125000  1
