# generated using pymatgen
data_LaPr7(Si3Au)4
_symmetry_space_group_name_H-M   'P 1'
_cell_length_a   8.31871013
_cell_length_b   8.31870998
_cell_length_c   8.81235700
_cell_angle_alpha   90.00000000
_cell_angle_beta   90.00000000
_cell_angle_gamma   119.97541519
_symmetry_Int_Tables_number   1
_chemical_formula_structural   LaPr7(Si3Au)4
_chemical_formula_sum   'La1 Pr7 Si12 Au4'
_cell_volume   528.25330777
_cell_formula_units_Z   1
loop_
 _symmetry_equiv_pos_site_id
 _symmetry_equiv_pos_as_xyz
  1  'x, y, z'
loop_
 _atom_site_type_symbol
 _atom_site_label
 _atom_site_symmetry_multiplicity
 _atom_site_fract_x
 _atom_site_fract_y
 _atom_site_fract_z
 _atom_site_occupancy
  La  La0  1  0.499400  0.500600  0.750000  1
  Pr  Pr1  1  0.500735  0.499265  0.250000  1
  Pr  Pr2  1  0.001179  0.500562  0.750000  1
  Pr  Pr3  1  0.998536  0.499227  0.250000  1
  Pr  Pr4  1  0.499438  0.998821  0.750000  1
  Pr  Pr5  1  0.500773  0.001464  0.250000  1
  Pr  Pr6  1  0.999999  0.000001  0.750000  1
  Pr  Pr7  1  0.999999  0.000001  0.250000  1
  Si  Si8  1  0.836207  0.163793  0.001073  1
  Si  Si9  1  0.163744  0.836256  0.999366  1
  Si  Si10  1  0.327138  0.163227  0.001165  1
  Si  Si11  1  0.163744  0.836256  0.500634  1
  Si  Si12  1  0.672955  0.836829  0.999632  1
  Si  Si13  1  0.836207  0.163793  0.498927  1
  Si  Si14  1  0.836773  0.672862  0.001165  1
  Si  Si15  1  0.672955  0.836829  0.500368  1
  Si  Si16  1  0.163171  0.327045  0.999632  1
  Si  Si17  1  0.327138  0.163227  0.498835  1
  Si  Si18  1  0.163171  0.327045  0.500368  1
  Si  Si19  1  0.836773  0.672862  0.498835  1
  Au  Au20  1  0.666760  0.333240  0.997934  1
  Au  Au21  1  0.333224  0.666776  0.003934  1
  Au  Au22  1  0.333224  0.666776  0.496066  1
  Au  Au23  1  0.666760  0.333240  0.502066  1
