# generated using pymatgen
data_Dy6Y10CdHg3Pt4
_symmetry_space_group_name_H-M   'P 1'
_cell_length_a   9.66618366
_cell_length_b   9.68785817
_cell_length_c   9.68785903
_cell_angle_alpha   59.94306900
_cell_angle_beta   59.98953420
_cell_angle_gamma   59.98953683
_symmetry_Int_Tables_number   1
_chemical_formula_structural   Dy6Y10CdHg3Pt4
_chemical_formula_sum   'Dy6 Y10 Cd1 Hg3 Pt4'
_cell_volume   641.12065627
_cell_formula_units_Z   1
loop_
 _symmetry_equiv_pos_site_id
 _symmetry_equiv_pos_as_xyz
  1  'x, y, z'
loop_
 _atom_site_type_symbol
 _atom_site_label
 _atom_site_symmetry_multiplicity
 _atom_site_fract_x
 _atom_site_fract_y
 _atom_site_fract_z
 _atom_site_occupancy
  Dy  Dy0  1  0.354299  0.353368  0.353368  1
  Dy  Dy1  1  0.354232  0.353419  0.938985  1
  Dy  Dy2  1  0.354232  0.938985  0.353419  1
  Dy  Dy3  1  0.936452  0.354491  0.354491  1
  Dy  Dy4  1  0.809920  0.190050  0.190050  1
  Dy  Dy5  1  0.188911  0.810624  0.810624  1
  Y  Y6  1  0.189143  0.810396  0.190068  1
  Y  Y7  1  0.809707  0.190292  0.809722  1
  Y  Y8  1  0.189143  0.190068  0.810396  1
  Y  Y9  1  0.809707  0.809722  0.190292  1
  Y  Y10  1  0.934852  0.564177  0.564177  1
  Y  Y11  1  0.563315  0.936383  0.936383  1
  Y  Y12  1  0.563172  0.936507  0.563800  1
  Y  Y13  1  0.934962  0.564055  0.936931  1
  Y  Y14  1  0.563172  0.563800  0.936507  1
  Y  Y15  1  0.934962  0.936931  0.564055  1
  Cd  Cd16  1  0.255563  0.581439  0.581439  1
  Hg  Hg17  1  0.585031  0.587058  0.587058  1
  Hg  Hg18  1  0.584985  0.587113  0.240861  1
  Hg  Hg19  1  0.584985  0.240861  0.587113  1
  Pt  Pt20  1  0.143086  0.145157  0.145157  1
  Pt  Pt21  1  0.144584  0.143665  0.566602  1
  Pt  Pt22  1  0.144584  0.566602  0.143665  1
  Pt  Pt23  1  0.567004  0.144834  0.144834  1
