# generated using pymatgen
data_Y3Al12IrRu3
_symmetry_space_group_name_H-M   'P 1'
_cell_length_a   8.80784800
_cell_length_b   8.82746969
_cell_length_c   9.56061603
_cell_angle_alpha   90.11499347
_cell_angle_beta   90.00000000
_cell_angle_gamma   119.92649761
_symmetry_Int_Tables_number   1
_chemical_formula_structural   Y3Al12IrRu3
_chemical_formula_sum   'Y6 Al24 Ir2 Ru6'
_cell_volume   644.23242225
_cell_formula_units_Z   2
loop_
 _symmetry_equiv_pos_site_id
 _symmetry_equiv_pos_as_xyz
  1  'x, y, z'
loop_
 _atom_site_type_symbol
 _atom_site_label
 _atom_site_symmetry_multiplicity
 _atom_site_fract_x
 _atom_site_fract_y
 _atom_site_fract_z
 _atom_site_occupancy
  Y  Y0  1  0.194090  0.807935  0.249945  1
  Y  Y1  1  0.192585  0.385170  0.249278  1
  Y  Y2  1  0.613844  0.807935  0.249945  1
  Y  Y3  1  0.805910  0.192065  0.750055  1
  Y  Y4  1  0.807415  0.614830  0.750722  1
  Y  Y5  1  0.386156  0.192065  0.750055  1
  Al  Al6  1  0.561731  0.438618  0.249226  1
  Al  Al7  1  0.561262  0.122525  0.250798  1
  Al  Al8  1  0.876887  0.438618  0.249226  1
  Al  Al9  1  0.438269  0.561382  0.750774  1
  Al  Al10  1  0.438738  0.877475  0.749202  1
  Al  Al11  1  0.123113  0.561382  0.750774  1
  Al  Al12  1  0.325687  0.162024  0.423169  1
  Al  Al13  1  0.836337  0.162024  0.423169  1
  Al  Al14  1  0.837430  0.674861  0.423375  1
  Al  Al15  1  0.674313  0.837976  0.576831  1
  Al  Al16  1  0.163663  0.837976  0.576831  1
  Al  Al17  1  0.162570  0.325139  0.576625  1
  Al  Al18  1  0.673807  0.836620  0.923271  1
  Al  Al19  1  0.162813  0.836620  0.923271  1
  Al  Al20  1  0.162834  0.325668  0.922780  1
  Al  Al21  1  0.326193  0.163380  0.076729  1
  Al  Al22  1  0.837187  0.163380  0.076729  1
  Al  Al23  1  0.837166  0.674332  0.077220  1
  Al  Al24  1  0.665477  0.330955  0.519498  1
  Al  Al25  1  0.334523  0.669045  0.480502  1
  Al  Al26  1  0.333528  0.667057  0.018747  1
  Al  Al27  1  0.666472  0.332943  0.981253  1
  Al  Al28  1  0.000296  0.000593  0.250040  1
  Al  Al29  1  0.999704  0.999407  0.749960  1
  Ir  Ir30  1  0.500000  0.500000  0.500000  1
  Ir  Ir31  1  0.000000  0.500000  0.500000  1
  Ru  Ru32  1  0.000000  0.000000  0.500000  1
  Ru  Ru33  1  0.000000  0.000000  0.000000  1
  Ru  Ru34  1  0.500000  0.000000  0.500000  1
  Ru  Ru35  1  0.500000  0.500000  0.000000  1
  Ru  Ru36  1  0.500000  0.000000  0.000000  1
  Ru  Ru37  1  0.000000  0.500000  0.000000  1
