# generated using pymatgen
data_Ti2Al2Ru3Au
_symmetry_space_group_name_H-M   'P 1'
_cell_length_a   4.35533402
_cell_length_b   6.23406078
_cell_length_c   13.00469536
_cell_angle_alpha   89.84313742
_cell_angle_beta   90.00999540
_cell_angle_gamma   90.00035245
_symmetry_Int_Tables_number   1
_chemical_formula_structural   Ti2Al2Ru3Au
_chemical_formula_sum   'Ti6 Al6 Ru9 Au3'
_cell_volume   353.09457774
_cell_formula_units_Z   3
loop_
 _symmetry_equiv_pos_site_id
 _symmetry_equiv_pos_as_xyz
  1  'x, y, z'
loop_
 _atom_site_type_symbol
 _atom_site_label
 _atom_site_symmetry_multiplicity
 _atom_site_fract_x
 _atom_site_fract_y
 _atom_site_fract_z
 _atom_site_occupancy
  Ti  Ti0  1  0.000050  0.500528  0.989269  1
  Ti  Ti1  1  0.499782  0.987581  0.181932  1
  Ti  Ti2  1  0.999874  0.506853  0.345223  1
  Ti  Ti3  1  0.500005  0.001798  0.502133  1
  Ti  Ti4  1  0.000091  0.498783  0.663449  1
  Ti  Ti5  1  0.500204  0.999992  0.817806  1
  Al  Al6  1  0.000048  0.000293  0.996639  1
  Al  Al7  1  0.499783  0.507645  0.174373  1
  Al  Al8  1  0.999868  0.994895  0.340857  1
  Al  Al9  1  0.499996  0.499760  0.501807  1
  Al  Al10  1  0.000122  0.000435  0.664138  1
  Al  Al11  1  0.500162  0.499104  0.823745  1
  Ru  Ru12  1  0.999853  0.754447  0.163046  1
  Ru  Ru13  1  0.499855  0.249223  0.333931  1
  Ru  Ru14  1  0.499897  0.749476  0.333683  1
  Ru  Ru15  1  0.999985  0.250293  0.499888  1
  Ru  Ru16  1  0.000012  0.750279  0.501248  1
  Ru  Ru17  1  0.500102  0.249644  0.665814  1
  Ru  Ru18  1  0.500092  0.749135  0.666579  1
  Ru  Ru19  1  0.000183  0.249481  0.832673  1
  Ru  Ru20  1  0.000160  0.748088  0.834332  1
  Au  Au21  1  0.500120  0.242612  0.994046  1
  Au  Au22  1  0.500007  0.751080  0.001286  1
  Au  Au23  1  0.999749  0.258570  0.172101  1
