# generated using pymatgen
data_Pr2NdDy(AsPt)4
_symmetry_space_group_name_H-M   'P 1'
_cell_length_a   4.32857100
_cell_length_b   4.32857036
_cell_length_c   16.15917100
_cell_angle_alpha   90.00000000
_cell_angle_beta   90.00000000
_cell_angle_gamma   119.99999723
_symmetry_Int_Tables_number   1
_chemical_formula_structural   Pr2NdDy(AsPt)4
_chemical_formula_sum   'Pr2 Nd1 Dy1 As4 Pt4'
_cell_volume   262.20365879
_cell_formula_units_Z   1
loop_
 _symmetry_equiv_pos_site_id
 _symmetry_equiv_pos_as_xyz
  1  'x, y, z'
loop_
 _atom_site_type_symbol
 _atom_site_label
 _atom_site_symmetry_multiplicity
 _atom_site_fract_x
 _atom_site_fract_y
 _atom_site_fract_z
 _atom_site_occupancy
  Pr  Pr0  1  0.000000  0.000000  0.505946  1
  Pr  Pr1  1  0.000000  0.000000  0.994054  1
  Nd  Nd2  1  0.000000  0.000000  0.250000  1
  Dy  Dy3  1  0.000000  0.000000  0.750000  1
  As  As4  1  0.333333  0.666667  0.877434  1
  As  As5  1  0.666667  0.333333  0.120165  1
  As  As6  1  0.666667  0.333333  0.379835  1
  As  As7  1  0.333333  0.666667  0.622566  1
  Pt  Pt8  1  0.333333  0.666667  0.374424  1
  Pt  Pt9  1  0.666667  0.333333  0.645328  1
  Pt  Pt10  1  0.666667  0.333333  0.854672  1
  Pt  Pt11  1  0.333333  0.666667  0.125576  1
