# generated using pymatgen
data_Ho9Er(Co2Rh)2
_symmetry_space_group_name_H-M   'P 1'
_cell_length_a   7.06381882
_cell_length_b   7.06381946
_cell_length_c   8.69283000
_cell_angle_alpha   113.97270066
_cell_angle_beta   113.97270441
_cell_angle_gamma   90.00000573
_symmetry_Int_Tables_number   1
_chemical_formula_structural   Ho9Er(Co2Rh)2
_chemical_formula_sum   'Ho9 Er1 Co4 Rh2'
_cell_volume   354.99754020
_cell_formula_units_Z   1
loop_
 _symmetry_equiv_pos_site_id
 _symmetry_equiv_pos_as_xyz
  1  'x, y, z'
loop_
 _atom_site_type_symbol
 _atom_site_label
 _atom_site_symmetry_multiplicity
 _atom_site_fract_x
 _atom_site_fract_y
 _atom_site_fract_z
 _atom_site_occupancy
  Ho  Ho0  1  0.000000  0.000000  0.000000  1
  Ho  Ho1  1  0.463927  0.318611  0.282498  1
  Ho  Ho2  1  0.963889  0.463927  0.282498  1
  Ho  Ho3  1  0.318611  0.818570  0.282498  1
  Ho  Ho4  1  0.818570  0.963889  0.282498  1
  Ho  Ho5  1  0.181429  0.036112  0.717501  1
  Ho  Ho6  1  0.681388  0.181429  0.717501  1
  Ho  Ho7  1  0.036112  0.536072  0.717501  1
  Ho  Ho8  1  0.536072  0.681388  0.717501  1
  Er  Er9  1  0.500000  0.500000  0.000000  1
  Co  Co10  1  0.612419  0.112482  0.000000  1
  Co  Co11  1  0.112482  0.387582  0.000000  1
  Co  Co12  1  0.887518  0.612419  0.000000  1
  Co  Co13  1  0.387582  0.887518  0.000000  1
  Rh  Rh14  1  0.250015  0.250015  0.500031  1
  Rh  Rh15  1  0.749985  0.749985  0.499969  1
