# generated using pymatgen
data_Dy10Y2InCo6
_symmetry_space_group_name_H-M   'P 1'
_cell_length_a   8.37665936
_cell_length_b   8.37100496
_cell_length_c   8.37100413
_cell_angle_alpha   109.43272632
_cell_angle_beta   109.44635665
_cell_angle_gamma   109.50721933
_symmetry_Int_Tables_number   1
_chemical_formula_structural   Dy10Y2InCo6
_chemical_formula_sum   'Dy10 Y2 In1 Co6'
_cell_volume   452.01257644
_cell_formula_units_Z   1
loop_
 _symmetry_equiv_pos_site_id
 _symmetry_equiv_pos_as_xyz
  1  'x, y, z'
loop_
 _atom_site_type_symbol
 _atom_site_label
 _atom_site_symmetry_multiplicity
 _atom_site_fract_x
 _atom_site_fract_y
 _atom_site_fract_z
 _atom_site_occupancy
  Dy  Dy0  1  0.806436  0.697070  0.504721  1
  Dy  Dy1  1  0.193564  0.302930  0.495279  1
  Dy  Dy2  1  0.193564  0.698283  0.890633  1
  Dy  Dy3  1  0.806436  0.301717  0.109367  1
  Dy  Dy4  1  0.696325  0.502873  0.805746  1
  Dy  Dy5  1  0.303675  0.497127  0.194254  1
  Dy  Dy6  1  0.696325  0.890581  0.193452  1
  Dy  Dy7  1  0.303675  0.109419  0.806548  1
  Dy  Dy8  1  0.504373  0.806590  0.697784  1
  Dy  Dy9  1  0.495627  0.193410  0.302216  1
  Y  Y10  1  0.107201  0.806473  0.300728  1
  Y  Y11  1  0.892799  0.193527  0.699272  1
  In  In12  1  0.000000  0.000000  0.000000  1
  Co  Co13  1  0.886380  0.387076  0.499304  1
  Co  Co14  1  0.113620  0.612924  0.500696  1
  Co  Co15  1  0.388064  0.501358  0.886706  1
  Co  Co16  1  0.611936  0.498642  0.113294  1
  Co  Co17  1  0.500000  0.886969  0.386969  1
  Co  Co18  1  0.500000  0.113031  0.613031  1
