# generated using pymatgen
data_Er7Tm5(CoSi)8
_symmetry_space_group_name_H-M   'P 1'
_cell_length_a   5.46328338
_cell_length_b   7.53554913
_cell_length_c   12.44459429
_cell_angle_alpha   90.00840099
_cell_angle_beta   90.02337346
_cell_angle_gamma   90.10418607
_symmetry_Int_Tables_number   1
_chemical_formula_structural   Er7Tm5(CoSi)8
_chemical_formula_sum   'Er7 Tm5 Co8 Si8'
_cell_volume   512.32861964
_cell_formula_units_Z   1
loop_
 _symmetry_equiv_pos_site_id
 _symmetry_equiv_pos_as_xyz
  1  'x, y, z'
loop_
 _atom_site_type_symbol
 _atom_site_label
 _atom_site_symmetry_multiplicity
 _atom_site_fract_x
 _atom_site_fract_y
 _atom_site_fract_z
 _atom_site_occupancy
  Er  Er0  1  0.629548  0.252609  0.250181  1
  Er  Er1  1  0.370395  0.747471  0.749892  1
  Er  Er2  1  0.370452  0.753000  0.250128  1
  Er  Er3  1  0.629495  0.246853  0.749947  1
  Er  Er4  1  0.141925  0.395531  0.101443  1
  Er  Er5  1  0.858219  0.604514  0.898657  1
  Er  Er6  1  0.858558  0.604447  0.601120  1
  Tm  Tm7  1  0.857805  0.895835  0.398672  1
  Tm  Tm8  1  0.142176  0.395422  0.398517  1
  Tm  Tm9  1  0.141942  0.104458  0.601229  1
  Tm  Tm10  1  0.142150  0.104210  0.898665  1
  Tm  Tm11  1  0.857874  0.895761  0.101513  1
  Co  Co12  1  0.366353  0.029637  0.087453  1
  Co  Co13  1  0.633644  0.970398  0.912638  1
  Co  Co14  1  0.633699  0.970547  0.587249  1
  Co  Co15  1  0.633152  0.529744  0.412393  1
  Co  Co16  1  0.366052  0.029758  0.412722  1
  Co  Co17  1  0.366257  0.469703  0.587252  1
  Co  Co18  1  0.366890  0.469917  0.912407  1
  Co  Co19  1  0.633363  0.530094  0.087688  1
  Si  Si20  1  0.149812  0.101886  0.250207  1
  Si  Si21  1  0.849982  0.898410  0.749931  1
  Si  Si22  1  0.849933  0.602492  0.250249  1
  Si  Si23  1  0.150532  0.397370  0.749960  1
  Si  Si24  1  0.615114  0.249936  0.000040  1
  Si  Si25  1  0.384916  0.750070  0.000022  1
  Si  Si26  1  0.384902  0.749956  0.499947  1
  Si  Si27  1  0.614861  0.249970  0.499879  1
