# generated using pymatgen
data_DyY4InSb2
_symmetry_space_group_name_H-M   'P 1'
_cell_length_a   6.49963700
_cell_length_b   8.98654601
_cell_length_c   8.99604600
_cell_angle_alpha   120.03469941
_cell_angle_beta   89.99748081
_cell_angle_gamma   90.00130864
_symmetry_Int_Tables_number   1
_chemical_formula_structural   DyY4InSb2
_chemical_formula_sum   'Dy2 Y8 In2 Sb4'
_cell_volume   454.89613239
_cell_formula_units_Z   2
loop_
 _symmetry_equiv_pos_site_id
 _symmetry_equiv_pos_as_xyz
  1  'x, y, z'
loop_
 _atom_site_type_symbol
 _atom_site_label
 _atom_site_symmetry_multiplicity
 _atom_site_fract_x
 _atom_site_fract_y
 _atom_site_fract_z
 _atom_site_occupancy
  Dy  Dy0  1  0.000562  0.663848  0.331429  1
  Dy  Dy1  1  0.000564  0.336152  0.667581  1
  Y  Y2  1  0.499346  0.336053  0.667611  1
  Y  Y3  1  0.499348  0.663946  0.331557  1
  Y  Y4  1  0.750057  0.242027  0.004318  1
  Y  Y5  1  0.750058  0.757964  0.762293  1
  Y  Y6  1  0.750032  0.000002  0.239953  1
  Y  Y7  1  0.250017  0.758949  0.998045  1
  Y  Y8  1  0.250019  0.241053  0.239107  1
  Y  Y9  1  0.249995  0.000007  0.757152  1
  In  In10  1  0.750199  0.605552  0.000867  1
  In  In11  1  0.750199  0.394448  0.395315  1
  Sb  Sb12  1  0.750182  0.999996  0.609155  1
  Sb  Sb13  1  0.249805  0.391928  0.998362  1
  Sb  Sb14  1  0.249806  0.608076  0.606437  1
  Sb  Sb15  1  0.249817  0.999998  0.390821  1
