# generated using pymatgen
data_TbNd7(Si3Pt)4
_symmetry_space_group_name_H-M   'P 1'
_cell_length_a   8.22269800
_cell_length_b   8.22877222
_cell_length_c   8.53685300
_cell_angle_alpha   90.00000000
_cell_angle_beta   90.00000000
_cell_angle_gamma   120.02442767
_symmetry_Int_Tables_number   1
_chemical_formula_structural   TbNd7(Si3Pt)4
_chemical_formula_sum   'Tb1 Nd7 Si12 Pt4'
_cell_volume   500.11613007
_cell_formula_units_Z   1
loop_
 _symmetry_equiv_pos_site_id
 _symmetry_equiv_pos_as_xyz
  1  'x, y, z'
loop_
 _atom_site_type_symbol
 _atom_site_label
 _atom_site_symmetry_multiplicity
 _atom_site_fract_x
 _atom_site_fract_y
 _atom_site_fract_z
 _atom_site_occupancy
  Tb  Tb0  1  0.000143  0.500071  0.750000  1
  Nd  Nd1  1  0.499801  0.500177  0.750000  1
  Nd  Nd2  1  0.500170  0.499836  0.250000  1
  Nd  Nd3  1  0.999662  0.499831  0.250000  1
  Nd  Nd4  1  0.499801  0.999624  0.750000  1
  Nd  Nd5  1  0.500170  0.000334  0.250000  1
  Nd  Nd6  1  0.000024  0.000012  0.750000  1
  Nd  Nd7  1  0.999995  0.999998  0.250000  1
  Si  Si8  1  0.834893  0.166614  0.997949  1
  Si  Si9  1  0.165149  0.833395  0.999406  1
  Si  Si10  1  0.332280  0.166140  0.999281  1
  Si  Si11  1  0.165149  0.833395  0.500594  1
  Si  Si12  1  0.667745  0.833872  0.000677  1
  Si  Si13  1  0.834893  0.166614  0.502051  1
  Si  Si14  1  0.834893  0.668279  0.997949  1
  Si  Si15  1  0.667745  0.833872  0.499323  1
  Si  Si16  1  0.165149  0.331754  0.999406  1
  Si  Si17  1  0.332280  0.166140  0.500719  1
  Si  Si18  1  0.165149  0.331754  0.500594  1
  Si  Si19  1  0.834893  0.668279  0.502051  1
  Pt  Pt20  1  0.668583  0.334291  0.996426  1
  Pt  Pt21  1  0.331425  0.665713  0.996709  1
  Pt  Pt22  1  0.331425  0.665713  0.503291  1
  Pt  Pt23  1  0.668583  0.334291  0.503574  1
