# generated using pymatgen
data_HfTa4Nb(B2Ru5)2
_symmetry_space_group_name_H-M   'P 1'
_cell_length_a   9.46059921
_cell_length_b   9.46059967
_cell_length_c   3.04224900
_cell_angle_alpha   90.00000000
_cell_angle_beta   90.00000000
_cell_angle_gamma   90.09765103
_symmetry_Int_Tables_number   1
_chemical_formula_structural   HfTa4Nb(B2Ru5)2
_chemical_formula_sum   'Hf1 Ta4 Nb1 B4 Ru10'
_cell_volume   272.28983955
_cell_formula_units_Z   1
loop_
 _symmetry_equiv_pos_site_id
 _symmetry_equiv_pos_as_xyz
  1  'x, y, z'
loop_
 _atom_site_type_symbol
 _atom_site_label
 _atom_site_symmetry_multiplicity
 _atom_site_fract_x
 _atom_site_fract_y
 _atom_site_fract_z
 _atom_site_occupancy
  Hf  Hf0  1  0.824409  0.675591  0.000000  1
  Ta  Ta1  1  0.324344  0.823344  0.000000  1
  Ta  Ta2  1  0.676656  0.175656  0.000000  1
  Ta  Ta3  1  0.500013  0.500224  0.000000  1
  Ta  Ta4  1  0.999776  0.999987  0.000000  1
  Nb  Nb5  1  0.176089  0.323911  0.000000  1
  B  B6  1  0.621009  0.878991  0.000000  1
  B  B7  1  0.378380  0.121620  0.000000  1
  B  B8  1  0.121189  0.621233  0.000000  1
  B  B9  1  0.878767  0.378811  0.000000  1
  Ru  Ru10  1  0.567536  0.719846  0.500000  1
  Ru  Ru11  1  0.428886  0.281360  0.500000  1
  Ru  Ru12  1  0.074683  0.782612  0.500000  1
  Ru  Ru13  1  0.928406  0.217950  0.500000  1
  Ru  Ru14  1  0.282050  0.571594  0.500000  1
  Ru  Ru15  1  0.717388  0.425317  0.500000  1
  Ru  Ru16  1  0.218640  0.071114  0.500000  1
  Ru  Ru17  1  0.780154  0.932464  0.500000  1
  Ru  Ru18  1  0.499177  0.000823  0.500000  1
  Ru  Ru19  1  0.002450  0.497550  0.500000  1
