# generated using pymatgen
data_Nd4Al18(PdRu)3
_symmetry_space_group_name_H-M   'P 1'
_cell_length_a   7.65139389
_cell_length_b   7.65139308
_cell_length_c   9.65923107
_cell_angle_alpha   90.00710351
_cell_angle_beta   90.00710462
_cell_angle_gamma   119.18715410
_symmetry_Int_Tables_number   1
_chemical_formula_structural   Nd4Al18(PdRu)3
_chemical_formula_sum   'Nd4 Al18 Pd3 Ru3'
_cell_volume   493.68905340
_cell_formula_units_Z   1
loop_
 _symmetry_equiv_pos_site_id
 _symmetry_equiv_pos_as_xyz
  1  'x, y, z'
loop_
 _atom_site_type_symbol
 _atom_site_label
 _atom_site_symmetry_multiplicity
 _atom_site_fract_x
 _atom_site_fract_y
 _atom_site_fract_z
 _atom_site_occupancy
  Nd  Nd0  1  0.995354  0.671211  0.248988  1
  Nd  Nd1  1  0.007552  0.330739  0.750431  1
  Nd  Nd2  1  0.669261  0.992448  0.249569  1
  Nd  Nd3  1  0.328789  0.004646  0.751012  1
  Al  Al4  1  0.125927  0.127798  0.248987  1
  Al  Al5  1  0.872202  0.874073  0.751013  1
  Al  Al6  1  0.996794  0.329338  0.073060  1
  Al  Al7  1  0.991385  0.663138  0.926407  1
  Al  Al8  1  0.995511  0.670008  0.576160  1
  Al  Al9  1  0.329992  0.004489  0.423840  1
  Al  Al10  1  0.002804  0.330372  0.425354  1
  Al  Al11  1  0.669628  0.997196  0.574646  1
  Al  Al12  1  0.670662  0.003206  0.926940  1
  Al  Al13  1  0.336862  0.008615  0.073593  1
  Al  Al14  1  0.328857  0.328809  0.548043  1
  Al  Al15  1  0.671191  0.671143  0.451957  1
  Al  Al16  1  0.672770  0.666585  0.042850  1
  Al  Al17  1  0.333415  0.327230  0.957150  1
  Al  Al18  1  0.340410  0.544359  0.249474  1
  Al  Al19  1  0.657893  0.451691  0.755653  1
  Al  Al20  1  0.548309  0.342107  0.244347  1
  Al  Al21  1  0.455641  0.659590  0.750526  1
  Pd  Pd22  1  0.328114  0.671886  0.000000  1
  Pd  Pd23  1  0.328303  0.671697  0.500000  1
  Pd  Pd24  1  0.670983  0.329017  0.500000  1
  Ru  Ru25  1  0.671247  0.328753  0.000000  1
  Ru  Ru26  1  0.000388  0.999612  0.000000  1
  Ru  Ru27  1  0.999757  0.000243  0.500000  1
