# generated using pymatgen
data_Pr4Ho2Al24Os5Pt3
_symmetry_space_group_name_H-M   'P 1'
_cell_length_a   8.89411204
_cell_length_b   8.91258863
_cell_length_c   9.66046160
_cell_angle_alpha   90.03219843
_cell_angle_beta   89.86162350
_cell_angle_gamma   119.65936025
_symmetry_Int_Tables_number   1
_chemical_formula_structural   Pr4Ho2Al24Os5Pt3
_chemical_formula_sum   'Pr4 Ho2 Al24 Os5 Pt3'
_cell_volume   665.44795747
_cell_formula_units_Z   1
loop_
 _symmetry_equiv_pos_site_id
 _symmetry_equiv_pos_as_xyz
  1  'x, y, z'
loop_
 _atom_site_type_symbol
 _atom_site_label
 _atom_site_symmetry_multiplicity
 _atom_site_fract_x
 _atom_site_fract_y
 _atom_site_fract_z
 _atom_site_occupancy
  Pr  Pr0  1  0.187492  0.379267  0.249724  1
  Pr  Pr1  1  0.812508  0.620733  0.750276  1
  Pr  Pr2  1  0.618148  0.813858  0.251660  1
  Pr  Pr3  1  0.381852  0.186142  0.748340  1
  Ho  Ho4  1  0.196274  0.808294  0.251152  1
  Ho  Ho5  1  0.803726  0.191706  0.748848  1
  Al  Al6  1  0.334717  0.671812  0.026729  1
  Al  Al7  1  0.665283  0.328188  0.973271  1
  Al  Al8  1  0.670113  0.330894  0.525184  1
  Al  Al9  1  0.329887  0.669106  0.474816  1
  Al  Al10  1  0.156516  0.325584  0.574142  1
  Al  Al11  1  0.843484  0.674416  0.425858  1
  Al  Al12  1  0.673672  0.842581  0.575194  1
  Al  Al13  1  0.838233  0.675780  0.077180  1
  Al  Al14  1  0.326328  0.157419  0.424806  1
  Al  Al15  1  0.161767  0.324220  0.922820  1
  Al  Al16  1  0.164487  0.834521  0.573188  1
  Al  Al17  1  0.325828  0.157045  0.075687  1
  Al  Al18  1  0.835513  0.165479  0.426812  1
  Al  Al19  1  0.674172  0.842955  0.924313  1
  Al  Al20  1  0.831438  0.159806  0.074893  1
  Al  Al21  1  0.168562  0.840194  0.925107  1
  Al  Al22  1  0.560285  0.125334  0.249687  1
  Al  Al23  1  0.439715  0.874666  0.750313  1
  Al  Al24  1  0.873715  0.438266  0.253028  1
  Al  Al25  1  0.126285  0.561734  0.746972  1
  Al  Al26  1  0.564162  0.435143  0.249642  1
  Al  Al27  1  0.435838  0.564857  0.750358  1
  Al  Al28  1  0.001397  0.000137  0.250181  1
  Al  Al29  1  0.998603  0.999863  0.749819  1
  Os  Os30  1  0.500000  0.000000  0.000000  1
  Os  Os31  1  0.500000  0.000000  0.500000  1
  Os  Os32  1  0.000000  0.500000  0.500000  1
  Os  Os33  1  0.000000  0.000000  0.000000  1
  Os  Os34  1  0.000000  0.000000  0.500000  1
  Pt  Pt35  1  0.000000  0.500000  0.000000  1
  Pt  Pt36  1  0.500000  0.500000  0.000000  1
  Pt  Pt37  1  0.500000  0.500000  0.500000  1
