# generated using pymatgen
data_Gd2H4IBr
_symmetry_space_group_name_H-M   'P 1'
_cell_length_a   11.75269681
_cell_length_b   11.75269586
_cell_length_c   11.75269700
_cell_angle_alpha   19.03359225
_cell_angle_beta   19.03359071
_cell_angle_gamma   19.03358794
_symmetry_Int_Tables_number   1
_chemical_formula_structural   Gd2H4IBr
_chemical_formula_sum   'Gd2 H4 I1 Br1'
_cell_volume   150.89654031
_cell_formula_units_Z   1
loop_
 _symmetry_equiv_pos_site_id
 _symmetry_equiv_pos_as_xyz
  1  'x, y, z'
loop_
 _atom_site_type_symbol
 _atom_site_label
 _atom_site_symmetry_multiplicity
 _atom_site_fract_x
 _atom_site_fract_y
 _atom_site_fract_z
 _atom_site_occupancy
  Gd  Gd0  1  0.121132  0.121132  0.121132  1
  Gd  Gd1  1  0.881026  0.881026  0.881027  1
  H  H2  1  0.186267  0.186267  0.186267  1
  H  H3  1  0.458939  0.458939  0.458939  1
  H  H4  1  0.541903  0.541903  0.541903  1
  H  H5  1  0.815549  0.815549  0.815550  1
  I  I6  1  0.724832  0.724832  0.724832  1
  Br  Br7  1  0.270352  0.270352  0.270352  1
