# generated using pymatgen
data_CdMo2(PO4)3
_symmetry_space_group_name_H-M   'P 1'
_cell_length_a   8.82494633
_cell_length_b   8.82494662
_cell_length_c   9.06591729
_cell_angle_alpha   60.55515501
_cell_angle_beta   60.55515473
_cell_angle_gamma   60.29052893
_symmetry_Int_Tables_number   1
_chemical_formula_structural   CdMo2(PO4)3
_chemical_formula_sum   'Cd2 Mo4 P6 O24'
_cell_volume   504.51592686
_cell_formula_units_Z   2
loop_
 _symmetry_equiv_pos_site_id
 _symmetry_equiv_pos_as_xyz
  1  'x, y, z'
loop_
 _atom_site_type_symbol
 _atom_site_label
 _atom_site_symmetry_multiplicity
 _atom_site_fract_x
 _atom_site_fract_y
 _atom_site_fract_z
 _atom_site_occupancy
  Cd  Cd0  1  0.010517  0.490845  0.748087  1
  Cd  Cd1  1  0.509155  0.989483  0.251913  1
  Mo  Mo2  1  0.648190  0.138729  0.818378  1
  Mo  Mo3  1  0.861271  0.351810  0.181622  1
  Mo  Mo4  1  0.149537  0.642232  0.313421  1
  Mo  Mo5  1  0.357768  0.850463  0.686579  1
  P  P6  1  0.256558  0.452253  0.001520  1
  P  P7  1  0.458040  0.244935  0.504416  1
  P  P8  1  0.048513  0.951487  0.500000  1
  P  P9  1  0.961776  0.038224  0.000000  1
  P  P10  1  0.547747  0.743442  0.998480  1
  P  P11  1  0.755065  0.541960  0.495584  1
  O  O12  1  0.024517  0.106966  0.327761  1
  O  O13  1  0.801499  0.517868  0.322094  1
  O  O14  1  0.416212  0.264587  0.015179  1
  O  O15  1  0.322260  0.604541  0.828498  1
  O  O16  1  0.239635  0.923107  0.501383  1
  O  O17  1  0.614003  0.289270  0.333292  1
  O  O18  1  0.482132  0.198501  0.677906  1
  O  O19  1  0.095404  0.443579  0.983447  1
  O  O20  1  0.433702  0.078300  0.503794  1
  O  O21  1  0.268214  0.406563  0.503158  1
  O  O22  1  0.893034  0.975483  0.672239  1
  O  O23  1  0.076893  0.760365  0.498617  1
  O  O24  1  0.949171  0.227873  0.983538  1
  O  O25  1  0.110210  0.994899  0.828969  1
  O  O26  1  0.556421  0.904596  0.016553  1
  O  O27  1  0.735413  0.583788  0.984821  1
  O  O28  1  0.921700  0.566298  0.496206  1
  O  O29  1  0.506100  0.804235  0.828229  1
  O  O30  1  0.395459  0.677740  0.171502  1
  O  O31  1  0.772127  0.050829  0.016462  1
  O  O32  1  0.710730  0.385997  0.666708  1
  O  O33  1  0.593437  0.731786  0.496842  1
  O  O34  1  0.195765  0.493900  0.171771  1
  O  O35  1  0.005101  0.889790  0.171031  1
