# generated using pymatgen
data_HoBi(OF)2
_symmetry_space_group_name_H-M   'P 1'
_cell_length_a   3.90032700
_cell_length_b   3.90032700
_cell_length_c   5.77015100
_cell_angle_alpha   90.00000000
_cell_angle_beta   90.00000000
_cell_angle_gamma   90.00000000
_symmetry_Int_Tables_number   1
_chemical_formula_structural   HoBi(OF)2
_chemical_formula_sum   'Ho1 Bi1 O2 F2'
_cell_volume   87.77871467
_cell_formula_units_Z   1
loop_
 _symmetry_equiv_pos_site_id
 _symmetry_equiv_pos_as_xyz
  1  'x, y, z'
loop_
 _atom_site_type_symbol
 _atom_site_label
 _atom_site_symmetry_multiplicity
 _atom_site_fract_x
 _atom_site_fract_y
 _atom_site_fract_z
 _atom_site_occupancy
  Ho  Ho0  1  0.000000  0.500000  0.732236  1
  Bi  Bi1  1  0.500000  0.000000  0.306441  1
  O  O2  1  0.000000  0.000000  0.511435  1
  O  O3  1  0.500000  0.500000  0.511435  1
  F  F4  1  0.000000  0.000000  0.969227  1
  F  F5  1  0.500000  0.500000  0.969227  1
