# generated using pymatgen
data_KRb3Os2O9
_symmetry_space_group_name_H-M   'P 1'
_cell_length_a   6.39576512
_cell_length_b   6.39541819
_cell_length_c   15.49932100
_cell_angle_alpha   90.00000000
_cell_angle_beta   90.00000000
_cell_angle_gamma   119.97925259
_symmetry_Int_Tables_number   1
_chemical_formula_structural   KRb3Os2O9
_chemical_formula_sum   'K2 Rb6 Os4 O18'
_cell_volume   549.15572593
_cell_formula_units_Z   2
loop_
 _symmetry_equiv_pos_site_id
 _symmetry_equiv_pos_as_xyz
  1  'x, y, z'
loop_
 _atom_site_type_symbol
 _atom_site_label
 _atom_site_symmetry_multiplicity
 _atom_site_fract_x
 _atom_site_fract_y
 _atom_site_fract_z
 _atom_site_occupancy
  K  K0  1  0.000000  0.000000  0.500000  1
  K  K1  1  0.000000  0.000000  0.000000  1
  Rb  Rb2  1  0.999964  0.000021  0.250000  1
  Rb  Rb3  1  0.000036  0.999979  0.750000  1
  Rb  Rb4  1  0.333345  0.666658  0.390243  1
  Rb  Rb5  1  0.666655  0.333342  0.609757  1
  Rb  Rb6  1  0.666655  0.333342  0.890243  1
  Rb  Rb7  1  0.333345  0.666658  0.109757  1
  Os  Os8  1  0.666693  0.333310  0.343809  1
  Os  Os9  1  0.333307  0.666690  0.656191  1
  Os  Os10  1  0.333307  0.666690  0.843809  1
  Os  Os11  1  0.666693  0.333310  0.156191  1
  O  O12  1  0.538004  0.461999  0.250000  1
  O  O13  1  0.538148  0.076271  0.250000  1
  O  O14  1  0.923687  0.461833  0.250000  1
  O  O15  1  0.461996  0.538001  0.750000  1
  O  O16  1  0.461852  0.923729  0.750000  1
  O  O17  1  0.076313  0.538167  0.750000  1
  O  O18  1  0.378912  0.189540  0.399155  1
  O  O19  1  0.810461  0.189509  0.399140  1
  O  O20  1  0.810437  0.621071  0.399154  1
  O  O21  1  0.621088  0.810460  0.600845  1
  O  O22  1  0.189539  0.810491  0.600860  1
  O  O23  1  0.189563  0.378929  0.600846  1
  O  O24  1  0.621088  0.810460  0.899155  1
  O  O25  1  0.189539  0.810491  0.899140  1
  O  O26  1  0.189563  0.378929  0.899154  1
  O  O27  1  0.378912  0.189540  0.100845  1
  O  O28  1  0.810461  0.189509  0.100860  1
  O  O29  1  0.810437  0.621071  0.100846  1
