# generated using pymatgen
data_Sc3TiCo10(SiB2)2
_symmetry_space_group_name_H-M   'P 1'
_cell_length_a   8.56190611
_cell_length_b   8.56190611
_cell_length_c   2.97217800
_cell_angle_alpha   90.00000000
_cell_angle_beta   90.00000000
_cell_angle_gamma   90.28301590
_symmetry_Int_Tables_number   1
_chemical_formula_structural   Sc3TiCo10(SiB2)2
_chemical_formula_sum   'Sc3 Ti1 Co10 Si2 B4'
_cell_volume   217.87652472
_cell_formula_units_Z   1
loop_
 _symmetry_equiv_pos_site_id
 _symmetry_equiv_pos_as_xyz
  1  'x, y, z'
loop_
 _atom_site_type_symbol
 _atom_site_label
 _atom_site_symmetry_multiplicity
 _atom_site_fract_x
 _atom_site_fract_y
 _atom_site_fract_z
 _atom_site_occupancy
  Sc  Sc0  1  0.824396  0.324396  0.000000  1
  Sc  Sc1  1  0.324012  0.175845  0.000000  1
  Sc  Sc2  1  0.675845  0.824012  0.000000  1
  Ti  Ti3  1  0.175288  0.675288  0.000000  1
  Co  Co4  1  0.497972  0.997972  0.500000  1
  Co  Co5  1  0.004809  0.504809  0.500000  1
  Co  Co6  1  0.069622  0.218701  0.500000  1
  Co  Co7  1  0.213509  0.923220  0.500000  1
  Co  Co8  1  0.783077  0.068262  0.500000  1
  Co  Co9  1  0.938151  0.782448  0.500000  1
  Co  Co10  1  0.423220  0.713509  0.500000  1
  Co  Co11  1  0.568262  0.283077  0.500000  1
  Co  Co12  1  0.718701  0.569622  0.500000  1
  Co  Co13  1  0.282448  0.438151  0.500000  1
  Si  Si14  1  0.999737  0.000653  0.000000  1
  Si  Si15  1  0.500653  0.499737  0.000000  1
  B  B16  1  0.619638  0.119638  0.000000  1
  B  B17  1  0.121932  0.382456  0.000000  1
  B  B18  1  0.882456  0.621932  0.000000  1
  B  B19  1  0.376270  0.876270  0.000000  1
