# generated using pymatgen
data_Th2Ta(NbSi2)2
_symmetry_space_group_name_H-M   'P 1'
_cell_length_a   7.17329700
_cell_length_b   7.17329700
_cell_length_c   13.40122600
_cell_angle_alpha   90.00000000
_cell_angle_beta   90.00000000
_cell_angle_gamma   90.00000000
_symmetry_Int_Tables_number   1
_chemical_formula_structural   Th2Ta(NbSi2)2
_chemical_formula_sum   'Th8 Ta4 Nb8 Si16'
_cell_volume   689.57602928
_cell_formula_units_Z   4
loop_
 _symmetry_equiv_pos_site_id
 _symmetry_equiv_pos_as_xyz
  1  'x, y, z'
loop_
 _atom_site_type_symbol
 _atom_site_label
 _atom_site_symmetry_multiplicity
 _atom_site_fract_x
 _atom_site_fract_y
 _atom_site_fract_z
 _atom_site_occupancy
  Th  Th0  1  0.998567  0.337199  0.217953  1
  Th  Th1  1  0.001433  0.662801  0.717953  1
  Th  Th2  1  0.162801  0.498567  0.467953  1
  Th  Th3  1  0.501433  0.837199  0.032047  1
  Th  Th4  1  0.837199  0.501433  0.967953  1
  Th  Th5  1  0.498567  0.162801  0.532047  1
  Th  Th6  1  0.337199  0.998567  0.782047  1
  Th  Th7  1  0.662801  0.001433  0.282047  1
  Ta  Ta8  1  0.168245  0.168245  0.000000  1
  Ta  Ta9  1  0.831755  0.831755  0.500000  1
  Ta  Ta10  1  0.331755  0.668245  0.250000  1
  Ta  Ta11  1  0.668245  0.331755  0.750000  1
  Nb  Nb12  1  0.159221  0.994802  0.373725  1
  Nb  Nb13  1  0.840779  0.005198  0.873725  1
  Nb  Nb14  1  0.505198  0.659221  0.623725  1
  Nb  Nb15  1  0.340779  0.494802  0.876275  1
  Nb  Nb16  1  0.494802  0.340779  0.123725  1
  Nb  Nb17  1  0.659221  0.505198  0.376275  1
  Nb  Nb18  1  0.994802  0.159221  0.626275  1
  Nb  Nb19  1  0.005198  0.840779  0.126275  1
  Si  Si20  1  0.289403  0.039308  0.186000  1
  Si  Si21  1  0.710597  0.960692  0.686000  1
  Si  Si22  1  0.460692  0.789403  0.436000  1
  Si  Si23  1  0.210597  0.539308  0.064000  1
  Si  Si24  1  0.539308  0.210597  0.936000  1
  Si  Si25  1  0.789403  0.460692  0.564000  1
  Si  Si26  1  0.039308  0.289403  0.814000  1
  Si  Si27  1  0.960692  0.710597  0.314000  1
  Si  Si28  1  0.375267  0.298727  0.313163  1
  Si  Si29  1  0.624733  0.701273  0.813163  1
  Si  Si30  1  0.201273  0.875267  0.563163  1
  Si  Si31  1  0.124733  0.798727  0.936837  1
  Si  Si32  1  0.798727  0.124733  0.063163  1
  Si  Si33  1  0.875267  0.201273  0.436837  1
  Si  Si34  1  0.298727  0.375267  0.686837  1
  Si  Si35  1  0.701273  0.624733  0.186837  1
