# generated using pymatgen
data_Ho3Cd3IrAu2
_symmetry_space_group_name_H-M   'P 1'
_cell_length_a   7.87026800
_cell_length_b   7.87026798
_cell_length_c   3.77849500
_cell_angle_alpha   90.00000000
_cell_angle_beta   90.00000000
_cell_angle_gamma   120.00000008
_symmetry_Int_Tables_number   1
_chemical_formula_structural   Ho3Cd3IrAu2
_chemical_formula_sum   'Ho3 Cd3 Ir1 Au2'
_cell_volume   202.68822745
_cell_formula_units_Z   1
loop_
 _symmetry_equiv_pos_site_id
 _symmetry_equiv_pos_as_xyz
  1  'x, y, z'
loop_
 _atom_site_type_symbol
 _atom_site_label
 _atom_site_symmetry_multiplicity
 _atom_site_fract_x
 _atom_site_fract_y
 _atom_site_fract_z
 _atom_site_occupancy
  Ho  Ho0  1  0.581465  0.971806  0.000000  1
  Ho  Ho1  1  0.028194  0.609660  0.000000  1
  Ho  Ho2  1  0.390340  0.418535  0.000000  1
  Cd  Cd3  1  0.269903  0.003392  0.500000  1
  Cd  Cd4  1  0.996608  0.266511  0.500000  1
  Cd  Cd5  1  0.733489  0.730097  0.500000  1
  Ir  Ir6  1  0.333333  0.666667  0.500000  1
  Au  Au7  1  0.666667  0.333333  0.500000  1
  Au  Au8  1  0.000000  0.000000  0.000000  1
