# generated using pymatgen
data_Ho4MgCo2Au
_symmetry_space_group_name_H-M   'P 1'
_cell_length_a   8.61492722
_cell_length_b   8.61492724
_cell_length_c   8.61492839
_cell_angle_alpha   130.69256021
_cell_angle_beta   130.69256367
_cell_angle_gamma   72.30199472
_symmetry_Int_Tables_number   1
_chemical_formula_structural   Ho4MgCo2Au
_chemical_formula_sum   'Ho8 Mg2 Co4 Au2'
_cell_volume   359.32542279
_cell_formula_units_Z   2
loop_
 _symmetry_equiv_pos_site_id
 _symmetry_equiv_pos_as_xyz
  1  'x, y, z'
loop_
 _atom_site_type_symbol
 _atom_site_label
 _atom_site_symmetry_multiplicity
 _atom_site_fract_x
 _atom_site_fract_y
 _atom_site_fract_z
 _atom_site_occupancy
  Ho  Ho0  1  0.691645  0.547749  0.500000  1
  Ho  Ho1  1  0.452251  0.952251  0.143896  1
  Ho  Ho2  1  0.808355  0.308355  0.856104  1
  Ho  Ho3  1  0.547749  0.047749  0.856104  1
  Ho  Ho4  1  0.047749  0.191645  0.500000  1
  Ho  Ho5  1  0.308355  0.452251  0.500000  1
  Ho  Ho6  1  0.191645  0.691645  0.143896  1
  Ho  Ho7  1  0.952251  0.808355  0.500000  1
  Mg  Mg8  1  0.000000  0.000000  0.000000  1
  Mg  Mg9  1  0.500000  0.500000  0.000000  1
  Co  Co10  1  0.114223  0.614223  0.728445  1
  Co  Co11  1  0.885777  0.385777  0.271555  1
  Co  Co12  1  0.614223  0.885777  0.500000  1
  Co  Co13  1  0.385777  0.114223  0.500000  1
  Au  Au14  1  0.250000  0.250000  0.000000  1
  Au  Au15  1  0.750000  0.750000  0.000000  1
