# generated using pymatgen
data_Lu8MnCr3C8
_symmetry_space_group_name_H-M   'P 1'
_cell_length_a   4.91107200
_cell_length_b   6.33171823
_cell_length_c   9.54626363
_cell_angle_alpha   90.16174720
_cell_angle_beta   90.00000000
_cell_angle_gamma   90.00000000
_symmetry_Int_Tables_number   1
_chemical_formula_structural   Lu8MnCr3C8
_chemical_formula_sum   'Lu8 Mn1 Cr3 C8'
_cell_volume   296.84488795
_cell_formula_units_Z   1
loop_
 _symmetry_equiv_pos_site_id
 _symmetry_equiv_pos_as_xyz
  1  'x, y, z'
loop_
 _atom_site_type_symbol
 _atom_site_label
 _atom_site_symmetry_multiplicity
 _atom_site_fract_x
 _atom_site_fract_y
 _atom_site_fract_z
 _atom_site_occupancy
  Lu  Lu0  1  0.250000  0.819578  0.943491  1
  Lu  Lu1  1  0.250000  0.319105  0.556655  1
  Lu  Lu2  1  0.750000  0.179923  0.057908  1
  Lu  Lu3  1  0.750000  0.680042  0.442564  1
  Lu  Lu4  1  0.250000  0.468110  0.218237  1
  Lu  Lu5  1  0.250000  0.969910  0.283082  1
  Lu  Lu6  1  0.750000  0.532697  0.782140  1
  Lu  Lu7  1  0.750000  0.031206  0.718892  1
  Mn  Mn8  1  0.750000  0.226412  0.360717  1
  Cr  Cr9  1  0.250000  0.274529  0.862122  1
  Cr  Cr10  1  0.250000  0.773813  0.637654  1
  Cr  Cr11  1  0.750000  0.725720  0.139366  1
  C  C12  1  0.250000  0.042408  0.737582  1
  C  C13  1  0.250000  0.541904  0.761485  1
  C  C14  1  0.750000  0.960367  0.261991  1
  C  C15  1  0.750000  0.456269  0.239464  1
  C  C16  1  0.250000  0.686276  0.456001  1
  C  C17  1  0.250000  0.186420  0.043611  1
  C  C18  1  0.750000  0.311979  0.539840  1
  C  C19  1  0.750000  0.813334  0.957197  1
