# generated using pymatgen
data_MnNb2B2Os
_symmetry_space_group_name_H-M   'P 1'
_cell_length_a   3.11917800
_cell_length_b   6.31680071
_cell_length_c   10.82938535
_cell_angle_alpha   89.87228939
_cell_angle_beta   90.00000000
_cell_angle_gamma   90.00000000
_symmetry_Int_Tables_number   1
_chemical_formula_structural   MnNb2B2Os
_chemical_formula_sum   'Mn3 Nb6 B6 Os3'
_cell_volume   213.37329474
_cell_formula_units_Z   3
loop_
 _symmetry_equiv_pos_site_id
 _symmetry_equiv_pos_as_xyz
  1  'x, y, z'
loop_
 _atom_site_type_symbol
 _atom_site_label
 _atom_site_symmetry_multiplicity
 _atom_site_fract_x
 _atom_site_fract_y
 _atom_site_fract_z
 _atom_site_occupancy
  Mn  Mn0  1  0.500000  0.075696  0.124985  1
  Mn  Mn1  1  0.500000  0.702244  0.248857  1
  Mn  Mn2  1  0.500000  0.299861  0.751535  1
  Nb  Nb3  1  0.000000  0.270070  0.957613  1
  Nb  Nb4  1  0.000000  0.731611  0.052465  1
  Nb  Nb5  1  0.000000  0.276843  0.548443  1
  Nb  Nb6  1  0.000000  0.722597  0.448283  1
  Nb  Nb7  1  0.000000  0.357567  0.246019  1
  Nb  Nb8  1  0.000000  0.633619  0.751670  1
  B  B9  1  0.000000  0.949285  0.242900  1
  B  B10  1  0.000000  0.060383  0.750492  1
  B  B11  1  0.500000  0.449830  0.087143  1
  B  B12  1  0.500000  0.548363  0.917030  1
  B  B13  1  0.500000  0.446860  0.411211  1
  B  B14  1  0.500000  0.550873  0.586363  1
  Os  Os15  1  0.500000  0.927540  0.877866  1
  Os  Os16  1  0.500000  0.071196  0.373751  1
  Os  Os17  1  0.500000  0.925562  0.623375  1
