# generated using pymatgen
data_Zr2V3Pt
_symmetry_space_group_name_H-M   'P 1'
_cell_length_a   5.14499300
_cell_length_b   5.14499356
_cell_length_c   8.81771000
_cell_angle_alpha   90.00000000
_cell_angle_beta   90.00000000
_cell_angle_gamma   120.00000282
_symmetry_Int_Tables_number   1
_chemical_formula_structural   Zr2V3Pt
_chemical_formula_sum   'Zr4 V6 Pt2'
_cell_volume   202.14176559
_cell_formula_units_Z   2
loop_
 _symmetry_equiv_pos_site_id
 _symmetry_equiv_pos_as_xyz
  1  'x, y, z'
loop_
 _atom_site_type_symbol
 _atom_site_label
 _atom_site_symmetry_multiplicity
 _atom_site_fract_x
 _atom_site_fract_y
 _atom_site_fract_z
 _atom_site_occupancy
  Zr  Zr0  1  0.333333  0.666667  0.439476  1
  Zr  Zr1  1  0.666667  0.333333  0.560524  1
  Zr  Zr2  1  0.666667  0.333333  0.939476  1
  Zr  Zr3  1  0.333333  0.666667  0.060524  1
  V  V4  1  0.826852  0.173148  0.250000  1
  V  V5  1  0.826852  0.653704  0.250000  1
  V  V6  1  0.346296  0.173148  0.250000  1
  V  V7  1  0.173148  0.826852  0.750000  1
  V  V8  1  0.173148  0.346296  0.750000  1
  V  V9  1  0.653704  0.826852  0.750000  1
  Pt  Pt10  1  0.000000  0.000000  0.500000  1
  Pt  Pt11  1  0.000000  0.000000  0.000000  1
