# generated using pymatgen
data_Ho4MnSiRu6
_symmetry_space_group_name_H-M   'P 1'
_cell_length_a   5.47486901
_cell_length_b   5.11650575
_cell_length_c   8.87434200
_cell_angle_alpha   90.00000000
_cell_angle_beta   90.00000000
_cell_angle_gamma   122.33835247
_symmetry_Int_Tables_number   1
_chemical_formula_structural   Ho4MnSiRu6
_chemical_formula_sum   'Ho4 Mn1 Si1 Ru6'
_cell_volume   210.03453388
_cell_formula_units_Z   1
loop_
 _symmetry_equiv_pos_site_id
 _symmetry_equiv_pos_as_xyz
  1  'x, y, z'
loop_
 _atom_site_type_symbol
 _atom_site_label
 _atom_site_symmetry_multiplicity
 _atom_site_fract_x
 _atom_site_fract_y
 _atom_site_fract_z
 _atom_site_occupancy
  Ho  Ho0  1  0.672672  0.345174  0.566129  1
  Ho  Ho1  1  0.330655  0.660899  0.433309  1
  Ho  Ho2  1  0.330655  0.660899  0.066691  1
  Ho  Ho3  1  0.672672  0.345174  0.933871  1
  Mn  Mn4  1  0.151884  0.304225  0.750000  1
  Si  Si5  1  0.839135  0.677375  0.250000  1
  Ru  Ru6  1  0.004631  0.008529  0.501222  1
  Ru  Ru7  1  0.004631  0.008529  0.998778  1
  Ru  Ru8  1  0.179647  0.821468  0.750000  1
  Ru  Ru9  1  0.641115  0.821527  0.750000  1
  Ru  Ru10  1  0.823536  0.173350  0.250000  1
  Ru  Ru11  1  0.348766  0.172851  0.250000  1
