# generated using pymatgen
data_YbCd(BIr)4
_symmetry_space_group_name_H-M   'P 1'
_cell_length_a   7.16244097
_cell_length_b   6.17637623
_cell_length_c   5.44720590
_cell_angle_alpha   75.78870095
_cell_angle_beta   56.71367485
_cell_angle_gamma   47.49761550
_symmetry_Int_Tables_number   1
_chemical_formula_structural   YbCd(BIr)4
_chemical_formula_sum   'Yb1 Cd1 B4 Ir4'
_cell_volume   145.40882536
_cell_formula_units_Z   1
loop_
 _symmetry_equiv_pos_site_id
 _symmetry_equiv_pos_as_xyz
  1  'x, y, z'
loop_
 _atom_site_type_symbol
 _atom_site_label
 _atom_site_symmetry_multiplicity
 _atom_site_fract_x
 _atom_site_fract_y
 _atom_site_fract_z
 _atom_site_occupancy
  Yb  Yb0  1  0.500000  0.500000  0.500000  1
  Cd  Cd1  1  0.750000  0.750000  0.750000  1
  B  B2  1  0.177723  0.822277  0.177723  1
  B  B3  1  0.071013  0.428987  0.071013  1
  B  B4  1  0.822277  0.177723  0.822277  1
  B  B5  1  0.428987  0.071013  0.428987  1
  Ir  Ir6  1  0.870150  0.870150  0.129850  1
  Ir  Ir7  1  0.129850  0.129850  0.870150  1
  Ir  Ir8  1  0.377272  0.377272  0.122728  1
  Ir  Ir9  1  0.122728  0.122728  0.377272  1
