# generated using pymatgen
data_TbHo3(PdPt)2
_symmetry_space_group_name_H-M   'P 1'
_cell_length_a   4.52775400
_cell_length_b   5.59353394
_cell_length_c   7.01139241
_cell_angle_alpha   90.10978365
_cell_angle_beta   90.00000000
_cell_angle_gamma   90.00000000
_symmetry_Int_Tables_number   1
_chemical_formula_structural   TbHo3(PdPt)2
_chemical_formula_sum   'Tb1 Ho3 Pd2 Pt2'
_cell_volume   177.57121949
_cell_formula_units_Z   1
loop_
 _symmetry_equiv_pos_site_id
 _symmetry_equiv_pos_as_xyz
  1  'x, y, z'
loop_
 _atom_site_type_symbol
 _atom_site_label
 _atom_site_symmetry_multiplicity
 _atom_site_fract_x
 _atom_site_fract_y
 _atom_site_fract_z
 _atom_site_occupancy
  Tb  Tb0  1  0.500000  0.612419  0.818284  1
  Ho  Ho1  1  0.000000  0.104369  0.682619  1
  Ho  Ho2  1  0.000000  0.895878  0.183286  1
  Ho  Ho3  1  0.500000  0.387226  0.318402  1
  Pd  Pd4  1  0.000000  0.592243  0.541395  1
  Pd  Pd5  1  0.000000  0.406873  0.044338  1
  Pt  Pt6  1  0.500000  0.900522  0.454914  1
  Pt  Pt7  1  0.500000  0.100470  0.956760  1
