# generated using pymatgen
data_Pa6Ni17P12W
_symmetry_space_group_name_H-M   'P 1'
_cell_length_a   3.82064100
_cell_length_b   10.55181000
_cell_length_c   12.45685600
_cell_angle_alpha   90.00000000
_cell_angle_beta   90.00042153
_cell_angle_gamma   90.00000000
_symmetry_Int_Tables_number   1
_chemical_formula_structural   Pa6Ni17P12W
_chemical_formula_sum   'Pa6 Ni17 P12 W1'
_cell_volume   502.19413741
_cell_formula_units_Z   1
loop_
 _symmetry_equiv_pos_site_id
 _symmetry_equiv_pos_as_xyz
  1  'x, y, z'
loop_
 _atom_site_type_symbol
 _atom_site_label
 _atom_site_symmetry_multiplicity
 _atom_site_fract_x
 _atom_site_fract_y
 _atom_site_fract_z
 _atom_site_occupancy
  Pa  Pa0  1  0.751787  0.000000  0.475954  1
  Pa  Pa1  1  0.251787  0.500000  0.519343  1
  Pa  Pa2  1  0.251893  0.682153  0.793577  1
  Pa  Pa3  1  0.251893  0.317847  0.793577  1
  Pa  Pa4  1  0.751935  0.812927  0.206499  1
  Pa  Pa5  1  0.751935  0.187073  0.206499  1
  Ni  Ni6  1  0.751755  0.000000  0.020963  1
  Ni  Ni7  1  0.251906  0.500000  0.978546  1
  Ni  Ni8  1  0.251889  0.196928  0.570829  1
  Ni  Ni9  1  0.251889  0.803072  0.570829  1
  Ni  Ni10  1  0.751862  0.302293  0.428666  1
  Ni  Ni11  1  0.751862  0.697707  0.428666  1
  Ni  Ni12  1  0.251854  0.621623  0.292003  1
  Ni  Ni13  1  0.251854  0.378377  0.292003  1
  Ni  Ni14  1  0.751739  0.881256  0.708331  1
  Ni  Ni15  1  0.751739  0.118744  0.708331  1
  Ni  Ni16  1  0.251943  0.170457  0.007968  1
  Ni  Ni17  1  0.251943  0.829543  0.007968  1
  Ni  Ni18  1  0.751916  0.332229  0.996651  1
  Ni  Ni19  1  0.751916  0.667771  0.996651  1
  Ni  Ni20  1  0.750770  0.500000  0.156525  1
  Ni  Ni21  1  0.252365  0.000000  0.301159  1
  Ni  Ni22  1  0.752284  0.500000  0.698369  1
  P  P23  1  0.251785  0.188955  0.386977  1
  P  P24  1  0.251785  0.811045  0.386977  1
  P  P25  1  0.751772  0.311772  0.613248  1
  P  P26  1  0.751772  0.688228  0.613248  1
  P  P27  1  0.251784  0.000000  0.123007  1
  P  P28  1  0.751821  0.500000  0.877450  1
  P  P29  1  0.251840  0.646997  0.106685  1
  P  P30  1  0.251840  0.353003  0.106685  1
  P  P31  1  0.751623  0.844605  0.892718  1
  P  P32  1  0.751623  0.155395  0.892718  1
  P  P33  1  0.251776  0.000000  0.653912  1
  P  P34  1  0.751825  0.500000  0.339603  1
  W  W35  1  0.251640  0.000000  0.846869  1
