# generated using pymatgen
data_DyThAlRu2
_symmetry_space_group_name_H-M   'P 1'
_cell_length_a   5.76369384
_cell_length_b   5.76369391
_cell_length_c   7.09320033
_cell_angle_alpha   87.59824554
_cell_angle_beta   92.40175485
_cell_angle_gamma   117.21927212
_symmetry_Int_Tables_number   1
_chemical_formula_structural   DyThAlRu2
_chemical_formula_sum   'Dy2 Th2 Al2 Ru4'
_cell_volume   209.29078363
_cell_formula_units_Z   2
loop_
 _symmetry_equiv_pos_site_id
 _symmetry_equiv_pos_as_xyz
  1  'x, y, z'
loop_
 _atom_site_type_symbol
 _atom_site_label
 _atom_site_symmetry_multiplicity
 _atom_site_fract_x
 _atom_site_fract_y
 _atom_site_fract_z
 _atom_site_occupancy
  Dy  Dy0  1  0.342333  0.657667  0.084070  1
  Dy  Dy1  1  0.657667  0.342333  0.915930  1
  Th  Th2  1  0.166321  0.833679  0.598042  1
  Th  Th3  1  0.833679  0.166321  0.401958  1
  Al  Al4  1  0.000000  0.000000  0.000000  1
  Al  Al5  1  0.500000  0.500000  0.500000  1
  Ru  Ru6  1  0.860926  0.646513  0.261757  1
  Ru  Ru7  1  0.646513  0.860926  0.738243  1
  Ru  Ru8  1  0.139074  0.353487  0.738243  1
  Ru  Ru9  1  0.353487  0.139074  0.261757  1
