# generated using pymatgen
data_Li3TbHo2Si2Ge
_symmetry_space_group_name_H-M   'P 1'
_cell_length_a   7.00340199
_cell_length_b   6.98002168
_cell_length_c   4.24517100
_cell_angle_alpha   90.00000000
_cell_angle_beta   90.00000000
_cell_angle_gamma   119.88962976
_symmetry_Int_Tables_number   1
_chemical_formula_structural   Li3TbHo2Si2Ge
_chemical_formula_sum   'Li3 Tb1 Ho2 Si2 Ge1'
_cell_volume   179.91757151
_cell_formula_units_Z   1
loop_
 _symmetry_equiv_pos_site_id
 _symmetry_equiv_pos_as_xyz
  1  'x, y, z'
loop_
 _atom_site_type_symbol
 _atom_site_label
 _atom_site_symmetry_multiplicity
 _atom_site_fract_x
 _atom_site_fract_y
 _atom_site_fract_z
 _atom_site_occupancy
  Li  Li0  1  0.234531  0.000224  0.500000  1
  Li  Li1  1  0.765469  0.765694  0.500000  1
  Li  Li2  1  0.000000  0.234212  0.500000  1
  Tb  Tb3  1  0.000000  0.573520  0.000000  1
  Ho  Ho4  1  0.573992  0.000030  0.000000  1
  Ho  Ho5  1  0.426008  0.426037  0.000000  1
  Si  Si6  1  0.334728  0.667022  0.500000  1
  Si  Si7  1  0.665272  0.332294  0.500000  1
  Ge  Ge8  1  0.000000  0.000967  0.000000  1
