# generated using pymatgen
data_CaTa3Cd3SbO14
_symmetry_space_group_name_H-M   'P 1'
_cell_length_a   7.37714888
_cell_length_b   7.47616584
_cell_length_c   7.40480300
_cell_angle_alpha   60.31526388
_cell_angle_beta   59.87592352
_cell_angle_gamma   60.23194807
_symmetry_Int_Tables_number   1
_chemical_formula_structural   CaTa3Cd3SbO14
_chemical_formula_sum   'Ca1 Ta3 Cd3 Sb1 O14'
_cell_volume   289.69235072
_cell_formula_units_Z   1
loop_
 _symmetry_equiv_pos_site_id
 _symmetry_equiv_pos_as_xyz
  1  'x, y, z'
loop_
 _atom_site_type_symbol
 _atom_site_label
 _atom_site_symmetry_multiplicity
 _atom_site_fract_x
 _atom_site_fract_y
 _atom_site_fract_z
 _atom_site_occupancy
  Ca  Ca0  1  0.125000  0.625000  0.125000  1
  Ta  Ta1  1  0.625000  0.625000  0.125000  1
  Ta  Ta2  1  0.625000  0.125000  0.625000  1
  Ta  Ta3  1  0.625000  0.625000  0.625000  1
  Cd  Cd4  1  0.125000  0.125000  0.625000  1
  Cd  Cd5  1  0.625000  0.125000  0.125000  1
  Cd  Cd6  1  0.125000  0.125000  0.125000  1
  Sb  Sb7  1  0.125000  0.625000  0.625000  1
  O  O8  1  0.303442  0.691608  0.304845  1
  O  O9  1  0.559069  0.938470  0.561414  1
  O  O10  1  0.305143  0.308014  0.693421  1
  O  O11  1  0.690931  0.311530  0.308952  1
  O  O12  1  0.303442  0.691608  0.700105  1
  O  O13  1  0.698370  0.687080  0.307275  1
  O  O14  1  0.944857  0.941986  0.556579  1
  O  O15  1  0.551630  0.562920  0.942725  1
  O  O16  1  0.993607  0.014674  0.995860  1
  O  O17  1  0.256393  0.235326  0.254140  1
  O  O18  1  0.690931  0.311530  0.688586  1
  O  O19  1  0.946558  0.558392  0.549895  1
  O  O20  1  0.559069  0.938470  0.941048  1
  O  O21  1  0.946558  0.558392  0.945155  1
