# generated using pymatgen
data_Li2TbHo15In2PtRh3
_symmetry_space_group_name_H-M   'P 1'
_cell_length_a   9.59973191
_cell_length_b   9.59973125
_cell_length_c   9.62120500
_cell_angle_alpha   59.92597939
_cell_angle_beta   59.92598168
_cell_angle_gamma   59.81693370
_symmetry_Int_Tables_number   1
_chemical_formula_structural   Li2TbHo15In2PtRh3
_chemical_formula_sum   'Li2 Tb1 Ho15 In2 Pt1 Rh3'
_cell_volume   625.37819649
_cell_formula_units_Z   1
loop_
 _symmetry_equiv_pos_site_id
 _symmetry_equiv_pos_as_xyz
  1  'x, y, z'
loop_
 _atom_site_type_symbol
 _atom_site_label
 _atom_site_symmetry_multiplicity
 _atom_site_fract_x
 _atom_site_fract_y
 _atom_site_fract_z
 _atom_site_occupancy
  Li  Li0  1  0.823315  0.823109  0.825456  1
  Li  Li1  1  0.823315  0.823109  0.528122  1
  Tb  Tb2  1  0.185607  0.185554  0.814420  1
  Ho  Ho3  1  0.600765  0.597959  0.198723  1
  Ho  Ho4  1  0.438960  0.064108  0.439147  1
  Ho  Ho5  1  0.441466  0.441669  0.058433  1
  Ho  Ho6  1  0.813358  0.185260  0.814269  1
  Ho  Ho7  1  0.185241  0.812682  0.186728  1
  Ho  Ho8  1  0.438960  0.064108  0.057785  1
  Ho  Ho9  1  0.185241  0.812682  0.815350  1
  Ho  Ho10  1  0.062187  0.438479  0.061194  1
  Ho  Ho11  1  0.813637  0.812507  0.186928  1
  Ho  Ho12  1  0.204709  0.596428  0.599430  1
  Ho  Ho13  1  0.062187  0.438479  0.438140  1
  Ho  Ho14  1  0.063699  0.068164  0.434068  1
  Ho  Ho15  1  0.813358  0.185260  0.187114  1
  Ho  Ho16  1  0.597743  0.206404  0.597926  1
  Ho  Ho17  1  0.600765  0.597959  0.602552  1
  In  In18  1  0.506631  0.833669  0.829851  1
  In  In19  1  0.833956  0.506957  0.829545  1
  Pt  Pt20  1  0.395039  0.821675  0.391644  1
  Rh  Rh21  1  0.393589  0.394225  0.389503  1
  Rh  Rh22  1  0.822688  0.395337  0.390988  1
  Rh  Rh23  1  0.393589  0.394225  0.822682  1
