# generated using pymatgen
data_Sc10(GaSb)3
_symmetry_space_group_name_H-M   'P 1'
_cell_length_a   8.24189800
_cell_length_b   8.25080960
_cell_length_c   6.01324500
_cell_angle_alpha   90.00000000
_cell_angle_beta   90.00000000
_cell_angle_gamma   119.96426938
_symmetry_Int_Tables_number   1
_chemical_formula_structural   Sc10(GaSb)3
_chemical_formula_sum   'Sc10 Ga3 Sb3'
_cell_volume   354.25793317
_cell_formula_units_Z   1
loop_
 _symmetry_equiv_pos_site_id
 _symmetry_equiv_pos_as_xyz
  1  'x, y, z'
loop_
 _atom_site_type_symbol
 _atom_site_label
 _atom_site_symmetry_multiplicity
 _atom_site_fract_x
 _atom_site_fract_y
 _atom_site_fract_z
 _atom_site_occupancy
  Sc  Sc0  1  0.327283  0.666626  0.003801  1
  Sc  Sc1  1  0.660658  0.333374  0.496199  1
  Sc  Sc2  1  0.660658  0.333374  0.003801  1
  Sc  Sc3  1  0.327283  0.666626  0.496199  1
  Sc  Sc4  1  0.232856  0.000000  0.250000  1
  Sc  Sc5  1  0.240765  0.228272  0.750000  1
  Sc  Sc6  1  0.012493  0.771728  0.750000  1
  Sc  Sc7  1  0.012963  0.247204  0.250000  1
  Sc  Sc8  1  0.765759  0.752796  0.250000  1
  Sc  Sc9  1  0.756093  0.000000  0.750000  1
  Ga  Ga10  1  0.998597  0.603561  0.250000  1
  Ga  Ga11  1  0.395035  0.396439  0.250000  1
  Ga  Ga12  1  0.397699  0.000000  0.750000  1
  Sb  Sb13  1  0.609462  0.000000  0.250000  1
  Sb  Sb14  1  0.604673  0.606951  0.750000  1
  Sb  Sb15  1  0.997722  0.393049  0.750000  1
