# generated using pymatgen
data_Ce2Sm6Sc11Si16Hg
_symmetry_space_group_name_H-M   'P 1'
_cell_length_a   7.09009795
_cell_length_b   7.42390202
_cell_length_c   14.08896704
_cell_angle_alpha   90.07378330
_cell_angle_beta   90.07738381
_cell_angle_gamma   89.63709402
_symmetry_Int_Tables_number   1
_chemical_formula_structural   Ce2Sm6Sc11Si16Hg
_chemical_formula_sum   'Ce2 Sm6 Sc11 Si16 Hg1'
_cell_volume   741.57342259
_cell_formula_units_Z   1
loop_
 _symmetry_equiv_pos_site_id
 _symmetry_equiv_pos_as_xyz
  1  'x, y, z'
loop_
 _atom_site_type_symbol
 _atom_site_label
 _atom_site_symmetry_multiplicity
 _atom_site_fract_x
 _atom_site_fract_y
 _atom_site_fract_z
 _atom_site_occupancy
  Ce  Ce0  1  0.010516  0.168366  0.097436  1
  Ce  Ce1  1  0.991651  0.825039  0.902142  1
  Sm  Sm2  1  0.483321  0.673092  0.900626  1
  Sm  Sm3  1  0.992404  0.819244  0.599199  1
  Sm  Sm4  1  0.509428  0.325579  0.096602  1
  Sm  Sm5  1  0.008497  0.171579  0.402302  1
  Sm  Sm6  1  0.511116  0.326082  0.403049  1
  Sm  Sm7  1  0.483981  0.671349  0.599510  1
  Sc  Sc8  1  0.838523  0.498403  0.249821  1
  Sc  Sc9  1  0.337431  0.002160  0.249421  1
  Sc  Sc10  1  0.660221  0.000631  0.750295  1
  Sc  Sc11  1  0.327302  0.184052  0.624878  1
  Sc  Sc12  1  0.670101  0.823598  0.376026  1
  Sc  Sc13  1  0.169166  0.680095  0.373758  1
  Sc  Sc14  1  0.669815  0.824260  0.123978  1
  Sc  Sc15  1  0.838833  0.324650  0.624762  1
  Sc  Sc16  1  0.325813  0.183162  0.875047  1
  Sc  Sc17  1  0.840001  0.323916  0.874995  1
  Sc  Sc18  1  0.169447  0.679652  0.126351  1
  Si  Si19  1  0.030911  0.102244  0.749603  1
  Si  Si20  1  0.964248  0.881158  0.250142  1
  Si  Si21  1  0.467148  0.621127  0.250229  1
  Si  Si22  1  0.547933  0.375082  0.750017  1
  Si  Si23  1  0.294160  0.897363  0.749745  1
  Si  Si24  1  0.710992  0.121574  0.249734  1
  Si  Si25  1  0.211861  0.377381  0.249232  1
  Si  Si26  1  0.772554  0.626035  0.750744  1
  Si  Si27  1  0.158410  0.458460  0.528597  1
  Si  Si28  1  0.844450  0.537234  0.461587  1
  Si  Si29  1  0.344979  0.964572  0.462149  1
  Si  Si30  1  0.844965  0.535080  0.038626  1
  Si  Si31  1  0.655941  0.033665  0.541621  1
  Si  Si32  1  0.157527  0.459367  0.971808  1
  Si  Si33  1  0.657891  0.034092  0.958393  1
  Si  Si34  1  0.342818  0.964356  0.038005  1
  Hg  Hg35  1  0.155649  0.506302  0.749571  1
