# generated using pymatgen
data_Cs4Mn3Cd3S8
_symmetry_space_group_name_H-M   'P 1'
_cell_length_a   9.84174582
_cell_length_b   9.85949467
_cell_length_c   9.84174584
_cell_angle_alpha   143.75771254
_cell_angle_beta   104.77619617
_cell_angle_gamma   86.39318212
_symmetry_Int_Tables_number   1
_chemical_formula_structural   Cs4Mn3Cd3S8
_chemical_formula_sum   'Cs4 Mn3 Cd3 S8'
_cell_volume   528.61489391
_cell_formula_units_Z   1
loop_
 _symmetry_equiv_pos_site_id
 _symmetry_equiv_pos_as_xyz
  1  'x, y, z'
loop_
 _atom_site_type_symbol
 _atom_site_label
 _atom_site_symmetry_multiplicity
 _atom_site_fract_x
 _atom_site_fract_y
 _atom_site_fract_z
 _atom_site_occupancy
  Cs  Cs0  1  0.118820  0.234733  0.357248  1
  Cs  Cs1  1  0.380076  0.738662  0.118755  1
  Cs  Cs2  1  0.622515  0.265267  0.884088  1
  Cs  Cs3  1  0.880094  0.761338  0.641414  1
  Mn  Mn4  1  0.020086  0.250000  0.770086  1
  Mn  Mn5  1  0.979171  0.750000  0.229171  1
  Mn  Mn6  1  0.520234  0.750000  0.770234  1
  Cd  Cd7  1  0.247449  0.750000  0.497449  1
  Cd  Cd8  1  0.750634  0.250000  0.500634  1
  Cd  Cd9  1  0.471708  0.250000  0.221708  1
  S  S10  1  0.492087  0.646618  0.433612  1
  S  S11  1  0.011124  0.429406  0.133027  1
  S  S12  1  0.286994  0.853382  0.845469  1
  S  S13  1  0.203620  0.070594  0.581717  1
  S  S14  1  0.711725  0.110502  0.127507  1
  S  S15  1  0.796739  0.930471  0.420390  1
  S  S16  1  0.989918  0.569529  0.866267  1
  S  S17  1  0.517005  0.389498  0.601223  1
