# generated using pymatgen
data_CaAcSiN3
_symmetry_space_group_name_H-M   'P 1'
_cell_length_a   6.05866807
_cell_length_b   6.05866880
_cell_length_c   11.89109900
_cell_angle_alpha   90.00000000
_cell_angle_beta   90.00000000
_cell_angle_gamma   125.75096762
_symmetry_Int_Tables_number   1
_chemical_formula_structural   CaAcSiN3
_chemical_formula_sum   'Ca4 Ac4 Si4 N12'
_cell_volume   354.24130795
_cell_formula_units_Z   4
loop_
 _symmetry_equiv_pos_site_id
 _symmetry_equiv_pos_as_xyz
  1  'x, y, z'
loop_
 _atom_site_type_symbol
 _atom_site_label
 _atom_site_symmetry_multiplicity
 _atom_site_fract_x
 _atom_site_fract_y
 _atom_site_fract_z
 _atom_site_occupancy
  Ca  Ca0  1  0.641688  0.358312  0.071756  1
  Ca  Ca1  1  0.358312  0.641688  0.928244  1
  Ca  Ca2  1  0.858312  0.141688  0.571756  1
  Ca  Ca3  1  0.141688  0.858312  0.428244  1
  Ac  Ac4  1  0.051665  0.948335  0.855317  1
  Ac  Ac5  1  0.948335  0.051665  0.144683  1
  Ac  Ac6  1  0.448335  0.551665  0.355317  1
  Ac  Ac7  1  0.551665  0.448335  0.644683  1
  Si  Si8  1  0.745643  0.254357  0.835867  1
  Si  Si9  1  0.254357  0.745643  0.164133  1
  Si  Si10  1  0.754357  0.245643  0.335867  1
  Si  Si11  1  0.245643  0.754357  0.664133  1
  N  N12  1  0.584384  0.415616  0.867351  1
  N  N13  1  0.415616  0.584384  0.132649  1
  N  N14  1  0.915616  0.084384  0.367351  1
  N  N15  1  0.084384  0.915616  0.632649  1
  N  N16  1  0.533197  0.966803  0.750000  1
  N  N17  1  0.966803  0.533197  0.250000  1
  N  N18  1  0.466803  0.033197  0.250000  1
  N  N19  1  0.033197  0.466803  0.750000  1
  N  N20  1  0.840605  0.159395  0.955625  1
  N  N21  1  0.159395  0.840605  0.044375  1
  N  N22  1  0.659395  0.340605  0.455625  1
  N  N23  1  0.340605  0.659395  0.544375  1
