# generated using pymatgen
data_Ba4Ir5RhO19
_symmetry_space_group_name_H-M   'P 1'
_cell_length_a   8.29576964
_cell_length_b   8.27413085
_cell_length_c   8.29577000
_cell_angle_alpha   109.61672951
_cell_angle_beta   109.43813766
_cell_angle_gamma   109.46490255
_symmetry_Int_Tables_number   1
_chemical_formula_structural   Ba4Ir5RhO19
_chemical_formula_sum   'Ba4 Ir5 Rh1 O19'
_cell_volume   437.76691891
_cell_formula_units_Z   1
loop_
 _symmetry_equiv_pos_site_id
 _symmetry_equiv_pos_as_xyz
  1  'x, y, z'
loop_
 _atom_site_type_symbol
 _atom_site_label
 _atom_site_symmetry_multiplicity
 _atom_site_fract_x
 _atom_site_fract_y
 _atom_site_fract_z
 _atom_site_occupancy
  Ba  Ba0  1  0.000340  0.309201  0.000823  1
  Ba  Ba1  1  0.000747  0.004718  0.310086  1
  Ba  Ba2  1  0.691622  0.690799  0.691139  1
  Ba  Ba3  1  0.305368  0.995282  0.996028  1
  Ir  Ir4  1  0.498566  0.339970  0.839343  1
  Ir  Ir5  1  0.499373  0.660030  0.158597  1
  Ir  Ir6  1  0.339957  0.838584  0.500336  1
  Ir  Ir7  1  0.661752  0.161416  0.501373  1
  Ir  Ir8  1  0.840848  0.500000  0.340848  1
  Rh  Rh9  1  0.159265  0.500000  0.659265  1
  O  O10  1  0.000069  0.000000  0.000069  1
  O  O11  1  0.695093  0.339606  0.050140  1
  O  O12  1  0.661466  0.359034  0.712812  1
  O  O13  1  0.290445  0.648375  0.953431  1
  O  O14  1  0.645244  0.304964  0.357593  1
  O  O15  1  0.362625  0.715705  0.661354  1
  O  O16  1  0.945649  0.284295  0.646920  1
  O  O17  1  0.052629  0.695036  0.340280  1
  O  O18  1  0.999012  0.639478  0.634056  1
  O  O19  1  0.636156  0.635990  0.000497  1
  O  O20  1  0.710535  0.660394  0.355487  1
  O  O21  1  0.337246  0.049638  0.696175  1
  O  O22  1  0.634278  0.000000  0.634278  1
  O  O23  1  0.994578  0.360522  0.359534  1
  O  O24  1  0.646538  0.950362  0.287608  1
  O  O25  1  0.353778  0.640966  0.302432  1
  O  O26  1  0.305056  0.351625  0.642069  1
  O  O27  1  0.367259  0.000000  0.367259  1
  O  O28  1  0.364507  0.364010  0.000166  1
