# generated using pymatgen
data_YMn2VP3Rh2
_symmetry_space_group_name_H-M   'P 1'
_cell_length_a   3.77026700
_cell_length_b   10.70531800
_cell_length_c   12.31441300
_cell_angle_alpha   90.00000000
_cell_angle_beta   90.00000000
_cell_angle_gamma   90.00000000
_symmetry_Int_Tables_number   1
_chemical_formula_structural   YMn2VP3Rh2
_chemical_formula_sum   'Y4 Mn8 V4 P12 Rh8'
_cell_volume   497.03319448
_cell_formula_units_Z   4
loop_
 _symmetry_equiv_pos_site_id
 _symmetry_equiv_pos_as_xyz
  1  'x, y, z'
loop_
 _atom_site_type_symbol
 _atom_site_label
 _atom_site_symmetry_multiplicity
 _atom_site_fract_x
 _atom_site_fract_y
 _atom_site_fract_z
 _atom_site_occupancy
  Y  Y0  1  0.250000  0.586038  0.705199  1
  Y  Y1  1  0.250000  0.913962  0.205199  1
  Y  Y2  1  0.750000  0.413962  0.294801  1
  Y  Y3  1  0.750000  0.086038  0.794801  1
  Mn  Mn4  1  0.250000  0.886141  0.688170  1
  Mn  Mn5  1  0.250000  0.613859  0.188170  1
  Mn  Mn6  1  0.750000  0.113859  0.311830  1
  Mn  Mn7  1  0.750000  0.386141  0.811830  1
  Mn  Mn8  1  0.250000  0.469878  0.935991  1
  Mn  Mn9  1  0.250000  0.030122  0.435991  1
  Mn  Mn10  1  0.750000  0.530122  0.064009  1
  Mn  Mn11  1  0.750000  0.969878  0.564009  1
  V  V12  1  0.250000  0.704184  0.987338  1
  V  V13  1  0.250000  0.795816  0.487338  1
  V  V14  1  0.750000  0.295816  0.012662  1
  V  V15  1  0.750000  0.204184  0.512662  1
  P  P16  1  0.250000  0.416122  0.113683  1
  P  P17  1  0.250000  0.083878  0.613683  1
  P  P18  1  0.750000  0.583878  0.886317  1
  P  P19  1  0.750000  0.916122  0.386317  1
  P  P20  1  0.250000  0.270703  0.877391  1
  P  P21  1  0.250000  0.229297  0.377391  1
  P  P22  1  0.750000  0.729297  0.122609  1
  P  P23  1  0.750000  0.770703  0.622609  1
  P  P24  1  0.250000  0.597176  0.384716  1
  P  P25  1  0.250000  0.902824  0.884716  1
  P  P26  1  0.750000  0.402824  0.615284  1
  P  P27  1  0.750000  0.097176  0.115284  1
  Rh  Rh28  1  0.250000  0.405562  0.488028  1
  Rh  Rh29  1  0.250000  0.094438  0.988028  1
  Rh  Rh30  1  0.750000  0.594438  0.511972  1
  Rh  Rh31  1  0.750000  0.905562  0.011972  1
  Rh  Rh32  1  0.250000  0.218558  0.186212  1
  Rh  Rh33  1  0.250000  0.281442  0.686212  1
  Rh  Rh34  1  0.750000  0.781442  0.813788  1
  Rh  Rh35  1  0.750000  0.718558  0.313788  1
