# generated using pymatgen
data_Ba3Pu2PbO9
_symmetry_space_group_name_H-M   'P 1'
_cell_length_a   6.25137505
_cell_length_b   6.23700244
_cell_length_c   13.97346700
_cell_angle_alpha   102.63688396
_cell_angle_beta   102.57791015
_cell_angle_gamma   89.54993394
_symmetry_Int_Tables_number   1
_chemical_formula_structural   Ba3Pu2PbO9
_chemical_formula_sum   'Ba6 Pu4 Pb2 O18'
_cell_volume   518.41396390
_cell_formula_units_Z   2
loop_
 _symmetry_equiv_pos_site_id
 _symmetry_equiv_pos_as_xyz
  1  'x, y, z'
loop_
 _atom_site_type_symbol
 _atom_site_label
 _atom_site_symmetry_multiplicity
 _atom_site_fract_x
 _atom_site_fract_y
 _atom_site_fract_z
 _atom_site_occupancy
  Ba  Ba0  1  0.924356  0.423960  0.837405  1
  Ba  Ba1  1  0.263132  0.760979  0.504103  1
  Ba  Ba2  1  0.580027  0.085140  0.168922  1
  Ba  Ba3  1  0.736868  0.239021  0.495897  1
  Ba  Ba4  1  0.075644  0.576040  0.162595  1
  Ba  Ba5  1  0.419973  0.914860  0.831078  1
  Pu  Pu6  1  0.500000  0.500000  0.000000  1
  Pu  Pu7  1  0.334122  0.333027  0.671377  1
  Pu  Pu8  1  0.665878  0.666973  0.328623  1
  Pu  Pu9  1  0.000000  0.000000  0.000000  1
  Pb  Pb10  1  0.832086  0.828996  0.661730  1
  Pb  Pb11  1  0.167914  0.171004  0.338270  1
  O  O12  1  0.620920  0.169859  0.700213  1
  O  O13  1  0.957065  0.510213  0.355604  1
  O  O14  1  0.289001  0.779988  0.032675  1
  O  O15  1  0.042935  0.489787  0.644396  1
  O  O16  1  0.379080  0.830141  0.299787  1
  O  O17  1  0.710999  0.220012  0.967325  1
  O  O18  1  0.163698  0.051319  0.674172  1
  O  O19  1  0.492462  0.385550  0.330548  1
  O  O20  1  0.772010  0.723261  0.996229  1
  O  O21  1  0.692098  0.796306  0.489835  1
  O  O22  1  0.017852  0.114476  0.145857  1
  O  O23  1  0.369502  0.466749  0.840916  1
  O  O24  1  0.982148  0.885524  0.854143  1
  O  O25  1  0.307902  0.203694  0.510165  1
  O  O26  1  0.630498  0.533251  0.159084  1
  O  O27  1  0.507538  0.614450  0.669452  1
  O  O28  1  0.836302  0.948681  0.325828  1
  O  O29  1  0.227990  0.276739  0.003771  1
