# generated using pymatgen
data_Er12Co2Ni2AgSn
_symmetry_space_group_name_H-M   'P 1'
_cell_length_a   8.29276018
_cell_length_b   8.29275985
_cell_length_c   8.29276048
_cell_angle_alpha   111.64540369
_cell_angle_beta   109.30634720
_cell_angle_gamma   107.48882894
_symmetry_Int_Tables_number   1
_chemical_formula_structural   Er12Co2Ni2AgSn
_chemical_formula_sum   'Er12 Co2 Ni2 Ag1 Sn1'
_cell_volume   438.42887641
_cell_formula_units_Z   1
loop_
 _symmetry_equiv_pos_site_id
 _symmetry_equiv_pos_as_xyz
  1  'x, y, z'
loop_
 _atom_site_type_symbol
 _atom_site_label
 _atom_site_symmetry_multiplicity
 _atom_site_fract_x
 _atom_site_fract_y
 _atom_site_fract_z
 _atom_site_occupancy
  Er  Er0  1  0.318322  0.126090  0.807768  1
  Er  Er1  1  0.681678  0.489447  0.807768  1
  Er  Er2  1  0.427238  0.726091  0.701147  1
  Er  Er3  1  0.572762  0.273909  0.298853  1
  Er  Er4  1  0.975056  0.273909  0.701147  1
  Er  Er5  1  0.024944  0.726091  0.298853  1
  Er  Er6  1  0.318322  0.510553  0.192232  1
  Er  Er7  1  0.681678  0.873910  0.192232  1
  Er  Er8  1  0.182680  0.789529  0.972210  1
  Er  Er9  1  0.817320  0.789529  0.606849  1
  Er  Er10  1  0.182680  0.210471  0.393151  1
  Er  Er11  1  0.817320  0.210471  0.027790  1
  Co  Co12  1  0.884729  0.884729  0.000000  1
  Co  Co13  1  0.115271  0.115271  0.000000  1
  Ni  Ni14  1  0.640602  0.500000  0.140602  1
  Ni  Ni15  1  0.359398  0.500000  0.859398  1
  Ag  Ag16  1  0.000000  0.500000  0.500000  1
  Sn  Sn17  1  0.500000  0.000000  0.500000  1
