# generated using pymatgen
data_La8NdDyRu4
_symmetry_space_group_name_H-M   'P 1'
_cell_length_a   9.07949379
_cell_length_b   9.07949433
_cell_length_c   7.29708999
_cell_angle_alpha   85.91914967
_cell_angle_beta   85.91914288
_cell_angle_gamma   43.25565581
_symmetry_Int_Tables_number   1
_chemical_formula_structural   La8NdDyRu4
_chemical_formula_sum   'La8 Nd1 Dy1 Ru4'
_cell_volume   411.00661636
_cell_formula_units_Z   1
loop_
 _symmetry_equiv_pos_site_id
 _symmetry_equiv_pos_as_xyz
  1  'x, y, z'
loop_
 _atom_site_type_symbol
 _atom_site_label
 _atom_site_symmetry_multiplicity
 _atom_site_fract_x
 _atom_site_fract_y
 _atom_site_fract_z
 _atom_site_occupancy
  La  La0  1  0.202415  0.979971  0.591204  1
  La  La1  1  0.020029  0.797585  0.908796  1
  La  La2  1  0.210313  0.365129  0.316251  1
  La  La3  1  0.634871  0.789687  0.183749  1
  La  La4  1  0.790538  0.636489  0.683128  1
  La  La5  1  0.363511  0.209462  0.816872  1
  La  La6  1  0.980890  0.201114  0.093822  1
  La  La7  1  0.798886  0.019110  0.406178  1
  Nd  Nd8  1  0.573112  0.426888  0.750000  1
  Dy  Dy9  1  0.429512  0.570488  0.250000  1
  Ru  Ru10  1  0.173741  0.604435  0.578233  1
  Ru  Ru11  1  0.395565  0.826259  0.921767  1
  Ru  Ru12  1  0.824438  0.397820  0.417171  1
  Ru  Ru13  1  0.602180  0.175562  0.082829  1
