# generated using pymatgen
data_Mn4Ga4Ni3Pt5
_symmetry_space_group_name_H-M   'P 1'
_cell_length_a   5.56857700
_cell_length_b   7.21219900
_cell_length_c   5.56884400
_cell_angle_alpha   90.00000000
_cell_angle_beta   90.00000000
_cell_angle_gamma   90.00000000
_symmetry_Int_Tables_number   1
_chemical_formula_structural   Mn4Ga4Ni3Pt5
_chemical_formula_sum   'Mn4 Ga4 Ni3 Pt5'
_cell_volume   223.65416116
_cell_formula_units_Z   1
loop_
 _symmetry_equiv_pos_site_id
 _symmetry_equiv_pos_as_xyz
  1  'x, y, z'
loop_
 _atom_site_type_symbol
 _atom_site_label
 _atom_site_symmetry_multiplicity
 _atom_site_fract_x
 _atom_site_fract_y
 _atom_site_fract_z
 _atom_site_occupancy
  Mn  Mn0  1  0.996052  0.003353  0.495850  1
  Mn  Mn1  1  0.503947  0.496646  0.495850  1
  Mn  Mn2  1  0.503947  0.003353  0.004150  1
  Mn  Mn3  1  0.996052  0.496646  0.004150  1
  Ga  Ga4  1  0.504414  0.495247  0.004224  1
  Ga  Ga5  1  0.504414  0.004752  0.495776  1
  Ga  Ga6  1  0.995585  0.495247  0.495776  1
  Ga  Ga7  1  0.995585  0.004752  0.004224  1
  Ni  Ni8  1  0.750000  0.250000  0.249999  1
  Ni  Ni9  1  0.750000  0.750000  0.249999  1
  Ni  Ni10  1  0.250000  0.250000  0.750001  1
  Pt  Pt11  1  0.750000  0.750000  0.750001  1
  Pt  Pt12  1  0.250000  0.750000  0.750001  1
  Pt  Pt13  1  0.750000  0.250000  0.750001  1
  Pt  Pt14  1  0.250000  0.250000  0.249999  1
  Pt  Pt15  1  0.250000  0.750000  0.249999  1
