# generated using pymatgen
data_Sc10InFe2Bi3
_symmetry_space_group_name_H-M   'P 1'
_cell_length_a   5.69793289
_cell_length_b   8.52677750
_cell_length_c   8.50628400
_cell_angle_alpha   83.57485134
_cell_angle_beta   70.43203523
_cell_angle_gamma   70.48096082
_symmetry_Int_Tables_number   1
_chemical_formula_structural   Sc10InFe2Bi3
_chemical_formula_sum   'Sc10 In1 Fe2 Bi3'
_cell_volume   367.02980915
_cell_formula_units_Z   1
loop_
 _symmetry_equiv_pos_site_id
 _symmetry_equiv_pos_as_xyz
  1  'x, y, z'
loop_
 _atom_site_type_symbol
 _atom_site_label
 _atom_site_symmetry_multiplicity
 _atom_site_fract_x
 _atom_site_fract_y
 _atom_site_fract_z
 _atom_site_occupancy
  Sc  Sc0  1  0.070442  0.117094  0.742021  1
  Sc  Sc1  1  0.927484  0.887467  0.257565  1
  Sc  Sc2  1  0.812875  0.255125  0.119124  1
  Sc  Sc3  1  0.431999  0.255125  0.880876  1
  Sc  Sc4  1  0.183354  0.747565  0.885728  1
  Sc  Sc5  1  0.569082  0.747565  0.114272  1
  Sc  Sc6  1  0.685049  0.887467  0.742435  1
  Sc  Sc7  1  0.312463  0.117094  0.257979  1
  Sc  Sc8  1  0.254390  0.492058  0.500000  1
  Sc  Sc9  1  0.753552  0.492058  0.500000  1
  In  In10  1  0.660705  0.178588  0.500000  1
  Fe  Fe11  1  0.250136  0.999727  0.000000  1
  Fe  Fe12  1  0.750136  0.999727  0.000000  1
  Bi  Bi13  1  0.161460  0.501626  0.175451  1
  Bi  Bi14  1  0.836913  0.501626  0.824549  1
  Bi  Bi15  1  0.339957  0.820086  0.500000  1
