# generated using pymatgen
data_TbPr3Eu2(Co3P2)6
_symmetry_space_group_name_H-M   'P 1'
_cell_length_a   3.77112200
_cell_length_b   10.69442971
_cell_length_c   12.37903744
_cell_angle_alpha   89.88570830
_cell_angle_beta   90.00000000
_cell_angle_gamma   90.00000000
_symmetry_Int_Tables_number   1
_chemical_formula_structural   TbPr3Eu2(Co3P2)6
_chemical_formula_sum   'Tb1 Pr3 Eu2 Co18 P12'
_cell_volume   499.24557621
_cell_formula_units_Z   1
loop_
 _symmetry_equiv_pos_site_id
 _symmetry_equiv_pos_as_xyz
  1  'x, y, z'
loop_
 _atom_site_type_symbol
 _atom_site_label
 _atom_site_symmetry_multiplicity
 _atom_site_fract_x
 _atom_site_fract_y
 _atom_site_fract_z
 _atom_site_occupancy
  Tb  Tb0  1  0.000000  0.683839  0.795736  1
  Pr  Pr1  1  0.000000  0.500449  0.522322  1
  Pr  Pr2  1  0.500000  0.999726  0.477938  1
  Pr  Pr3  1  0.000000  0.318755  0.794141  1
  Eu  Eu4  1  0.500000  0.818932  0.206109  1
  Eu  Eu5  1  0.500000  0.180084  0.204193  1
  Co  Co6  1  0.500000  0.501048  0.155101  1
  Co  Co7  1  0.000000  0.998978  0.843499  1
  Co  Co8  1  0.500000  0.504163  0.706154  1
  Co  Co9  1  0.000000  0.999126  0.295205  1
  Co  Co10  1  0.000000  0.501995  0.989090  1
  Co  Co11  1  0.500000  0.998300  0.010724  1
  Co  Co12  1  0.500000  0.334407  0.995777  1
  Co  Co13  1  0.500000  0.667634  0.995029  1
  Co  Co14  1  0.000000  0.165962  0.003585  1
  Co  Co15  1  0.000000  0.832358  0.003234  1
  Co  Co16  1  0.500000  0.297224  0.428534  1
  Co  Co17  1  0.500000  0.703381  0.432006  1
  Co  Co18  1  0.000000  0.202599  0.568567  1
  Co  Co19  1  0.000000  0.796764  0.572294  1
  Co  Co20  1  0.500000  0.879725  0.713273  1
  Co  Co21  1  0.500000  0.117493  0.711185  1
  Co  Co22  1  0.000000  0.618211  0.289627  1
  Co  Co23  1  0.000000  0.381393  0.287491  1
  P  P24  1  0.500000  0.503390  0.886962  1
  P  P25  1  0.000000  0.998831  0.112710  1
  P  P26  1  0.500000  0.499263  0.337002  1
  P  P27  1  0.000000  0.999877  0.662261  1
  P  P28  1  0.500000  0.304441  0.612724  1
  P  P29  1  0.500000  0.694865  0.618179  1
  P  P30  1  0.000000  0.195048  0.382804  1
  P  P31  1  0.000000  0.803846  0.385301  1
  P  P32  1  0.500000  0.846241  0.894786  1
  P  P33  1  0.500000  0.151218  0.896213  1
  P  P34  1  0.000000  0.653625  0.106009  1
  P  P35  1  0.000000  0.346809  0.104236  1
