# generated using pymatgen
data_Tb2AlSi13Ir6
_symmetry_space_group_name_H-M   'P 1'
_cell_length_a   8.03894922
_cell_length_b   8.03894912
_cell_length_c   8.03894798
_cell_angle_alpha   57.03327585
_cell_angle_beta   57.03327464
_cell_angle_gamma   57.03327317
_symmetry_Int_Tables_number   1
_chemical_formula_structural   Tb2AlSi13Ir6
_chemical_formula_sum   'Tb2 Al1 Si13 Ir6'
_cell_volume   342.22740427
_cell_formula_units_Z   1
loop_
 _symmetry_equiv_pos_site_id
 _symmetry_equiv_pos_as_xyz
  1  'x, y, z'
loop_
 _atom_site_type_symbol
 _atom_site_label
 _atom_site_symmetry_multiplicity
 _atom_site_fract_x
 _atom_site_fract_y
 _atom_site_fract_z
 _atom_site_occupancy
  Tb  Tb0  1  0.999404  0.999404  0.999404  1
  Tb  Tb1  1  0.500596  0.500596  0.500596  1
  Al  Al2  1  0.750000  0.750000  0.750000  1
  Si  Si3  1  0.250000  0.250000  0.250000  1
  Si  Si4  1  0.850226  0.064428  0.671134  1
  Si  Si5  1  0.671134  0.850226  0.064428  1
  Si  Si6  1  0.064428  0.671134  0.850226  1
  Si  Si7  1  0.649774  0.828866  0.435572  1
  Si  Si8  1  0.435572  0.649774  0.828866  1
  Si  Si9  1  0.828866  0.435572  0.649774  1
  Si  Si10  1  0.169888  0.561860  0.355918  1
  Si  Si11  1  0.561860  0.355918  0.169888  1
  Si  Si12  1  0.355918  0.169888  0.561860  1
  Si  Si13  1  0.938140  0.330112  0.144082  1
  Si  Si14  1  0.330112  0.144082  0.938140  1
  Si  Si15  1  0.144082  0.938140  0.330112  1
  Ir  Ir16  1  0.080493  0.419507  0.750000  1
  Ir  Ir17  1  0.250000  0.928972  0.571028  1
  Ir  Ir18  1  0.571028  0.250000  0.928972  1
  Ir  Ir19  1  0.928972  0.571028  0.250000  1
  Ir  Ir20  1  0.419507  0.750000  0.080493  1
  Ir  Ir21  1  0.750000  0.080493  0.419507  1
