# generated using pymatgen
data_Ce2NiIr3
_symmetry_space_group_name_H-M   'P 1'
_cell_length_a   5.19292457
_cell_length_b   5.19292436
_cell_length_c   5.19292477
_cell_angle_alpha   63.11420497
_cell_angle_beta   63.11420689
_cell_angle_gamma   63.11420774
_symmetry_Int_Tables_number   1
_chemical_formula_structural   Ce2NiIr3
_chemical_formula_sum   'Ce2 Ni1 Ir3'
_cell_volume   105.85941519
_cell_formula_units_Z   1
loop_
 _symmetry_equiv_pos_site_id
 _symmetry_equiv_pos_as_xyz
  1  'x, y, z'
loop_
 _atom_site_type_symbol
 _atom_site_label
 _atom_site_symmetry_multiplicity
 _atom_site_fract_x
 _atom_site_fract_y
 _atom_site_fract_z
 _atom_site_occupancy
  Ce  Ce0  1  0.500803  0.500803  0.500803  1
  Ce  Ce1  1  0.749197  0.749197  0.749197  1
  Ni  Ni2  1  0.125000  0.125000  0.125000  1
  Ir  Ir3  1  0.625000  0.125000  0.125000  1
  Ir  Ir4  1  0.125000  0.625000  0.125000  1
  Ir  Ir5  1  0.125000  0.125000  0.625000  1
