# generated using pymatgen
data_Tb4B16Ir3Ru13
_symmetry_space_group_name_H-M   'P 1'
_cell_length_a   9.23377483
_cell_length_b   7.51100447
_cell_length_c   7.51607521
_cell_angle_alpha   90.01637025
_cell_angle_beta   114.02764758
_cell_angle_gamma   114.13226065
_symmetry_Int_Tables_number   1
_chemical_formula_structural   Tb4B16Ir3Ru13
_chemical_formula_sum   'Tb4 B16 Ir3 Ru13'
_cell_volume   425.71361229
_cell_formula_units_Z   1
loop_
 _symmetry_equiv_pos_site_id
 _symmetry_equiv_pos_as_xyz
  1  'x, y, z'
loop_
 _atom_site_type_symbol
 _atom_site_label
 _atom_site_symmetry_multiplicity
 _atom_site_fract_x
 _atom_site_fract_y
 _atom_site_fract_z
 _atom_site_occupancy
  Tb  Tb0  1  0.749747  0.875176  0.124379  1
  Tb  Tb1  1  0.251828  0.625646  0.375559  1
  Tb  Tb2  1  0.748657  0.374267  0.622663  1
  Tb  Tb3  1  0.248727  0.126156  0.872758  1
  B  B4  1  0.911637  0.284559  0.066723  1
  B  B5  1  0.414663  0.562627  0.125319  1
  B  B6  1  0.087045  0.215130  0.153496  1
  B  B7  1  0.586612  0.152823  0.210644  1
  B  B8  1  0.415156  0.066860  0.292350  1
  B  B9  1  0.912708  0.622794  0.354221  1
  B  B10  1  0.586932  0.649920  0.377029  1
  B  B11  1  0.086419  0.876976  0.441295  1
  B  B12  1  0.913256  0.124622  0.564908  1
  B  B13  1  0.414557  0.348860  0.623768  1
  B  B14  1  0.085938  0.374919  0.652533  1
  B  B15  1  0.587856  0.934706  0.710991  1
  B  B16  1  0.414521  0.846865  0.785215  1
  B  B17  1  0.912573  0.789814  0.846167  1
  B  B18  1  0.583974  0.433282  0.875282  1
  B  B19  1  0.085195  0.709175  0.930792  1
  Ir  Ir20  1  0.875796  0.552144  0.038774  1
  Ir  Ir21  1  0.376833  0.836936  0.050543  1
  Ir  Ir22  1  0.122517  0.948091  0.163751  1
  Ru  Ru23  1  0.626845  0.461174  0.176876  1
  Ru  Ru24  1  0.372693  0.333038  0.321140  1
  Ru  Ru25  1  0.873443  0.321996  0.334597  1
  Ru  Ru26  1  0.625856  0.960350  0.447375  1
  Ru  Ru27  1  0.127191  0.178532  0.461162  1
  Ru  Ru28  1  0.873367  0.822870  0.539377  1
  Ru  Ru29  1  0.371989  0.037310  0.550928  1
  Ru  Ru30  1  0.127942  0.677857  0.666045  1
  Ru  Ru31  1  0.625407  0.666023  0.676771  1
  Ru  Ru32  1  0.373269  0.538582  0.822730  1
  Ru  Ru33  1  0.873036  0.052765  0.832793  1
  Ru  Ru34  1  0.626957  0.167525  0.948325  1
  Ru  Ru35  1  0.128858  0.449630  0.962716  1
