# generated using pymatgen
data_YPa3(SiPt)4
_symmetry_space_group_name_H-M   'P 1'
_cell_length_a   4.30055100
_cell_length_b   7.18718232
_cell_length_c   7.44041062
_cell_angle_alpha   90.07257378
_cell_angle_beta   90.00000000
_cell_angle_gamma   90.00000000
_symmetry_Int_Tables_number   1
_chemical_formula_structural   YPa3(SiPt)4
_chemical_formula_sum   'Y1 Pa3 Si4 Pt4'
_cell_volume   229.97430762
_cell_formula_units_Z   1
loop_
 _symmetry_equiv_pos_site_id
 _symmetry_equiv_pos_as_xyz
  1  'x, y, z'
loop_
 _atom_site_type_symbol
 _atom_site_label
 _atom_site_symmetry_multiplicity
 _atom_site_fract_x
 _atom_site_fract_y
 _atom_site_fract_z
 _atom_site_occupancy
  Y  Y0  1  0.750000  0.503628  0.794284  1
  Pa  Pa1  1  0.250000  0.992953  0.298453  1
  Pa  Pa2  1  0.250000  0.496059  0.205048  1
  Pa  Pa3  1  0.750000  0.004464  0.703132  1
  Si  Si4  1  0.250000  0.290387  0.589840  1
  Si  Si5  1  0.250000  0.801632  0.907467  1
  Si  Si6  1  0.750000  0.697349  0.412712  1
  Si  Si7  1  0.750000  0.191725  0.089740  1
  Pt  Pt8  1  0.250000  0.216272  0.920972  1
  Pt  Pt9  1  0.250000  0.706091  0.579862  1
  Pt  Pt10  1  0.750000  0.799817  0.085131  1
  Pt  Pt11  1  0.750000  0.299625  0.413359  1
