# generated using pymatgen
data_Y10Th2Os3Pd
_symmetry_space_group_name_H-M   'P 1'
_cell_length_a   6.42898001
_cell_length_b   7.36027911
_cell_length_c   9.43213100
_cell_angle_alpha   90.00000000
_cell_angle_beta   90.00000000
_cell_angle_gamma   90.10241025
_symmetry_Int_Tables_number   1
_chemical_formula_structural   Y10Th2Os3Pd
_chemical_formula_sum   'Y10 Th2 Os3 Pd1'
_cell_volume   446.31911675
_cell_formula_units_Z   1
loop_
 _symmetry_equiv_pos_site_id
 _symmetry_equiv_pos_as_xyz
  1  'x, y, z'
loop_
 _atom_site_type_symbol
 _atom_site_label
 _atom_site_symmetry_multiplicity
 _atom_site_fract_x
 _atom_site_fract_y
 _atom_site_fract_z
 _atom_site_occupancy
  Y  Y0  1  0.336924  0.669780  0.063157  1
  Y  Y1  1  0.173765  0.182611  0.437241  1
  Y  Y2  1  0.664700  0.323488  0.562791  1
  Y  Y3  1  0.830234  0.824777  0.931772  1
  Y  Y4  1  0.664700  0.323488  0.937209  1
  Y  Y5  1  0.830234  0.824777  0.568228  1
  Y  Y6  1  0.336924  0.669780  0.436843  1
  Y  Y7  1  0.173765  0.182611  0.062759  1
  Y  Y8  1  0.862383  0.530780  0.250000  1
  Y  Y9  1  0.628870  0.039814  0.250000  1
  Th  Th10  1  0.143821  0.454436  0.750000  1
  Th  Th11  1  0.350329  0.954660  0.750000  1
  Os  Os12  1  0.457004  0.380424  0.250000  1
  Os  Os13  1  0.963054  0.127167  0.750000  1
  Os  Os14  1  0.533298  0.627203  0.750000  1
  Pd  Pd15  1  0.049991  0.884203  0.250000  1
