# generated using pymatgen
data_Hf3Pa(CdNi2)2
_symmetry_space_group_name_H-M   'P 1'
_cell_length_a   7.26210429
_cell_length_b   7.26210338
_cell_length_c   3.33807600
_cell_angle_alpha   90.00000000
_cell_angle_beta   90.00000000
_cell_angle_gamma   91.51353752
_symmetry_Int_Tables_number   1
_chemical_formula_structural   Hf3Pa(CdNi2)2
_chemical_formula_sum   'Hf3 Pa1 Cd2 Ni4'
_cell_volume   175.98254017
_cell_formula_units_Z   1
loop_
 _symmetry_equiv_pos_site_id
 _symmetry_equiv_pos_as_xyz
  1  'x, y, z'
loop_
 _atom_site_type_symbol
 _atom_site_label
 _atom_site_symmetry_multiplicity
 _atom_site_fract_x
 _atom_site_fract_y
 _atom_site_fract_z
 _atom_site_occupancy
  Hf  Hf0  1  0.325883  0.825883  0.500000  1
  Hf  Hf1  1  0.168901  0.336431  0.500000  1
  Hf  Hf2  1  0.836431  0.668901  0.500000  1
  Pa  Pa3  1  0.667252  0.167252  0.500000  1
  Cd  Cd4  1  0.011059  0.995655  0.000000  1
  Cd  Cd5  1  0.495655  0.511059  0.000000  1
  Ni  Ni6  1  0.121093  0.621093  0.000000  1
  Ni  Ni7  1  0.869651  0.369651  0.000000  1
  Ni  Ni8  1  0.626666  0.877408  0.000000  1
  Ni  Ni9  1  0.377408  0.126666  0.000000  1
