# generated using pymatgen
data_SmTh(GaRh)2
_symmetry_space_group_name_H-M   'P 1'
_cell_length_a   4.38429500
_cell_length_b   6.97723300
_cell_length_c   7.94829800
_cell_angle_alpha   90.00000000
_cell_angle_beta   90.00000000
_cell_angle_gamma   90.00000000
_symmetry_Int_Tables_number   1
_chemical_formula_structural   SmTh(GaRh)2
_chemical_formula_sum   'Sm2 Th2 Ga4 Rh4'
_cell_volume   243.14040506
_cell_formula_units_Z   2
loop_
 _symmetry_equiv_pos_site_id
 _symmetry_equiv_pos_as_xyz
  1  'x, y, z'
loop_
 _atom_site_type_symbol
 _atom_site_label
 _atom_site_symmetry_multiplicity
 _atom_site_fract_x
 _atom_site_fract_y
 _atom_site_fract_z
 _atom_site_occupancy
  Sm  Sm0  1  0.750000  0.035518  0.691433  1
  Sm  Sm1  1  0.750000  0.535518  0.808567  1
  Th  Th2  1  0.250000  0.965367  0.318886  1
  Th  Th3  1  0.250000  0.465367  0.181114  1
  Ga  Ga4  1  0.250000  0.354205  0.572024  1
  Ga  Ga5  1  0.250000  0.854205  0.927976  1
  Ga  Ga6  1  0.750000  0.643716  0.438878  1
  Ga  Ga7  1  0.750000  0.143716  0.061122  1
  Rh  Rh8  1  0.250000  0.241128  0.894821  1
  Rh  Rh9  1  0.250000  0.741128  0.605179  1
  Rh  Rh10  1  0.750000  0.760066  0.120941  1
  Rh  Rh11  1  0.750000  0.260066  0.379059  1
