# generated using pymatgen
data_Gd4Y6AlSb5
_symmetry_space_group_name_H-M   'P 1'
_cell_length_a   6.40107000
_cell_length_b   8.98269321
_cell_length_c   8.95793600
_cell_angle_alpha   120.09146214
_cell_angle_beta   90.00007161
_cell_angle_gamma   89.99987480
_symmetry_Int_Tables_number   1
_chemical_formula_structural   Gd4Y6AlSb5
_chemical_formula_sum   'Gd4 Y6 Al1 Sb5'
_cell_volume   445.65289531
_cell_formula_units_Z   1
loop_
 _symmetry_equiv_pos_site_id
 _symmetry_equiv_pos_as_xyz
  1  'x, y, z'
loop_
 _atom_site_type_symbol
 _atom_site_label
 _atom_site_symmetry_multiplicity
 _atom_site_fract_x
 _atom_site_fract_y
 _atom_site_fract_z
 _atom_site_occupancy
  Gd  Gd0  1  0.501057  0.337526  0.671826  1
  Gd  Gd1  1  0.501057  0.665700  0.328174  1
  Gd  Gd2  1  0.998943  0.665702  0.328178  1
  Gd  Gd3  1  0.998943  0.337524  0.671822  1
  Y  Y4  1  0.750000  0.247244  0.000000  1
  Y  Y5  1  0.750000  0.753093  0.762339  1
  Y  Y6  1  0.750000  0.990754  0.237661  1
  Y  Y7  1  0.249998  0.757805  0.000000  1
  Y  Y8  1  0.250001  0.246420  0.245419  1
  Y  Y9  1  0.250001  0.001001  0.754581  1
  Al  Al10  1  0.750001  0.606067  0.000000  1
  Sb  Sb11  1  0.750001  0.386600  0.388617  1
  Sb  Sb12  1  0.750001  0.997980  0.611383  1
  Sb  Sb13  1  0.249997  0.390894  0.000000  1
  Sb  Sb14  1  0.250001  0.612966  0.610240  1
  Sb  Sb15  1  0.250001  0.002727  0.389760  1
