# generated using pymatgen
data_Y4Hf3O12
_symmetry_space_group_name_H-M   'P 1'
_cell_length_a   6.33784969
_cell_length_b   6.38665225
_cell_length_c   6.60222791
_cell_angle_alpha   99.93237334
_cell_angle_beta   98.13409387
_cell_angle_gamma   99.77577815
_symmetry_Int_Tables_number   1
_chemical_formula_structural   Y4Hf3O12
_chemical_formula_sum   'Y4 Hf3 O12'
_cell_volume   255.36873627
_cell_formula_units_Z   1
loop_
 _symmetry_equiv_pos_site_id
 _symmetry_equiv_pos_as_xyz
  1  'x, y, z'
loop_
 _atom_site_type_symbol
 _atom_site_label
 _atom_site_symmetry_multiplicity
 _atom_site_fract_x
 _atom_site_fract_y
 _atom_site_fract_z
 _atom_site_occupancy
  Y  Y0  1  0.697147  0.865530  0.389593  1
  Y  Y1  1  0.385173  0.699462  0.866989  1
  Y  Y2  1  0.302853  0.134470  0.610407  1
  Y  Y3  1  0.614827  0.300538  0.133011  1
  Hf  Hf4  1  0.000000  0.000000  0.000000  1
  Hf  Hf5  1  0.848184  0.398280  0.666968  1
  Hf  Hf6  1  0.151816  0.601720  0.333032  1
  O  O7  1  0.588298  0.416500  0.819175  1
  O  O8  1  0.831290  0.571343  0.426742  1
  O  O9  1  0.407310  0.809079  0.564019  1
  O  O10  1  0.411702  0.583500  0.180825  1
  O  O11  1  0.168710  0.428657  0.573258  1
  O  O12  1  0.592690  0.190921  0.435981  1
  O  O13  1  0.017078  0.679913  0.876380  1
  O  O14  1  0.920109  0.090806  0.700933  1
  O  O15  1  0.687208  0.933861  0.058277  1
  O  O16  1  0.982922  0.320087  0.123620  1
  O  O17  1  0.079891  0.909194  0.299067  1
  O  O18  1  0.312792  0.066139  0.941723  1
