# generated using pymatgen
data_HfAg2IrF12
_symmetry_space_group_name_H-M   'P 1'
_cell_length_a   5.52923148
_cell_length_b   5.89511951
_cell_length_c   8.16329500
_cell_angle_alpha   96.48050008
_cell_angle_beta   89.62809299
_cell_angle_gamma   90.12080578
_symmetry_Int_Tables_number   1
_chemical_formula_structural   HfAg2IrF12
_chemical_formula_sum   'Hf1 Ag2 Ir1 F12'
_cell_volume   264.38049262
_cell_formula_units_Z   1
loop_
 _symmetry_equiv_pos_site_id
 _symmetry_equiv_pos_as_xyz
  1  'x, y, z'
loop_
 _atom_site_type_symbol
 _atom_site_label
 _atom_site_symmetry_multiplicity
 _atom_site_fract_x
 _atom_site_fract_y
 _atom_site_fract_z
 _atom_site_occupancy
  Hf  Hf0  1  0.000000  0.000000  0.500000  1
  Ag  Ag1  1  0.000000  0.000000  0.000000  1
  Ag  Ag2  1  0.500000  0.500000  0.500000  1
  Ir  Ir3  1  0.500000  0.500000  0.000000  1
  F  F4  1  0.902740  0.005831  0.737852  1
  F  F5  1  0.179655  0.295010  0.553362  1
  F  F6  1  0.224794  0.645405  0.914652  1
  F  F7  1  0.333308  0.486694  0.204447  1
  F  F8  1  0.369047  0.206183  0.920880  1
  F  F9  1  0.297665  0.823863  0.544505  1
  F  F10  1  0.702335  0.176137  0.455495  1
  F  F11  1  0.630953  0.793817  0.079120  1
  F  F12  1  0.666692  0.513306  0.795553  1
  F  F13  1  0.775206  0.354595  0.085348  1
  F  F14  1  0.820345  0.704990  0.446638  1
  F  F15  1  0.097260  0.994169  0.262148  1
