# generated using pymatgen
data_ZrSc2N3
_symmetry_space_group_name_H-M   'P 1'
_cell_length_a   5.56924539
_cell_length_b   5.56924567
_cell_length_c   5.56924472
_cell_angle_alpha   146.41257276
_cell_angle_beta   131.83662703
_cell_angle_gamma   59.99659209
_symmetry_Int_Tables_number   1
_chemical_formula_structural   ZrSc2N3
_chemical_formula_sum   'Zr1 Sc2 N3'
_cell_volume   70.54661861
_cell_formula_units_Z   1
loop_
 _symmetry_equiv_pos_site_id
 _symmetry_equiv_pos_as_xyz
  1  'x, y, z'
loop_
 _atom_site_type_symbol
 _atom_site_label
 _atom_site_symmetry_multiplicity
 _atom_site_fract_x
 _atom_site_fract_y
 _atom_site_fract_z
 _atom_site_occupancy
  Zr  Zr0  1  0.000000  0.000000  0.000000  1
  Sc  Sc1  1  0.667762  0.667762  0.000000  1
  Sc  Sc2  1  0.332238  0.332238  0.000000  1
  N  N3  1  0.833386  0.333386  0.500000  1
  N  N4  1  0.500000  0.000000  0.500000  1
  N  N5  1  0.166614  0.666614  0.500000  1
