# generated using pymatgen
data_Yb12Dy7YGe16
_symmetry_space_group_name_H-M   'P 1'
_cell_length_a   7.44396100
_cell_length_b   7.89099200
_cell_length_c   15.20367200
_cell_angle_alpha   90.00000000
_cell_angle_beta   90.00026275
_cell_angle_gamma   90.00117310
_symmetry_Int_Tables_number   1
_chemical_formula_structural   Yb12Dy7YGe16
_chemical_formula_sum   'Yb12 Dy7 Y1 Ge16'
_cell_volume   893.06729188
_cell_formula_units_Z   1
loop_
 _symmetry_equiv_pos_site_id
 _symmetry_equiv_pos_as_xyz
  1  'x, y, z'
loop_
 _atom_site_type_symbol
 _atom_site_label
 _atom_site_symmetry_multiplicity
 _atom_site_fract_x
 _atom_site_fract_y
 _atom_site_fract_z
 _atom_site_occupancy
  Yb  Yb0  1  0.977995  0.812782  0.404522  1
  Yb  Yb1  1  0.477988  0.687220  0.095483  1
  Yb  Yb2  1  0.522006  0.312783  0.595478  1
  Yb  Yb3  1  0.022014  0.187232  0.904523  1
  Yb  Yb4  1  0.022004  0.187219  0.595476  1
  Yb  Yb5  1  0.522017  0.312780  0.904525  1
  Yb  Yb6  1  0.477994  0.687218  0.404522  1
  Yb  Yb7  1  0.977995  0.812783  0.095481  1
  Yb  Yb8  1  0.346338  0.019887  0.749993  1
  Yb  Yb9  1  0.846359  0.480112  0.749997  1
  Yb  Yb10  1  0.153646  0.519874  0.250001  1
  Yb  Yb11  1  0.653646  0.980125  0.250000  1
  Dy  Dy12  1  0.317596  0.172557  0.121311  1
  Dy  Dy13  1  0.817598  0.327447  0.378689  1
  Dy  Dy14  1  0.182393  0.672553  0.878682  1
  Dy  Dy15  1  0.682398  0.827442  0.621317  1
  Dy  Dy16  1  0.317593  0.172551  0.378688  1
  Dy  Dy17  1  0.817595  0.327448  0.121310  1
  Dy  Dy18  1  0.182414  0.672551  0.621312  1
  Y  Y19  1  0.682429  0.827456  0.878697  1
  Ge  Ge20  1  0.846443  0.532924  0.540355  1
  Ge  Ge21  1  0.346404  0.967096  0.959662  1
  Ge  Ge22  1  0.653558  0.032924  0.459645  1
  Ge  Ge23  1  0.153552  0.467081  0.040353  1
  Ge  Ge24  1  0.153561  0.467075  0.459646  1
  Ge  Ge25  1  0.653547  0.032959  0.040381  1
  Ge  Ge26  1  0.346438  0.967075  0.540353  1
  Ge  Ge27  1  0.846477  0.532827  0.959667  1
  Ge  Ge28  1  0.978640  0.882069  0.749986  1
  Ge  Ge29  1  0.478553  0.617905  0.749962  1
  Ge  Ge30  1  0.521403  0.382054  0.249999  1
  Ge  Ge31  1  0.021404  0.117943  0.250001  1
  Ge  Ge32  1  0.236746  0.384918  0.750004  1
  Ge  Ge33  1  0.736751  0.115129  0.749978  1
  Ge  Ge34  1  0.263254  0.884917  0.249999  1
  Ge  Ge35  1  0.763255  0.615081  0.249999  1
