# generated using pymatgen
data_La17Y3Si15Os
_symmetry_space_group_name_H-M   'P 1'
_cell_length_a   7.92164211
_cell_length_b   7.91142239
_cell_length_c   15.27552100
_cell_angle_alpha   90.23510287
_cell_angle_beta   89.89184041
_cell_angle_gamma   90.09504801
_symmetry_Int_Tables_number   1
_chemical_formula_structural   La17Y3Si15Os
_chemical_formula_sum   'La17 Y3 Si15 Os1'
_cell_volume   957.32808382
_cell_formula_units_Z   1
loop_
 _symmetry_equiv_pos_site_id
 _symmetry_equiv_pos_as_xyz
  1  'x, y, z'
loop_
 _atom_site_type_symbol
 _atom_site_label
 _atom_site_symmetry_multiplicity
 _atom_site_fract_x
 _atom_site_fract_y
 _atom_site_fract_z
 _atom_site_occupancy
  La  La0  1  0.703773  0.690064  0.501412  1
  La  La1  1  0.372106  0.013181  0.449873  1
  La  La2  1  0.485173  0.878143  0.699479  1
  La  La3  1  0.513394  0.124338  0.198720  1
  La  La4  1  0.876449  0.484139  0.299377  1
  La  La5  1  0.128529  0.499931  0.796148  1
  La  La6  1  0.626242  0.984978  0.948741  1
  La  La7  1  0.005232  0.379216  0.552571  1
  La  La8  1  0.985279  0.626607  0.049778  1
  La  La9  1  0.134619  0.981125  0.871428  1
  La  La10  1  0.521858  0.629175  0.126284  1
  La  La11  1  0.465271  0.362714  0.631405  1
  La  La12  1  0.627921  0.519783  0.874103  1
  La  La13  1  0.375053  0.478754  0.371866  1
  La  La14  1  0.871929  0.024844  0.377788  1
  La  La15  1  0.976428  0.127095  0.123100  1
  La  La16  1  0.033199  0.890033  0.627500  1
  Y  Y17  1  0.308441  0.306925  0.998991  1
  Y  Y18  1  0.188810  0.809509  0.250338  1
  Y  Y19  1  0.819403  0.190548  0.749715  1
  Si  Si20  1  0.328503  0.689413  0.955356  1
  Si  Si21  1  0.662237  0.303070  0.456814  1
  Si  Si22  1  0.692052  0.329488  0.044605  1
  Si  Si23  1  0.306852  0.670540  0.543997  1
  Si  Si24  1  0.810063  0.828157  0.207173  1
  Si  Si25  1  0.170537  0.190752  0.292530  1
  Si  Si26  1  0.830765  0.805320  0.796133  1
  Si  Si27  1  0.286156  0.922316  0.061902  1
  Si  Si28  1  0.574645  0.789396  0.310295  1
  Si  Si29  1  0.427355  0.208356  0.815853  1
  Si  Si30  1  0.781301  0.579302  0.691212  1
  Si  Si31  1  0.211855  0.422594  0.185472  1
  Si  Si32  1  0.704250  0.077970  0.564184  1
  Si  Si33  1  0.922294  0.284989  0.937933  1
  Si  Si34  1  0.086394  0.719482  0.436188  1
  Os  Os35  1  0.185635  0.177758  0.701740  1
