# generated using pymatgen
data_Na2Ga3SnAu2
_symmetry_space_group_name_H-M   'P 1'
_cell_length_a   4.50902667
_cell_length_b   7.20316128
_cell_length_c   5.62975159
_cell_angle_alpha   89.16976753
_cell_angle_beta   113.28387449
_cell_angle_gamma   90.31492792
_symmetry_Int_Tables_number   1
_chemical_formula_structural   Na2Ga3SnAu2
_chemical_formula_sum   'Na2 Ga3 Sn1 Au2'
_cell_volume   167.94071295
_cell_formula_units_Z   1
loop_
 _symmetry_equiv_pos_site_id
 _symmetry_equiv_pos_as_xyz
  1  'x, y, z'
loop_
 _atom_site_type_symbol
 _atom_site_label
 _atom_site_symmetry_multiplicity
 _atom_site_fract_x
 _atom_site_fract_y
 _atom_site_fract_z
 _atom_site_occupancy
  Na  Na0  1  0.577480  0.739810  0.153216  1
  Na  Na1  1  0.421040  0.268470  0.844444  1
  Ga  Ga2  1  0.146340  0.056212  0.287784  1
  Ga  Ga3  1  0.128037  0.441551  0.252757  1
  Ga  Ga4  1  0.865885  0.549088  0.737141  1
  Sn  Sn5  1  0.871685  0.949329  0.744334  1
  Au  Au6  1  0.702956  0.262824  0.406992  1
  Au  Au7  1  0.286578  0.732717  0.573334  1
