# generated using pymatgen
data_Li9Ca6Ag7N
_symmetry_space_group_name_H-M   'P 1'
_cell_length_a   8.58796155
_cell_length_b   8.47863592
_cell_length_c   8.54242195
_cell_angle_alpha   109.32218433
_cell_angle_beta   108.84791289
_cell_angle_gamma   110.53270800
_symmetry_Int_Tables_number   1
_chemical_formula_structural   Li9Ca6Ag7N
_chemical_formula_sum   'Li9 Ca6 Ag7 N1'
_cell_volume   477.02452882
_cell_formula_units_Z   1
loop_
 _symmetry_equiv_pos_site_id
 _symmetry_equiv_pos_as_xyz
  1  'x, y, z'
loop_
 _atom_site_type_symbol
 _atom_site_label
 _atom_site_symmetry_multiplicity
 _atom_site_fract_x
 _atom_site_fract_y
 _atom_site_fract_z
 _atom_site_occupancy
  Li  Li0  1  0.505601  0.998103  0.998915  1
  Li  Li1  1  0.674634  0.335808  0.342345  1
  Li  Li2  1  0.347323  0.007163  0.663750  1
  Li  Li3  1  0.348071  0.687647  0.347678  1
  Li  Li4  1  0.353215  0.347573  0.685087  1
  Li  Li5  1  0.340969  0.664053  0.999502  1
  Li  Li6  1  0.994155  0.339341  0.652226  1
  Li  Li7  1  0.000247  0.652044  0.341880  1
  Li  Li8  1  0.660671  0.660667  0.310129  1
  Ca  Ca9  1  0.003005  0.249216  0.251529  1
  Ca  Ca10  1  0.249753  0.004003  0.253071  1
  Ca  Ca11  1  0.753342  0.004740  0.749908  1
  Ca  Ca12  1  0.751339  0.742893  0.996614  1
  Ca  Ca13  1  0.246623  0.250463  0.998729  1
  Ca  Ca14  1  0.991816  0.745676  0.749889  1
  Ag  Ag15  1  0.498893  0.503267  0.493417  1
  Ag  Ag16  1  0.010206  0.504269  0.006538  1
  Ag  Ag17  1  0.006201  0.000438  0.502453  1
  Ag  Ag18  1  0.650764  0.996496  0.336641  1
  Ag  Ag19  1  0.652545  0.342141  0.008420  1
  Ag  Ag20  1  0.654019  0.305049  0.651508  1
  Ag  Ag21  1  0.307581  0.659822  0.660241  1
  N  N22  1  0.999026  0.999128  0.999531  1
