# generated using pymatgen
data_Cs2Hg(IBr)2
_symmetry_space_group_name_H-M   'P 1'
_cell_length_a   7.75015225
_cell_length_b   7.75015227
_cell_length_c   12.42224900
_cell_angle_alpha   90.00000000
_cell_angle_beta   90.00000000
_cell_angle_gamma   109.29784236
_symmetry_Int_Tables_number   1
_chemical_formula_structural   Cs2Hg(IBr)2
_chemical_formula_sum   'Cs4 Hg2 I4 Br4'
_cell_volume   704.21754005
_cell_formula_units_Z   2
loop_
 _symmetry_equiv_pos_site_id
 _symmetry_equiv_pos_as_xyz
  1  'x, y, z'
loop_
 _atom_site_type_symbol
 _atom_site_label
 _atom_site_symmetry_multiplicity
 _atom_site_fract_x
 _atom_site_fract_y
 _atom_site_fract_z
 _atom_site_occupancy
  Cs  Cs0  1  0.614308  0.614308  0.500000  1
  Cs  Cs1  1  0.614308  0.614308  0.000000  1
  Cs  Cs2  1  0.249168  0.896227  0.250000  1
  Cs  Cs3  1  0.896227  0.249168  0.750000  1
  Hg  Hg4  1  0.855181  0.301257  0.250000  1
  Hg  Hg5  1  0.301257  0.855181  0.750000  1
  I  I6  1  0.044233  0.464379  0.438388  1
  I  I7  1  0.464379  0.044233  0.561612  1
  I  I8  1  0.044233  0.464379  0.061612  1
  I  I9  1  0.464379  0.044233  0.938388  1
  Br  Br10  1  0.526011  0.361426  0.250000  1
  Br  Br11  1  0.361426  0.526011  0.750000  1
  Br  Br12  1  0.770425  0.932465  0.250000  1
  Br  Br13  1  0.932465  0.770425  0.750000  1
