# generated using pymatgen
data_HoLu4ReRuO12
_symmetry_space_group_name_H-M   'P 1'
_cell_length_a   6.73119345
_cell_length_b   6.72427912
_cell_length_c   7.36132640
_cell_angle_alpha   73.95592866
_cell_angle_beta   73.97942504
_cell_angle_gamma   49.33678705
_symmetry_Int_Tables_number   1
_chemical_formula_structural   HoLu4ReRuO12
_chemical_formula_sum   'Ho1 Lu4 Re1 Ru1 O12'
_cell_volume   240.78831307
_cell_formula_units_Z   1
loop_
 _symmetry_equiv_pos_site_id
 _symmetry_equiv_pos_as_xyz
  1  'x, y, z'
loop_
 _atom_site_type_symbol
 _atom_site_label
 _atom_site_symmetry_multiplicity
 _atom_site_fract_x
 _atom_site_fract_y
 _atom_site_fract_z
 _atom_site_occupancy
  Ho  Ho0  1  0.286983  0.316344  0.358921  1
  Lu  Lu1  1  0.309641  0.319355  0.824688  1
  Lu  Lu2  1  0.680959  0.690388  0.175572  1
  Lu  Lu3  1  0.989842  0.009527  0.500677  1
  Lu  Lu4  1  0.683843  0.713212  0.642065  1
  Re  Re5  1  0.797036  0.203663  0.999446  1
  Ru  Ru6  1  0.231633  0.768877  0.999459  1
  O  O7  1  0.514393  0.487791  0.179284  1
  O  O8  1  0.513518  0.487743  0.818435  1
  O  O9  1  0.000532  0.003903  0.206760  1
  O  O10  1  0.996734  0.999456  0.792922  1
  O  O11  1  0.912236  0.410424  0.912275  1
  O  O12  1  0.591073  0.087104  0.084953  1
  O  O13  1  0.084193  0.563787  0.083926  1
  O  O14  1  0.593568  0.106037  0.570899  1
  O  O15  1  0.887669  0.409688  0.432910  1
  O  O16  1  0.400743  0.906611  0.424878  1
  O  O17  1  0.086964  0.602456  0.579633  1
  O  O18  1  0.438442  0.913632  0.912298  1
