# generated using pymatgen
data_Tb6U2Nb12Si13Ge3
_symmetry_space_group_name_H-M   'P 1'
_cell_length_a   6.92159928
_cell_length_b   7.09927580
_cell_length_c   13.49108308
_cell_angle_alpha   89.88229619
_cell_angle_beta   90.07643260
_cell_angle_gamma   89.90556979
_symmetry_Int_Tables_number   1
_chemical_formula_structural   Tb6U2Nb12Si13Ge3
_chemical_formula_sum   'Tb6 U2 Nb12 Si13 Ge3'
_cell_volume   662.92656540
_cell_formula_units_Z   1
loop_
 _symmetry_equiv_pos_site_id
 _symmetry_equiv_pos_as_xyz
  1  'x, y, z'
loop_
 _atom_site_type_symbol
 _atom_site_label
 _atom_site_symmetry_multiplicity
 _atom_site_fract_x
 _atom_site_fract_y
 _atom_site_fract_z
 _atom_site_occupancy
  Tb  Tb0  1  0.501768  0.328255  0.405914  1
  Tb  Tb1  1  0.997456  0.173642  0.095403  1
  Tb  Tb2  1  0.996730  0.828663  0.596123  1
  Tb  Tb3  1  0.497738  0.671280  0.903055  1
  Tb  Tb4  1  0.497380  0.672214  0.596746  1
  Tb  Tb5  1  0.996882  0.827067  0.901495  1
  U  U6  1  0.997413  0.172201  0.403924  1
  U  U7  1  0.497527  0.327856  0.097303  1
  Nb  Nb8  1  0.835119  0.503276  0.252857  1
  Nb  Nb9  1  0.334738  0.995906  0.249264  1
  Nb  Nb10  1  0.665213  0.008880  0.750367  1
  Nb  Nb11  1  0.165619  0.491767  0.748883  1
  Nb  Nb12  1  0.167888  0.665345  0.126985  1
  Nb  Nb13  1  0.341994  0.178161  0.874046  1
  Nb  Nb14  1  0.339275  0.176734  0.626417  1
  Nb  Nb15  1  0.839899  0.324452  0.872945  1
  Nb  Nb16  1  0.157153  0.671769  0.372594  1
  Nb  Nb17  1  0.658458  0.828548  0.128470  1
  Nb  Nb18  1  0.840936  0.323552  0.623800  1
  Nb  Nb19  1  0.670567  0.830208  0.374987  1
  Si  Si20  1  0.797476  0.624280  0.749334  1
  Si  Si21  1  0.297920  0.875945  0.749418  1
  Si  Si22  1  0.701586  0.128003  0.250750  1
  Si  Si23  1  0.202465  0.370133  0.251209  1
  Si  Si24  1  0.044019  0.124788  0.749793  1
  Si  Si25  1  0.544836  0.376260  0.749027  1
  Si  Si26  1  0.459288  0.624226  0.252541  1
  Si  Si27  1  0.959173  0.876005  0.248338  1
  Si  Si28  1  0.162552  0.460676  0.540387  1
  Si  Si29  1  0.665964  0.040574  0.958607  1
  Si  Si30  1  0.667516  0.040077  0.542042  1
  Si  Si31  1  0.168460  0.459009  0.958174  1
  Si  Si32  1  0.836741  0.537416  0.458431  1
  Ge  Ge33  1  0.831334  0.539883  0.041103  1
  Ge  Ge34  1  0.328631  0.961107  0.040733  1
  Ge  Ge35  1  0.332287  0.961842  0.458540  1
