# generated using pymatgen
data_Dy3HoErP12Ru19
_symmetry_space_group_name_H-M   'P 1'
_cell_length_a   12.52879800
_cell_length_b   12.52879770
_cell_length_c   3.97808200
_cell_angle_alpha   90.00000000
_cell_angle_beta   90.00000000
_cell_angle_gamma   120.00000079
_symmetry_Int_Tables_number   1
_chemical_formula_structural   Dy3HoErP12Ru19
_chemical_formula_sum   'Dy3 Ho1 Er1 P12 Ru19'
_cell_volume   540.78316502
_cell_formula_units_Z   1
loop_
 _symmetry_equiv_pos_site_id
 _symmetry_equiv_pos_as_xyz
  1  'x, y, z'
loop_
 _atom_site_type_symbol
 _atom_site_label
 _atom_site_symmetry_multiplicity
 _atom_site_fract_x
 _atom_site_fract_y
 _atom_site_fract_z
 _atom_site_occupancy
  Dy  Dy0  1  0.000082  0.183387  0.500000  1
  Dy  Dy1  1  0.816613  0.816695  0.500000  1
  Dy  Dy2  1  0.183305  0.999918  0.500000  1
  Ho  Ho3  1  0.333333  0.666667  0.000000  1
  Er  Er4  1  0.666667  0.333333  0.000000  1
  P  P5  1  0.999797  0.815309  0.000000  1
  P  P6  1  0.184691  0.184487  0.000000  1
  P  P7  1  0.815513  0.000203  0.000000  1
  P  P8  1  0.694078  0.172211  0.500000  1
  P  P9  1  0.827789  0.521866  0.500000  1
  P  P10  1  0.478134  0.305922  0.500000  1
  P  P11  1  0.171730  0.693877  0.500000  1
  P  P12  1  0.522147  0.828270  0.500000  1
  P  P13  1  0.306123  0.477853  0.500000  1
  P  P14  1  0.000100  0.372993  0.000000  1
  P  P15  1  0.627007  0.627108  0.000000  1
  P  P16  1  0.372892  0.999900  0.000000  1
  Ru  Ru17  1  0.999952  0.554897  0.000000  1
  Ru  Ru18  1  0.445103  0.445056  0.000000  1
  Ru  Ru19  1  0.554944  0.000048  0.000000  1
  Ru  Ru20  1  0.999859  0.716569  0.500000  1
  Ru  Ru21  1  0.283431  0.283291  0.500000  1
  Ru  Ru22  1  0.716709  0.000141  0.500000  1
  Ru  Ru23  1  0.807805  0.185495  0.000000  1
  Ru  Ru24  1  0.814505  0.622310  0.000000  1
  Ru  Ru25  1  0.377690  0.192195  0.000000  1
  Ru  Ru26  1  0.185106  0.807771  0.000000  1
  Ru  Ru27  1  0.622665  0.814894  0.000000  1
  Ru  Ru28  1  0.192229  0.377335  0.000000  1
  Ru  Ru29  1  0.874086  0.366589  0.500000  1
  Ru  Ru30  1  0.633411  0.507498  0.500000  1
  Ru  Ru31  1  0.492502  0.125914  0.500000  1
  Ru  Ru32  1  0.366351  0.874211  0.500000  1
  Ru  Ru33  1  0.507860  0.633649  0.500000  1
  Ru  Ru34  1  0.125789  0.492140  0.500000  1
  Ru  Ru35  1  0.000000  0.000000  0.000000  1
