# generated using pymatgen
data_Ba8Si6Ge
_symmetry_space_group_name_H-M   'P 1'
_cell_length_a   8.82667700
_cell_length_b   8.83476500
_cell_length_c   27.43303700
_cell_angle_alpha   90.00000000
_cell_angle_beta   90.00000000
_cell_angle_gamma   90.00000000
_symmetry_Int_Tables_number   1
_chemical_formula_structural   Ba8Si6Ge
_chemical_formula_sum   'Ba32 Si24 Ge4'
_cell_volume   2139.27258519
_cell_formula_units_Z   4
loop_
 _symmetry_equiv_pos_site_id
 _symmetry_equiv_pos_as_xyz
  1  'x, y, z'
loop_
 _atom_site_type_symbol
 _atom_site_label
 _atom_site_symmetry_multiplicity
 _atom_site_fract_x
 _atom_site_fract_y
 _atom_site_fract_z
 _atom_site_occupancy
  Ba  Ba0  1  0.180662  0.553035  0.414230  1
  Ba  Ba1  1  0.319338  0.946965  0.914230  1
  Ba  Ba2  1  0.319338  0.053035  0.585770  1
  Ba  Ba3  1  0.180662  0.446965  0.085770  1
  Ba  Ba4  1  0.819338  0.446965  0.585770  1
  Ba  Ba5  1  0.680662  0.053035  0.085770  1
  Ba  Ba6  1  0.680662  0.946965  0.414230  1
  Ba  Ba7  1  0.819338  0.553035  0.914230  1
  Ba  Ba8  1  0.490225  0.687069  0.187348  1
  Ba  Ba9  1  0.009775  0.812931  0.687348  1
  Ba  Ba10  1  0.009775  0.187069  0.812652  1
  Ba  Ba11  1  0.490225  0.312931  0.312652  1
  Ba  Ba12  1  0.509775  0.312931  0.812652  1
  Ba  Ba13  1  0.990225  0.187069  0.312652  1
  Ba  Ba14  1  0.990225  0.812931  0.187348  1
  Ba  Ba15  1  0.509775  0.687069  0.687348  1
  Ba  Ba16  1  0.492260  0.712805  0.021982  1
  Ba  Ba17  1  0.007740  0.787195  0.521982  1
  Ba  Ba18  1  0.007740  0.212805  0.978018  1
  Ba  Ba19  1  0.492260  0.287195  0.478018  1
  Ba  Ba20  1  0.507740  0.287195  0.978018  1
  Ba  Ba21  1  0.992260  0.212805  0.478018  1
  Ba  Ba22  1  0.992260  0.787195  0.021982  1
  Ba  Ba23  1  0.507740  0.712805  0.521982  1
  Ba  Ba24  1  0.372543  0.826656  0.323247  1
  Ba  Ba25  1  0.127457  0.673344  0.823247  1
  Ba  Ba26  1  0.127457  0.326656  0.676753  1
  Ba  Ba27  1  0.372543  0.173344  0.176753  1
  Ba  Ba28  1  0.627457  0.173344  0.676753  1
  Ba  Ba29  1  0.872543  0.326656  0.176753  1
  Ba  Ba30  1  0.872543  0.673344  0.323247  1
  Ba  Ba31  1  0.627457  0.826656  0.823247  1
  Si  Si32  1  0.267789  0.868226  0.107568  1
  Si  Si33  1  0.232211  0.631774  0.607568  1
  Si  Si34  1  0.232211  0.368226  0.892432  1
  Si  Si35  1  0.267789  0.131774  0.392432  1
  Si  Si36  1  0.732211  0.131774  0.892432  1
  Si  Si37  1  0.767789  0.368226  0.392432  1
  Si  Si38  1  0.767789  0.631774  0.107568  1
  Si  Si39  1  0.732211  0.868226  0.607568  1
  Si  Si40  1  0.292720  0.060322  0.046184  1
  Si  Si41  1  0.207280  0.439678  0.546184  1
  Si  Si42  1  0.207280  0.560322  0.953816  1
  Si  Si43  1  0.292720  0.939678  0.453816  1
  Si  Si44  1  0.707280  0.939678  0.953816  1
  Si  Si45  1  0.792720  0.560322  0.453816  1
  Si  Si46  1  0.792720  0.439678  0.046184  1
  Si  Si47  1  0.707280  0.060322  0.546184  1
  Si  Si48  1  0.076351  0.068497  0.100653  1
  Si  Si49  1  0.423649  0.431503  0.600653  1
  Si  Si50  1  0.423649  0.568497  0.899347  1
  Si  Si51  1  0.076351  0.931503  0.399347  1
  Si  Si52  1  0.923649  0.931503  0.899347  1
  Si  Si53  1  0.576351  0.568497  0.399347  1
  Si  Si54  1  0.576351  0.431503  0.100653  1
  Si  Si55  1  0.923649  0.068497  0.600653  1
  Ge  Ge56  1  0.171145  0.500000  0.250000  1
  Ge  Ge57  1  0.328855  0.000000  0.750000  1
  Ge  Ge58  1  0.828855  0.500000  0.750000  1
  Ge  Ge59  1  0.671145  0.000000  0.250000  1
