# generated using pymatgen
data_Hf4Ta3NbGeP3
_symmetry_space_group_name_H-M   'P 1'
_cell_length_a   3.54236600
_cell_length_b   6.93083840
_cell_length_c   8.40226404
_cell_angle_alpha   89.71136210
_cell_angle_beta   90.00000000
_cell_angle_gamma   90.00000000
_symmetry_Int_Tables_number   1
_chemical_formula_structural   Hf4Ta3NbGeP3
_chemical_formula_sum   'Hf4 Ta3 Nb1 Ge1 P3'
_cell_volume   206.28612527
_cell_formula_units_Z   1
loop_
 _symmetry_equiv_pos_site_id
 _symmetry_equiv_pos_as_xyz
  1  'x, y, z'
loop_
 _atom_site_type_symbol
 _atom_site_label
 _atom_site_symmetry_multiplicity
 _atom_site_fract_x
 _atom_site_fract_y
 _atom_site_fract_z
 _atom_site_occupancy
  Hf  Hf0  1  0.250000  0.033475  0.668811  1
  Hf  Hf1  1  0.250000  0.530841  0.830784  1
  Hf  Hf2  1  0.750000  0.471741  0.161688  1
  Hf  Hf3  1  0.750000  0.958332  0.331576  1
  Ta  Ta4  1  0.750000  0.856568  0.938865  1
  Ta  Ta5  1  0.250000  0.643908  0.441608  1
  Ta  Ta6  1  0.250000  0.137737  0.055835  1
  Nb  Nb7  1  0.750000  0.365872  0.567677  1
  Ge  Ge8  1  0.250000  0.261156  0.357148  1
  P  P9  1  0.250000  0.764363  0.144953  1
  P  P10  1  0.750000  0.741266  0.644319  1
  P  P11  1  0.750000  0.234741  0.856736  1
