# generated using pymatgen
data_Lu6Fe2Co21
_symmetry_space_group_name_H-M   'P 1'
_cell_length_a   8.26736176
_cell_length_b   8.28388710
_cell_length_c   8.26736197
_cell_angle_alpha   120.06614575
_cell_angle_beta   89.74841784
_cell_angle_gamma   120.06614136
_symmetry_Int_Tables_number   1
_chemical_formula_structural   Lu6Fe2Co21
_chemical_formula_sum   'Lu6 Fe2 Co21'
_cell_volume   400.43590762
_cell_formula_units_Z   1
loop_
 _symmetry_equiv_pos_site_id
 _symmetry_equiv_pos_as_xyz
  1  'x, y, z'
loop_
 _atom_site_type_symbol
 _atom_site_label
 _atom_site_symmetry_multiplicity
 _atom_site_fract_x
 _atom_site_fract_y
 _atom_site_fract_z
 _atom_site_occupancy
  Lu  Lu0  1  0.713445  0.000000  0.286556  1
  Lu  Lu1  1  0.288210  0.001241  0.288210  1
  Lu  Lu2  1  0.288210  0.575177  0.288210  1
  Lu  Lu3  1  0.711791  0.998759  0.711791  1
  Lu  Lu4  1  0.286556  0.000000  0.713445  1
  Lu  Lu5  1  0.711792  0.424825  0.711792  1
  Fe  Fe6  1  0.000000  0.000000  0.000000  1
  Fe  Fe7  1  0.000000  0.500000  0.000000  1
  Co  Co8  1  0.500000  0.000000  0.000000  1
  Co  Co9  1  0.500000  0.500000  0.000000  1
  Co  Co10  1  0.675299  0.351877  0.028457  1
  Co  Co11  1  0.369960  0.246797  0.123633  1
  Co  Co12  1  0.877352  0.245357  0.122646  1
  Co  Co13  1  0.877352  0.754641  0.122646  1
  Co  Co14  1  0.676567  0.352485  0.323433  1
  Co  Co15  1  0.676567  0.647515  0.323433  1
  Co  Co16  1  0.971543  0.648123  0.324701  1
  Co  Co17  1  0.123633  0.246797  0.369960  1
  Co  Co18  1  0.000000  0.000000  0.500000  1
  Co  Co19  1  0.000000  0.500000  0.500000  1
  Co  Co20  1  0.500000  0.500000  0.500000  1
  Co  Co21  1  0.876365  0.753201  0.630038  1
  Co  Co22  1  0.028457  0.351877  0.675299  1
  Co  Co23  1  0.323433  0.352485  0.676567  1
  Co  Co24  1  0.323433  0.647515  0.676567  1
  Co  Co25  1  0.122646  0.245357  0.877352  1
  Co  Co26  1  0.122646  0.754641  0.877352  1
  Co  Co27  1  0.630038  0.753201  0.876365  1
  Co  Co28  1  0.324701  0.648123  0.971543  1
