# generated using pymatgen
data_Y8Tm2(IrPt)3
_symmetry_space_group_name_H-M   'P 1'
_cell_length_a   11.04670388
_cell_length_b   11.04054200
_cell_length_c   6.33711808
_cell_angle_alpha   90.00000000
_cell_angle_beta   90.06696503
_cell_angle_gamma   90.00000000
_symmetry_Int_Tables_number   1
_chemical_formula_structural   Y8Tm2(IrPt)3
_chemical_formula_sum   'Y16 Tm4 Ir6 Pt6'
_cell_volume   772.88452150
_cell_formula_units_Z   2
loop_
 _symmetry_equiv_pos_site_id
 _symmetry_equiv_pos_as_xyz
  1  'x, y, z'
loop_
 _atom_site_type_symbol
 _atom_site_label
 _atom_site_symmetry_multiplicity
 _atom_site_fract_x
 _atom_site_fract_y
 _atom_site_fract_z
 _atom_site_occupancy
  Y  Y0  1  0.294848  0.090127  0.373744  1
  Y  Y1  1  0.294848  0.909873  0.873744  1
  Y  Y2  1  0.705570  0.086683  0.873516  1
  Y  Y3  1  0.705570  0.913317  0.373516  1
  Y  Y4  1  0.583394  0.791168  0.874008  1
  Y  Y5  1  0.583394  0.208832  0.374008  1
  Y  Y6  1  0.411745  0.791608  0.378950  1
  Y  Y7  1  0.411745  0.208392  0.878950  1
  Y  Y8  1  0.210426  0.414948  0.622468  1
  Y  Y9  1  0.210426  0.585052  0.122468  1
  Y  Y10  1  0.793567  0.413270  0.124532  1
  Y  Y11  1  0.793567  0.586730  0.624532  1
  Y  Y12  1  0.914022  0.705585  0.126270  1
  Y  Y13  1  0.914022  0.294415  0.626270  1
  Y  Y14  1  0.090654  0.705188  0.626534  1
  Y  Y15  1  0.090654  0.294812  0.126534  1
  Tm  Tm16  1  0.999977  0.999962  0.499932  1
  Tm  Tm17  1  0.999977  0.000038  0.999932  1
  Tm  Tm18  1  0.496699  0.499522  0.000032  1
  Tm  Tm19  1  0.496699  0.500478  0.500032  1
  Ir  Ir20  1  0.348654  0.348060  0.249935  1
  Ir  Ir21  1  0.348654  0.651940  0.749935  1
  Ir  Ir22  1  0.500333  0.999738  0.123930  1
  Ir  Ir23  1  0.500333  0.000262  0.623930  1
  Ir  Ir24  1  0.999286  0.500035  0.876056  1
  Ir  Ir25  1  0.999286  0.499965  0.376056  1
  Pt  Pt26  1  0.849041  0.150773  0.250299  1
  Pt  Pt27  1  0.849041  0.849227  0.750299  1
  Pt  Pt28  1  0.150134  0.150370  0.749666  1
  Pt  Pt29  1  0.150134  0.849630  0.249666  1
  Pt  Pt30  1  0.651651  0.348692  0.750126  1
  Pt  Pt31  1  0.651651  0.651308  0.250126  1
