# generated using pymatgen
data_Y2ErTm(ReB6)2
_symmetry_space_group_name_H-M   'P 1'
_cell_length_a   3.66601800
_cell_length_b   9.14510701
_cell_length_c   11.53395301
_cell_angle_alpha   90.00545752
_cell_angle_beta   90.00000000
_cell_angle_gamma   90.00000000
_symmetry_Int_Tables_number   1
_chemical_formula_structural   Y2ErTm(ReB6)2
_chemical_formula_sum   'Y4 Er2 Tm2 Re4 B24'
_cell_volume   386.68877076
_cell_formula_units_Z   2
loop_
 _symmetry_equiv_pos_site_id
 _symmetry_equiv_pos_as_xyz
  1  'x, y, z'
loop_
 _atom_site_type_symbol
 _atom_site_label
 _atom_site_symmetry_multiplicity
 _atom_site_fract_x
 _atom_site_fract_y
 _atom_site_fract_z
 _atom_site_occupancy
  Y  Y0  1  0.000000  0.323191  0.413985  1
  Y  Y1  1  0.000000  0.676809  0.586015  1
  Y  Y2  1  0.000000  0.823005  0.085917  1
  Y  Y3  1  0.000000  0.176995  0.914083  1
  Er  Er4  1  0.000000  0.943152  0.370004  1
  Er  Er5  1  0.000000  0.056848  0.629996  1
  Tm  Tm6  1  0.000000  0.443202  0.129857  1
  Tm  Tm7  1  0.000000  0.556798  0.870143  1
  Re  Re8  1  0.000000  0.638396  0.319950  1
  Re  Re9  1  0.000000  0.361604  0.680050  1
  Re  Re10  1  0.000000  0.139499  0.179531  1
  Re  Re11  1  0.000000  0.860501  0.820469  1
  B  B12  1  0.500000  0.553470  0.432506  1
  B  B13  1  0.500000  0.446530  0.567494  1
  B  B14  1  0.500000  0.053544  0.067449  1
  B  B15  1  0.500000  0.946456  0.932551  1
  B  B16  1  0.500000  0.749730  0.418125  1
  B  B17  1  0.500000  0.250270  0.581875  1
  B  B18  1  0.500000  0.250184  0.081841  1
  B  B19  1  0.500000  0.749816  0.918159  1
  B  B20  1  0.500000  0.792202  0.265370  1
  B  B21  1  0.500000  0.207798  0.734630  1
  B  B22  1  0.500000  0.292645  0.234494  1
  B  B23  1  0.500000  0.707355  0.765506  1
  B  B24  1  0.500000  0.630137  0.185143  1
  B  B25  1  0.500000  0.369863  0.814857  1
  B  B26  1  0.500000  0.130522  0.314611  1
  B  B27  1  0.500000  0.869478  0.685389  1
  B  B28  1  0.500000  0.982196  0.212315  1
  B  B29  1  0.500000  0.017804  0.787685  1
  B  B30  1  0.500000  0.481938  0.287412  1
  B  B31  1  0.500000  0.518062  0.712588  1
  B  B32  1  0.500000  0.598498  0.027436  1
  B  B33  1  0.500000  0.401502  0.972564  1
  B  B34  1  0.500000  0.098982  0.472455  1
  B  B35  1  0.500000  0.901018  0.527545  1
