# generated using pymatgen
data_Ho3Ag(Pd2Au)4
_symmetry_space_group_name_H-M   'P 1'
_cell_length_a   5.98594700
_cell_length_b   5.96128000
_cell_length_c   7.98509700
_cell_angle_alpha   90.00003845
_cell_angle_beta   90.00055516
_cell_angle_gamma   89.99998078
_symmetry_Int_Tables_number   1
_chemical_formula_structural   Ho3Ag(Pd2Au)4
_chemical_formula_sum   'Ho3 Ag1 Pd8 Au4'
_cell_volume   284.93945180
_cell_formula_units_Z   1
loop_
 _symmetry_equiv_pos_site_id
 _symmetry_equiv_pos_as_xyz
  1  'x, y, z'
loop_
 _atom_site_type_symbol
 _atom_site_label
 _atom_site_symmetry_multiplicity
 _atom_site_fract_x
 _atom_site_fract_y
 _atom_site_fract_z
 _atom_site_occupancy
  Ho  Ho0  1  0.250552  0.249995  0.999993  1
  Ho  Ho1  1  0.749481  0.750003  0.000006  1
  Ho  Ho2  1  0.750551  0.750003  0.499990  1
  Ag  Ag3  1  0.249010  0.250006  0.500004  1
  Pd  Pd4  1  0.000920  0.000551  0.251064  1
  Pd  Pd5  1  0.000923  0.499457  0.251063  1
  Pd  Pd6  1  0.499379  0.000667  0.252242  1
  Pd  Pd7  1  0.499411  0.499344  0.252259  1
  Pd  Pd8  1  0.499100  0.000648  0.747757  1
  Pd  Pd9  1  0.499103  0.499380  0.747745  1
  Pd  Pd10  1  0.000609  0.000492  0.748929  1
  Pd  Pd11  1  0.000632  0.499461  0.748942  1
  Au  Au12  1  0.749771  0.250008  0.999999  1
  Au  Au13  1  0.250257  0.749988  0.000001  1
  Au  Au14  1  0.249661  0.749988  0.499992  1
  Au  Au15  1  0.750637  0.250010  0.500013  1
