# generated using pymatgen
data_Ti3Zn2CuC
_symmetry_space_group_name_H-M   'P 1'
_cell_length_a   8.12245493
_cell_length_b   8.12245553
_cell_length_c   8.12245500
_cell_angle_alpha   59.99999807
_cell_angle_beta   59.99999564
_cell_angle_gamma   59.99999717
_symmetry_Int_Tables_number   1
_chemical_formula_structural   Ti3Zn2CuC
_chemical_formula_sum   'Ti12 Zn8 Cu4 C4'
_cell_volume   378.91948500
_cell_formula_units_Z   4
loop_
 _symmetry_equiv_pos_site_id
 _symmetry_equiv_pos_as_xyz
  1  'x, y, z'
loop_
 _atom_site_type_symbol
 _atom_site_label
 _atom_site_symmetry_multiplicity
 _atom_site_fract_x
 _atom_site_fract_y
 _atom_site_fract_z
 _atom_site_occupancy
  Ti  Ti0  1  0.935748  0.935748  0.564252  1
  Ti  Ti1  1  0.564252  0.935748  0.564252  1
  Ti  Ti2  1  0.935748  0.564252  0.564252  1
  Ti  Ti3  1  0.564252  0.564252  0.935748  1
  Ti  Ti4  1  0.935748  0.564252  0.935748  1
  Ti  Ti5  1  0.564252  0.935748  0.935748  1
  Ti  Ti6  1  0.314252  0.314252  0.685748  1
  Ti  Ti7  1  0.685748  0.314252  0.685748  1
  Ti  Ti8  1  0.314252  0.685748  0.685748  1
  Ti  Ti9  1  0.685748  0.685748  0.314252  1
  Ti  Ti10  1  0.314252  0.685748  0.314252  1
  Ti  Ti11  1  0.685748  0.314252  0.314252  1
  Zn  Zn12  1  0.333635  0.333635  0.999095  1
  Zn  Zn13  1  0.333635  0.999095  0.333635  1
  Zn  Zn14  1  0.999095  0.333635  0.333635  1
  Zn  Zn15  1  0.333635  0.333635  0.333635  1
  Zn  Zn16  1  0.916365  0.916365  0.250905  1
  Zn  Zn17  1  0.916365  0.250905  0.916365  1
  Zn  Zn18  1  0.250905  0.916365  0.916365  1
  Zn  Zn19  1  0.916365  0.916365  0.916365  1
  Cu  Cu20  1  0.125000  0.125000  0.625000  1
  Cu  Cu21  1  0.125000  0.625000  0.125000  1
  Cu  Cu22  1  0.625000  0.125000  0.125000  1
  Cu  Cu23  1  0.125000  0.125000  0.125000  1
  C  C24  1  0.625000  0.625000  0.125000  1
  C  C25  1  0.625000  0.125000  0.625000  1
  C  C26  1  0.125000  0.625000  0.625000  1
  C  C27  1  0.625000  0.625000  0.625000  1
