# generated using pymatgen
data_Y4NbIO12
_symmetry_space_group_name_H-M   'P 1'
_cell_length_a   5.44940200
_cell_length_b   7.76402051
_cell_length_c   11.58669320
_cell_angle_alpha   75.82451139
_cell_angle_beta   90.00000000
_cell_angle_gamma   90.00000000
_symmetry_Int_Tables_number   1
_chemical_formula_structural   Y4NbIO12
_chemical_formula_sum   'Y8 Nb2 I2 O24'
_cell_volume   475.29728183
_cell_formula_units_Z   2
loop_
 _symmetry_equiv_pos_site_id
 _symmetry_equiv_pos_as_xyz
  1  'x, y, z'
loop_
 _atom_site_type_symbol
 _atom_site_label
 _atom_site_symmetry_multiplicity
 _atom_site_fract_x
 _atom_site_fract_y
 _atom_site_fract_z
 _atom_site_occupancy
  Y  Y0  1  0.190866  0.792233  0.077216  1
  Y  Y1  1  0.258461  0.982406  0.757932  1
  Y  Y2  1  0.741539  0.982406  0.257932  1
  Y  Y3  1  0.311467  0.521306  0.746540  1
  Y  Y4  1  0.190969  0.204481  0.422608  1
  Y  Y5  1  0.688533  0.521306  0.246540  1
  Y  Y6  1  0.809031  0.204481  0.922608  1
  Y  Y7  1  0.809134  0.792233  0.577216  1
  Nb  Nb8  1  0.745465  0.716394  0.890205  1
  Nb  Nb9  1  0.254535  0.716394  0.390205  1
  I  I10  1  0.745894  0.273521  0.617211  1
  I  I11  1  0.254106  0.273521  0.117211  1
  O  O12  1  0.861835  0.361403  0.459176  1
  O  O13  1  0.468818  0.852132  0.928757  1
  O  O14  1  0.854350  0.633693  0.052078  1
  O  O15  1  0.015729  0.302198  0.722937  1
  O  O16  1  0.984271  0.302198  0.222937  1
  O  O17  1  0.138165  0.361403  0.959176  1
  O  O18  1  0.634434  0.485457  0.879926  1
  O  O19  1  0.527313  0.160955  0.065347  1
  O  O20  1  0.145650  0.633693  0.552078  1
  O  O21  1  0.018484  0.720384  0.767818  1
  O  O22  1  0.436199  0.196704  0.265862  1
  O  O23  1  0.026949  0.947256  0.403684  1
  O  O24  1  0.472687  0.160955  0.565347  1
  O  O25  1  0.981516  0.720384  0.267818  1
  O  O26  1  0.938585  0.064211  0.612543  1
  O  O27  1  0.563801  0.196704  0.765862  1
  O  O28  1  0.523317  0.784722  0.718858  1
  O  O29  1  0.061415  0.064211  0.112543  1
  O  O30  1  0.624382  0.500544  0.611303  1
  O  O31  1  0.375618  0.500544  0.111303  1
  O  O32  1  0.476683  0.784722  0.218858  1
  O  O33  1  0.365566  0.485457  0.379926  1
  O  O34  1  0.531182  0.852132  0.428757  1
  O  O35  1  0.973051  0.947256  0.903684  1
