# generated using pymatgen
data_CaEu(SbPd)2
_symmetry_space_group_name_H-M   'P 1'
_cell_length_a   4.71447200
_cell_length_b   7.56042979
_cell_length_c   8.01589831
_cell_angle_alpha   89.91698003
_cell_angle_beta   90.00000000
_cell_angle_gamma   90.00000000
_symmetry_Int_Tables_number   1
_chemical_formula_structural   CaEu(SbPd)2
_chemical_formula_sum   'Ca2 Eu2 Sb4 Pd4'
_cell_volume   285.71384721
_cell_formula_units_Z   2
loop_
 _symmetry_equiv_pos_site_id
 _symmetry_equiv_pos_as_xyz
  1  'x, y, z'
loop_
 _atom_site_type_symbol
 _atom_site_label
 _atom_site_symmetry_multiplicity
 _atom_site_fract_x
 _atom_site_fract_y
 _atom_site_fract_z
 _atom_site_occupancy
  Ca  Ca0  1  0.750000  0.006121  0.702855  1
  Ca  Ca1  1  0.250000  0.993879  0.297145  1
  Eu  Eu2  1  0.250000  0.494098  0.202721  1
  Eu  Eu3  1  0.750000  0.505902  0.797279  1
  Sb  Sb4  1  0.250000  0.802849  0.905981  1
  Sb  Sb5  1  0.750000  0.197151  0.094019  1
  Sb  Sb6  1  0.750000  0.696997  0.407103  1
  Sb  Sb7  1  0.250000  0.303003  0.592897  1
  Pd  Pd8  1  0.250000  0.690201  0.577963  1
  Pd  Pd9  1  0.750000  0.309799  0.422037  1
  Pd  Pd10  1  0.750000  0.819270  0.080825  1
  Pd  Pd11  1  0.250000  0.180730  0.919175  1
