# generated using pymatgen
data_Pr8Tm11Si16Mo
_symmetry_space_group_name_H-M   'P 1'
_cell_length_a   7.38314000
_cell_length_b   7.72637818
_cell_length_c   14.58246800
_cell_angle_alpha   90.00000000
_cell_angle_beta   90.00000000
_cell_angle_gamma   90.06636969
_symmetry_Int_Tables_number   1
_chemical_formula_structural   Pr8Tm11Si16Mo
_chemical_formula_sum   'Pr8 Tm11 Si16 Mo1'
_cell_volume   831.85533477
_cell_formula_units_Z   1
loop_
 _symmetry_equiv_pos_site_id
 _symmetry_equiv_pos_as_xyz
  1  'x, y, z'
loop_
 _atom_site_type_symbol
 _atom_site_label
 _atom_site_symmetry_multiplicity
 _atom_site_fract_x
 _atom_site_fract_y
 _atom_site_fract_z
 _atom_site_occupancy
  Pr  Pr0  1  0.019653  0.178522  0.403157  1
  Pr  Pr1  1  0.519599  0.322566  0.405681  1
  Pr  Pr2  1  0.486740  0.683003  0.897929  1
  Pr  Pr3  1  0.486740  0.683003  0.602071  1
  Pr  Pr4  1  0.976892  0.826887  0.601232  1
  Pr  Pr5  1  0.976892  0.826887  0.898768  1
  Pr  Pr6  1  0.519599  0.322566  0.094319  1
  Pr  Pr7  1  0.019653  0.178522  0.096843  1
  Tm  Tm8  1  0.321838  0.169585  0.627332  1
  Tm  Tm9  1  0.678483  0.825080  0.378872  1
  Tm  Tm10  1  0.178956  0.677321  0.377047  1
  Tm  Tm11  1  0.820662  0.318272  0.873056  1
  Tm  Tm12  1  0.820662  0.318272  0.626944  1
  Tm  Tm13  1  0.845913  0.490706  0.250000  1
  Tm  Tm14  1  0.346068  0.008929  0.250000  1
  Tm  Tm15  1  0.321838  0.169585  0.872668  1
  Tm  Tm16  1  0.178956  0.677321  0.122953  1
  Tm  Tm17  1  0.678483  0.825080  0.121128  1
  Tm  Tm18  1  0.155347  0.510194  0.750000  1
  Si  Si19  1  0.288786  0.878066  0.750000  1
  Si  Si20  1  0.475066  0.616197  0.250000  1
  Si  Si21  1  0.013508  0.103106  0.750000  1
  Si  Si22  1  0.527307  0.374731  0.750000  1
  Si  Si23  1  0.148925  0.467759  0.540730  1
  Si  Si24  1  0.971500  0.881571  0.250000  1
  Si  Si25  1  0.722933  0.121344  0.250000  1
  Si  Si26  1  0.854742  0.533012  0.036855  1
  Si  Si27  1  0.352703  0.967188  0.037307  1
  Si  Si28  1  0.148925  0.467759  0.959270  1
  Si  Si29  1  0.645342  0.030323  0.549367  1
  Si  Si30  1  0.352703  0.967188  0.462693  1
  Si  Si31  1  0.854742  0.533012  0.463145  1
  Si  Si32  1  0.775704  0.631297  0.750000  1
  Si  Si33  1  0.226414  0.378760  0.250000  1
  Si  Si34  1  0.645342  0.030323  0.950633  1
  Mo  Mo35  1  0.642394  0.006065  0.750000  1
