# generated using pymatgen
data_TbNd2Lu(NiAs)4
_symmetry_space_group_name_H-M   'P 1'
_cell_length_a   4.07217800
_cell_length_b   4.07217972
_cell_length_c   15.85293100
_cell_angle_alpha   90.00000000
_cell_angle_beta   90.00000000
_cell_angle_gamma   120.00000231
_symmetry_Int_Tables_number   1
_chemical_formula_structural   TbNd2Lu(NiAs)4
_chemical_formula_sum   'Tb1 Nd2 Lu1 Ni4 As4'
_cell_volume   227.66374756
_cell_formula_units_Z   1
loop_
 _symmetry_equiv_pos_site_id
 _symmetry_equiv_pos_as_xyz
  1  'x, y, z'
loop_
 _atom_site_type_symbol
 _atom_site_label
 _atom_site_symmetry_multiplicity
 _atom_site_fract_x
 _atom_site_fract_y
 _atom_site_fract_z
 _atom_site_occupancy
  Tb  Tb0  1  0.000000  0.000000  0.750000  1
  Nd  Nd1  1  0.000000  0.000000  0.004242  1
  Nd  Nd2  1  0.000000  0.000000  0.495758  1
  Lu  Lu3  1  0.000000  0.000000  0.250000  1
  Ni  Ni4  1  0.333333  0.666667  0.147008  1
  Ni  Ni5  1  0.666667  0.333333  0.868490  1
  Ni  Ni6  1  0.666667  0.333333  0.631510  1
  Ni  Ni7  1  0.333333  0.666667  0.352992  1
  As  As8  1  0.333333  0.666667  0.623898  1
  As  As9  1  0.666667  0.333333  0.372301  1
  As  As10  1  0.666667  0.333333  0.127699  1
  As  As11  1  0.333333  0.666667  0.876102  1
