# generated using pymatgen
data_ScMn3Zn2(B2Rh5)2
_symmetry_space_group_name_H-M   'P 1'
_cell_length_a   9.36201748
_cell_length_b   9.36201748
_cell_length_c   2.95736600
_cell_angle_alpha   90.00000000
_cell_angle_beta   90.00000000
_cell_angle_gamma   89.34598611
_symmetry_Int_Tables_number   1
_chemical_formula_structural   ScMn3Zn2(B2Rh5)2
_chemical_formula_sum   'Sc1 Mn3 Zn2 B4 Rh10'
_cell_volume   259.18846931
_cell_formula_units_Z   1
loop_
 _symmetry_equiv_pos_site_id
 _symmetry_equiv_pos_as_xyz
  1  'x, y, z'
loop_
 _atom_site_type_symbol
 _atom_site_label
 _atom_site_symmetry_multiplicity
 _atom_site_fract_x
 _atom_site_fract_y
 _atom_site_fract_z
 _atom_site_occupancy
  Sc  Sc0  1  0.824539  0.324539  0.000000  1
  Mn  Mn1  1  0.323945  0.176293  0.000000  1
  Mn  Mn2  1  0.676293  0.823945  0.000000  1
  Mn  Mn3  1  0.179610  0.679610  0.000000  1
  Zn  Zn4  1  0.999338  0.001125  0.000000  1
  Zn  Zn5  1  0.501125  0.499338  0.000000  1
  B  B6  1  0.623642  0.123642  0.000000  1
  B  B7  1  0.129421  0.371645  0.000000  1
  B  B8  1  0.871645  0.629421  0.000000  1
  B  B9  1  0.371134  0.871134  0.000000  1
  Rh  Rh10  1  0.073033  0.215727  0.500000  1
  Rh  Rh11  1  0.215348  0.930430  0.500000  1
  Rh  Rh12  1  0.781407  0.066997  0.500000  1
  Rh  Rh13  1  0.928952  0.785132  0.500000  1
  Rh  Rh14  1  0.430430  0.715348  0.500000  1
  Rh  Rh15  1  0.566997  0.281407  0.500000  1
  Rh  Rh16  1  0.715727  0.573033  0.500000  1
  Rh  Rh17  1  0.285132  0.428952  0.500000  1
  Rh  Rh18  1  0.498656  0.998656  0.500000  1
  Rh  Rh19  1  0.003626  0.503626  0.500000  1
