# generated using pymatgen
data_Gd2CrAsO8
_symmetry_space_group_name_H-M   'P 1'
_cell_length_a   6.05003430
_cell_length_b   6.05003520
_cell_length_c   6.05003517
_cell_angle_alpha   106.24646712
_cell_angle_beta   106.24647525
_cell_angle_gamma   116.13324472
_symmetry_Int_Tables_number   1
_chemical_formula_structural   Gd2CrAsO8
_chemical_formula_sum   'Gd2 Cr1 As1 O8'
_cell_volume   168.72343939
_cell_formula_units_Z   1
loop_
 _symmetry_equiv_pos_site_id
 _symmetry_equiv_pos_as_xyz
  1  'x, y, z'
loop_
 _atom_site_type_symbol
 _atom_site_label
 _atom_site_symmetry_multiplicity
 _atom_site_fract_x
 _atom_site_fract_y
 _atom_site_fract_z
 _atom_site_occupancy
  Gd  Gd0  1  0.250000  0.750000  0.500000  1
  Gd  Gd1  1  0.000000  0.000000  0.000000  1
  Cr  Cr2  1  0.500000  0.500000  0.000000  1
  As  As3  1  0.750000  0.250000  0.500000  1
  O  O4  1  0.491355  0.673426  0.817929  1
  O  O5  1  0.326574  0.508645  0.182071  1
  O  O6  1  0.326574  0.144503  0.817929  1
  O  O7  1  0.855497  0.673426  0.182071  1
  O  O8  1  0.395258  0.075903  0.319355  1
  O  O9  1  0.924097  0.604742  0.680645  1
  O  O10  1  0.924097  0.243451  0.319355  1
  O  O11  1  0.756549  0.075903  0.680645  1
