# generated using pymatgen
data_Er7Zr13Si16
_symmetry_space_group_name_H-M   'P 1'
_cell_length_a   7.29005804
_cell_length_b   7.29029035
_cell_length_c   13.39580096
_cell_angle_alpha   89.96108628
_cell_angle_beta   89.97981153
_cell_angle_gamma   90.05764455
_symmetry_Int_Tables_number   1
_chemical_formula_structural   Er7Zr13Si16
_chemical_formula_sum   'Er7 Zr13 Si16'
_cell_volume   711.94123932
_cell_formula_units_Z   1
loop_
 _symmetry_equiv_pos_site_id
 _symmetry_equiv_pos_as_xyz
  1  'x, y, z'
loop_
 _atom_site_type_symbol
 _atom_site_label
 _atom_site_symmetry_multiplicity
 _atom_site_fract_x
 _atom_site_fract_y
 _atom_site_fract_z
 _atom_site_occupancy
  Er  Er0  1  0.996064  0.347814  0.214489  1
  Er  Er1  1  0.003913  0.652617  0.714130  1
  Er  Er2  1  0.495357  0.153638  0.534460  1
  Er  Er3  1  0.503154  0.847429  0.036848  1
  Er  Er4  1  0.651899  0.003691  0.287034  1
  Er  Er5  1  0.348120  0.996064  0.785299  1
  Er  Er6  1  0.846983  0.504133  0.963833  1
  Zr  Zr7  1  0.176951  0.176676  0.000050  1
  Zr  Zr8  1  0.825581  0.822514  0.499866  1
  Zr  Zr9  1  0.676867  0.323526  0.749267  1
  Zr  Zr10  1  0.321867  0.674573  0.251510  1
  Zr  Zr11  1  0.146950  0.501158  0.461600  1
  Zr  Zr12  1  0.999508  0.145485  0.623074  1
  Zr  Zr13  1  0.003166  0.854127  0.125421  1
  Zr  Zr14  1  0.496358  0.353684  0.126928  1
  Zr  Zr15  1  0.504260  0.643304  0.623718  1
  Zr  Zr16  1  0.853610  0.003135  0.875259  1
  Zr  Zr17  1  0.145825  0.997187  0.376490  1
  Zr  Zr18  1  0.646429  0.502580  0.375166  1
  Zr  Zr19  1  0.354350  0.497051  0.874198  1
  Si  Si20  1  0.292939  0.358884  0.679330  1
  Si  Si21  1  0.706476  0.641127  0.183397  1
  Si  Si22  1  0.794159  0.141427  0.067482  1
  Si  Si23  1  0.204312  0.852832  0.566659  1
  Si  Si24  1  0.641796  0.705753  0.816557  1
  Si  Si25  1  0.353973  0.297645  0.321487  1
  Si  Si26  1  0.861328  0.209476  0.431933  1
  Si  Si27  1  0.142048  0.795129  0.932680  1
  Si  Si28  1  0.052200  0.295595  0.812127  1
  Si  Si29  1  0.950265  0.701597  0.314578  1
  Si  Si30  1  0.552000  0.204512  0.937329  1
  Si  Si31  1  0.445559  0.793623  0.437630  1
  Si  Si32  1  0.704677  0.947946  0.686733  1
  Si  Si33  1  0.295327  0.052579  0.188395  1
  Si  Si34  1  0.801213  0.449131  0.562197  1
  Si  Si35  1  0.204515  0.552363  0.062852  1
