# generated using pymatgen
data_Ho13Tm7CoBi8Os3
_symmetry_space_group_name_H-M   'P 1'
_cell_length_a   7.92133802
_cell_length_b   8.98206817
_cell_length_c   12.42978293
_cell_angle_alpha   89.98368739
_cell_angle_beta   89.80439666
_cell_angle_gamma   90.01545837
_symmetry_Int_Tables_number   1
_chemical_formula_structural   Ho13Tm7CoBi8Os3
_chemical_formula_sum   'Ho13 Tm7 Co1 Bi8 Os3'
_cell_volume   884.37380985
_cell_formula_units_Z   1
loop_
 _symmetry_equiv_pos_site_id
 _symmetry_equiv_pos_as_xyz
  1  'x, y, z'
loop_
 _atom_site_type_symbol
 _atom_site_label
 _atom_site_symmetry_multiplicity
 _atom_site_fract_x
 _atom_site_fract_y
 _atom_site_fract_z
 _atom_site_occupancy
  Ho  Ho0  1  0.344922  0.749907  0.701328  1
  Ho  Ho1  1  0.658245  0.250060  0.292004  1
  Ho  Ho2  1  0.841997  0.250272  0.790723  1
  Ho  Ho3  1  0.156417  0.749938  0.206972  1
  Ho  Ho4  1  0.879034  0.749651  0.806635  1
  Ho  Ho5  1  0.119723  0.250476  0.192934  1
  Ho  Ho6  1  0.378454  0.250067  0.691893  1
  Ho  Ho7  1  0.616104  0.749968  0.314307  1
  Ho  Ho8  1  0.174038  0.042539  0.936004  1
  Ho  Ho9  1  0.057673  0.749979  0.496529  1
  Ho  Ho10  1  0.944052  0.250078  0.503211  1
  Ho  Ho11  1  0.558963  0.250354  0.003766  1
  Ho  Ho12  1  0.441877  0.749453  0.995597  1
  Tm  Tm13  1  0.672871  0.542173  0.563540  1
  Tm  Tm14  1  0.327722  0.459868  0.437082  1
  Tm  Tm15  1  0.172222  0.457177  0.936031  1
  Tm  Tm16  1  0.327634  0.040237  0.437134  1
  Tm  Tm17  1  0.826542  0.543550  0.064267  1
  Tm  Tm18  1  0.672916  0.957790  0.563477  1
  Tm  Tm19  1  0.826139  0.956476  0.064351  1
  Co  Co20  1  0.430656  0.750019  0.492080  1
  Bi  Bi21  1  0.568697  0.508248  0.827264  1
  Bi  Bi22  1  0.430875  0.492882  0.173113  1
  Bi  Bi23  1  0.070147  0.492593  0.671768  1
  Bi  Bi24  1  0.430685  0.007180  0.172964  1
  Bi  Bi25  1  0.930729  0.508695  0.328663  1
  Bi  Bi26  1  0.569536  0.991622  0.827116  1
  Bi  Bi27  1  0.930790  0.991409  0.328589  1
  Bi  Bi28  1  0.069982  0.007413  0.671676  1
  Os  Os29  1  0.073736  0.749459  0.989935  1
  Os  Os30  1  0.923620  0.250478  0.009755  1
  Os  Os31  1  0.573005  0.249991  0.509293  1
