# generated using pymatgen
data_DyY7Er2(SiB4)4
_symmetry_space_group_name_H-M   'P 1'
_cell_length_a   7.22823902
_cell_length_b   7.22816602
_cell_length_c   8.08051600
_cell_angle_alpha   90.00191629
_cell_angle_beta   89.99785928
_cell_angle_gamma   89.99216844
_symmetry_Int_Tables_number   1
_chemical_formula_structural   DyY7Er2(SiB4)4
_chemical_formula_sum   'Dy1 Y7 Er2 Si4 B16'
_cell_volume   422.18200112
_cell_formula_units_Z   1
loop_
 _symmetry_equiv_pos_site_id
 _symmetry_equiv_pos_as_xyz
  1  'x, y, z'
loop_
 _atom_site_type_symbol
 _atom_site_label
 _atom_site_symmetry_multiplicity
 _atom_site_fract_x
 _atom_site_fract_y
 _atom_site_fract_z
 _atom_site_occupancy
  Dy  Dy0  1  0.180382  0.319618  0.224284  1
  Y  Y1  1  0.680183  0.180240  0.224587  1
  Y  Y2  1  0.319784  0.819763  0.775406  1
  Y  Y3  1  0.319758  0.819820  0.224592  1
  Y  Y4  1  0.819723  0.680279  0.224512  1
  Y  Y5  1  0.819679  0.680310  0.775448  1
  Y  Y6  1  0.680237  0.180214  0.775408  1
  Y  Y7  1  0.180345  0.319645  0.775397  1
  Er  Er8  1  0.000038  0.000035  0.499961  1
  Er  Er9  1  0.500019  0.499965  0.499930  1
  Si  Si10  1  0.115426  0.615318  0.499885  1
  Si  Si11  1  0.884682  0.384571  0.499887  1
  Si  Si12  1  0.384615  0.115385  0.499884  1
  Si  Si13  1  0.615309  0.884687  0.500001  1
  B  B14  1  0.172237  0.039240  0.000072  1
  B  B15  1  0.827767  0.960910  0.999987  1
  B  B16  1  0.961144  0.172330  0.000116  1
  B  B17  1  0.327669  0.538859  0.000117  1
  B  B18  1  0.039034  0.827755  0.999995  1
  B  B19  1  0.672246  0.460962  0.999997  1
  B  B20  1  0.539088  0.672231  0.999986  1
  B  B21  1  0.460757  0.327760  0.000072  1
  B  B22  1  0.089762  0.589634  0.000151  1
  B  B23  1  0.910361  0.410242  0.000151  1
  B  B24  1  0.410023  0.089971  0.000126  1
  B  B25  1  0.589859  0.910145  0.000008  1
  B  B26  1  0.000108  0.000194  0.162419  1
  B  B27  1  0.999947  0.999980  0.837602  1
  B  B28  1  0.500015  0.500050  0.837601  1
  B  B29  1  0.499804  0.499890  0.162419  1
