# generated using pymatgen
data_Zr4Al2CrRe5
_symmetry_space_group_name_H-M   'P 1'
_cell_length_a   5.25941300
_cell_length_b   5.22683574
_cell_length_c   8.65403800
_cell_angle_alpha   90.00000000
_cell_angle_beta   90.00000000
_cell_angle_gamma   120.20637187
_symmetry_Int_Tables_number   1
_chemical_formula_structural   Zr4Al2CrRe5
_chemical_formula_sum   'Zr4 Al2 Cr1 Re5'
_cell_volume   205.59789451
_cell_formula_units_Z   1
loop_
 _symmetry_equiv_pos_site_id
 _symmetry_equiv_pos_as_xyz
  1  'x, y, z'
loop_
 _atom_site_type_symbol
 _atom_site_label
 _atom_site_symmetry_multiplicity
 _atom_site_fract_x
 _atom_site_fract_y
 _atom_site_fract_z
 _atom_site_occupancy
  Zr  Zr0  1  0.333272  0.666545  0.435966  1
  Zr  Zr1  1  0.666678  0.333355  0.933948  1
  Zr  Zr2  1  0.666678  0.333355  0.566052  1
  Zr  Zr3  1  0.333272  0.666545  0.064034  1
  Al  Al4  1  0.002254  0.004507  0.995748  1
  Al  Al5  1  0.002254  0.004507  0.504252  1
  Cr  Cr6  1  0.170349  0.340697  0.750000  1
  Re  Re7  1  0.830141  0.169389  0.250000  1
  Re  Re8  1  0.339248  0.169389  0.250000  1
  Re  Re9  1  0.656048  0.825682  0.750000  1
  Re  Re10  1  0.830172  0.660346  0.250000  1
  Re  Re11  1  0.169636  0.825682  0.750000  1
