# generated using pymatgen
data_PuSc2Ni9
_symmetry_space_group_name_H-M   'P 1'
_cell_length_a   8.44068604
_cell_length_b   8.44068628
_cell_length_c   8.44068681
_cell_angle_alpha   33.72459560
_cell_angle_beta   33.72459199
_cell_angle_gamma   33.72459452
_symmetry_Int_Tables_number   1
_chemical_formula_structural   PuSc2Ni9
_chemical_formula_sum   'Pu1 Sc2 Ni9'
_cell_volume   165.15708692
_cell_formula_units_Z   1
loop_
 _symmetry_equiv_pos_site_id
 _symmetry_equiv_pos_as_xyz
  1  'x, y, z'
loop_
 _atom_site_type_symbol
 _atom_site_label
 _atom_site_symmetry_multiplicity
 _atom_site_fract_x
 _atom_site_fract_y
 _atom_site_fract_z
 _atom_site_occupancy
  Pu  Pu0  1  0.000000  0.000000  0.000000  1
  Sc  Sc1  1  0.141121  0.141121  0.141121  1
  Sc  Sc2  1  0.858879  0.858879  0.858879  1
  Ni  Ni3  1  0.413573  0.413573  0.918178  1
  Ni  Ni4  1  0.413573  0.918178  0.413573  1
  Ni  Ni5  1  0.666675  0.666675  0.666675  1
  Ni  Ni6  1  0.586427  0.586427  0.081822  1
  Ni  Ni7  1  0.918178  0.413573  0.413573  1
  Ni  Ni8  1  0.500000  0.500000  0.500000  1
  Ni  Ni9  1  0.586427  0.081822  0.586427  1
  Ni  Ni10  1  0.333325  0.333325  0.333325  1
  Ni  Ni11  1  0.081822  0.586427  0.586427  1
