# generated using pymatgen
data_Nd2Tm2LuPt4
_symmetry_space_group_name_H-M   'P 1'
_cell_length_a   7.59759200
_cell_length_b   7.69449500
_cell_length_c   14.48645700
_cell_angle_alpha   90.00000000
_cell_angle_beta   90.00000000
_cell_angle_gamma   90.00000000
_symmetry_Int_Tables_number   1
_chemical_formula_structural   Nd2Tm2LuPt4
_chemical_formula_sum   'Nd8 Tm8 Lu4 Pt16'
_cell_volume   846.87296919
_cell_formula_units_Z   4
loop_
 _symmetry_equiv_pos_site_id
 _symmetry_equiv_pos_as_xyz
  1  'x, y, z'
loop_
 _atom_site_type_symbol
 _atom_site_label
 _atom_site_symmetry_multiplicity
 _atom_site_fract_x
 _atom_site_fract_y
 _atom_site_fract_z
 _atom_site_occupancy
  Nd  Nd0  1  0.485185  0.671334  0.597907  1
  Nd  Nd1  1  0.985185  0.828666  0.902093  1
  Nd  Nd2  1  0.514815  0.328666  0.097907  1
  Nd  Nd3  1  0.014815  0.171334  0.402093  1
  Nd  Nd4  1  0.514815  0.328666  0.402093  1
  Nd  Nd5  1  0.014815  0.171334  0.097907  1
  Nd  Nd6  1  0.485185  0.671334  0.902093  1
  Nd  Nd7  1  0.985185  0.828666  0.597907  1
  Tm  Tm8  1  0.643895  0.166223  0.622515  1
  Tm  Tm9  1  0.143895  0.333777  0.877485  1
  Tm  Tm10  1  0.356105  0.833777  0.122515  1
  Tm  Tm11  1  0.856105  0.666223  0.377485  1
  Tm  Tm12  1  0.356105  0.833777  0.377485  1
  Tm  Tm13  1  0.856105  0.666223  0.122515  1
  Tm  Tm14  1  0.643895  0.166223  0.877485  1
  Tm  Tm15  1  0.143895  0.333777  0.622515  1
  Lu  Lu16  1  0.806400  0.505835  0.750000  1
  Lu  Lu17  1  0.306400  0.994165  0.750000  1
  Lu  Lu18  1  0.193600  0.494165  0.250000  1
  Lu  Lu19  1  0.693600  0.005835  0.250000  1
  Pt  Pt20  1  0.687956  0.964532  0.455262  1
  Pt  Pt21  1  0.187956  0.535468  0.044738  1
  Pt  Pt22  1  0.312044  0.035468  0.955262  1
  Pt  Pt23  1  0.812044  0.464532  0.544738  1
  Pt  Pt24  1  0.312044  0.035468  0.544738  1
  Pt  Pt25  1  0.812044  0.464532  0.955262  1
  Pt  Pt26  1  0.687956  0.964532  0.044738  1
  Pt  Pt27  1  0.187956  0.535468  0.455262  1
  Pt  Pt28  1  0.437864  0.371870  0.750000  1
  Pt  Pt29  1  0.937864  0.128130  0.750000  1
  Pt  Pt30  1  0.562136  0.628130  0.250000  1
  Pt  Pt31  1  0.062136  0.871870  0.250000  1
  Pt  Pt32  1  0.669168  0.863799  0.750000  1
  Pt  Pt33  1  0.169168  0.636201  0.750000  1
  Pt  Pt34  1  0.330832  0.136201  0.250000  1
  Pt  Pt35  1  0.830832  0.363799  0.250000  1
