# generated using pymatgen
data_Ce2Gd4PbO12
_symmetry_space_group_name_H-M   'P 1'
_cell_length_a   6.66207138
_cell_length_b   6.68933459
_cell_length_c   6.66407534
_cell_angle_alpha   99.16087738
_cell_angle_beta   99.21149909
_cell_angle_gamma   99.44974907
_symmetry_Int_Tables_number   1
_chemical_formula_structural   Ce2Gd4PbO12
_chemical_formula_sum   'Ce2 Gd4 Pb1 O12'
_cell_volume   283.87991467
_cell_formula_units_Z   1
loop_
 _symmetry_equiv_pos_site_id
 _symmetry_equiv_pos_as_xyz
  1  'x, y, z'
loop_
 _atom_site_type_symbol
 _atom_site_label
 _atom_site_symmetry_multiplicity
 _atom_site_fract_x
 _atom_site_fract_y
 _atom_site_fract_z
 _atom_site_occupancy
  Ce  Ce0  1  0.866403  0.397628  0.696675  1
  Ce  Ce1  1  0.602388  0.304941  0.140231  1
  Gd  Gd2  1  0.300045  0.133286  0.604627  1
  Gd  Gd3  1  0.695499  0.859270  0.393831  1
  Gd  Gd4  1  0.394811  0.700388  0.859676  1
  Gd  Gd5  1  0.142184  0.609245  0.305151  1
  Pb  Pb6  1  0.996878  0.001084  0.002221  1
  O  O7  1  0.930778  0.060852  0.683995  1
  O  O8  1  0.936098  0.320031  0.069162  1
  O  O9  1  0.588801  0.183388  0.428668  1
  O  O10  1  0.820979  0.562690  0.416701  1
  O  O11  1  0.318698  0.073229  0.945807  1
  O  O12  1  0.576860  0.412734  0.822454  1
  O  O13  1  0.435043  0.574386  0.174868  1
  O  O14  1  0.680118  0.932006  0.059827  1
  O  O15  1  0.171950  0.430368  0.589692  1
  O  O16  1  0.415748  0.822140  0.565505  1
  O  O17  1  0.056529  0.681599  0.924819  1
  O  O18  1  0.070190  0.940736  0.316088  1
