# generated using pymatgen
data_Hf7Zr3Sn4(GeSb)2
_symmetry_space_group_name_H-M   'P 1'
_cell_length_a   8.65334365
_cell_length_b   8.66049626
_cell_length_c   5.86112200
_cell_angle_alpha   90.00000000
_cell_angle_beta   90.00000000
_cell_angle_gamma   120.02734702
_symmetry_Int_Tables_number   1
_chemical_formula_structural   Hf7Zr3Sn4(GeSb)2
_chemical_formula_sum   'Hf7 Zr3 Sn4 Ge2 Sb2'
_cell_volume   380.29304244
_cell_formula_units_Z   1
loop_
 _symmetry_equiv_pos_site_id
 _symmetry_equiv_pos_as_xyz
  1  'x, y, z'
loop_
 _atom_site_type_symbol
 _atom_site_label
 _atom_site_symmetry_multiplicity
 _atom_site_fract_x
 _atom_site_fract_y
 _atom_site_fract_z
 _atom_site_occupancy
  Hf  Hf0  1  0.270345  0.270418  0.250000  1
  Hf  Hf1  1  0.729655  0.000072  0.250000  1
  Hf  Hf2  1  0.000000  0.729853  0.250000  1
  Hf  Hf3  1  0.665657  0.332661  0.001784  1
  Hf  Hf4  1  0.334343  0.667005  0.001784  1
  Hf  Hf5  1  0.334343  0.667005  0.498216  1
  Hf  Hf6  1  0.665657  0.332661  0.498216  1
  Zr  Zr7  1  0.740339  0.740683  0.750000  1
  Zr  Zr8  1  0.259661  0.000343  0.750000  1
  Zr  Zr9  1  0.000000  0.258706  0.750000  1
  Sn  Sn10  1  0.000000  0.603643  0.750000  1
  Sn  Sn11  1  0.611647  0.611146  0.250000  1
  Sn  Sn12  1  0.388353  0.999499  0.250000  1
  Sn  Sn13  1  0.000000  0.389967  0.250000  1
  Ge  Ge14  1  0.000000  0.999550  0.011888  1
  Ge  Ge15  1  0.000000  0.999550  0.488112  1
  Sb  Sb16  1  0.397460  0.397351  0.750000  1
  Sb  Sb17  1  0.602540  0.999891  0.750000  1
