# generated using pymatgen
data_Pr2ErSbO7
_symmetry_space_group_name_H-M   'P 1'
_cell_length_a   6.48828562
_cell_length_b   6.78879699
_cell_length_c   7.64425200
_cell_angle_alpha   106.38772908
_cell_angle_beta   89.63643970
_cell_angle_gamma   98.94536504
_symmetry_Int_Tables_number   1
_chemical_formula_structural   Pr2ErSbO7
_chemical_formula_sum   'Pr4 Er2 Sb2 O14'
_cell_volume   318.85300780
_cell_formula_units_Z   2
loop_
 _symmetry_equiv_pos_site_id
 _symmetry_equiv_pos_as_xyz
  1  'x, y, z'
loop_
 _atom_site_type_symbol
 _atom_site_label
 _atom_site_symmetry_multiplicity
 _atom_site_fract_x
 _atom_site_fract_y
 _atom_site_fract_z
 _atom_site_occupancy
  Pr  Pr0  1  0.263449  0.539135  0.883925  1
  Pr  Pr1  1  0.736551  0.460865  0.116075  1
  Pr  Pr2  1  0.741794  0.469160  0.614650  1
  Pr  Pr3  1  0.258206  0.530840  0.385350  1
  Er  Er4  1  0.539159  0.995449  0.747501  1
  Er  Er5  1  0.460841  0.004551  0.252499  1
  Sb  Sb6  1  0.000000  0.000000  0.500000  1
  Sb  Sb7  1  0.000000  0.000000  0.000000  1
  O  O8  1  0.447922  0.663297  0.169265  1
  O  O9  1  0.552078  0.336703  0.830735  1
  O  O10  1  0.292818  0.946097  0.953703  1
  O  O11  1  0.707182  0.053903  0.046297  1
  O  O12  1  0.290743  0.944560  0.519514  1
  O  O13  1  0.709257  0.055440  0.480486  1
  O  O14  1  0.537415  0.345419  0.339078  1
  O  O15  1  0.462585  0.654581  0.660922  1
  O  O16  1  0.924653  0.684476  0.941478  1
  O  O17  1  0.075347  0.315524  0.058522  1
  O  O18  1  0.075962  0.319254  0.599907  1
  O  O19  1  0.924038  0.680746  0.400093  1
  O  O20  1  0.899875  0.959894  0.739658  1
  O  O21  1  0.100125  0.040106  0.260342  1
