# generated using pymatgen
data_Hf8Fe7Si14Os
_symmetry_space_group_name_H-M   'P 1'
_cell_length_a   9.54122521
_cell_length_b   9.53975938
_cell_length_c   9.56628418
_cell_angle_alpha   94.02274818
_cell_angle_beta   94.05609900
_cell_angle_gamma   149.17177671
_symmetry_Int_Tables_number   1
_chemical_formula_structural   Hf8Fe7Si14Os
_chemical_formula_sum   'Hf8 Fe7 Si14 Os1'
_cell_volume   430.26421243
_cell_formula_units_Z   1
loop_
 _symmetry_equiv_pos_site_id
 _symmetry_equiv_pos_as_xyz
  1  'x, y, z'
loop_
 _atom_site_type_symbol
 _atom_site_label
 _atom_site_symmetry_multiplicity
 _atom_site_fract_x
 _atom_site_fract_y
 _atom_site_fract_z
 _atom_site_occupancy
  Hf  Hf0  1  0.137856  0.137767  0.275624  1
  Hf  Hf1  1  0.861614  0.861540  0.723139  1
  Hf  Hf2  1  0.136211  0.860672  0.998962  1
  Hf  Hf3  1  0.862788  0.138251  0.998949  1
  Hf  Hf4  1  0.303934  0.498164  0.802694  1
  Hf  Hf5  1  0.696241  0.500847  0.196487  1
  Hf  Hf6  1  0.500211  0.695533  0.196410  1
  Hf  Hf7  1  0.498765  0.304461  0.802623  1
  Fe  Fe8  1  0.396933  0.896990  0.793818  1
  Fe  Fe9  1  0.899017  0.100667  0.501480  1
  Fe  Fe10  1  0.602500  0.400817  0.501481  1
  Fe  Fe11  1  0.601451  0.101518  0.202947  1
  Fe  Fe12  1  0.898003  0.398065  0.796145  1
  Fe  Fe13  1  0.102666  0.900071  0.500812  1
  Fe  Fe14  1  0.398119  0.600673  0.500803  1
  Si  Si15  1  0.289808  0.289470  0.579333  1
  Si  Si16  1  0.710439  0.710106  0.420495  1
  Si  Si17  1  0.297903  0.714198  0.993921  1
  Si  Si18  1  0.695999  0.279714  0.993921  1
  Si  Si19  1  0.090616  0.496886  0.590682  1
  Si  Si20  1  0.901266  0.496874  0.416142  1
  Si  Si21  1  0.514746  0.919555  0.415927  1
  Si  Si22  1  0.499646  0.093817  0.590426  1
  Si  Si23  1  0.249114  0.249399  0.999630  1
  Si  Si24  1  0.750543  0.750209  0.999628  1
  Si  Si25  1  0.304467  0.011663  0.301183  1
  Si  Si26  1  0.701798  0.000266  0.700926  1
  Si  Si27  1  0.998977  0.700573  0.700585  1
  Si  Si28  1  0.996382  0.289210  0.300769  1
  Os  Os29  1  0.101983  0.602022  0.204059  1
