# generated using pymatgen
data_Tb7Ce(CoHg)2
_symmetry_space_group_name_H-M   'P 1'
_cell_length_a   9.57948544
_cell_length_b   9.57979662
_cell_length_c   9.39831107
_cell_angle_alpha   60.29732794
_cell_angle_beta   60.30273664
_cell_angle_gamma   59.44416456
_symmetry_Int_Tables_number   1
_chemical_formula_structural   Tb7Ce(CoHg)2
_chemical_formula_sum   'Tb14 Ce2 Co4 Hg4'
_cell_volume   609.97804572
_cell_formula_units_Z   2
loop_
 _symmetry_equiv_pos_site_id
 _symmetry_equiv_pos_as_xyz
  1  'x, y, z'
loop_
 _atom_site_type_symbol
 _atom_site_label
 _atom_site_symmetry_multiplicity
 _atom_site_fract_x
 _atom_site_fract_y
 _atom_site_fract_z
 _atom_site_occupancy
  Tb  Tb0  1  0.193432  0.809022  0.811427  1
  Tb  Tb1  1  0.063350  0.063330  0.437659  1
  Tb  Tb2  1  0.438623  0.057999  0.063388  1
  Tb  Tb3  1  0.809016  0.193463  0.811436  1
  Tb  Tb4  1  0.439987  0.056785  0.442606  1
  Tb  Tb5  1  0.596692  0.204871  0.599826  1
  Tb  Tb6  1  0.813966  0.814013  0.185797  1
  Tb  Tb7  1  0.205054  0.596610  0.599756  1
  Tb  Tb8  1  0.807840  0.187839  0.189989  1
  Tb  Tb9  1  0.056822  0.440027  0.442626  1
  Tb  Tb10  1  0.187746  0.807978  0.189922  1
  Tb  Tb11  1  0.600778  0.600856  0.198582  1
  Tb  Tb12  1  0.182560  0.182596  0.816945  1
  Tb  Tb13  1  0.058021  0.438660  0.063274  1
  Ce  Ce14  1  0.432461  0.432362  0.069646  1
  Ce  Ce15  1  0.594958  0.594987  0.581781  1
  Co  Co16  1  0.401191  0.401196  0.352561  1
  Co  Co17  1  0.816168  0.395518  0.404136  1
  Co  Co18  1  0.395382  0.816122  0.404193  1
  Co  Co19  1  0.404870  0.404726  0.840473  1
  Hg  Hg20  1  0.834122  0.834049  0.496671  1
  Hg  Hg21  1  0.833484  0.833425  0.834190  1
  Hg  Hg22  1  0.497460  0.835994  0.831566  1
  Hg  Hg23  1  0.836016  0.497571  0.831550  1
