# generated using pymatgen
data_Ho4Pa2VCo17P12
_symmetry_space_group_name_H-M   'P 1'
_cell_length_a   3.70465900
_cell_length_b   10.53723000
_cell_length_c   12.14474100
_cell_angle_alpha   90.00000000
_cell_angle_beta   90.00000000
_cell_angle_gamma   90.00000000
_symmetry_Int_Tables_number   1
_chemical_formula_structural   Ho4Pa2VCo17P12
_chemical_formula_sum   'Ho4 Pa2 V1 Co17 P12'
_cell_volume   474.09235929
_cell_formula_units_Z   1
loop_
 _symmetry_equiv_pos_site_id
 _symmetry_equiv_pos_as_xyz
  1  'x, y, z'
loop_
 _atom_site_type_symbol
 _atom_site_label
 _atom_site_symmetry_multiplicity
 _atom_site_fract_x
 _atom_site_fract_y
 _atom_site_fract_z
 _atom_site_occupancy
  Ho  Ho0  1  0.500000  0.816191  0.205282  1
  Ho  Ho1  1  0.500000  0.183809  0.205282  1
  Ho  Ho2  1  0.000000  0.683738  0.796560  1
  Ho  Ho3  1  0.000000  0.316262  0.796560  1
  Pa  Pa4  1  0.000000  0.500000  0.529736  1
  Pa  Pa5  1  0.500000  0.000000  0.470971  1
  V  V6  1  0.500000  0.500000  0.152508  1
  Co  Co7  1  0.000000  0.500000  0.985751  1
  Co  Co8  1  0.500000  0.000000  0.014938  1
  Co  Co9  1  0.500000  0.299961  0.432579  1
  Co  Co10  1  0.500000  0.700039  0.432579  1
  Co  Co11  1  0.000000  0.199231  0.567384  1
  Co  Co12  1  0.000000  0.800769  0.567384  1
  Co  Co13  1  0.500000  0.880006  0.709944  1
  Co  Co14  1  0.500000  0.119994  0.709944  1
  Co  Co15  1  0.000000  0.620190  0.291118  1
  Co  Co16  1  0.000000  0.379810  0.291118  1
  Co  Co17  1  0.500000  0.332768  0.992579  1
  Co  Co18  1  0.500000  0.667232  0.992579  1
  Co  Co19  1  0.000000  0.165744  0.006715  1
  Co  Co20  1  0.000000  0.834256  0.006715  1
  Co  Co21  1  0.000000  0.000000  0.841466  1
  Co  Co22  1  0.500000  0.500000  0.695907  1
  Co  Co23  1  0.000000  0.000000  0.303287  1
  P  P24  1  0.500000  0.307044  0.618057  1
  P  P25  1  0.500000  0.692956  0.618057  1
  P  P26  1  0.000000  0.192501  0.382670  1
  P  P27  1  0.000000  0.807499  0.382670  1
  P  P28  1  0.500000  0.500000  0.878713  1
  P  P29  1  0.000000  0.000000  0.120638  1
  P  P30  1  0.500000  0.848162  0.893113  1
  P  P31  1  0.500000  0.151838  0.893113  1
  P  P32  1  0.000000  0.654896  0.105776  1
  P  P33  1  0.000000  0.345104  0.105776  1
  P  P34  1  0.500000  0.500000  0.345974  1
  P  P35  1  0.000000  0.000000  0.656555  1
