# generated using pymatgen
data_YbIn2(SnIr)4
_symmetry_space_group_name_H-M   'P 1'
_cell_length_a   7.03722662
_cell_length_b   7.03722695
_cell_length_c   6.99653392
_cell_angle_alpha   120.71507391
_cell_angle_beta   120.71507554
_cell_angle_gamma   89.10436855
_symmetry_Int_Tables_number   1
_chemical_formula_structural   YbIn2(SnIr)4
_chemical_formula_sum   'Yb1 In2 Sn4 Ir4'
_cell_volume   241.58351405
_cell_formula_units_Z   1
loop_
 _symmetry_equiv_pos_site_id
 _symmetry_equiv_pos_as_xyz
  1  'x, y, z'
loop_
 _atom_site_type_symbol
 _atom_site_label
 _atom_site_symmetry_multiplicity
 _atom_site_fract_x
 _atom_site_fract_y
 _atom_site_fract_z
 _atom_site_occupancy
  Yb  Yb0  1  0.001514  0.001514  0.000000  1
  In  In1  1  0.459658  0.116654  0.000000  1
  In  In2  1  0.116654  0.459658  0.000000  1
  Sn  Sn3  1  0.880396  0.880396  0.338800  1
  Sn  Sn4  1  0.500086  0.000086  0.500000  1
  Sn  Sn5  1  0.000086  0.500086  0.500000  1
  Sn  Sn6  1  0.541597  0.541597  0.661200  1
  Ir  Ir7  1  0.744437  0.405200  0.000000  1
  Ir  Ir8  1  0.405200  0.744437  0.000000  1
  Ir  Ir9  1  0.605750  0.605750  0.361126  1
  Ir  Ir10  1  0.244623  0.244623  0.638874  1
