# generated using pymatgen
data_Pa3Ni3Sn3Sb
_symmetry_space_group_name_H-M   'P 1'
_cell_length_a   8.16169709
_cell_length_b   8.15879765
_cell_length_c   8.16000367
_cell_angle_alpha   109.44104998
_cell_angle_beta   109.45545727
_cell_angle_gamma   109.51835914
_symmetry_Int_Tables_number   1
_chemical_formula_structural   Pa3Ni3Sn3Sb
_chemical_formula_sum   'Pa6 Ni6 Sn6 Sb2'
_cell_volume   418.28132431
_cell_formula_units_Z   2
loop_
 _symmetry_equiv_pos_site_id
 _symmetry_equiv_pos_as_xyz
  1  'x, y, z'
loop_
 _atom_site_type_symbol
 _atom_site_label
 _atom_site_symmetry_multiplicity
 _atom_site_fract_x
 _atom_site_fract_y
 _atom_site_fract_z
 _atom_site_occupancy
  Pa  Pa0  1  0.624689  0.374621  0.248563  1
  Pa  Pa1  1  0.374417  0.250425  0.626118  1
  Pa  Pa2  1  0.125686  0.749582  0.873886  1
  Pa  Pa3  1  0.751800  0.875697  0.126114  1
  Pa  Pa4  1  0.248299  0.624306  0.373882  1
  Pa  Pa5  1  0.876126  0.126057  0.751437  1
  Ni  Ni6  1  0.874022  0.249243  0.125157  1
  Ni  Ni7  1  0.376005  0.625496  0.750287  1
  Ni  Ni8  1  0.624531  0.749911  0.375421  1
  Ni  Ni9  1  0.749110  0.374490  0.624579  1
  Ni  Ni10  1  0.248865  0.124087  0.874843  1
  Ni  Ni11  1  0.125718  0.875209  0.249713  1
  Sn  Sn12  1  0.500208  0.000863  0.832240  1
  Sn  Sn13  1  0.167967  0.168623  0.167760  1
  Sn  Sn14  1  0.832996  0.499987  0.000700  1
  Sn  Sn15  1  0.000939  0.833263  0.500040  1
  Sn  Sn16  1  0.332296  0.499287  0.999300  1
  Sn  Sn17  1  0.000899  0.333223  0.499960  1
  Sb  Sb18  1  0.500033  0.000135  0.334640  1
  Sb  Sb19  1  0.665393  0.665495  0.665360  1
