# generated using pymatgen
data_Sc9Re4O3
_symmetry_space_group_name_H-M   'P 1'
_cell_length_a   8.56704000
_cell_length_b   8.56703976
_cell_length_c   8.38477100
_cell_angle_alpha   90.00000000
_cell_angle_beta   90.00000000
_cell_angle_gamma   120.00000092
_symmetry_Int_Tables_number   1
_chemical_formula_structural   Sc9Re4O3
_chemical_formula_sum   'Sc18 Re8 O6'
_cell_volume   532.94625011
_cell_formula_units_Z   2
loop_
 _symmetry_equiv_pos_site_id
 _symmetry_equiv_pos_as_xyz
  1  'x, y, z'
loop_
 _atom_site_type_symbol
 _atom_site_label
 _atom_site_symmetry_multiplicity
 _atom_site_fract_x
 _atom_site_fract_y
 _atom_site_fract_z
 _atom_site_occupancy
  Sc  Sc0  1  0.457001  0.914002  0.250000  1
  Sc  Sc1  1  0.542999  0.085998  0.750000  1
  Sc  Sc2  1  0.085998  0.542999  0.250000  1
  Sc  Sc3  1  0.914002  0.457001  0.750000  1
  Sc  Sc4  1  0.457001  0.542999  0.250000  1
  Sc  Sc5  1  0.542999  0.457001  0.750000  1
  Sc  Sc6  1  0.202418  0.404834  0.549918  1
  Sc  Sc7  1  0.797582  0.595166  0.450082  1
  Sc  Sc8  1  0.595166  0.797582  0.549918  1
  Sc  Sc9  1  0.797582  0.595166  0.049918  1
  Sc  Sc10  1  0.404834  0.202418  0.450082  1
  Sc  Sc11  1  0.202418  0.404834  0.950082  1
  Sc  Sc12  1  0.202418  0.797582  0.549918  1
  Sc  Sc13  1  0.404834  0.202418  0.049918  1
  Sc  Sc14  1  0.797582  0.202418  0.450082  1
  Sc  Sc15  1  0.595166  0.797582  0.950082  1
  Sc  Sc16  1  0.797582  0.202418  0.049918  1
  Sc  Sc17  1  0.202418  0.797582  0.950082  1
  Re  Re18  1  0.106394  0.212787  0.250000  1
  Re  Re19  1  0.893606  0.787213  0.750000  1
  Re  Re20  1  0.787213  0.893606  0.250000  1
  Re  Re21  1  0.212787  0.106394  0.750000  1
  Re  Re22  1  0.106394  0.893606  0.250000  1
  Re  Re23  1  0.893606  0.106394  0.750000  1
  Re  Re24  1  0.000000  0.000000  0.000000  1
  Re  Re25  1  0.000000  0.000000  0.500000  1
  O  O26  1  0.500000  0.000000  0.000000  1
  O  O27  1  0.000000  0.500000  0.000000  1
  O  O28  1  0.500000  0.000000  0.500000  1
  O  O29  1  0.500000  0.500000  0.000000  1
  O  O30  1  0.000000  0.500000  0.500000  1
  O  O31  1  0.500000  0.500000  0.500000  1
