# generated using pymatgen
data_Cd4Ag3NO11
_symmetry_space_group_name_H-M   'P 1'
_cell_length_a   7.25797233
_cell_length_b   7.19754388
_cell_length_c   7.19754387
_cell_angle_alpha   59.86989246
_cell_angle_beta   61.00915163
_cell_angle_gamma   61.00914970
_symmetry_Int_Tables_number   1
_chemical_formula_structural   Cd4Ag3NO11
_chemical_formula_sum   'Cd4 Ag3 N1 O11'
_cell_volume   269.57915268
_cell_formula_units_Z   1
loop_
 _symmetry_equiv_pos_site_id
 _symmetry_equiv_pos_as_xyz
  1  'x, y, z'
loop_
 _atom_site_type_symbol
 _atom_site_label
 _atom_site_symmetry_multiplicity
 _atom_site_fract_x
 _atom_site_fract_y
 _atom_site_fract_z
 _atom_site_occupancy
  Cd  Cd0  1  0.000113  0.000537  0.000537  1
  Cd  Cd1  1  0.496676  0.001743  0.001743  1
  Cd  Cd2  1  0.498275  0.500569  0.999814  1
  Cd  Cd3  1  0.498275  0.999814  0.500569  1
  Ag  Ag4  1  0.999088  0.000415  0.501296  1
  Ag  Ag5  1  0.998737  0.500773  0.500773  1
  Ag  Ag6  1  0.999088  0.501296  0.000415  1
  N  N7  1  0.505107  0.497052  0.497052  1
  O  O8  1  0.600684  0.133874  0.133874  1
  O  O9  1  0.110054  0.579638  0.157607  1
  O  O10  1  0.110662  0.155894  0.155894  1
  O  O11  1  0.110054  0.157607  0.579638  1
  O  O12  1  0.533386  0.591313  0.286110  1
  O  O13  1  0.533386  0.286110  0.591313  1
  O  O14  1  0.448958  0.613134  0.613134  1
  O  O15  1  0.887982  0.843926  0.421919  1
  O  O16  1  0.887982  0.421919  0.843926  1
  O  O17  1  0.886284  0.846471  0.846471  1
  O  O18  1  0.395210  0.867913  0.867913  1
