# generated using pymatgen
data_Zr2Tc6P7Rh6
_symmetry_space_group_name_H-M   'P 1'
_cell_length_a   9.44222398
_cell_length_b   9.49582437
_cell_length_c   3.91853600
_cell_angle_alpha   90.00000000
_cell_angle_beta   90.00000000
_cell_angle_gamma   120.55383142
_symmetry_Int_Tables_number   1
_chemical_formula_structural   Zr2Tc6P7Rh6
_chemical_formula_sum   'Zr2 Tc6 P7 Rh6'
_cell_volume   302.55935940
_cell_formula_units_Z   1
loop_
 _symmetry_equiv_pos_site_id
 _symmetry_equiv_pos_as_xyz
  1  'x, y, z'
loop_
 _atom_site_type_symbol
 _atom_site_label
 _atom_site_symmetry_multiplicity
 _atom_site_fract_x
 _atom_site_fract_y
 _atom_site_fract_z
 _atom_site_occupancy
  Zr  Zr0  1  0.682958  0.342630  0.000000  1
  Zr  Zr1  1  0.327844  0.664093  0.500000  1
  Tc  Tc2  1  0.836110  0.112452  0.000000  1
  Tc  Tc3  1  0.882199  0.726298  0.000000  1
  Tc  Tc4  1  0.952678  0.557611  0.500000  1
  Tc  Tc5  1  0.092956  0.221176  0.500000  1
  Tc  Tc6  1  0.774498  0.870290  0.500000  1
  Tc  Tc7  1  0.125601  0.911690  0.500000  1
  P  P8  1  0.296526  0.413276  0.000000  1
  P  P9  1  0.581711  0.881111  0.000000  1
  P  P10  1  0.111293  0.696868  0.000000  1
  P  P11  1  0.405291  0.121383  0.500000  1
  P  P12  1  0.877502  0.281701  0.500000  1
  P  P13  1  0.723553  0.594323  0.500000  1
  P  P14  1  0.999922  0.002611  0.000000  1
  Rh  Rh15  1  0.074083  0.436042  0.000000  1
  Rh  Rh16  1  0.557719  0.632922  0.000000  1
  Rh  Rh17  1  0.362074  0.924015  0.000000  1
  Rh  Rh18  1  0.281319  0.163454  0.000000  1
  Rh  Rh19  1  0.449531  0.392582  0.500000  1
  Rh  Rh20  1  0.604631  0.053470  0.500000  1
