# generated using pymatgen
data_Sr2ZnCo3(AsO4)4
_symmetry_space_group_name_H-M   'P 1'
_cell_length_a   9.90509900
_cell_length_b   8.75090542
_cell_length_c   9.46751296
_cell_angle_alpha   88.38529433
_cell_angle_beta   90.00000000
_cell_angle_gamma   90.00000000
_symmetry_Int_Tables_number   1
_chemical_formula_structural   Sr2ZnCo3(AsO4)4
_chemical_formula_sum   'Sr4 Zn2 Co6 As8 O32'
_cell_volume   820.30476325
_cell_formula_units_Z   2
loop_
 _symmetry_equiv_pos_site_id
 _symmetry_equiv_pos_as_xyz
  1  'x, y, z'
loop_
 _atom_site_type_symbol
 _atom_site_label
 _atom_site_symmetry_multiplicity
 _atom_site_fract_x
 _atom_site_fract_y
 _atom_site_fract_z
 _atom_site_occupancy
  Sr  Sr0  1  0.917214  0.249789  0.615373  1
  Sr  Sr1  1  0.417214  0.750211  0.884627  1
  Sr  Sr2  1  0.083124  0.750409  0.384994  1
  Sr  Sr3  1  0.583124  0.249591  0.115006  1
  Zn  Zn4  1  0.073662  0.926578  0.779292  1
  Zn  Zn5  1  0.573662  0.073422  0.720708  1
  Co  Co6  1  0.685026  0.574784  0.452566  1
  Co  Co7  1  0.185026  0.425216  0.047434  1
  Co  Co8  1  0.315012  0.424936  0.547515  1
  Co  Co9  1  0.815012  0.575064  0.952485  1
  Co  Co10  1  0.926915  0.073295  0.222526  1
  Co  Co11  1  0.426915  0.926705  0.277474  1
  As  As12  1  0.416409  0.558119  0.249511  1
  As  As13  1  0.916409  0.441881  0.250489  1
  As  As14  1  0.583572  0.441388  0.750628  1
  As  As15  1  0.083572  0.558612  0.749372  1
  As  As16  1  0.204269  0.048560  0.062955  1
  As  As17  1  0.704269  0.951440  0.437045  1
  As  As18  1  0.795735  0.951489  0.936971  1
  As  As19  1  0.295735  0.048511  0.563029  1
  O  O20  1  0.429413  0.736795  0.167759  1
  O  O21  1  0.929413  0.263205  0.332241  1
  O  O22  1  0.569232  0.263095  0.832619  1
  O  O23  1  0.069232  0.736905  0.667381  1
  O  O24  1  0.634447  0.783489  0.497529  1
  O  O25  1  0.134447  0.216511  0.002471  1
  O  O26  1  0.364811  0.216515  0.501644  1
  O  O27  1  0.864811  0.783485  0.998356  1
  O  O28  1  0.702074  0.432065  0.618249  1
  O  O29  1  0.202074  0.567935  0.881751  1
  O  O30  1  0.297947  0.567609  0.381888  1
  O  O31  1  0.797947  0.432391  0.118112  1
  O  O32  1  0.706957  0.084849  0.568092  1
  O  O33  1  0.206957  0.915151  0.931908  1
  O  O34  1  0.293908  0.915130  0.432139  1
  O  O35  1  0.793908  0.084870  0.067861  1
  O  O36  1  0.874670  0.565224  0.382883  1
  O  O37  1  0.374670  0.434776  0.117117  1
  O  O38  1  0.125343  0.435105  0.617133  1
  O  O39  1  0.625343  0.564895  0.882867  1
  O  O40  1  0.897079  0.025933  0.802539  1
  O  O41  1  0.397079  0.974067  0.697461  1
  O  O42  1  0.102731  0.973063  0.196842  1
  O  O43  1  0.602731  0.026937  0.303158  1
  O  O44  1  0.935111  0.480804  0.812101  1
  O  O45  1  0.435111  0.519196  0.687899  1
  O  O46  1  0.065076  0.519378  0.187953  1
  O  O47  1  0.565076  0.480622  0.312047  1
  O  O48  1  0.631358  0.930626  0.879858  1
  O  O49  1  0.131358  0.069374  0.620142  1
  O  O50  1  0.368906  0.069300  0.119857  1
  O  O51  1  0.868906  0.930700  0.380143  1
