# generated using pymatgen
data_TbHo2Al7Pd2
_symmetry_space_group_name_H-M   'P 1'
_cell_length_a   9.21808221
_cell_length_b   9.21808136
_cell_length_c   9.21808201
_cell_angle_alpha   34.86282462
_cell_angle_beta   34.86283426
_cell_angle_gamma   34.86283171
_symmetry_Int_Tables_number   1
_chemical_formula_structural   TbHo2Al7Pd2
_chemical_formula_sum   'Tb1 Ho2 Al7 Pd2'
_cell_volume   228.46451165
_cell_formula_units_Z   1
loop_
 _symmetry_equiv_pos_site_id
 _symmetry_equiv_pos_as_xyz
  1  'x, y, z'
loop_
 _atom_site_type_symbol
 _atom_site_label
 _atom_site_symmetry_multiplicity
 _atom_site_fract_x
 _atom_site_fract_y
 _atom_site_fract_z
 _atom_site_occupancy
  Tb  Tb0  1  0.000000  0.000000  0.000000  1
  Ho  Ho1  1  0.142997  0.142997  0.142997  1
  Ho  Ho2  1  0.857003  0.857003  0.857003  1
  Al  Al3  1  0.582946  0.582946  0.073253  1
  Al  Al4  1  0.926747  0.417055  0.417054  1
  Al  Al5  1  0.417055  0.926747  0.417054  1
  Al  Al6  1  0.500000  0.500000  0.500000  1
  Al  Al7  1  0.582946  0.073253  0.582946  1
  Al  Al8  1  0.073253  0.582946  0.582946  1
  Al  Al9  1  0.417054  0.417054  0.926747  1
  Pd  Pd10  1  0.335395  0.335395  0.335395  1
  Pd  Pd11  1  0.664605  0.664605  0.664605  1
