# generated using pymatgen
data_NaMoF7
_symmetry_space_group_name_H-M   'P 1'
_cell_length_a   5.46556262
_cell_length_b   5.32003613
_cell_length_c   6.47675600
_cell_angle_alpha   62.37820363
_cell_angle_beta   71.22490698
_cell_angle_gamma   98.27057356
_symmetry_Int_Tables_number   1
_chemical_formula_structural   NaMoF7
_chemical_formula_sum   'Na1 Mo1 F7'
_cell_volume   148.02734985
_cell_formula_units_Z   1
loop_
 _symmetry_equiv_pos_site_id
 _symmetry_equiv_pos_as_xyz
  1  'x, y, z'
loop_
 _atom_site_type_symbol
 _atom_site_label
 _atom_site_symmetry_multiplicity
 _atom_site_fract_x
 _atom_site_fract_y
 _atom_site_fract_z
 _atom_site_occupancy
  Na  Na0  1  0.870074  0.237088  0.747178  1
  Mo  Mo1  1  0.278543  0.620945  0.935989  1
  F  F2  1  0.573400  0.979485  0.628907  1
  F  F3  1  0.546436  0.735930  0.041232  1
  F  F4  1  0.483848  0.372657  0.895821  1
  F  F5  1  0.090764  0.895758  0.922606  1
  F  F6  1  0.961059  0.278342  0.073606  1
  F  F7  1  0.217489  0.665857  0.641699  1
  F  F8  1  0.088988  0.447052  0.306264  1
