# generated using pymatgen
data_Y2Ho2Al13Ga5Ir6
_symmetry_space_group_name_H-M   'P 1'
_cell_length_a   7.52946805
_cell_length_b   7.53023898
_cell_length_c   9.56407600
_cell_angle_alpha   90.00000000
_cell_angle_beta   90.00000000
_cell_angle_gamma   119.58827211
_symmetry_Int_Tables_number   1
_chemical_formula_structural   Y2Ho2Al13Ga5Ir6
_chemical_formula_sum   'Y2 Ho2 Al13 Ga5 Ir6'
_cell_volume   471.55636798
_cell_formula_units_Z   1
loop_
 _symmetry_equiv_pos_site_id
 _symmetry_equiv_pos_as_xyz
  1  'x, y, z'
loop_
 _atom_site_type_symbol
 _atom_site_label
 _atom_site_symmetry_multiplicity
 _atom_site_fract_x
 _atom_site_fract_y
 _atom_site_fract_z
 _atom_site_occupancy
  Y  Y0  1  0.995026  0.669870  0.250000  1
  Y  Y1  1  0.670154  0.996428  0.250000  1
  Ho  Ho2  1  0.000561  0.326366  0.750000  1
  Ho  Ho3  1  0.330342  0.006579  0.750000  1
  Al  Al4  1  0.002583  0.334891  0.071925  1
  Al  Al5  1  0.999458  0.665486  0.927127  1
  Al  Al6  1  0.999458  0.665486  0.572873  1
  Al  Al7  1  0.334750  0.001930  0.428255  1
  Al  Al8  1  0.002583  0.334891  0.428075  1
  Al  Al9  1  0.664818  0.998014  0.573098  1
  Al  Al10  1  0.664818  0.998014  0.926902  1
  Al  Al11  1  0.334750  0.001930  0.071745  1
  Al  Al12  1  0.333731  0.334159  0.557378  1
  Al  Al13  1  0.665835  0.665813  0.446638  1
  Al  Al14  1  0.665835  0.665813  0.053362  1
  Al  Al15  1  0.333731  0.334159  0.942622  1
  Al  Al16  1  0.450711  0.661782  0.750000  1
  Ga  Ga17  1  0.128697  0.128730  0.250000  1
  Ga  Ga18  1  0.870055  0.869280  0.750000  1
  Ga  Ga19  1  0.338537  0.547014  0.250000  1
  Ga  Ga20  1  0.662031  0.454297  0.750000  1
  Ga  Ga21  1  0.546886  0.339034  0.250000  1
  Ir  Ir22  1  0.672432  0.327965  0.000018  1
  Ir  Ir23  1  0.329310  0.671743  0.997547  1
  Ir  Ir24  1  0.329310  0.671743  0.502453  1
  Ir  Ir25  1  0.672432  0.327965  0.499982  1
  Ir  Ir26  1  0.000584  0.000309  0.999735  1
  Ir  Ir27  1  0.000584  0.000309  0.500265  1
