# generated using pymatgen
data_TbHo2Cr(Co4P3)2
_symmetry_space_group_name_H-M   'P 1'
_cell_length_a   3.68651800
_cell_length_b   10.50405400
_cell_length_c   12.16660200
_cell_angle_alpha   90.00000000
_cell_angle_beta   90.00000000
_cell_angle_gamma   90.00000000
_symmetry_Int_Tables_number   1
_chemical_formula_structural   TbHo2Cr(Co4P3)2
_chemical_formula_sum   'Tb2 Ho4 Cr2 Co16 P12'
_cell_volume   471.13200297
_cell_formula_units_Z   2
loop_
 _symmetry_equiv_pos_site_id
 _symmetry_equiv_pos_as_xyz
  1  'x, y, z'
loop_
 _atom_site_type_symbol
 _atom_site_label
 _atom_site_symmetry_multiplicity
 _atom_site_fract_x
 _atom_site_fract_y
 _atom_site_fract_z
 _atom_site_occupancy
  Tb  Tb0  1  0.000000  0.500000  0.522324  1
  Tb  Tb1  1  0.500000  0.000000  0.477676  1
  Ho  Ho2  1  0.500000  0.817916  0.204188  1
  Ho  Ho3  1  0.500000  0.182084  0.204188  1
  Ho  Ho4  1  0.000000  0.682084  0.795812  1
  Ho  Ho5  1  0.000000  0.317916  0.795812  1
  Cr  Cr6  1  0.500000  0.500000  0.154226  1
  Cr  Cr7  1  0.000000  0.000000  0.845774  1
  Co  Co8  1  0.000000  0.500000  0.987025  1
  Co  Co9  1  0.500000  0.000000  0.012975  1
  Co  Co10  1  0.500000  0.296120  0.430302  1
  Co  Co11  1  0.500000  0.703880  0.430302  1
  Co  Co12  1  0.000000  0.203880  0.569698  1
  Co  Co13  1  0.000000  0.796120  0.569698  1
  Co  Co14  1  0.500000  0.879301  0.709406  1
  Co  Co15  1  0.500000  0.120699  0.709406  1
  Co  Co16  1  0.000000  0.620699  0.290594  1
  Co  Co17  1  0.000000  0.379301  0.290594  1
  Co  Co18  1  0.500000  0.332528  0.992185  1
  Co  Co19  1  0.500000  0.667472  0.992185  1
  Co  Co20  1  0.000000  0.167472  0.007815  1
  Co  Co21  1  0.000000  0.832528  0.007815  1
  Co  Co22  1  0.500000  0.500000  0.702576  1
  Co  Co23  1  0.000000  0.000000  0.297424  1
  P  P24  1  0.500000  0.311049  0.616527  1
  P  P25  1  0.500000  0.688951  0.616527  1
  P  P26  1  0.000000  0.188951  0.383473  1
  P  P27  1  0.000000  0.811049  0.383473  1
  P  P28  1  0.500000  0.500000  0.881739  1
  P  P29  1  0.000000  0.000000  0.118261  1
  P  P30  1  0.500000  0.847986  0.892038  1
  P  P31  1  0.500000  0.152014  0.892038  1
  P  P32  1  0.000000  0.652014  0.107962  1
  P  P33  1  0.000000  0.347986  0.107962  1
  P  P34  1  0.500000  0.500000  0.342079  1
  P  P35  1  0.000000  0.000000  0.657921  1
