# generated using pymatgen
data_YOsI18
_symmetry_space_group_name_H-M   'P 1'
_cell_length_a   10.23500391
_cell_length_b   10.31227255
_cell_length_c   10.16126914
_cell_angle_alpha   94.03197382
_cell_angle_beta   93.84654058
_cell_angle_gamma   93.44754855
_symmetry_Int_Tables_number   1
_chemical_formula_structural   YOsI18
_chemical_formula_sum   'Y1 Os1 I18'
_cell_volume   1065.15000578
_cell_formula_units_Z   1
loop_
 _symmetry_equiv_pos_site_id
 _symmetry_equiv_pos_as_xyz
  1  'x, y, z'
loop_
 _atom_site_type_symbol
 _atom_site_label
 _atom_site_symmetry_multiplicity
 _atom_site_fract_x
 _atom_site_fract_y
 _atom_site_fract_z
 _atom_site_occupancy
  Y  Y0  1  0.500000  0.500000  0.500000  1
  Os  Os1  1  0.000000  0.000000  0.000000  1
  I  I2  1  0.795742  0.479033  0.523626  1
  I  I3  1  0.524387  0.794244  0.478707  1
  I  I4  1  0.481355  0.524567  0.797126  1
  I  I5  1  0.204258  0.520967  0.476374  1
  I  I6  1  0.475613  0.205756  0.521293  1
  I  I7  1  0.518645  0.475433  0.202874  1
  I  I8  1  0.902112  0.361741  0.765998  1
  I  I9  1  0.766179  0.896435  0.362232  1
  I  I10  1  0.361605  0.764323  0.900881  1
  I  I11  1  0.097888  0.638259  0.234002  1
  I  I12  1  0.233821  0.103565  0.637768  1
  I  I13  1  0.638395  0.235677  0.099119  1
  I  I14  1  0.005809  0.966555  0.735841  1
  I  I15  1  0.738983  0.001848  0.972749  1
  I  I16  1  0.968201  0.736181  0.998337  1
  I  I17  1  0.994191  0.033445  0.264159  1
  I  I18  1  0.261017  0.998152  0.027251  1
  I  I19  1  0.031799  0.263819  0.001663  1
