# generated using pymatgen
data_Tm3CdIn2Ga2Cu
_symmetry_space_group_name_H-M   'P 1'
_cell_length_a   7.17748400
_cell_length_b   7.16907785
_cell_length_c   4.33035500
_cell_angle_alpha   90.00000000
_cell_angle_beta   90.00000000
_cell_angle_gamma   120.03879543
_symmetry_Int_Tables_number   1
_chemical_formula_structural   Tm3CdIn2Ga2Cu
_chemical_formula_sum   'Tm3 Cd1 In2 Ga2 Cu1'
_cell_volume   192.89445861
_cell_formula_units_Z   1
loop_
 _symmetry_equiv_pos_site_id
 _symmetry_equiv_pos_as_xyz
  1  'x, y, z'
loop_
 _atom_site_type_symbol
 _atom_site_label
 _atom_site_symmetry_multiplicity
 _atom_site_fract_x
 _atom_site_fract_y
 _atom_site_fract_z
 _atom_site_occupancy
  Tm  Tm0  1  0.000205  0.582735  0.000000  1
  Tm  Tm1  1  0.417470  0.417265  0.000000  1
  Tm  Tm2  1  0.581269  0.000000  0.000000  1
  Cd  Cd3  1  0.246272  0.000000  0.500000  1
  In  In4  1  0.001562  0.245325  0.500000  1
  In  In5  1  0.756237  0.754675  0.500000  1
  Ga  Ga6  1  0.664620  0.331009  0.500000  1
  Ga  Ga7  1  0.333610  0.668991  0.500000  1
  Cu  Cu8  1  0.998757  0.000000  0.000000  1
