# generated using pymatgen
data_ErLu3(MnRe3)2
_symmetry_space_group_name_H-M   'P 1'
_cell_length_a   5.27863105
_cell_length_b   5.27863206
_cell_length_c   8.85091200
_cell_angle_alpha   90.00084871
_cell_angle_beta   89.99915150
_cell_angle_gamma   119.99753358
_symmetry_Int_Tables_number   1
_chemical_formula_structural   ErLu3(MnRe3)2
_chemical_formula_sum   'Er1 Lu3 Mn2 Re6'
_cell_volume   213.58568734
_cell_formula_units_Z   1
loop_
 _symmetry_equiv_pos_site_id
 _symmetry_equiv_pos_as_xyz
  1  'x, y, z'
loop_
 _atom_site_type_symbol
 _atom_site_label
 _atom_site_symmetry_multiplicity
 _atom_site_fract_x
 _atom_site_fract_y
 _atom_site_fract_z
 _atom_site_occupancy
  Er  Er0  1  0.666604  0.333396  0.063100  1
  Lu  Lu1  1  0.333386  0.666614  0.936061  1
  Lu  Lu2  1  0.333388  0.666612  0.563565  1
  Lu  Lu3  1  0.666611  0.333389  0.437070  1
  Mn  Mn4  1  0.999999  0.000001  0.999867  1
  Mn  Mn5  1  0.000034  0.999966  0.499694  1
  Re  Re6  1  0.168313  0.337113  0.250940  1
  Re  Re7  1  0.168304  0.831696  0.250939  1
  Re  Re8  1  0.662887  0.831687  0.250940  1
  Re  Re9  1  0.831884  0.663315  0.749271  1
  Re  Re10  1  0.831904  0.168096  0.749283  1
  Re  Re11  1  0.336685  0.168116  0.749271  1
