# generated using pymatgen
data_CsCeNpS4
_symmetry_space_group_name_H-M   'P 1'
_cell_length_a   4.07702600
_cell_length_b   6.82201374
_cell_length_c   8.58963500
_cell_angle_alpha   74.56811788
_cell_angle_beta   90.00000000
_cell_angle_gamma   90.00000000
_symmetry_Int_Tables_number   1
_chemical_formula_structural   CsCeNpS4
_chemical_formula_sum   'Cs1 Ce1 Np1 S4'
_cell_volume   230.29481279
_cell_formula_units_Z   1
loop_
 _symmetry_equiv_pos_site_id
 _symmetry_equiv_pos_as_xyz
  1  'x, y, z'
loop_
 _atom_site_type_symbol
 _atom_site_label
 _atom_site_symmetry_multiplicity
 _atom_site_fract_x
 _atom_site_fract_y
 _atom_site_fract_z
 _atom_site_occupancy
  Cs  Cs0  1  0.000000  0.500000  0.500000  1
  Ce  Ce1  1  0.000000  0.000000  0.000000  1
  Np  Np2  1  0.500000  0.500000  0.000000  1
  S  S3  1  0.500000  0.772171  0.179645  1
  S  S4  1  0.000000  0.285181  0.173574  1
  S  S5  1  0.500000  0.227829  0.820355  1
  S  S6  1  0.000000  0.714819  0.826426  1
