# generated using pymatgen
data_RbNdGeS4
_symmetry_space_group_name_H-M   'P 1'
_cell_length_a   6.66392243
_cell_length_b   6.82228200
_cell_length_c   9.12790673
_cell_angle_alpha   90.00000000
_cell_angle_beta   107.45910166
_cell_angle_gamma   90.00000000
_symmetry_Int_Tables_number   1
_chemical_formula_structural   RbNdGeS4
_chemical_formula_sum   'Rb2 Nd2 Ge2 S8'
_cell_volume   395.86574050
_cell_formula_units_Z   2
loop_
 _symmetry_equiv_pos_site_id
 _symmetry_equiv_pos_as_xyz
  1  'x, y, z'
loop_
 _atom_site_type_symbol
 _atom_site_label
 _atom_site_symmetry_multiplicity
 _atom_site_fract_x
 _atom_site_fract_y
 _atom_site_fract_z
 _atom_site_occupancy
  Rb  Rb0  1  0.775297  0.999513  0.067247  1
  Rb  Rb1  1  0.224703  0.499513  0.932753  1
  Nd  Nd2  1  0.272356  0.476914  0.451465  1
  Nd  Nd3  1  0.727643  0.976913  0.548535  1
  Ge  Ge4  1  0.720881  0.508827  0.325737  1
  Ge  Ge5  1  0.279120  0.008827  0.674263  1
  S  S6  1  0.922383  0.507740  0.173744  1
  S  S7  1  0.477277  0.745757  0.282762  1
  S  S8  1  0.519316  0.240544  0.299313  1
  S  S9  1  0.079280  0.067704  0.434176  1
  S  S10  1  0.920720  0.567704  0.565824  1
  S  S11  1  0.480683  0.740544  0.700688  1
  S  S12  1  0.522722  0.245758  0.717237  1
  S  S13  1  0.077616  0.007740  0.826255  1
