# generated using pymatgen
data_Li3(SmZn7)2
_symmetry_space_group_name_H-M   'P 1'
_cell_length_a   9.01679200
_cell_length_b   9.01679206
_cell_length_c   8.78914500
_cell_angle_alpha   90.00000000
_cell_angle_beta   90.00000000
_cell_angle_gamma   119.99999979
_symmetry_Int_Tables_number   1
_chemical_formula_structural   Li3(SmZn7)2
_chemical_formula_sum   'Li6 Sm4 Zn28'
_cell_volume   618.84426092
_cell_formula_units_Z   2
loop_
 _symmetry_equiv_pos_site_id
 _symmetry_equiv_pos_as_xyz
  1  'x, y, z'
loop_
 _atom_site_type_symbol
 _atom_site_label
 _atom_site_symmetry_multiplicity
 _atom_site_fract_x
 _atom_site_fract_y
 _atom_site_fract_z
 _atom_site_occupancy
  Li  Li0  1  0.500000  0.500000  0.500000  1
  Li  Li1  1  0.500000  0.000000  0.500000  1
  Li  Li2  1  0.000000  0.500000  0.500000  1
  Li  Li3  1  0.500000  0.500000  0.000000  1
  Li  Li4  1  0.500000  0.000000  0.000000  1
  Li  Li5  1  0.000000  0.500000  0.000000  1
  Sm  Sm6  1  0.000000  0.000000  0.250000  1
  Sm  Sm7  1  0.000000  0.000000  0.750000  1
  Sm  Sm8  1  0.333333  0.666667  0.750000  1
  Sm  Sm9  1  0.666667  0.333333  0.250000  1
  Zn  Zn10  1  0.333333  0.666667  0.401842  1
  Zn  Zn11  1  0.666667  0.333333  0.598158  1
  Zn  Zn12  1  0.666667  0.333333  0.901842  1
  Zn  Zn13  1  0.333333  0.666667  0.098158  1
  Zn  Zn14  1  0.333508  0.371979  0.250000  1
  Zn  Zn15  1  0.628021  0.961529  0.250000  1
  Zn  Zn16  1  0.038471  0.666492  0.250000  1
  Zn  Zn17  1  0.628021  0.666492  0.250000  1
  Zn  Zn18  1  0.038471  0.371979  0.250000  1
  Zn  Zn19  1  0.333508  0.961529  0.250000  1
  Zn  Zn20  1  0.666492  0.628021  0.750000  1
  Zn  Zn21  1  0.371979  0.038471  0.750000  1
  Zn  Zn22  1  0.961529  0.333508  0.750000  1
  Zn  Zn23  1  0.371979  0.333508  0.750000  1
  Zn  Zn24  1  0.961529  0.628021  0.750000  1
  Zn  Zn25  1  0.666492  0.038471  0.750000  1
  Zn  Zn26  1  0.164478  0.835522  0.518940  1
  Zn  Zn27  1  0.164478  0.328957  0.518940  1
  Zn  Zn28  1  0.671043  0.835522  0.518940  1
  Zn  Zn29  1  0.835522  0.164478  0.481060  1
  Zn  Zn30  1  0.835522  0.671043  0.481060  1
  Zn  Zn31  1  0.328957  0.164478  0.481060  1
  Zn  Zn32  1  0.835522  0.164478  0.018940  1
  Zn  Zn33  1  0.835522  0.671043  0.018940  1
  Zn  Zn34  1  0.328957  0.164478  0.018940  1
  Zn  Zn35  1  0.164478  0.835522  0.981060  1
  Zn  Zn36  1  0.164478  0.328957  0.981060  1
  Zn  Zn37  1  0.671043  0.835522  0.981060  1
