# generated using pymatgen
data_Tb7Ho(Si4Mo3)4
_symmetry_space_group_name_H-M   'P 1'
_cell_length_a   6.78809103
_cell_length_b   6.96338673
_cell_length_c   12.94443218
_cell_angle_alpha   89.97641246
_cell_angle_beta   89.99562693
_cell_angle_gamma   89.95219142
_symmetry_Int_Tables_number   1
_chemical_formula_structural   Tb7Ho(Si4Mo3)4
_chemical_formula_sum   'Tb7 Ho1 Si16 Mo12'
_cell_volume   611.85848679
_cell_formula_units_Z   1
loop_
 _symmetry_equiv_pos_site_id
 _symmetry_equiv_pos_as_xyz
  1  'x, y, z'
loop_
 _atom_site_type_symbol
 _atom_site_label
 _atom_site_symmetry_multiplicity
 _atom_site_fract_x
 _atom_site_fract_y
 _atom_site_fract_z
 _atom_site_occupancy
  Tb  Tb0  1  0.497297  0.333320  0.094100  1
  Tb  Tb1  1  0.997360  0.166604  0.405974  1
  Tb  Tb2  1  0.502768  0.666535  0.594100  1
  Tb  Tb3  1  0.002323  0.833216  0.906390  1
  Tb  Tb4  1  0.502482  0.666952  0.906333  1
  Tb  Tb5  1  0.002577  0.833438  0.594112  1
  Tb  Tb6  1  0.497198  0.333308  0.405332  1
  Ho  Ho7  1  0.996741  0.166989  0.094404  1
  Si  Si8  1  0.657974  0.042853  0.547735  1
  Si  Si9  1  0.158209  0.456786  0.952822  1
  Si  Si10  1  0.340394  0.958335  0.047967  1
  Si  Si11  1  0.841751  0.542725  0.452101  1
  Si  Si12  1  0.342115  0.957103  0.451872  1
  Si  Si13  1  0.842281  0.541201  0.047960  1
  Si  Si14  1  0.658398  0.042723  0.952846  1
  Si  Si15  1  0.158215  0.457491  0.547661  1
  Si  Si16  1  0.535260  0.364497  0.750345  1
  Si  Si17  1  0.035330  0.135181  0.750119  1
  Si  Si18  1  0.465058  0.635820  0.249607  1
  Si  Si19  1  0.965176  0.865683  0.249440  1
  Si  Si20  1  0.803309  0.627096  0.750346  1
  Si  Si21  1  0.303077  0.872265  0.750195  1
  Si  Si22  1  0.196028  0.371746  0.249402  1
  Si  Si23  1  0.697704  0.127900  0.249476  1
  Mo  Mo24  1  0.831104  0.334528  0.625590  1
  Mo  Mo25  1  0.330370  0.164903  0.874907  1
  Mo  Mo26  1  0.168942  0.665497  0.125383  1
  Mo  Mo27  1  0.669672  0.835217  0.374121  1
  Mo  Mo28  1  0.168770  0.665407  0.374007  1
  Mo  Mo29  1  0.669883  0.835369  0.125086  1
  Mo  Mo30  1  0.831441  0.333910  0.874991  1
  Mo  Mo31  1  0.330783  0.164979  0.625463  1
  Mo  Mo32  1  0.665673  0.000289  0.750273  1
  Mo  Mo33  1  0.165630  0.499658  0.750214  1
  Mo  Mo34  1  0.334170  0.000472  0.249595  1
  Mo  Mo35  1  0.834538  0.500003  0.249727  1
