# generated using pymatgen
data_Ce2Y7Ho(Al2Os3)2
_symmetry_space_group_name_H-M   'P 1'
_cell_length_a   8.48196577
_cell_length_b   8.40963263
_cell_length_c   8.39031753
_cell_angle_alpha   109.97966120
_cell_angle_beta   109.27607762
_cell_angle_gamma   110.13129180
_symmetry_Int_Tables_number   1
_chemical_formula_structural   Ce2Y7Ho(Al2Os3)2
_chemical_formula_sum   'Ce2 Y7 Ho1 Al4 Os6'
_cell_volume   455.07254085
_cell_formula_units_Z   1
loop_
 _symmetry_equiv_pos_site_id
 _symmetry_equiv_pos_as_xyz
  1  'x, y, z'
loop_
 _atom_site_type_symbol
 _atom_site_label
 _atom_site_symmetry_multiplicity
 _atom_site_fract_x
 _atom_site_fract_y
 _atom_site_fract_z
 _atom_site_occupancy
  Ce  Ce0  1  0.939196  0.251419  0.191868  1
  Ce  Ce1  1  0.193335  0.937625  0.251522  1
  Y  Y2  1  0.320760  0.570772  0.754466  1
  Y  Y3  1  0.751043  0.320527  0.571997  1
  Y  Y4  1  0.570348  0.748071  0.316704  1
  Y  Y5  1  0.719483  0.503975  0.997916  1
  Y  Y6  1  0.000041  0.719433  0.507809  1
  Y  Y7  1  0.502070  0.992297  0.715865  1
  Y  Y8  1  0.252556  0.184681  0.928334  1
  Ho  Ho9  1  0.784902  0.788052  0.781329  1
  Al  Al10  1  0.416153  0.411835  0.412031  1
  Al  Al11  1  0.089899  0.492178  0.997234  1
  Al  Al12  1  0.996581  0.088636  0.498265  1
  Al  Al13  1  0.500602  0.009409  0.093130  1
  Os  Os14  1  0.873075  0.119428  0.741649  1
  Os  Os15  1  0.749178  0.897030  0.121064  1
  Os  Os16  1  0.127361  0.757284  0.901607  1
  Os  Os17  1  0.231908  0.596949  0.363654  1
  Os  Os18  1  0.358507  0.228916  0.601162  1
  Os  Os19  1  0.623001  0.381481  0.252392  1
