# generated using pymatgen
data_Sm6EuIrI12
_symmetry_space_group_name_H-M   'P 1'
_cell_length_a   9.92030937
_cell_length_b   9.92030903
_cell_length_c   9.92030900
_cell_angle_alpha   106.76752211
_cell_angle_beta   106.76750944
_cell_angle_gamma   106.76752102
_symmetry_Int_Tables_number   1
_chemical_formula_structural   Sm6EuIrI12
_chemical_formula_sum   'Sm6 Eu1 Ir1 I12'
_cell_volume   818.15915591
_cell_formula_units_Z   1
loop_
 _symmetry_equiv_pos_site_id
 _symmetry_equiv_pos_as_xyz
  1  'x, y, z'
loop_
 _atom_site_type_symbol
 _atom_site_label
 _atom_site_symmetry_multiplicity
 _atom_site_fract_x
 _atom_site_fract_y
 _atom_site_fract_z
 _atom_site_occupancy
  Sm  Sm0  1  0.904261  0.978636  0.698742  1
  Sm  Sm1  1  0.698742  0.904261  0.978636  1
  Sm  Sm2  1  0.978636  0.698742  0.904261  1
  Sm  Sm3  1  0.095739  0.021364  0.301258  1
  Sm  Sm4  1  0.301258  0.095739  0.021364  1
  Sm  Sm5  1  0.021364  0.301258  0.095739  1
  Eu  Eu6  1  0.500000  0.500000  0.500000  1
  Ir  Ir7  1  0.000000  0.000000  0.000000  1
  I  I8  1  0.924969  0.321398  0.773490  1
  I  I9  1  0.773490  0.924969  0.321398  1
  I  I10  1  0.321398  0.773490  0.924969  1
  I  I11  1  0.075031  0.678602  0.226510  1
  I  I12  1  0.226510  0.075031  0.678602  1
  I  I13  1  0.678602  0.226510  0.075031  1
  I  I14  1  0.545260  0.855964  0.625319  1
  I  I15  1  0.625319  0.545260  0.855964  1
  I  I16  1  0.855964  0.625319  0.545260  1
  I  I17  1  0.454740  0.144036  0.374681  1
  I  I18  1  0.374681  0.454740  0.144036  1
  I  I19  1  0.144036  0.374681  0.454740  1
