# generated using pymatgen
data_Li2Pr8AlZn5Rh8
_symmetry_space_group_name_H-M   'P 1'
_cell_length_a   4.10241700
_cell_length_b   7.29087051
_cell_length_c   16.60962975
_cell_angle_alpha   89.92059526
_cell_angle_beta   90.00000000
_cell_angle_gamma   90.00000000
_symmetry_Int_Tables_number   1
_chemical_formula_structural   Li2Pr8AlZn5Rh8
_chemical_formula_sum   'Li2 Pr8 Al1 Zn5 Rh8'
_cell_volume   496.79672329
_cell_formula_units_Z   1
loop_
 _symmetry_equiv_pos_site_id
 _symmetry_equiv_pos_as_xyz
  1  'x, y, z'
loop_
 _atom_site_type_symbol
 _atom_site_label
 _atom_site_symmetry_multiplicity
 _atom_site_fract_x
 _atom_site_fract_y
 _atom_site_fract_z
 _atom_site_occupancy
  Li  Li0  1  0.750000  0.506105  0.939747  1
  Li  Li1  1  0.750000  0.007152  0.561969  1
  Pr  Pr2  1  0.750000  0.452426  0.216864  1
  Pr  Pr3  1  0.750000  0.953661  0.280169  1
  Pr  Pr4  1  0.750000  0.830329  0.059799  1
  Pr  Pr5  1  0.250000  0.046671  0.717540  1
  Pr  Pr6  1  0.250000  0.164124  0.940014  1
  Pr  Pr7  1  0.250000  0.545737  0.782875  1
  Pr  Pr8  1  0.750000  0.336940  0.439866  1
  Pr  Pr9  1  0.250000  0.663858  0.562118  1
  Al  Al10  1  0.250000  0.997445  0.440658  1
  Zn  Zn11  1  0.250000  0.628145  0.349327  1
  Zn  Zn12  1  0.750000  0.369054  0.648746  1
  Zn  Zn13  1  0.750000  0.871558  0.850841  1
  Zn  Zn14  1  0.250000  0.496805  0.058458  1
  Zn  Zn15  1  0.250000  0.126261  0.148530  1
  Rh  Rh16  1  0.250000  0.245846  0.561448  1
  Rh  Rh17  1  0.750000  0.255302  0.066497  1
  Rh  Rh18  1  0.250000  0.238839  0.316855  1
  Rh  Rh19  1  0.750000  0.247773  0.811543  1
  Rh  Rh20  1  0.250000  0.752807  0.935522  1
  Rh  Rh21  1  0.750000  0.746395  0.688826  1
  Rh  Rh22  1  0.750000  0.772983  0.434625  1
  Rh  Rh23  1  0.250000  0.743783  0.187166  1
