# generated using pymatgen
data_Yb3HoMoOs7
_symmetry_space_group_name_H-M   'P 1'
_cell_length_a   5.39226200
_cell_length_b   5.39226074
_cell_length_c   8.58215900
_cell_angle_alpha   90.00000000
_cell_angle_beta   90.00000000
_cell_angle_gamma   119.99999545
_symmetry_Int_Tables_number   1
_chemical_formula_structural   Yb3HoMoOs7
_chemical_formula_sum   'Yb3 Ho1 Mo1 Os7'
_cell_volume   216.10712107
_cell_formula_units_Z   1
loop_
 _symmetry_equiv_pos_site_id
 _symmetry_equiv_pos_as_xyz
  1  'x, y, z'
loop_
 _atom_site_type_symbol
 _atom_site_label
 _atom_site_symmetry_multiplicity
 _atom_site_fract_x
 _atom_site_fract_y
 _atom_site_fract_z
 _atom_site_occupancy
  Yb  Yb0  1  0.666667  0.333333  0.574347  1
  Yb  Yb1  1  0.666667  0.333333  0.935639  1
  Yb  Yb2  1  0.333333  0.666667  0.058846  1
  Ho  Ho3  1  0.333333  0.666667  0.427376  1
  Mo  Mo4  1  0.000000  0.000000  0.501024  1
  Os  Os5  1  0.000000  0.000000  0.001616  1
  Os  Os6  1  0.827020  0.172980  0.251127  1
  Os  Os7  1  0.827020  0.654039  0.251127  1
  Os  Os8  1  0.345961  0.172980  0.251127  1
  Os  Os9  1  0.172519  0.827481  0.749256  1
  Os  Os10  1  0.172519  0.345037  0.749256  1
  Os  Os11  1  0.654963  0.827481  0.749256  1
