# generated using pymatgen
data_TbYHf2Zr4F30
_symmetry_space_group_name_H-M   'P 1'
_cell_length_a   8.20559162
_cell_length_b   8.20559181
_cell_length_c   8.19326120
_cell_angle_alpha   79.80879646
_cell_angle_beta   79.80879361
_cell_angle_gamma   100.12286153
_symmetry_Int_Tables_number   1
_chemical_formula_structural   TbYHf2Zr4F30
_chemical_formula_sum   'Tb1 Y1 Hf2 Zr4 F30'
_cell_volume   522.04473440
_cell_formula_units_Z   1
loop_
 _symmetry_equiv_pos_site_id
 _symmetry_equiv_pos_as_xyz
  1  'x, y, z'
loop_
 _atom_site_type_symbol
 _atom_site_label
 _atom_site_symmetry_multiplicity
 _atom_site_fract_x
 _atom_site_fract_y
 _atom_site_fract_z
 _atom_site_occupancy
  Tb  Tb0  1  0.178098  0.821902  0.250000  1
  Y  Y1  1  0.821847  0.178153  0.750000  1
  Hf  Hf2  1  0.751034  0.248966  0.250000  1
  Hf  Hf3  1  0.248991  0.751009  0.750000  1
  Zr  Zr4  1  0.747505  0.677638  0.675146  1
  Zr  Zr5  1  0.322362  0.252495  0.824854  1
  Zr  Zr6  1  0.252396  0.322311  0.325050  1
  Zr  Zr7  1  0.677689  0.747604  0.174950  1
  F  F8  1  0.315694  0.349689  0.053451  1
  F  F9  1  0.935392  0.812557  0.150930  1
  F  F10  1  0.844638  0.461597  0.683259  1
  F  F11  1  0.462036  0.844795  0.183072  1
  F  F12  1  0.812497  0.935558  0.651211  1
  F  F13  1  0.349695  0.315708  0.553406  1
  F  F14  1  0.684292  0.650305  0.946593  1
  F  F15  1  0.064442  0.187503  0.848789  1
  F  F16  1  0.155205  0.537964  0.316928  1
  F  F17  1  0.538403  0.155362  0.816741  1
  F  F18  1  0.187443  0.064608  0.349070  1
  F  F19  1  0.650311  0.684306  0.446549  1
  F  F20  1  0.774241  0.280421  0.999347  1
  F  F21  1  0.003597  0.275591  0.220783  1
  F  F22  1  0.775137  0.503415  0.223985  1
  F  F23  1  0.503421  0.775103  0.724001  1
  F  F24  1  0.275639  0.003576  0.720786  1
  F  F25  1  0.280576  0.774202  0.499343  1
  F  F26  1  0.225798  0.719424  0.000657  1
  F  F27  1  0.996424  0.724361  0.779214  1
  F  F28  1  0.224897  0.496579  0.775999  1
  F  F29  1  0.496585  0.224863  0.276015  1
  F  F30  1  0.724409  0.996403  0.279217  1
  F  F31  1  0.719579  0.225759  0.500653  1
  F  F32  1  0.466600  0.533400  0.250000  1
  F  F33  1  0.747404  0.954275  0.971488  1
  F  F34  1  0.045725  0.252596  0.528512  1
  F  F35  1  0.252754  0.046123  0.028096  1
  F  F36  1  0.953877  0.747246  0.471904  1
  F  F37  1  0.533368  0.466632  0.750000  1
