# generated using pymatgen
data_La5Nd3(AsBr6)2
_symmetry_space_group_name_H-M   'P 1'
_cell_length_a   4.27536400
_cell_length_b   13.85992371
_cell_length_c   14.73569200
_cell_angle_alpha   89.83323754
_cell_angle_beta   90.00000000
_cell_angle_gamma   90.00000000
_symmetry_Int_Tables_number   1
_chemical_formula_structural   La5Nd3(AsBr6)2
_chemical_formula_sum   'La5 Nd3 As2 Br12'
_cell_volume   873.17769163
_cell_formula_units_Z   1
loop_
 _symmetry_equiv_pos_site_id
 _symmetry_equiv_pos_as_xyz
  1  'x, y, z'
loop_
 _atom_site_type_symbol
 _atom_site_label
 _atom_site_symmetry_multiplicity
 _atom_site_fract_x
 _atom_site_fract_y
 _atom_site_fract_z
 _atom_site_occupancy
  La  La0  1  0.500000  0.119760  0.337365  1
  La  La1  1  0.500000  0.877807  0.661076  1
  La  La2  1  0.500000  0.620739  0.161683  1
  La  La3  1  0.500000  0.380518  0.839855  1
  La  La4  1  0.000000  0.119182  0.578647  1
  Nd  Nd5  1  0.000000  0.882857  0.422715  1
  Nd  Nd6  1  0.000000  0.616040  0.923363  1
  Nd  Nd7  1  0.000000  0.383983  0.076714  1
  As  As8  1  0.500000  0.999133  0.499486  1
  As  As9  1  0.500000  0.500580  0.000833  1
  Br  Br10  1  0.500000  0.246378  0.160276  1
  Br  Br11  1  0.500000  0.753446  0.839643  1
  Br  Br12  1  0.500000  0.745658  0.338878  1
  Br  Br13  1  0.500000  0.257895  0.662198  1
  Br  Br14  1  0.000000  0.255036  0.410635  1
  Br  Br15  1  0.000000  0.744653  0.585344  1
  Br  Br16  1  0.000000  0.754243  0.085390  1
  Br  Br17  1  0.000000  0.245831  0.914564  1
  Br  Br18  1  0.000000  0.998492  0.245235  1
  Br  Br19  1  0.000000  0.997637  0.755952  1
  Br  Br20  1  0.000000  0.498887  0.254090  1
  Br  Br21  1  0.000000  0.501247  0.746057  1
