# generated using pymatgen
data_Hf3Mo2As3Ru
_symmetry_space_group_name_H-M   'P 1'
_cell_length_a   7.01889070
_cell_length_b   6.93003357
_cell_length_c   3.58466600
_cell_angle_alpha   90.00000000
_cell_angle_beta   90.00000000
_cell_angle_gamma   119.58209752
_symmetry_Int_Tables_number   1
_chemical_formula_structural   Hf3Mo2As3Ru
_chemical_formula_sum   'Hf3 Mo2 As3 Ru1'
_cell_volume   151.63401272
_cell_formula_units_Z   1
loop_
 _symmetry_equiv_pos_site_id
 _symmetry_equiv_pos_as_xyz
  1  'x, y, z'
loop_
 _atom_site_type_symbol
 _atom_site_label
 _atom_site_symmetry_multiplicity
 _atom_site_fract_x
 _atom_site_fract_y
 _atom_site_fract_z
 _atom_site_occupancy
  Hf  Hf0  1  0.409025  0.402420  0.500000  1
  Hf  Hf1  1  0.590975  0.993395  0.500000  1
  Hf  Hf2  1  0.000000  0.597728  0.500000  1
  Mo  Mo3  1  0.748646  0.749323  0.000000  1
  Mo  Mo4  1  0.251354  0.000677  0.000000  1
  As  As5  1  0.669491  0.331018  0.000000  1
  As  As6  1  0.330509  0.661528  0.000000  1
  As  As7  1  0.000000  0.010687  0.500000  1
  Ru  Ru8  1  0.000000  0.253225  0.000000  1
