# generated using pymatgen
data_BeTc4B7Mo8
_symmetry_space_group_name_H-M   'P 1'
_cell_length_a   3.10666300
_cell_length_b   7.57291752
_cell_length_c   9.69762416
_cell_angle_alpha   90.23937040
_cell_angle_beta   90.00000000
_cell_angle_gamma   90.00000000
_symmetry_Int_Tables_number   1
_chemical_formula_structural   BeTc4B7Mo8
_chemical_formula_sum   'Be1 Tc4 B7 Mo8'
_cell_volume   228.14918955
_cell_formula_units_Z   1
loop_
 _symmetry_equiv_pos_site_id
 _symmetry_equiv_pos_as_xyz
  1  'x, y, z'
loop_
 _atom_site_type_symbol
 _atom_site_label
 _atom_site_symmetry_multiplicity
 _atom_site_fract_x
 _atom_site_fract_y
 _atom_site_fract_z
 _atom_site_occupancy
  Be  Be0  1  0.500000  0.118414  0.462437  1
  Tc  Tc1  1  0.500000  0.623093  0.396073  1
  Tc  Tc2  1  0.500000  0.378846  0.604649  1
  Tc  Tc3  1  0.000000  0.875643  0.896317  1
  Tc  Tc4  1  0.000000  0.121890  0.103246  1
  B  B5  1  0.500000  0.881769  0.541977  1
  B  B6  1  0.000000  0.385926  0.958959  1
  B  B7  1  0.000000  0.614036  0.039979  1
  B  B8  1  0.500000  0.122137  0.262362  1
  B  B9  1  0.500000  0.876870  0.734648  1
  B  B10  1  0.000000  0.377474  0.765906  1
  B  B11  1  0.000000  0.621290  0.233151  1
  Mo  Mo12  1  0.500000  0.809616  0.130729  1
  Mo  Mo13  1  0.500000  0.190745  0.869828  1
  Mo  Mo14  1  0.000000  0.689056  0.630509  1
  Mo  Mo15  1  0.000000  0.317330  0.365194  1
  Mo  Mo16  1  0.500000  0.578403  0.862248  1
  Mo  Mo17  1  0.500000  0.421384  0.136520  1
  Mo  Mo18  1  0.000000  0.918663  0.360827  1
  Mo  Mo19  1  0.000000  0.077417  0.644438  1
