# generated using pymatgen
data_Zr3MnGa3Pd2
_symmetry_space_group_name_H-M   'P 1'
_cell_length_a   7.26503400
_cell_length_b   7.26503313
_cell_length_c   6.77141900
_cell_angle_alpha   90.00000000
_cell_angle_beta   90.00000000
_cell_angle_gamma   120.00000396
_symmetry_Int_Tables_number   1
_chemical_formula_structural   Zr3MnGa3Pd2
_chemical_formula_sum   'Zr6 Mn2 Ga6 Pd4'
_cell_volume   309.51774485
_cell_formula_units_Z   2
loop_
 _symmetry_equiv_pos_site_id
 _symmetry_equiv_pos_as_xyz
  1  'x, y, z'
loop_
 _atom_site_type_symbol
 _atom_site_label
 _atom_site_symmetry_multiplicity
 _atom_site_fract_x
 _atom_site_fract_y
 _atom_site_fract_z
 _atom_site_occupancy
  Zr  Zr0  1  0.747064  0.054541  0.000000  1
  Zr  Zr1  1  0.307476  0.252936  0.000000  1
  Zr  Zr2  1  0.945459  0.692524  0.000000  1
  Zr  Zr3  1  0.309785  0.253354  0.500000  1
  Zr  Zr4  1  0.746646  0.056430  0.500000  1
  Zr  Zr5  1  0.943570  0.690215  0.500000  1
  Mn  Mn6  1  0.000000  0.000000  0.250907  1
  Mn  Mn7  1  0.000000  0.000000  0.749093  1
  Ga  Ga8  1  0.609039  0.667506  0.749986  1
  Ga  Ga9  1  0.058468  0.390961  0.749986  1
  Ga  Ga10  1  0.332494  0.941532  0.749986  1
  Ga  Ga11  1  0.609039  0.667506  0.250014  1
  Ga  Ga12  1  0.058468  0.390961  0.250014  1
  Ga  Ga13  1  0.332494  0.941532  0.250014  1
  Pd  Pd14  1  0.333333  0.666667  0.000000  1
  Pd  Pd15  1  0.333333  0.666667  0.500000  1
  Pd  Pd16  1  0.666667  0.333333  0.753930  1
  Pd  Pd17  1  0.666667  0.333333  0.246070  1
