# generated using pymatgen
data_Hf7MgFe7Si16Ru5
_symmetry_space_group_name_H-M   'P 1'
_cell_length_a   9.72409858
_cell_length_b   9.70340738
_cell_length_c   13.04222637
_cell_angle_alpha   53.66582003
_cell_angle_beta   53.62337782
_cell_angle_gamma   31.13771739
_symmetry_Int_Tables_number   1
_chemical_formula_structural   Hf7MgFe7Si16Ru5
_chemical_formula_sum   'Hf7 Mg1 Fe7 Si16 Ru5'
_cell_volume   501.59594171
_cell_formula_units_Z   1
loop_
 _symmetry_equiv_pos_site_id
 _symmetry_equiv_pos_as_xyz
  1  'x, y, z'
loop_
 _atom_site_type_symbol
 _atom_site_label
 _atom_site_symmetry_multiplicity
 _atom_site_fract_x
 _atom_site_fract_y
 _atom_site_fract_z
 _atom_site_occupancy
  Hf  Hf0  1  0.438519  0.707504  0.851094  1
  Hf  Hf1  1  0.703355  0.440229  0.357379  1
  Hf  Hf2  1  0.559352  0.297146  0.143819  1
  Hf  Hf3  1  0.038732  0.296066  0.637127  1
  Hf  Hf4  1  0.706297  0.961489  0.860162  1
  Hf  Hf5  1  0.960712  0.705897  0.361008  1
  Hf  Hf6  1  0.292646  0.039744  0.139789  1
  Mg  Mg7  1  0.305522  0.564119  0.639596  1
  Fe  Fe8  1  0.649759  0.824271  0.278224  1
  Fe  Fe9  1  0.173134  0.346257  0.222869  1
  Fe  Fe10  1  0.769246  0.475083  0.070377  1
  Fe  Fe11  1  0.823063  0.649948  0.781809  1
  Fe  Fe12  1  0.904898  0.139589  0.584032  1
  Fe  Fe13  1  0.857982  0.096479  0.918591  1
  Fe  Fe14  1  0.097246  0.864319  0.413277  1
  Si  Si15  1  0.876593  0.126305  0.251623  1
  Si  Si16  1  0.112729  0.885910  0.749810  1
  Si  Si17  1  0.384452  0.620346  0.250092  1
  Si  Si18  1  0.631596  0.369784  0.749710  1
  Si  Si19  1  0.957753  0.266282  0.894707  1
  Si  Si20  1  0.752354  0.031369  0.603412  1
  Si  Si21  1  0.021654  0.740496  0.109250  1
  Si  Si22  1  0.251265  0.976045  0.391704  1
  Si  Si23  1  0.574104  0.082055  0.068978  1
  Si  Si24  1  0.915397  0.425636  0.432821  1
  Si  Si25  1  0.439163  0.900863  0.937200  1
  Si  Si26  1  0.083263  0.584032  0.566943  1
  Si  Si27  1  0.388502  0.140315  0.389183  1
  Si  Si28  1  0.859147  0.605303  0.109232  1
  Si  Si29  1  0.618191  0.851903  0.604710  1
  Si  Si30  1  0.132104  0.394225  0.894253  1
  Ru  Ru31  1  0.135619  0.900535  0.085242  1
  Ru  Ru32  1  0.240432  0.514931  0.935889  1
  Ru  Ru33  1  0.481078  0.762582  0.562930  1
  Ru  Ru34  1  0.513666  0.238571  0.432283  1
  Ru  Ru35  1  0.350475  0.174369  0.720878  1
