# generated using pymatgen
data_Yb2Y2B16Os3Ru
_symmetry_space_group_name_H-M   'P 1'
_cell_length_a   3.55326800
_cell_length_b   5.97184021
_cell_length_c   11.54408695
_cell_angle_alpha   89.88769244
_cell_angle_beta   90.00000000
_cell_angle_gamma   90.00000000
_symmetry_Int_Tables_number   1
_chemical_formula_structural   Yb2Y2B16Os3Ru
_chemical_formula_sum   'Yb2 Y2 B16 Os3 Ru1'
_cell_volume   244.95984498
_cell_formula_units_Z   1
loop_
 _symmetry_equiv_pos_site_id
 _symmetry_equiv_pos_as_xyz
  1  'x, y, z'
loop_
 _atom_site_type_symbol
 _atom_site_label
 _atom_site_symmetry_multiplicity
 _atom_site_fract_x
 _atom_site_fract_y
 _atom_site_fract_z
 _atom_site_occupancy
  Yb  Yb0  1  0.500000  0.129074  0.350787  1
  Yb  Yb1  1  0.500000  0.870929  0.649478  1
  Y  Y2  1  0.500000  0.628920  0.150572  1
  Y  Y3  1  0.500000  0.371294  0.849591  1
  B  B4  1  0.000000  0.975468  0.192220  1
  B  B5  1  0.000000  0.024477  0.807627  1
  B  B6  1  0.000000  0.475160  0.309323  1
  B  B7  1  0.000000  0.525320  0.690764  1
  B  B8  1  0.000000  0.789109  0.315818  1
  B  B9  1  0.000000  0.210716  0.684110  1
  B  B10  1  0.000000  0.286653  0.186237  1
  B  B11  1  0.000000  0.713086  0.813961  1
  B  B12  1  0.000000  0.864007  0.469684  1
  B  B13  1  0.000000  0.136006  0.530353  1
  B  B14  1  0.000000  0.363337  0.030555  1
  B  B15  1  0.000000  0.636558  0.969190  1
  B  B16  1  0.000000  0.888316  0.047251  1
  B  B17  1  0.000000  0.111653  0.952586  1
  B  B18  1  0.000000  0.385951  0.453308  1
  B  B19  1  0.000000  0.614062  0.546710  1
  Os  Os20  1  0.500000  0.636967  0.409821  1
  Os  Os21  1  0.500000  0.362885  0.590233  1
  Os  Os22  1  0.500000  0.140501  0.091360  1
  Ru  Ru23  1  0.500000  0.859550  0.908463  1
